MODEL 1
REMARK VINA RESULT:      -5.7      0.000      0.000
REMARK  7 active torsions:
REMARK  status: ('A' for Active; 'I' for Inactive)
REMARK    1  A    between atoms: C_2  and  C_3 
REMARK    2  A    between atoms: C_3  and  O_6 
REMARK    3  A    between atoms: C_3  and  C_4 
REMARK    4  A    between atoms: C_7  and  O_6 
REMARK    5  A    between atoms: C_9  and  C_10 
REMARK    6  A    between atoms: N_15  and  C_14 
REMARK    7  A    between atoms: N_20  and  C_19 
REMARK       I    between atoms: C_22  and  N_20 
ROOT
ATOM      1  C   LIG d   1      -3.196  76.351 114.764  0.00  0.00     0.161 C 
ATOM      2  C   LIG d   1      -3.431  77.326 113.780  0.00  0.00     0.016 C 
ATOM      3  C   LIG d   1      -2.401  77.932 113.024  0.00  0.00     0.038 C 
ATOM      4  C   LIG d   1      -1.071  77.493 113.096  0.00  0.00     0.028 C 
ATOM      5  C   LIG d   1      -0.714  76.862 114.438  0.00  0.00    -0.047 C 
ATOM      6  C   LIG d   1      -1.763  75.779 114.779  0.00  0.00     0.091 C 
ENDROOT
BRANCH   1   7
ATOM      7  O   LIG d   1      -4.160  75.287 114.636  0.00  0.00    -0.368 OA
BRANCH   7   8
ATOM      8  C   LIG d   1      -5.434  75.498 115.292  0.00  0.00     0.119 C 
BRANCH   8   9
ATOM      9  C   LIG d   1      -5.171  76.344 116.554  0.00  0.00     0.028 C 
ATOM     10  C   LIG d   1      -6.109  77.559 116.652  0.00  0.00     0.006 C 
ENDBRANCH   8   9
BRANCH   8  11
ATOM     11  C   LIG d   1      -6.023  74.181 115.804  0.00  0.00     0.028 C 
ATOM     12  C   LIG d   1      -7.351  74.373 116.553  0.00  0.00     0.006 C 
ENDBRANCH   8  11
ENDBRANCH   7   8
ENDBRANCH   1   7
BRANCH   6  13
ATOM     13  N   LIG d   1      -1.536  75.170 116.115  0.00  0.00    -0.311 N 
ATOM     14  C   LIG d   1      -1.534  75.870 117.249  0.00  0.00     0.210 C 
ATOM     15  C   LIG d   1      -1.260  75.050 118.514  0.00  0.00     0.109 C 
ATOM     16  O   LIG d   1      -1.764  77.086 117.330  0.00  0.00    -0.276 OA
ATOM     17  H   LIG d   1      -1.372  74.183 116.145  0.00  0.00     0.149 HD
ENDBRANCH   6  13
BRANCH   5  18
ATOM     18  N   LIG d   1       0.656  76.325 114.327  0.00  0.00     0.381 N 
ATOM     19  H   LIG d   1       1.244  76.755 115.012  0.00  0.00    -0.090 HD
ATOM     20  H   LIG d   1       1.018  76.545 113.417  0.00  0.00    -0.090 HD
ATOM     21  H   LIG d   1       0.646  75.337 114.460  0.00  0.00    -0.090 HD
ENDBRANCH   5  18
BRANCH   3  22
ATOM     22  C   LIG d   1      -2.693  79.019 112.213  0.00  0.00     0.382 C 
ATOM     23  O   LIG d   1      -2.155  79.120 111.084  0.00  0.00    -0.241 OA
ATOM     24  O   LIG d   1      -3.452  79.921 112.614  0.00  0.00    -0.241 OA
ENDBRANCH   3  22
TORSDOF 7
ENDMDL
MODEL 2
REMARK VINA RESULT:      -5.2      1.755      4.875
REMARK  7 active torsions:
REMARK  status: ('A' for Active; 'I' for Inactive)
REMARK    1  A    between atoms: C_2  and  C_3 
REMARK    2  A    between atoms: C_3  and  O_6 
REMARK    3  A    between atoms: C_3  and  C_4 
REMARK    4  A    between atoms: C_7  and  O_6 
REMARK    5  A    between atoms: C_9  and  C_10 
REMARK    6  A    between atoms: N_15  and  C_14 
REMARK    7  A    between atoms: N_20  and  C_19 
REMARK       I    between atoms: C_22  and  N_20 
ROOT
ATOM      1  C   LIG d   1      -1.575  75.804 115.404  0.00  0.00     0.161 C 
ATOM      2  C   LIG d   1      -1.507  75.445 116.760  0.00  0.00     0.016 C 
ATOM      3  C   LIG d   1      -0.796  76.191 117.728  0.00  0.00     0.038 C 
ATOM      4  C   LIG d   1      -0.227  77.439 117.431  0.00  0.00     0.028 C 
ATOM      5  C   LIG d   1       0.160  77.594 115.964  0.00  0.00    -0.047 C 
ATOM      6  C   LIG d   1      -1.054  77.220 115.082  0.00  0.00     0.091 C 
ENDROOT
BRANCH   1   7
ATOM      7  O   LIG d   1      -2.925  75.646 114.924  0.00  0.00    -0.368 OA
BRANCH   7   8
ATOM      8  C   LIG d   1      -3.955  75.551 115.939  0.00  0.00     0.119 C 
BRANCH   8   9
ATOM      9  C   LIG d   1      -5.072  74.648 115.381  0.00  0.00     0.028 C 
ATOM     10  C   LIG d   1      -5.722  75.232 114.115  0.00  0.00     0.006 C 
ENDBRANCH   8   9
BRANCH   8  11
ATOM     11  C   LIG d   1      -4.618  76.909 116.188  0.00  0.00     0.028 C 
ATOM     12  C   LIG d   1      -4.555  77.341 117.662  0.00  0.00     0.006 C 
ENDBRANCH   8  11
ENDBRANCH   7   8
ENDBRANCH   1   7
BRANCH   6  13
ATOM     13  N   LIG d   1      -0.735  77.264 113.631  0.00  0.00    -0.311 N 
ATOM     14  C   LIG d   1      -1.519  77.847 112.726  0.00  0.00     0.210 C 
ATOM     15  C   LIG d   1      -1.014  77.761 111.282  0.00  0.00     0.109 C 
ATOM     16  O   LIG d   1      -2.568  78.456 112.986  0.00  0.00    -0.276 OA
ATOM     17  H   LIG d   1       0.113  76.821 113.337  0.00  0.00     0.149 HD
ENDBRANCH   6  13
BRANCH   5  18
ATOM     18  N   LIG d   1       0.611  78.984 115.767  0.00  0.00     0.381 N 
ATOM     19  H   LIG d   1       1.037  79.325 116.606  0.00  0.00    -0.090 HD
ATOM     20  H   LIG d   1      -0.187  79.559 115.563  0.00  0.00    -0.090 HD
ATOM     21  H   LIG d   1       1.262  79.028 115.014  0.00  0.00    -0.090 HD
ENDBRANCH   5  18
BRANCH   3  22
ATOM     22  C   LIG d   1      -0.615  75.671 119.000  0.00  0.00     0.382 C 
ATOM     23  O   LIG d   1       0.391  75.998 119.674  0.00  0.00    -0.241 OA
ATOM     24  O   LIG d   1      -1.423  74.845 119.466  0.00  0.00    -0.241 OA
ENDBRANCH   3  22
TORSDOF 7
ENDMDL
MODEL 3
REMARK VINA RESULT:      -4.3      2.025      5.082
REMARK  7 active torsions:
REMARK  status: ('A' for Active; 'I' for Inactive)
REMARK    1  A    between atoms: C_2  and  C_3 
REMARK    2  A    between atoms: C_3  and  O_6 
REMARK    3  A    between atoms: C_3  and  C_4 
REMARK    4  A    between atoms: C_7  and  O_6 
REMARK    5  A    between atoms: C_9  and  C_10 
REMARK    6  A    between atoms: N_15  and  C_14 
REMARK    7  A    between atoms: N_20  and  C_19 
REMARK       I    between atoms: C_22  and  N_20 
ROOT
ATOM      1  C   LIG d   1      -3.042  76.729 114.098  0.00  0.00     0.161 C 
ATOM      2  C   LIG d   1      -4.306  77.075 114.601  0.00  0.00     0.016 C 
ATOM      3  C   LIG d   1      -4.765  76.692 115.883  0.00  0.00     0.038 C 
ATOM      4  C   LIG d   1      -3.925  76.061 116.813  0.00  0.00     0.028 C 
ATOM      5  C   LIG d   1      -2.809  75.247 116.166  0.00  0.00    -0.047 C 
ATOM      6  C   LIG d   1      -2.070  76.136 115.140  0.00  0.00     0.091 C 
ENDROOT
BRANCH   1   7
ATOM      7  O   LIG d   1      -2.445  77.870 113.449  0.00  0.00    -0.368 OA
BRANCH   7   8
ATOM      8  C   LIG d   1      -3.241  78.505 112.418  0.00  0.00     0.119 C 
BRANCH   8   9
ATOM      9  C   LIG d   1      -2.675  78.059 111.056  0.00  0.00     0.028 C 
ATOM     10  C   LIG d   1      -1.240  77.517 111.166  0.00  0.00     0.006 C 
ENDBRANCH   8   9
BRANCH   8  11
ATOM     11  C   LIG d   1      -3.076  80.027 112.447  0.00  0.00     0.028 C 
ATOM     12  C   LIG d   1      -1.614  80.466 112.624  0.00  0.00     0.006 C 
ENDBRANCH   8  11
ENDBRANCH   7   8
ENDBRANCH   1   7
BRANCH   6  13
ATOM     13  N   LIG d   1      -1.017  75.392 114.401  0.00  0.00    -0.311 N 
ATOM     14  C   LIG d   1       0.174  75.909 114.104  0.00  0.00     0.210 C 
ATOM     15  C   LIG d   1       1.105  74.979 113.319  0.00  0.00     0.109 C 
ATOM     16  O   LIG d   1       0.560  77.038 114.444  0.00  0.00    -0.276 OA
ATOM     17  H   LIG d   1      -1.234  74.458 114.114  0.00  0.00     0.149 HD
ENDBRANCH   6  13
BRANCH   5  18
ATOM     18  N   LIG d   1      -1.931  74.759 117.246  0.00  0.00     0.381 N 
ATOM     19  H   LIG d   1      -1.786  75.485 117.919  0.00  0.00    -0.090 HD
ATOM     20  H   LIG d   1      -1.040  74.510 116.853  0.00  0.00    -0.090 HD
ATOM     21  H   LIG d   1      -2.341  73.965 117.687  0.00  0.00    -0.090 HD
ENDBRANCH   5  18
BRANCH   3  22
ATOM     22  C   LIG d   1      -6.090  76.906 116.231  0.00  0.00     0.382 C 
ATOM     23  O   LIG d   1      -6.929  75.982 116.101  0.00  0.00    -0.241 OA
ATOM     24  O   LIG d   1      -6.466  78.024 116.631  0.00  0.00    -0.241 OA
ENDBRANCH   3  22
TORSDOF 7
ENDMDL
MODEL 4
REMARK VINA RESULT:      -4.3      3.412      5.837
REMARK  7 active torsions:
REMARK  status: ('A' for Active; 'I' for Inactive)
REMARK    1  A    between atoms: C_2  and  C_3 
REMARK    2  A    between atoms: C_3  and  O_6 
REMARK    3  A    between atoms: C_3  and  C_4 
REMARK    4  A    between atoms: C_7  and  O_6 
REMARK    5  A    between atoms: C_9  and  C_10 
REMARK    6  A    between atoms: N_15  and  C_14 
REMARK    7  A    between atoms: N_20  and  C_19 
REMARK       I    between atoms: C_22  and  N_20 
ROOT
ATOM      1  C   LIG d   1      -5.082  77.718 118.569  0.00  0.00     0.161 C 
ATOM      2  C   LIG d   1      -3.836  78.150 119.053  0.00  0.00     0.016 C 
ATOM      3  C   LIG d   1      -2.601  77.727 118.510  0.00  0.00     0.038 C 
ATOM      4  C   LIG d   1      -2.531  76.955 117.340  0.00  0.00     0.028 C 
ATOM      5  C   LIG d   1      -3.762  76.083 117.115  0.00  0.00    -0.047 C 
ATOM      6  C   LIG d   1      -5.027  76.964 117.224  0.00  0.00     0.091 C 
ENDROOT
BRANCH   1   7
ATOM      7  O   LIG d   1      -5.986  78.837 118.480  0.00  0.00    -0.368 OA
BRANCH   7   8
ATOM      8  C   LIG d   1      -6.957  78.959 119.548  0.00  0.00     0.119 C 
BRANCH   8   9
ATOM      9  C   LIG d   1      -8.226  78.202 119.108  0.00  0.00     0.028 C 
ATOM     10  C   LIG d   1      -8.461  76.924 119.929  0.00  0.00     0.006 C 
ENDBRANCH   8   9
BRANCH   8  11
ATOM     11  C   LIG d   1      -7.398  80.413 119.737  0.00  0.00     0.028 C 
ATOM     12  C   LIG d   1      -8.167  80.966 118.527  0.00  0.00     0.006 C 
ENDBRANCH   8  11
ENDBRANCH   7   8
ENDBRANCH   1   7
BRANCH   6  13
ATOM     13  N   LIG d   1      -6.280  76.174 117.099  0.00  0.00    -0.311 N 
ATOM     14  C   LIG d   1      -6.858  75.894 115.932  0.00  0.00     0.210 C 
ATOM     15  C   LIG d   1      -8.154  75.084 116.030  0.00  0.00     0.109 C 
ATOM     16  O   LIG d   1      -6.403  76.213 114.824  0.00  0.00    -0.276 OA
ATOM     17  H   LIG d   1      -6.701  75.850 117.948  0.00  0.00     0.149 HD
ENDBRANCH   6  13
BRANCH   5  18
ATOM     18  N   LIG d   1      -3.617  75.440 115.796  0.00  0.00     0.381 N 
ATOM     19  H   LIG d   1      -2.888  75.889 115.278  0.00  0.00    -0.090 HD
ATOM     20  H   LIG d   1      -4.477  75.545 115.286  0.00  0.00    -0.090 HD
ATOM     21  H   LIG d   1      -3.406  74.473 115.909  0.00  0.00    -0.090 HD
ENDBRANCH   5  18
BRANCH   3  22
ATOM     22  C   LIG d   1      -1.419  78.043 119.162  0.00  0.00     0.382 C 
ATOM     23  O   LIG d   1      -1.373  79.034 119.930  0.00  0.00    -0.241 OA
ATOM     24  O   LIG d   1      -0.387  77.376 118.957  0.00  0.00    -0.241 OA
ENDBRANCH   3  22
TORSDOF 7
ENDMDL
MODEL 5
REMARK VINA RESULT:      -3.8      1.980      5.150
REMARK  7 active torsions:
REMARK  status: ('A' for Active; 'I' for Inactive)
REMARK    1  A    between atoms: C_2  and  C_3 
REMARK    2  A    between atoms: C_3  and  O_6 
REMARK    3  A    between atoms: C_3  and  C_4 
REMARK    4  A    between atoms: C_7  and  O_6 
REMARK    5  A    between atoms: C_9  and  C_10 
REMARK    6  A    between atoms: N_15  and  C_14 
REMARK    7  A    between atoms: N_20  and  C_19 
REMARK       I    between atoms: C_22  and  N_20 
ROOT
ATOM      1  C   LIG d   1      -3.831  76.363 113.947  0.00  0.00     0.161 C 
ATOM      2  C   LIG d   1      -5.095  76.066 114.482  0.00  0.00     0.016 C 
ATOM      3  C   LIG d   1      -5.368  76.044 115.869  0.00  0.00     0.038 C 
ATOM      4  C   LIG d   1      -4.425  76.470 116.816  0.00  0.00     0.028 C 
ATOM      5  C   LIG d   1      -2.982  76.295 116.356  0.00  0.00    -0.047 C 
ATOM      6  C   LIG d   1      -2.819  76.938 114.960  0.00  0.00     0.091 C 
ENDROOT
BRANCH   1   7
ATOM      7  O   LIG d   1      -3.974  77.252 112.821  0.00  0.00    -0.368 OA
BRANCH   7   8
ATOM      8  C   LIG d   1      -2.832  78.093 112.525  0.00  0.00     0.119 C 
BRANCH   8   9
ATOM      9  C   LIG d   1      -3.296  79.559 112.631  0.00  0.00     0.028 C 
ATOM     10  C   LIG d   1      -2.148  80.556 112.406  0.00  0.00     0.006 C 
ENDBRANCH   8   9
BRANCH   8  11
ATOM     11  C   LIG d   1      -2.372  77.918 111.074  0.00  0.00     0.028 C 
ATOM     12  C   LIG d   1      -0.926  77.409 110.965  0.00  0.00     0.006 C 
ENDBRANCH   8  11
ENDBRANCH   7   8
ENDBRANCH   1   7
BRANCH   6  13
ATOM     13  N   LIG d   1      -1.458  76.738 114.399  0.00  0.00    -0.311 N 
ATOM     14  C   LIG d   1      -0.737  75.636 114.599  0.00  0.00     0.210 C 
ATOM     15  C   LIG d   1       0.649  75.643 113.947  0.00  0.00     0.109 C 
ATOM     16  O   LIG d   1      -1.127  74.640 115.227  0.00  0.00    -0.276 OA
ATOM     17  H   LIG d   1      -1.076  77.484 113.850  0.00  0.00     0.149 HD
ENDBRANCH   6  13
BRANCH   5  18
ATOM     18  N   LIG d   1      -2.111  76.904 117.379  0.00  0.00     0.381 N 
ATOM     19  H   LIG d   1      -1.171  76.585 117.256  0.00  0.00    -0.090 HD
ATOM     20  H   LIG d   1      -2.426  76.615 118.288  0.00  0.00    -0.090 HD
ATOM     21  H   LIG d   1      -2.145  77.897 117.307  0.00  0.00    -0.090 HD
ENDBRANCH   5  18
BRANCH   3  22
ATOM     22  C   LIG d   1      -6.584  75.555 116.323  0.00  0.00     0.382 C 
ATOM     23  O   LIG d   1      -7.421  76.336 116.836  0.00  0.00    -0.241 OA
ATOM     24  O   LIG d   1      -6.835  74.337 116.267  0.00  0.00    -0.241 OA
ENDBRANCH   3  22
TORSDOF 7
ENDMDL
MODEL 6
REMARK VINA RESULT:      -3.3      1.469      2.152
REMARK  7 active torsions:
REMARK  status: ('A' for Active; 'I' for Inactive)
REMARK    1  A    between atoms: C_2  and  C_3 
REMARK    2  A    between atoms: C_3  and  O_6 
REMARK    3  A    between atoms: C_3  and  C_4 
REMARK    4  A    between atoms: C_7  and  O_6 
REMARK    5  A    between atoms: C_9  and  C_10 
REMARK    6  A    between atoms: N_15  and  C_14 
REMARK    7  A    between atoms: N_20  and  C_19 
REMARK       I    between atoms: C_22  and  N_20 
ROOT
ATOM      1  C   LIG d   1      -2.613  76.735 115.426  0.00  0.00     0.161 C 
ATOM      2  C   LIG d   1      -2.698  76.949 114.040  0.00  0.00     0.016 C 
ATOM      3  C   LIG d   1      -1.589  77.305 113.238  0.00  0.00     0.038 C 
ATOM      4  C   LIG d   1      -0.282  77.324 113.747  0.00  0.00     0.028 C 
ATOM      5  C   LIG d   1      -0.219  77.608 115.244  0.00  0.00    -0.047 C 
ATOM      6  C   LIG d   1      -1.176  76.642 115.979  0.00  0.00     0.091 C 
ENDROOT
BRANCH   1   7
ATOM      7  O   LIG d   1      -3.365  75.559 115.785  0.00  0.00    -0.368 OA
BRANCH   7   8
ATOM      8  C   LIG d   1      -4.677  75.791 116.354  0.00  0.00     0.119 C 
BRANCH   8   9
ATOM      9  C   LIG d   1      -5.716  75.511 115.251  0.00  0.00     0.028 C 
ATOM     10  C   LIG d   1      -5.453  74.183 114.521  0.00  0.00     0.006 C 
ENDBRANCH   8   9
BRANCH   8  11
ATOM     11  C   LIG d   1      -4.870  77.264 116.728  0.00  0.00     0.028 C 
ATOM     12  C   LIG d   1      -4.774  77.511 118.242  0.00  0.00     0.006 C 
ENDBRANCH   8  11
ENDBRANCH   7   8
ENDBRANCH   1   7
BRANCH   6  13
ATOM     13  N   LIG d   1      -1.238  76.908 117.440  0.00  0.00    -0.311 N 
ATOM     14  C   LIG d   1      -1.280  75.945 118.359  0.00  0.00     0.210 C 
ATOM     15  C   LIG d   1      -1.362  76.438 119.808  0.00  0.00     0.109 C 
ATOM     16  O   LIG d   1      -1.226  74.731 118.115  0.00  0.00    -0.276 OA
ATOM     17  H   LIG d   1      -1.254  77.867 117.729  0.00  0.00     0.149 HD
ENDBRANCH   6  13
BRANCH   5  18
ATOM     18  N   LIG d   1       1.187  77.462 115.666  0.00  0.00     0.381 N 
ATOM     19  H   LIG d   1       1.289  77.763 116.615  0.00  0.00    -0.090 HD
ATOM     20  H   LIG d   1       1.763  78.047 115.087  0.00  0.00    -0.090 HD
ATOM     21  H   LIG d   1       1.472  76.511 115.579  0.00  0.00    -0.090 HD
ENDBRANCH   5  18
BRANCH   3  22
ATOM     22  C   LIG d   1      -1.788  77.686 111.920  0.00  0.00     0.382 C 
ATOM     23  O   LIG d   1      -1.263  77.027 110.991  0.00  0.00    -0.241 OA
ATOM     24  O   LIG d   1      -2.450  78.707 111.651  0.00  0.00    -0.241 OA
ENDBRANCH   3  22
TORSDOF 7
ENDMDL
MODEL 7
REMARK VINA RESULT:      -3.0      2.292      5.701
REMARK  7 active torsions:
REMARK  status: ('A' for Active; 'I' for Inactive)
REMARK    1  A    between atoms: C_2  and  C_3 
REMARK    2  A    between atoms: C_3  and  O_6 
REMARK    3  A    between atoms: C_3  and  C_4 
REMARK    4  A    between atoms: C_7  and  O_6 
REMARK    5  A    between atoms: C_9  and  C_10 
REMARK    6  A    between atoms: N_15  and  C_14 
REMARK    7  A    between atoms: N_20  and  C_19 
REMARK       I    between atoms: C_22  and  N_20 
ROOT
ATOM      1  C   LIG d   1      -0.941  77.462 115.439  0.00  0.00     0.161 C 
ATOM      2  C   LIG d   1      -0.073  78.123 116.323  0.00  0.00     0.016 C 
ATOM      3  C   LIG d   1       0.284  77.611 117.592  0.00  0.00     0.038 C 
ATOM      4  C   LIG d   1      -0.088  76.322 118.002  0.00  0.00     0.028 C 
ATOM      5  C   LIG d   1      -1.377  75.828 117.354  0.00  0.00    -0.047 C 
ATOM      6  C   LIG d   1      -1.268  76.004 115.822  0.00  0.00     0.091 C 
ENDROOT
BRANCH   1   7
ATOM      7  O   LIG d   1      -0.412  77.522 114.099  0.00  0.00    -0.368 OA
BRANCH   7   8
ATOM      8  C   LIG d   1      -1.125  78.374 113.170  0.00  0.00     0.119 C 
BRANCH   8   9
ATOM      9  C   LIG d   1      -1.210  77.625 111.826  0.00  0.00     0.028 C 
ATOM     10  C   LIG d   1      -2.442  78.035 111.002  0.00  0.00     0.006 C 
ENDBRANCH   8   9
BRANCH   8  11
ATOM     11  C   LIG d   1      -0.338  79.654 112.872  0.00  0.00     0.028 C 
ATOM     12  C   LIG d   1      -1.228  80.906 112.837  0.00  0.00     0.006 C 
ENDBRANCH   8  11
ENDBRANCH   7   8
ENDBRANCH   1   7
BRANCH   6  13
ATOM     13  N   LIG d   1      -2.519  75.623 115.117  0.00  0.00    -0.311 N 
ATOM     14  C   LIG d   1      -3.711  76.145 115.405  0.00  0.00     0.210 C 
ATOM     15  C   LIG d   1      -4.874  75.598 114.572  0.00  0.00     0.109 C 
ATOM     16  O   LIG d   1      -3.909  77.032 116.249  0.00  0.00    -0.276 OA
ATOM     17  H   LIG d   1      -2.445  74.932 114.396  0.00  0.00     0.149 HD
ENDBRANCH   6  13
BRANCH   5  18
ATOM     18  N   LIG d   1      -1.571  74.424 117.762  0.00  0.00     0.381 N 
ATOM     19  H   LIG d   1      -0.950  73.832 117.248  0.00  0.00    -0.090 HD
ATOM     20  H   LIG d   1      -2.515  74.151 117.550  0.00  0.00    -0.090 HD
ATOM     21  H   LIG d   1      -1.402  74.326 118.739  0.00  0.00    -0.090 HD
ENDBRANCH   5  18
BRANCH   3  22
ATOM     22  C   LIG d   1       0.987  78.408 118.482  0.00  0.00     0.382 C 
ATOM     23  O   LIG d   1       1.312  77.956 119.607  0.00  0.00    -0.241 OA
ATOM     24  O   LIG d   1       1.262  79.588 118.192  0.00  0.00    -0.241 OA
ENDBRANCH   3  22
TORSDOF 7
ENDMDL
MODEL 8
REMARK VINA RESULT:      -3.0      2.470      5.428
REMARK  7 active torsions:
REMARK  status: ('A' for Active; 'I' for Inactive)
REMARK    1  A    between atoms: C_2  and  C_3 
REMARK    2  A    between atoms: C_3  and  O_6 
REMARK    3  A    between atoms: C_3  and  C_4 
REMARK    4  A    between atoms: C_7  and  O_6 
REMARK    5  A    between atoms: C_9  and  C_10 
REMARK    6  A    between atoms: N_15  and  C_14 
REMARK    7  A    between atoms: N_20  and  C_19 
REMARK       I    between atoms: C_22  and  N_20 
ROOT
ATOM      1  C   LIG d   1      -1.228  76.381 115.632  0.00  0.00     0.161 C 
ATOM      2  C   LIG d   1      -0.247  77.356 115.877  0.00  0.00     0.016 C 
ATOM      3  C   LIG d   1       0.168  77.734 117.175  0.00  0.00     0.038 C 
ATOM      4  C   LIG d   1      -0.265  77.049 118.320  0.00  0.00     0.028 C 
ATOM      5  C   LIG d   1      -1.633  76.397 118.155  0.00  0.00    -0.047 C 
ATOM      6  C   LIG d   1      -1.630  75.545 116.865  0.00  0.00     0.091 C 
ENDROOT
BRANCH   1   7
ATOM      7  O   LIG d   1      -0.801  75.518 114.559  0.00  0.00    -0.368 OA
BRANCH   7   8
ATOM      8  C   LIG d   1       0.211  76.055 113.673  0.00  0.00     0.119 C 
BRANCH   8   9
ATOM      9  C   LIG d   1      -0.491  76.467 112.364  0.00  0.00     0.028 C 
ATOM     10  C   LIG d   1      -1.146  77.855 112.462  0.00  0.00     0.006 C 
ENDBRANCH   8   9
BRANCH   8  11
ATOM     11  C   LIG d   1       1.225  74.981 113.269  0.00  0.00     0.028 C 
ATOM     12  C   LIG d   1       1.125  74.596 111.784  0.00  0.00     0.006 C 
ENDBRANCH   8  11
ENDBRANCH   7   8
ENDBRANCH   1   7
BRANCH   6  13
ATOM     13  N   LIG d   1      -2.958  74.939 116.583  0.00  0.00    -0.311 N 
ATOM     14  C   LIG d   1      -3.978  75.618 116.062  0.00  0.00     0.210 C 
ATOM     15  C   LIG d   1      -5.264  74.807 115.871  0.00  0.00     0.109 C 
ATOM     16  O   LIG d   1      -3.931  76.806 115.711  0.00  0.00    -0.276 OA
ATOM     17  H   LIG d   1      -3.074  73.970 116.809  0.00  0.00     0.149 HD
ENDBRANCH   6  13
BRANCH   5  18
ATOM     18  N   LIG d   1      -1.899  75.604 119.370  0.00  0.00     0.381 N 
ATOM     19  H   LIG d   1      -1.123  75.677 119.998  0.00  0.00    -0.090 HD
ATOM     20  H   LIG d   1      -2.007  74.639 119.112  0.00  0.00    -0.090 HD
ATOM     21  H   LIG d   1      -2.728  75.932 119.816  0.00  0.00    -0.090 HD
ENDBRANCH   5  18
BRANCH   3  22
ATOM     22  C   LIG d   1       0.995  78.835 117.339  0.00  0.00     0.382 C 
ATOM     23  O   LIG d   1       1.420  79.135 118.480  0.00  0.00    -0.241 OA
ATOM     24  O   LIG d   1       1.286  79.557 116.366  0.00  0.00    -0.241 OA
ENDBRANCH   3  22
TORSDOF 7
ENDMDL
