MODEL 1
REMARK VINA RESULT:      -4.8      0.000      0.000
REMARK  7 active torsions:
REMARK  status: ('A' for Active; 'I' for Inactive)
REMARK    1  A    between atoms: C_2  and  C_3 
REMARK    2  A    between atoms: C_3  and  O_6 
REMARK    3  A    between atoms: C_3  and  C_4 
REMARK    4  A    between atoms: C_7  and  O_6 
REMARK    5  A    between atoms: C_9  and  C_10 
REMARK    6  A    between atoms: N_15  and  C_14 
REMARK    7  A    between atoms: N_20  and  C_19 
REMARK       I    between atoms: C_22  and  N_20 
ROOT
ATOM      1  C   LIG d   1      -2.243  80.862 114.350  0.00  0.00     0.161 C 
ATOM      2  C   LIG d   1      -2.602  79.601 114.854  0.00  0.00     0.016 C 
ATOM      3  C   LIG d   1      -2.437  78.398 114.129  0.00  0.00     0.038 C 
ATOM      4  C   LIG d   1      -1.757  78.358 112.903  0.00  0.00     0.028 C 
ATOM      5  C   LIG d   1      -1.828  79.670 112.128  0.00  0.00    -0.047 C 
ATOM      6  C   LIG d   1      -1.398  80.826 113.060  0.00  0.00     0.091 C 
ENDROOT
BRANCH   1   7
ATOM      7  O   LIG d   1      -1.566  81.621 115.372  0.00  0.00    -0.368 OA
BRANCH   7   8
ATOM      8  C   LIG d   1      -2.415  82.348 116.293  0.00  0.00     0.119 C 
BRANCH   8   9
ATOM      9  C   LIG d   1      -2.999  83.554 115.532  0.00  0.00     0.028 C 
ATOM     10  C   LIG d   1      -1.923  84.583 115.148  0.00  0.00     0.006 C 
ENDBRANCH   8   9
BRANCH   8  11
ATOM     11  C   LIG d   1      -1.602  82.950 117.443  0.00  0.00     0.028 C 
ATOM     12  C   LIG d   1      -2.210  82.651 118.823  0.00  0.00     0.006 C 
ENDBRANCH   8  11
ENDBRANCH   7   8
ENDBRANCH   1   7
BRANCH   6  13
ATOM     13  N   LIG d   1      -1.519  82.156 112.406  0.00  0.00    -0.311 N 
ATOM     14  C   LIG d   1      -0.511  82.759 111.779  0.00  0.00     0.210 C 
ATOM     15  C   LIG d   1      -0.845  84.134 111.191  0.00  0.00     0.109 C 
ATOM     16  O   LIG d   1       0.619  82.271 111.625  0.00  0.00    -0.276 OA
ATOM     17  H   LIG d   1      -2.411  82.609 112.455  0.00  0.00     0.149 HD
ENDBRANCH   6  13
BRANCH   5  18
ATOM     18  N   LIG d   1      -0.965  79.533 110.940  0.00  0.00     0.381 N 
ATOM     19  H   LIG d   1      -1.212  80.225 110.261  0.00  0.00    -0.090 HD
ATOM     20  H   LIG d   1      -1.113  78.626 110.534  0.00  0.00    -0.090 HD
ATOM     21  H   LIG d   1      -0.009  79.638 111.199  0.00  0.00    -0.090 HD
ENDBRANCH   5  18
BRANCH   3  22
ATOM     22  C   LIG d   1      -2.991  77.223 114.614  0.00  0.00     0.382 C 
ATOM     23  O   LIG d   1      -4.007  77.265 115.349  0.00  0.00    -0.241 OA
ATOM     24  O   LIG d   1      -2.462  76.124 114.361  0.00  0.00    -0.241 OA
ENDBRANCH   3  22
TORSDOF 7
ENDMDL
MODEL 2
REMARK VINA RESULT:      -4.6      1.536      2.130
REMARK  7 active torsions:
REMARK  status: ('A' for Active; 'I' for Inactive)
REMARK    1  A    between atoms: C_2  and  C_3 
REMARK    2  A    between atoms: C_3  and  O_6 
REMARK    3  A    between atoms: C_3  and  C_4 
REMARK    4  A    between atoms: C_7  and  O_6 
REMARK    5  A    between atoms: C_9  and  C_10 
REMARK    6  A    between atoms: N_15  and  C_14 
REMARK    7  A    between atoms: N_20  and  C_19 
REMARK       I    between atoms: C_22  and  N_20 
ROOT
ATOM      1  C   LIG d   1      -2.139  82.103 114.028  0.00  0.00     0.161 C 
ATOM      2  C   LIG d   1      -2.516  81.096 114.932  0.00  0.00     0.016 C 
ATOM      3  C   LIG d   1      -2.374  79.715 114.662  0.00  0.00     0.038 C 
ATOM      4  C   LIG d   1      -1.703  79.248 113.522  0.00  0.00     0.028 C 
ATOM      5  C   LIG d   1      -1.757  80.217 112.347  0.00  0.00    -0.047 C 
ATOM      6  C   LIG d   1      -1.303  81.614 112.827  0.00  0.00     0.091 C 
ENDROOT
BRANCH   1   7
ATOM      7  O   LIG d   1      -1.444  83.153 114.729  0.00  0.00    -0.368 OA
BRANCH   7   8
ATOM      8  C   LIG d   1      -0.765  82.765 115.949  0.00  0.00     0.119 C 
BRANCH   8   9
ATOM      9  C   LIG d   1      -0.950  83.908 116.965  0.00  0.00     0.028 C 
ATOM     10  C   LIG d   1      -0.957  83.405 118.419  0.00  0.00     0.006 C 
ENDBRANCH   8   9
BRANCH   8  11
ATOM     11  C   LIG d   1       0.747  82.654 115.734  0.00  0.00     0.028 C 
ATOM     12  C   LIG d   1       1.220  81.202 115.559  0.00  0.00     0.006 C 
ENDBRANCH   8  11
ENDBRANCH   7   8
ENDBRANCH   1   7
BRANCH   6  13
ATOM     13  N   LIG d   1      -1.406  82.643 111.759  0.00  0.00    -0.311 N 
ATOM     14  C   LIG d   1      -0.466  83.557 111.527  0.00  0.00     0.210 C 
ATOM     15  C   LIG d   1      -0.781  84.535 110.392  0.00  0.00     0.109 C 
ATOM     16  O   LIG d   1       0.614  83.630 112.133  0.00  0.00    -0.276 OA
ATOM     17  H   LIG d   1      -2.236  82.636 111.199  0.00  0.00     0.149 HD
ENDBRANCH   6  13
BRANCH   5  18
ATOM     18  N   LIG d   1      -0.904  79.668 111.276  0.00  0.00     0.381 N 
ATOM     19  H   LIG d   1      -1.295  79.891 110.383  0.00  0.00    -0.090 HD
ATOM     20  H   LIG d   1      -0.873  78.668 111.366  0.00  0.00    -0.090 HD
ATOM     21  H   LIG d   1       0.016  80.044 111.347  0.00  0.00    -0.090 HD
ENDBRANCH   5  18
BRANCH   3  22
ATOM     22  C   LIG d   1      -2.944  78.785 115.518  0.00  0.00     0.382 C 
ATOM     23  O   LIG d   1      -2.383  77.679 115.705  0.00  0.00    -0.241 OA
ATOM     24  O   LIG d   1      -4.034  79.022 116.072  0.00  0.00    -0.241 OA
ENDBRANCH   3  22
TORSDOF 7
ENDMDL
MODEL 3
REMARK VINA RESULT:      -4.5      1.924      4.771
REMARK  7 active torsions:
REMARK  status: ('A' for Active; 'I' for Inactive)
REMARK    1  A    between atoms: C_2  and  C_3 
REMARK    2  A    between atoms: C_3  and  O_6 
REMARK    3  A    between atoms: C_3  and  C_4 
REMARK    4  A    between atoms: C_7  and  O_6 
REMARK    5  A    between atoms: C_9  and  C_10 
REMARK    6  A    between atoms: N_15  and  C_14 
REMARK    7  A    between atoms: N_20  and  C_19 
REMARK       I    between atoms: C_22  and  N_20 
ROOT
ATOM      1  C   LIG d   1      -0.661  80.341 114.984  0.00  0.00     0.161 C 
ATOM      2  C   LIG d   1      -0.833  81.610 114.407  0.00  0.00     0.016 C 
ATOM      3  C   LIG d   1      -1.457  81.819 113.156  0.00  0.00     0.038 C 
ATOM      4  C   LIG d   1      -2.090  80.778 112.460  0.00  0.00     0.028 C 
ATOM      5  C   LIG d   1      -1.501  79.403 112.760  0.00  0.00    -0.047 C 
ATOM      6  C   LIG d   1      -1.444  79.205 114.292  0.00  0.00     0.091 C 
ENDROOT
BRANCH   1   7
ATOM      7  O   LIG d   1      -0.988  80.393 116.386  0.00  0.00    -0.368 OA
BRANCH   7   8
ATOM      8  C   LIG d   1      -1.893  81.449 116.791  0.00  0.00     0.119 C 
BRANCH   8   9
ATOM      9  C   LIG d   1      -1.332  82.068 118.087  0.00  0.00     0.028 C 
ATOM     10  C   LIG d   1      -0.917  83.537 117.903  0.00  0.00     0.006 C 
ENDBRANCH   8   9
BRANCH   8  11
ATOM     11  C   LIG d   1      -3.268  80.891 117.171  0.00  0.00     0.028 C 
ATOM     12  C   LIG d   1      -4.330  81.988 117.341  0.00  0.00     0.006 C 
ENDBRANCH   8  11
ENDBRANCH   7   8
ENDBRANCH   1   7
BRANCH   6  13
ATOM     13  N   LIG d   1      -0.802  77.920 114.674  0.00  0.00    -0.311 N 
ATOM     14  C   LIG d   1      -1.481  76.789 114.861  0.00  0.00     0.210 C 
ATOM     15  C   LIG d   1      -0.629  75.584 115.270  0.00  0.00     0.109 C 
ATOM     16  O   LIG d   1      -2.704  76.663 114.696  0.00  0.00    -0.276 OA
ATOM     17  H   LIG d   1       0.191  77.925 114.798  0.00  0.00     0.149 HD
ENDBRANCH   6  13
BRANCH   5  18
ATOM     18  N   LIG d   1      -2.341  78.400 112.078  0.00  0.00     0.381 N 
ATOM     19  H   LIG d   1      -3.147  78.844 111.685  0.00  0.00    -0.090 HD
ATOM     20  H   LIG d   1      -2.651  77.723 112.753  0.00  0.00    -0.090 HD
ATOM     21  H   LIG d   1      -1.818  77.949 111.360  0.00  0.00    -0.090 HD
ENDBRANCH   5  18
BRANCH   3  22
ATOM     22  C   LIG d   1      -1.416  83.074 112.568  0.00  0.00     0.382 C 
ATOM     23  O   LIG d   1      -1.467  83.184 111.319  0.00  0.00    -0.241 OA
ATOM     24  O   LIG d   1      -1.285  84.095 113.269  0.00  0.00    -0.241 OA
ENDBRANCH   3  22
TORSDOF 7
ENDMDL
MODEL 4
REMARK VINA RESULT:      -4.4      2.163      4.972
REMARK  7 active torsions:
REMARK  status: ('A' for Active; 'I' for Inactive)
REMARK    1  A    between atoms: C_2  and  C_3 
REMARK    2  A    between atoms: C_3  and  O_6 
REMARK    3  A    between atoms: C_3  and  C_4 
REMARK    4  A    between atoms: C_7  and  O_6 
REMARK    5  A    between atoms: C_9  and  C_10 
REMARK    6  A    between atoms: N_15  and  C_14 
REMARK    7  A    between atoms: N_20  and  C_19 
REMARK       I    between atoms: C_22  and  N_20 
ROOT
ATOM      1  C   LIG d   1      -2.464  80.624 115.184  0.00  0.00     0.161 C 
ATOM      2  C   LIG d   1      -2.099  81.748 114.425  0.00  0.00     0.016 C 
ATOM      3  C   LIG d   1      -1.601  81.667 113.103  0.00  0.00     0.038 C 
ATOM      4  C   LIG d   1      -1.578  80.457 112.393  0.00  0.00     0.028 C 
ATOM      5  C   LIG d   1      -1.463  79.230 113.291  0.00  0.00    -0.047 C 
ATOM      6  C   LIG d   1      -2.551  79.306 114.386  0.00  0.00     0.091 C 
ENDROOT
BRANCH   1   7
ATOM      7  O   LIG d   1      -3.708  80.879 115.867  0.00  0.00    -0.368 OA
BRANCH   7   8
ATOM      8  C   LIG d   1      -3.671  80.790 117.312  0.00  0.00     0.119 C 
BRANCH   8   9
ATOM      9  C   LIG d   1      -5.020  80.207 117.775  0.00  0.00     0.028 C 
ATOM     10  C   LIG d   1      -6.103  81.287 117.934  0.00  0.00     0.006 C 
ENDBRANCH   8   9
BRANCH   8  11
ATOM     11  C   LIG d   1      -3.587  82.178 117.954  0.00  0.00     0.028 C 
ATOM     12  C   LIG d   1      -2.174  82.521 118.450  0.00  0.00     0.006 C 
ENDBRANCH   8  11
ENDBRANCH   7   8
ENDBRANCH   1   7
BRANCH   6  13
ATOM     13  N   LIG d   1      -2.455  78.185 115.358  0.00  0.00    -0.311 N 
ATOM     14  C   LIG d   1      -3.144  77.051 115.240  0.00  0.00     0.210 C 
ATOM     15  C   LIG d   1      -2.914  76.035 116.362  0.00  0.00     0.109 C 
ATOM     16  O   LIG d   1      -3.900  76.778 114.295  0.00  0.00    -0.276 OA
ATOM     17  H   LIG d   1      -1.841  78.310 116.139  0.00  0.00     0.149 HD
ENDBRANCH   6  13
BRANCH   5  18
ATOM     18  N   LIG d   1      -1.589  78.037 112.432  0.00  0.00     0.381 N 
ATOM     19  H   LIG d   1      -0.859  77.387 112.645  0.00  0.00    -0.090 HD
ATOM     20  H   LIG d   1      -1.494  78.316 111.472  0.00  0.00    -0.090 HD
ATOM     21  H   LIG d   1      -2.477  77.607 112.574  0.00  0.00    -0.090 HD
ENDBRANCH   5  18
BRANCH   3  22
ATOM     22  C   LIG d   1      -1.083  82.799 112.493  0.00  0.00     0.382 C 
ATOM     23  O   LIG d   1      -1.521  83.166 111.377  0.00  0.00    -0.241 OA
ATOM     24  O   LIG d   1      -0.152  83.433 113.025  0.00  0.00    -0.241 OA
ENDBRANCH   3  22
TORSDOF 7
ENDMDL
MODEL 5
REMARK VINA RESULT:      -4.4      2.287      5.022
REMARK  7 active torsions:
REMARK  status: ('A' for Active; 'I' for Inactive)
REMARK    1  A    between atoms: C_2  and  C_3 
REMARK    2  A    between atoms: C_3  and  O_6 
REMARK    3  A    between atoms: C_3  and  C_4 
REMARK    4  A    between atoms: C_7  and  O_6 
REMARK    5  A    between atoms: C_9  and  C_10 
REMARK    6  A    between atoms: N_15  and  C_14 
REMARK    7  A    between atoms: N_20  and  C_19 
REMARK       I    between atoms: C_22  and  N_20 
ROOT
ATOM      1  C   LIG d   1      -0.625  79.751 114.915  0.00  0.00     0.161 C 
ATOM      2  C   LIG d   1      -0.846  81.062 114.463  0.00  0.00     0.016 C 
ATOM      3  C   LIG d   1      -1.629  81.371 113.327  0.00  0.00     0.038 C 
ATOM      4  C   LIG d   1      -2.373  80.392 112.650  0.00  0.00     0.028 C 
ATOM      5  C   LIG d   1      -1.778  78.993 112.765  0.00  0.00    -0.047 C 
ATOM      6  C   LIG d   1      -1.518  78.679 114.256  0.00  0.00     0.091 C 
ENDROOT
BRANCH   1   7
ATOM      7  O   LIG d   1      -0.757  79.700 116.350  0.00  0.00    -0.368 OA
BRANCH   7   8
ATOM      8  C   LIG d   1      -2.109  79.592 116.861  0.00  0.00     0.119 C 
BRANCH   8   9
ATOM      9  C   LIG d   1      -2.393  80.861 117.689  0.00  0.00     0.028 C 
ATOM     10  C   LIG d   1      -3.448  81.766 117.031  0.00  0.00     0.006 C 
ENDBRANCH   8   9
BRANCH   8  11
ATOM     11  C   LIG d   1      -2.240  78.427 117.847  0.00  0.00     0.028 C 
ATOM     12  C   LIG d   1      -0.903  77.719 118.114  0.00  0.00     0.006 C 
ENDBRANCH   8  11
ENDBRANCH   7   8
ENDBRANCH   1   7
BRANCH   6  13
ATOM     13  N   LIG d   1      -0.859  77.361 114.451  0.00  0.00    -0.311 N 
ATOM     14  C   LIG d   1      -1.525  76.243 114.734  0.00  0.00     0.210 C 
ATOM     15  C   LIG d   1      -0.650  74.998 114.915  0.00  0.00     0.109 C 
ATOM     16  O   LIG d   1      -2.759  76.157 114.820  0.00  0.00    -0.276 OA
ATOM     17  H   LIG d   1       0.139  77.334 114.368  0.00  0.00     0.149 HD
ENDBRANCH   6  13
BRANCH   5  18
ATOM     18  N   LIG d   1      -2.724  78.054 112.133  0.00  0.00     0.381 N 
ATOM     19  H   LIG d   1      -2.342  77.129 112.144  0.00  0.00    -0.090 HD
ATOM     20  H   LIG d   1      -2.862  78.326 111.175  0.00  0.00    -0.090 HD
ATOM     21  H   LIG d   1      -3.594  78.067 112.618  0.00  0.00    -0.090 HD
ENDBRANCH   5  18
BRANCH   3  22
ATOM     22  C   LIG d   1      -1.642  82.666 112.833  0.00  0.00     0.382 C 
ATOM     23  O   LIG d   1      -1.640  82.865 111.594  0.00  0.00    -0.241 OA
ATOM     24  O   LIG d   1      -1.610  83.639 113.610  0.00  0.00    -0.241 OA
ENDBRANCH   3  22
TORSDOF 7
ENDMDL
MODEL 6
REMARK VINA RESULT:      -4.4      2.149      4.236
REMARK  7 active torsions:
REMARK  status: ('A' for Active; 'I' for Inactive)
REMARK    1  A    between atoms: C_2  and  C_3 
REMARK    2  A    between atoms: C_3  and  O_6 
REMARK    3  A    between atoms: C_3  and  C_4 
REMARK    4  A    between atoms: C_7  and  O_6 
REMARK    5  A    between atoms: C_9  and  C_10 
REMARK    6  A    between atoms: N_15  and  C_14 
REMARK    7  A    between atoms: N_20  and  C_19 
REMARK       I    between atoms: C_22  and  N_20 
ROOT
ATOM      1  C   LIG d   1      -1.362  81.349 113.101  0.00  0.00     0.161 C 
ATOM      2  C   LIG d   1      -1.815  80.128 112.574  0.00  0.00     0.016 C 
ATOM      3  C   LIG d   1      -2.350  79.088 113.368  0.00  0.00     0.038 C 
ATOM      4  C   LIG d   1      -2.609  79.259 114.736  0.00  0.00     0.028 C 
ATOM      5  C   LIG d   1      -1.703  80.289 115.401  0.00  0.00    -0.047 C 
ATOM      6  C   LIG d   1      -1.740  81.596 114.576  0.00  0.00     0.091 C 
ENDROOT
BRANCH   1   7
ATOM      7  O   LIG d   1      -1.823  82.438 112.277  0.00  0.00    -0.368 OA
BRANCH   7   8
ATOM      8  C   LIG d   1      -0.800  83.165 111.552  0.00  0.00     0.119 C 
BRANCH   8   9
ATOM      9  C   LIG d   1       0.504  82.351 111.649  0.00  0.00     0.028 C 
ATOM     10  C   LIG d   1       0.932  81.764 110.293  0.00  0.00     0.006 C 
ENDBRANCH   8   9
BRANCH   8  11
ATOM     11  C   LIG d   1      -0.491  84.508 112.220  0.00  0.00     0.028 C 
ATOM     12  C   LIG d   1       1.000  84.680 112.550  0.00  0.00     0.006 C 
ENDBRANCH   8  11
ENDBRANCH   7   8
ENDBRANCH   1   7
BRANCH   6  13
ATOM     13  N   LIG d   1      -0.815  82.630 115.110  0.00  0.00    -0.311 N 
ATOM     14  C   LIG d   1      -1.228  83.737 115.723  0.00  0.00     0.210 C 
ATOM     15  C   LIG d   1      -0.110  84.680 116.179  0.00  0.00     0.109 C 
ATOM     16  O   LIG d   1      -2.413  84.013 115.962  0.00  0.00    -0.276 OA
ATOM     17  H   LIG d   1       0.166  82.471 114.988  0.00  0.00     0.149 HD
ENDBRANCH   6  13
BRANCH   5  18
ATOM     18  N   LIG d   1      -2.172  80.467 116.788  0.00  0.00     0.381 N 
ATOM     19  H   LIG d   1      -1.963  81.394 117.100  0.00  0.00    -0.090 HD
ATOM     20  H   LIG d   1      -1.685  79.818 117.381  0.00  0.00    -0.090 HD
ATOM     21  H   LIG d   1      -3.153  80.304 116.839  0.00  0.00    -0.090 HD
ENDBRANCH   5  18
BRANCH   3  22
ATOM     22  C   LIG d   1      -2.594  77.847 112.801  0.00  0.00     0.382 C 
ATOM     23  O   LIG d   1      -1.941  76.845 113.180  0.00  0.00    -0.241 OA
ATOM     24  O   LIG d   1      -3.428  77.724 111.884  0.00  0.00    -0.241 OA
ENDBRANCH   3  22
TORSDOF 7
ENDMDL
MODEL 7
REMARK VINA RESULT:      -4.2      2.578      5.278
REMARK  7 active torsions:
REMARK  status: ('A' for Active; 'I' for Inactive)
REMARK    1  A    between atoms: C_2  and  C_3 
REMARK    2  A    between atoms: C_3  and  O_6 
REMARK    3  A    between atoms: C_3  and  C_4 
REMARK    4  A    between atoms: C_7  and  O_6 
REMARK    5  A    between atoms: C_9  and  C_10 
REMARK    6  A    between atoms: N_15  and  C_14 
REMARK    7  A    between atoms: N_20  and  C_19 
REMARK       I    between atoms: C_22  and  N_20 
ROOT
ATOM      1  C   LIG d   1      -0.765  79.797 115.023  0.00  0.00     0.161 C 
ATOM      2  C   LIG d   1      -0.961  81.106 114.551  0.00  0.00     0.016 C 
ATOM      3  C   LIG d   1      -1.611  81.403 113.331  0.00  0.00     0.038 C 
ATOM      4  C   LIG d   1      -2.246  80.412 112.568  0.00  0.00     0.028 C 
ATOM      5  C   LIG d   1      -1.637  79.026 112.749  0.00  0.00    -0.047 C 
ATOM      6  C   LIG d   1      -1.549  78.709 114.259  0.00  0.00     0.091 C 
ENDROOT
BRANCH   1   7
ATOM      7  O   LIG d   1      -1.065  79.735 116.432  0.00  0.00    -0.368 OA
BRANCH   7   8
ATOM      8  C   LIG d   1       0.070  79.589 117.320  0.00  0.00     0.119 C 
BRANCH   8   9
ATOM      9  C   LIG d   1      -0.053  78.214 118.005  0.00  0.00     0.028 C 
ATOM     10  C   LIG d   1       1.076  77.252 117.598  0.00  0.00     0.006 C 
ENDBRANCH   8   9
BRANCH   8  11
ATOM     11  C   LIG d   1       0.024  80.614 118.457  0.00  0.00     0.028 C 
ATOM     12  C   LIG d   1      -0.993  81.738 118.205  0.00  0.00     0.006 C 
ENDBRANCH   8  11
ENDBRANCH   7   8
ENDBRANCH   1   7
BRANCH   6  13
ATOM     13  N   LIG d   1      -0.887  77.406 114.528  0.00  0.00    -0.311 N 
ATOM     14  C   LIG d   1      -1.543  76.249 114.587  0.00  0.00     0.210 C 
ATOM     15  C   LIG d   1      -0.673  75.026 114.895  0.00  0.00     0.109 C 
ATOM     16  O   LIG d   1      -2.759  76.114 114.381  0.00  0.00    -0.276 OA
ATOM     17  H   LIG d   1       0.103  77.419 114.675  0.00  0.00     0.149 HD
ENDBRANCH   6  13
BRANCH   5  18
ATOM     18  N   LIG d   1      -2.479  78.069 112.006  0.00  0.00     0.381 N 
ATOM     19  H   LIG d   1      -2.080  77.153 112.060  0.00  0.00    -0.090 HD
ATOM     20  H   LIG d   1      -2.509  78.344 111.040  0.00  0.00    -0.090 HD
ATOM     21  H   LIG d   1      -3.401  78.060 112.385  0.00  0.00    -0.090 HD
ENDBRANCH   5  18
BRANCH   3  22
ATOM     22  C   LIG d   1      -1.595  82.701 112.843  0.00  0.00     0.382 C 
ATOM     23  O   LIG d   1      -1.636  82.906 111.606  0.00  0.00    -0.241 OA
ATOM     24  O   LIG d   1      -1.495  83.668 113.622  0.00  0.00    -0.241 OA
ENDBRANCH   3  22
TORSDOF 7
ENDMDL
MODEL 8
REMARK VINA RESULT:      -4.2      3.838      6.824
REMARK  7 active torsions:
REMARK  status: ('A' for Active; 'I' for Inactive)
REMARK    1  A    between atoms: C_2  and  C_3 
REMARK    2  A    between atoms: C_3  and  O_6 
REMARK    3  A    between atoms: C_3  and  C_4 
REMARK    4  A    between atoms: C_7  and  O_6 
REMARK    5  A    between atoms: C_9  and  C_10 
REMARK    6  A    between atoms: N_15  and  C_14 
REMARK    7  A    between atoms: N_20  and  C_19 
REMARK       I    between atoms: C_22  and  N_20 
ROOT
ATOM      1  C   LIG d   1      -4.115  77.645 116.557  0.00  0.00     0.161 C 
ATOM      2  C   LIG d   1      -4.539  78.927 116.945  0.00  0.00     0.016 C 
ATOM      3  C   LIG d   1      -3.699  80.064 116.924  0.00  0.00     0.038 C 
ATOM      4  C   LIG d   1      -2.413  80.026 116.367  0.00  0.00     0.028 C 
ATOM      5  C   LIG d   1      -1.767  78.646 116.429  0.00  0.00    -0.047 C 
ATOM      6  C   LIG d   1      -2.748  77.606 115.842  0.00  0.00     0.091 C 
ENDROOT
BRANCH   1   7
ATOM      7  O   LIG d   1      -5.126  77.022 115.741  0.00  0.00    -0.368 OA
BRANCH   7   8
ATOM      8  C   LIG d   1      -5.818  75.895 116.334  0.00  0.00     0.119 C 
BRANCH   8   9
ATOM      9  C   LIG d   1      -6.056  74.860 115.218  0.00  0.00     0.028 C 
ATOM     10  C   LIG d   1      -5.114  75.062 114.019  0.00  0.00     0.006 C 
ENDBRANCH   8   9
BRANCH   8  11
ATOM     11  C   LIG d   1      -7.213  76.293 116.823  0.00  0.00     0.028 C 
ATOM     12  C   LIG d   1      -7.954  75.137 117.514  0.00  0.00     0.006 C 
ENDBRANCH   8  11
ENDBRANCH   7   8
ENDBRANCH   1   7
BRANCH   6  13
ATOM     13  N   LIG d   1      -2.229  76.217 115.941  0.00  0.00    -0.311 N 
ATOM     14  C   LIG d   1      -1.534  75.623 114.972  0.00  0.00     0.210 C 
ATOM     15  C   LIG d   1      -1.110  74.181 115.271  0.00  0.00     0.109 C 
ATOM     16  O   LIG d   1      -1.202  76.164 113.907  0.00  0.00    -0.276 OA
ATOM     17  H   LIG d   1      -2.426  75.715 116.785  0.00  0.00     0.149 HD
ENDBRANCH   6  13
BRANCH   5  18
ATOM     18  N   LIG d   1      -0.491  78.717 115.692  0.00  0.00     0.381 N 
ATOM     19  H   LIG d   1      -0.654  78.568 114.717  0.00  0.00    -0.090 HD
ATOM     20  H   LIG d   1       0.118  77.990 116.025  0.00  0.00    -0.090 HD
ATOM     21  H   LIG d   1      -0.066  79.607 115.832  0.00  0.00    -0.090 HD
ENDBRANCH   5  18
BRANCH   3  22
ATOM     22  C   LIG d   1      -4.132  81.249 117.502  0.00  0.00     0.382 C 
ATOM     23  O   LIG d   1      -5.246  81.731 117.185  0.00  0.00    -0.241 OA
ATOM     24  O   LIG d   1      -3.402  81.864 118.303  0.00  0.00    -0.241 OA
ENDBRANCH   3  22
TORSDOF 7
ENDMDL
MODEL 9
REMARK VINA RESULT:      -4.1      3.813      6.498
REMARK  7 active torsions:
REMARK  status: ('A' for Active; 'I' for Inactive)
REMARK    1  A    between atoms: C_2  and  C_3 
REMARK    2  A    between atoms: C_3  and  O_6 
REMARK    3  A    between atoms: C_3  and  C_4 
REMARK    4  A    between atoms: C_7  and  O_6 
REMARK    5  A    between atoms: C_9  and  C_10 
REMARK    6  A    between atoms: N_15  and  C_14 
REMARK    7  A    between atoms: N_20  and  C_19 
REMARK       I    between atoms: C_22  and  N_20 
ROOT
ATOM      1  C   LIG d   1      -1.307  75.521 115.070  0.00  0.00     0.161 C 
ATOM      2  C   LIG d   1      -0.915  74.857 116.245  0.00  0.00     0.016 C 
ATOM      3  C   LIG d   1      -0.541  75.529 117.431  0.00  0.00     0.038 C 
ATOM      4  C   LIG d   1      -0.678  76.918 117.571  0.00  0.00     0.028 C 
ATOM      5  C   LIG d   1      -0.589  77.672 116.249  0.00  0.00    -0.047 C 
ATOM      6  C   LIG d   1      -1.570  77.032 115.239  0.00  0.00     0.091 C 
ENDROOT
BRANCH   1   7
ATOM      7  O   LIG d   1      -2.462  74.872 114.504  0.00  0.00    -0.368 OA
BRANCH   7   8
ATOM      8  C   LIG d   1      -3.751  75.366 114.944  0.00  0.00     0.119 C 
BRANCH   8   9
ATOM      9  C   LIG d   1      -4.075  74.680 116.286  0.00  0.00     0.028 C 
ATOM     10  C   LIG d   1      -4.375  75.692 117.404  0.00  0.00     0.006 C 
ENDBRANCH   8   9
BRANCH   8  11
ATOM     11  C   LIG d   1      -4.868  74.937 113.989  0.00  0.00     0.028 C 
ATOM     12  C   LIG d   1      -6.005  74.186 114.701  0.00  0.00     0.006 C 
ENDBRANCH   8  11
ENDBRANCH   7   8
ENDBRANCH   1   7
BRANCH   6  13
ATOM     13  N   LIG d   1      -1.485  77.657 113.893  0.00  0.00    -0.311 N 
ATOM     14  C   LIG d   1      -2.240  78.686 113.514  0.00  0.00     0.210 C 
ATOM     15  C   LIG d   1      -2.006  79.164 112.077  0.00  0.00     0.109 C 
ATOM     16  O   LIG d   1      -3.057  79.270 114.241  0.00  0.00    -0.276 OA
ATOM     17  H   LIG d   1      -0.825  77.266 113.250  0.00  0.00     0.149 HD
ENDBRANCH   6  13
BRANCH   5  18
ATOM     18  N   LIG d   1      -0.886  79.091 116.524  0.00  0.00     0.381 N 
ATOM     19  H   LIG d   1      -0.367  79.673 115.898  0.00  0.00    -0.090 HD
ATOM     20  H   LIG d   1      -0.603  79.306 117.463  0.00  0.00    -0.090 HD
ATOM     21  H   LIG d   1      -1.862  79.262 116.416  0.00  0.00    -0.090 HD
ENDBRANCH   5  18
BRANCH   3  22
ATOM     22  C   LIG d   1       0.016  74.813 118.480  0.00  0.00     0.382 C 
ATOM     23  O   LIG d   1       1.262  74.763 118.613  0.00  0.00    -0.241 OA
ATOM     24  O   LIG d   1      -0.711  74.180 119.269  0.00  0.00    -0.241 OA
ENDBRANCH   3  22
TORSDOF 7
ENDMDL
