MODEL 1
REMARK VINA RESULT:      -5.0      0.000      0.000
REMARK  7 active torsions:
REMARK  status: ('A' for Active; 'I' for Inactive)
REMARK    1  A    between atoms: C_2  and  C_3 
REMARK    2  A    between atoms: C_3  and  O_6 
REMARK    3  A    between atoms: C_3  and  C_4 
REMARK    4  A    between atoms: C_7  and  O_6 
REMARK    5  A    between atoms: C_9  and  C_10 
REMARK    6  A    between atoms: N_15  and  C_14 
REMARK    7  A    between atoms: N_20  and  C_19 
REMARK       I    between atoms: C_22  and  N_20 
ROOT
ATOM      1  C   LIG d   1      -2.785  78.268 115.061  0.00  0.00     0.161 C 
ATOM      2  C   LIG d   1      -2.946  79.469 114.351  0.00  0.00     0.016 C 
ATOM      3  C   LIG d   1      -2.243  79.771 113.162  0.00  0.00     0.038 C 
ATOM      4  C   LIG d   1      -1.436  78.822 112.516  0.00  0.00     0.028 C 
ATOM      5  C   LIG d   1      -0.851  77.780 113.463  0.00  0.00    -0.047 C 
ATOM      6  C   LIG d   1      -1.993  77.175 114.312  0.00  0.00     0.091 C 
ENDROOT
BRANCH   1   7
ATOM      7  O   LIG d   1      -4.072  77.764 115.467  0.00  0.00    -0.368 OA
BRANCH   7   8
ATOM      8  C   LIG d   1      -4.312  77.706 116.895  0.00  0.00     0.119 C 
BRANCH   8   9
ATOM      9  C   LIG d   1      -5.219  76.489 117.163  0.00  0.00     0.028 C 
ATOM     10  C   LIG d   1      -6.042  76.087 115.927  0.00  0.00     0.006 C 
ENDBRANCH   8   9
BRANCH   8  11
ATOM     11  C   LIG d   1      -5.111  78.920 117.376  0.00  0.00     0.028 C 
ATOM     12  C   LIG d   1      -4.439  79.649 118.550  0.00  0.00     0.006 C 
ENDBRANCH   8  11
ENDBRANCH   7   8
ENDBRANCH   1   7
BRANCH   6  13
ATOM     13  N   LIG d   1      -1.496  76.207 115.324  0.00  0.00    -0.311 N 
ATOM     14  C   LIG d   1      -2.053  75.016 115.534  0.00  0.00     0.210 C 
ATOM     15  C   LIG d   1      -1.396  74.180 116.638  0.00  0.00     0.109 C 
ATOM     16  O   LIG d   1      -3.008  74.558 114.889  0.00  0.00    -0.276 OA
ATOM     17  H   LIG d   1      -0.704  76.484 115.870  0.00  0.00     0.149 HD
ENDBRANCH   6  13
BRANCH   5  18
ATOM     18  N   LIG d   1      -0.148  76.776 112.642  0.00  0.00     0.381 N 
ATOM     19  H   LIG d   1       0.689  77.174 112.264  0.00  0.00    -0.090 HD
ATOM     20  H   LIG d   1      -0.742  76.507 111.878  0.00  0.00    -0.090 HD
ATOM     21  H   LIG d   1       0.076  75.979 113.195  0.00  0.00    -0.090 HD
ENDBRANCH   5  18
BRANCH   3  22
ATOM     22  C   LIG d   1      -2.311  81.049 112.628  0.00  0.00     0.382 C 
ATOM     23  O   LIG d   1      -1.359  81.495 111.944  0.00  0.00    -0.241 OA
ATOM     24  O   LIG d   1      -3.295  81.778 112.860  0.00  0.00    -0.241 OA
ENDBRANCH   3  22
TORSDOF 7
ENDMDL
MODEL 2
REMARK VINA RESULT:      -5.0      0.743      1.443
REMARK  7 active torsions:
REMARK  status: ('A' for Active; 'I' for Inactive)
REMARK    1  A    between atoms: C_2  and  C_3 
REMARK    2  A    between atoms: C_3  and  O_6 
REMARK    3  A    between atoms: C_3  and  C_4 
REMARK    4  A    between atoms: C_7  and  O_6 
REMARK    5  A    between atoms: C_9  and  C_10 
REMARK    6  A    between atoms: N_15  and  C_14 
REMARK    7  A    between atoms: N_20  and  C_19 
REMARK       I    between atoms: C_22  and  N_20 
ROOT
ATOM      1  C   LIG d   1      -2.709  78.288 115.078  0.00  0.00     0.161 C 
ATOM      2  C   LIG d   1      -2.928  79.491 114.387  0.00  0.00     0.016 C 
ATOM      3  C   LIG d   1      -2.293  79.814 113.165  0.00  0.00     0.038 C 
ATOM      4  C   LIG d   1      -1.505  78.884 112.471  0.00  0.00     0.028 C 
ATOM      5  C   LIG d   1      -0.853  77.846 113.377  0.00  0.00    -0.047 C 
ATOM      6  C   LIG d   1      -1.939  77.215 114.280  0.00  0.00     0.091 C 
ENDROOT
BRANCH   1   7
ATOM      7  O   LIG d   1      -3.965  77.758 115.546  0.00  0.00    -0.368 OA
BRANCH   7   8
ATOM      8  C   LIG d   1      -4.151  77.737 116.983  0.00  0.00     0.119 C 
BRANCH   8   9
ATOM      9  C   LIG d   1      -5.308  78.700 117.314  0.00  0.00     0.028 C 
ATOM     10  C   LIG d   1      -4.894  79.792 118.315  0.00  0.00     0.006 C 
ENDBRANCH   8   9
BRANCH   8  11
ATOM     11  C   LIG d   1      -2.929  78.306 117.712  0.00  0.00     0.028 C 
ATOM     12  C   LIG d   1      -2.249  77.276 118.628  0.00  0.00     0.006 C 
ENDBRANCH   8  11
ENDBRANCH   7   8
ENDBRANCH   1   7
BRANCH   6  13
ATOM     13  N   LIG d   1      -1.372  76.248 115.256  0.00  0.00    -0.311 N 
ATOM     14  C   LIG d   1      -1.909  75.054 115.500  0.00  0.00     0.210 C 
ATOM     15  C   LIG d   1      -1.178  74.221 116.559  0.00  0.00     0.109 C 
ATOM     16  O   LIG d   1      -2.901  74.592 114.918  0.00  0.00    -0.276 OA
ATOM     17  H   LIG d   1      -0.549  76.530 115.751  0.00  0.00     0.149 HD
ENDBRANCH   6  13
BRANCH   5  18
ATOM     18  N   LIG d   1      -0.177  76.861 112.512  0.00  0.00     0.381 N 
ATOM     19  H   LIG d   1       0.765  77.152 112.339  0.00  0.00    -0.090 HD
ATOM     20  H   LIG d   1      -0.659  76.815 111.632  0.00  0.00    -0.090 HD
ATOM     21  H   LIG d   1      -0.180  75.965 112.948  0.00  0.00    -0.090 HD
ENDBRANCH   5  18
BRANCH   3  22
ATOM     22  C   LIG d   1      -2.412  81.095 112.646  0.00  0.00     0.382 C 
ATOM     23  O   LIG d   1      -1.479  81.584 111.965  0.00  0.00    -0.241 OA
ATOM     24  O   LIG d   1      -3.421  81.783 112.888  0.00  0.00    -0.241 OA
ENDBRANCH   3  22
TORSDOF 7
ENDMDL
MODEL 3
REMARK VINA RESULT:      -4.8      2.236      2.838
REMARK  7 active torsions:
REMARK  status: ('A' for Active; 'I' for Inactive)
REMARK    1  A    between atoms: C_2  and  C_3 
REMARK    2  A    between atoms: C_3  and  O_6 
REMARK    3  A    between atoms: C_3  and  C_4 
REMARK    4  A    between atoms: C_7  and  O_6 
REMARK    5  A    between atoms: C_9  and  C_10 
REMARK    6  A    between atoms: N_15  and  C_14 
REMARK    7  A    between atoms: N_20  and  C_19 
REMARK       I    between atoms: C_22  and  N_20 
ROOT
ATOM      1  C   LIG d   1      -2.762  77.196 115.211  0.00  0.00     0.161 C 
ATOM      2  C   LIG d   1      -2.864  77.637 113.881  0.00  0.00     0.016 C 
ATOM      3  C   LIG d   1      -1.812  77.529 112.942  0.00  0.00     0.038 C 
ATOM      4  C   LIG d   1      -0.630  76.831 113.230  0.00  0.00     0.028 C 
ATOM      5  C   LIG d   1      -0.285  76.812 114.716  0.00  0.00    -0.047 C 
ATOM      6  C   LIG d   1      -1.520  76.331 115.512  0.00  0.00     0.091 C 
ENDROOT
BRANCH   1   7
ATOM      7  O   LIG d   1      -3.964  76.494 115.586  0.00  0.00    -0.368 OA
BRANCH   7   8
ATOM      8  C   LIG d   1      -3.940  75.055 115.420  0.00  0.00     0.119 C 
BRANCH   8   9
ATOM      9  C   LIG d   1      -5.000  74.694 114.362  0.00  0.00     0.028 C 
ATOM     10  C   LIG d   1      -6.134  75.731 114.290  0.00  0.00     0.006 C 
ENDBRANCH   8   9
BRANCH   8  11
ATOM     11  C   LIG d   1      -4.383  74.339 116.699  0.00  0.00     0.028 C 
ATOM     12  C   LIG d   1      -4.791  75.312 117.816  0.00  0.00     0.006 C 
ENDBRANCH   8  11
ENDBRANCH   7   8
ENDBRANCH   1   7
BRANCH   6  13
ATOM     13  N   LIG d   1      -1.295  76.363 116.980  0.00  0.00    -0.311 N 
ATOM     14  C   LIG d   1      -0.920  75.299 117.688  0.00  0.00     0.210 C 
ATOM     15  C   LIG d   1      -0.763  75.545 119.192  0.00  0.00     0.109 C 
ATOM     16  O   LIG d   1      -0.670  74.183 117.208  0.00  0.00    -0.276 OA
ATOM     17  H   LIG d   1      -1.444  77.237 117.446  0.00  0.00     0.149 HD
ENDBRANCH   6  13
BRANCH   5  18
ATOM     18  N   LIG d   1       0.891  75.937 114.889  0.00  0.00     0.381 N 
ATOM     19  H   LIG d   1       0.608  75.066 115.291  0.00  0.00    -0.090 HD
ATOM     20  H   LIG d   1       1.536  76.381 115.518  0.00  0.00    -0.090 HD
ATOM     21  H   LIG d   1       1.330  75.778 114.008  0.00  0.00    -0.090 HD
ENDBRANCH   5  18
BRANCH   3  22
ATOM     22  C   LIG d   1      -1.922  78.159 111.712  0.00  0.00     0.382 C 
ATOM     23  O   LIG d   1      -1.970  79.411 111.651  0.00  0.00    -0.241 OA
ATOM     24  O   LIG d   1      -2.018  77.490 110.666  0.00  0.00    -0.241 OA
ENDBRANCH   3  22
TORSDOF 7
ENDMDL
MODEL 4
REMARK VINA RESULT:      -4.6      3.900      5.327
REMARK  7 active torsions:
REMARK  status: ('A' for Active; 'I' for Inactive)
REMARK    1  A    between atoms: C_2  and  C_3 
REMARK    2  A    between atoms: C_3  and  O_6 
REMARK    3  A    between atoms: C_3  and  C_4 
REMARK    4  A    between atoms: C_7  and  O_6 
REMARK    5  A    between atoms: C_9  and  C_10 
REMARK    6  A    between atoms: N_15  and  C_14 
REMARK    7  A    between atoms: N_20  and  C_19 
REMARK       I    between atoms: C_22  and  N_20 
ROOT
ATOM      1  C   LIG d   1      -6.291  77.273 117.018  0.00  0.00     0.161 C 
ATOM      2  C   LIG d   1      -7.127  78.385 117.213  0.00  0.00     0.016 C 
ATOM      3  C   LIG d   1      -6.681  79.606 117.770  0.00  0.00     0.038 C 
ATOM      4  C   LIG d   1      -5.325  79.850 118.033  0.00  0.00     0.028 C 
ATOM      5  C   LIG d   1      -4.527  78.583 118.323  0.00  0.00    -0.047 C 
ATOM      6  C   LIG d   1      -4.784  77.558 117.195  0.00  0.00     0.091 C 
ENDROOT
BRANCH   1   7
ATOM      7  O   LIG d   1      -6.542  76.694 115.723  0.00  0.00    -0.368 OA
BRANCH   7   8
ATOM      8  C   LIG d   1      -7.151  75.379 115.720  0.00  0.00     0.119 C 
BRANCH   8   9
ATOM      9  C   LIG d   1      -7.595  75.071 117.163  0.00  0.00     0.028 C 
ATOM     10  C   LIG d   1      -9.060  74.610 117.241  0.00  0.00     0.006 C 
ENDBRANCH   8   9
BRANCH   8  11
ATOM     11  C   LIG d   1      -6.129  74.293 115.369  0.00  0.00     0.028 C 
ATOM     12  C   LIG d   1      -5.151  74.729 114.267  0.00  0.00     0.006 C 
ENDBRANCH   8  11
ENDBRANCH   7   8
ENDBRANCH   1   7
BRANCH   6  13
ATOM     13  N   LIG d   1      -4.108  76.258 117.445  0.00  0.00    -0.311 N 
ATOM     14  C   LIG d   1      -2.916  75.944 116.940  0.00  0.00     0.210 C 
ATOM     15  C   LIG d   1      -2.408  74.545 117.305  0.00  0.00     0.109 C 
ATOM     16  O   LIG d   1      -2.216  76.703 116.252  0.00  0.00    -0.276 OA
ATOM     17  H   LIG d   1      -4.591  75.595 118.019  0.00  0.00     0.149 HD
ENDBRANCH   6  13
BRANCH   5  18
ATOM     18  N   LIG d   1      -3.108  78.967 118.442  0.00  0.00     0.381 N 
ATOM     19  H   LIG d   1      -2.770  78.741 119.356  0.00  0.00    -0.090 HD
ATOM     20  H   LIG d   1      -3.028  79.961 118.314  0.00  0.00    -0.090 HD
ATOM     21  H   LIG d   1      -2.567  78.492 117.753  0.00  0.00    -0.090 HD
ENDBRANCH   5  18
BRANCH   3  22
ATOM     22  C   LIG d   1      -7.603  80.585 118.108  0.00  0.00     0.382 C 
ATOM     23  O   LIG d   1      -7.839  80.834 119.315  0.00  0.00    -0.241 OA
ATOM     24  O   LIG d   1      -8.235  81.190 117.222  0.00  0.00    -0.241 OA
ENDBRANCH   3  22
TORSDOF 7
ENDMDL
MODEL 5
REMARK VINA RESULT:      -4.5      2.681      5.394
REMARK  7 active torsions:
REMARK  status: ('A' for Active; 'I' for Inactive)
REMARK    1  A    between atoms: C_2  and  C_3 
REMARK    2  A    between atoms: C_3  and  O_6 
REMARK    3  A    between atoms: C_3  and  C_4 
REMARK    4  A    between atoms: C_7  and  O_6 
REMARK    5  A    between atoms: C_9  and  C_10 
REMARK    6  A    between atoms: N_15  and  C_14 
REMARK    7  A    between atoms: N_20  and  C_19 
REMARK       I    between atoms: C_22  and  N_20 
ROOT
ATOM      1  C   LIG d   1      -1.166  75.277 115.229  0.00  0.00     0.161 C 
ATOM      2  C   LIG d   1      -0.547  74.879 116.426  0.00  0.00     0.016 C 
ATOM      3  C   LIG d   1      -0.034  75.790 117.378  0.00  0.00     0.038 C 
ATOM      4  C   LIG d   1      -0.242  77.173 117.267  0.00  0.00     0.028 C 
ATOM      5  C   LIG d   1      -0.418  77.646 115.828  0.00  0.00    -0.047 C 
ATOM      6  C   LIG d   1      -1.501  76.781 115.144  0.00  0.00     0.091 C 
ENDROOT
BRANCH   1   7
ATOM      7  O   LIG d   1      -2.350  74.487 115.005  0.00  0.00    -0.368 OA
BRANCH   7   8
ATOM      8  C   LIG d   1      -3.603  75.082 115.423  0.00  0.00     0.119 C 
BRANCH   8   9
ATOM      9  C   LIG d   1      -3.910  74.567 116.842  0.00  0.00     0.028 C 
ATOM     10  C   LIG d   1      -3.921  75.696 117.886  0.00  0.00     0.006 C 
ENDBRANCH   8   9
BRANCH   8  11
ATOM     11  C   LIG d   1      -4.767  74.597 114.554  0.00  0.00     0.028 C 
ATOM     12  C   LIG d   1      -5.493  75.746 113.836  0.00  0.00     0.006 C 
ENDBRANCH   8  11
ENDBRANCH   7   8
ENDBRANCH   1   7
BRANCH   6  13
ATOM     13  N   LIG d   1      -1.676  77.123 113.708  0.00  0.00    -0.311 N 
ATOM     14  C   LIG d   1      -2.565  78.012 113.269  0.00  0.00     0.210 C 
ATOM     15  C   LIG d   1      -2.594  78.199 111.749  0.00  0.00     0.109 C 
ATOM     16  O   LIG d   1      -3.309  78.686 113.996  0.00  0.00    -0.276 OA
ATOM     17  H   LIG d   1      -1.090  76.645 113.051  0.00  0.00     0.149 HD
ENDBRANCH   6  13
BRANCH   5  18
ATOM     18  N   LIG d   1      -0.763  79.080 115.870  0.00  0.00     0.381 N 
ATOM     19  H   LIG d   1      -1.503  79.231 116.526  0.00  0.00    -0.090 HD
ATOM     20  H   LIG d   1      -1.085  79.363 114.961  0.00  0.00    -0.090 HD
ATOM     21  H   LIG d   1       0.036  79.615 116.129  0.00  0.00    -0.090 HD
ENDBRANCH   5  18
BRANCH   3  22
ATOM     22  C   LIG d   1       0.731  75.321 118.435  0.00  0.00     0.382 C 
ATOM     23  O   LIG d   1       1.440  74.296 118.290  0.00  0.00    -0.241 OA
ATOM     24  O   LIG d   1       0.686  75.884 119.545  0.00  0.00    -0.241 OA
ENDBRANCH   3  22
TORSDOF 7
ENDMDL
MODEL 6
REMARK VINA RESULT:      -4.3      2.529      5.365
REMARK  7 active torsions:
REMARK  status: ('A' for Active; 'I' for Inactive)
REMARK    1  A    between atoms: C_2  and  C_3 
REMARK    2  A    between atoms: C_3  and  O_6 
REMARK    3  A    between atoms: C_3  and  C_4 
REMARK    4  A    between atoms: C_7  and  O_6 
REMARK    5  A    between atoms: C_9  and  C_10 
REMARK    6  A    between atoms: N_15  and  C_14 
REMARK    7  A    between atoms: N_20  and  C_19 
REMARK       I    between atoms: C_22  and  N_20 
ROOT
ATOM      1  C   LIG d   1      -1.710  77.996 114.649  0.00  0.00     0.161 C 
ATOM      2  C   LIG d   1      -2.777  77.350 114.002  0.00  0.00     0.016 C 
ATOM      3  C   LIG d   1      -3.808  76.670 114.690  0.00  0.00     0.038 C 
ATOM      4  C   LIG d   1      -3.924  76.719 116.088  0.00  0.00     0.028 C 
ATOM      5  C   LIG d   1      -2.592  76.933 116.799  0.00  0.00    -0.047 C 
ATOM      6  C   LIG d   1      -1.880  78.154 116.175  0.00  0.00     0.091 C 
ENDROOT
BRANCH   1   7
ATOM      7  O   LIG d   1      -1.470  79.278 114.036  0.00  0.00    -0.368 OA
BRANCH   7   8
ATOM      8  C   LIG d   1      -2.168  79.530 112.792  0.00  0.00     0.119 C 
BRANCH   8   9
ATOM      9  C   LIG d   1      -1.130  79.454 111.655  0.00  0.00     0.028 C 
ATOM     10  C   LIG d   1      -1.431  78.320 110.660  0.00  0.00     0.006 C 
ENDBRANCH   8   9
BRANCH   8  11
ATOM     11  C   LIG d   1      -2.721  80.958 112.742  0.00  0.00     0.028 C 
ATOM     12  C   LIG d   1      -1.642  82.002 112.415  0.00  0.00     0.006 C 
ENDBRANCH   8  11
ENDBRANCH   7   8
ENDBRANCH   1   7
BRANCH   6  13
ATOM     13  N   LIG d   1      -0.531  78.383 116.756  0.00  0.00    -0.311 N 
ATOM     14  C   LIG d   1      -0.274  79.324 117.663  0.00  0.00     0.210 C 
ATOM     15  C   LIG d   1       1.188  79.402 118.116  0.00  0.00     0.109 C 
ATOM     16  O   LIG d   1      -1.123  80.079 118.159  0.00  0.00    -0.276 OA
ATOM     17  H   LIG d   1       0.210  77.793 116.433  0.00  0.00     0.149 HD
ENDBRANCH   6  13
BRANCH   5  18
ATOM     18  N   LIG d   1      -2.877  77.101 118.236  0.00  0.00     0.381 N 
ATOM     19  H   LIG d   1      -2.349  76.436 118.766  0.00  0.00    -0.090 HD
ATOM     20  H   LIG d   1      -3.854  76.929 118.397  0.00  0.00    -0.090 HD
ATOM     21  H   LIG d   1      -2.644  78.026 118.524  0.00  0.00    -0.090 HD
ENDBRANCH   5  18
BRANCH   3  22
ATOM     22  C   LIG d   1      -4.715  75.898 113.981  0.00  0.00     0.382 C 
ATOM     23  O   LIG d   1      -4.758  74.657 114.161  0.00  0.00    -0.241 OA
ATOM     24  O   LIG d   1      -5.459  76.420 113.130  0.00  0.00    -0.241 OA
ENDBRANCH   3  22
TORSDOF 7
ENDMDL
MODEL 7
REMARK VINA RESULT:      -4.2      3.929      5.707
REMARK  7 active torsions:
REMARK  status: ('A' for Active; 'I' for Inactive)
REMARK    1  A    between atoms: C_2  and  C_3 
REMARK    2  A    between atoms: C_3  and  O_6 
REMARK    3  A    between atoms: C_3  and  C_4 
REMARK    4  A    between atoms: C_7  and  O_6 
REMARK    5  A    between atoms: C_9  and  C_10 
REMARK    6  A    between atoms: N_15  and  C_14 
REMARK    7  A    between atoms: N_20  and  C_19 
REMARK       I    between atoms: C_22  and  N_20 
ROOT
ATOM      1  C   LIG d   1      -6.331  77.951 117.492  0.00  0.00     0.161 C 
ATOM      2  C   LIG d   1      -7.305  78.952 117.645  0.00  0.00     0.016 C 
ATOM      3  C   LIG d   1      -7.053  80.195 118.268  0.00  0.00     0.038 C 
ATOM      4  C   LIG d   1      -5.760  80.584 118.650  0.00  0.00     0.028 C 
ATOM      5  C   LIG d   1      -4.844  79.408 118.974  0.00  0.00    -0.047 C 
ATOM      6  C   LIG d   1      -4.888  78.401 117.802  0.00  0.00     0.091 C 
ENDROOT
BRANCH   1   7
ATOM      7  O   LIG d   1      -6.408  77.392 116.166  0.00  0.00    -0.368 OA
BRANCH   7   8
ATOM      8  C   LIG d   1      -6.784  75.996 116.083  0.00  0.00     0.119 C 
BRANCH   8   9
ATOM      9  C   LIG d   1      -6.249  75.451 114.744  0.00  0.00     0.028 C 
ATOM     10  C   LIG d   1      -5.245  74.303 114.937  0.00  0.00     0.006 C 
ENDBRANCH   8   9
BRANCH   8  11
ATOM     11  C   LIG d   1      -8.305  75.832 116.009  0.00  0.00     0.028 C 
ATOM     12  C   LIG d   1      -8.849  74.841 117.051  0.00  0.00     0.006 C 
ENDBRANCH   8  11
ENDBRANCH   7   8
ENDBRANCH   1   7
BRANCH   6  13
ATOM     13  N   LIG d   1      -4.085  77.180 118.075  0.00  0.00    -0.311 N 
ATOM     14  C   LIG d   1      -3.259  76.632 117.185  0.00  0.00     0.210 C 
ATOM     15  C   LIG d   1      -2.543  75.365 117.662  0.00  0.00     0.109 C 
ATOM     16  O   LIG d   1      -3.028  77.093 116.057  0.00  0.00    -0.276 OA
ATOM     17  H   LIG d   1      -4.189  76.758 118.977  0.00  0.00     0.149 HD
ENDBRANCH   6  13
BRANCH   5  18
ATOM     18  N   LIG d   1      -3.495  79.949 119.221  0.00  0.00     0.381 N 
ATOM     19  H   LIG d   1      -3.156  80.405 118.398  0.00  0.00    -0.090 HD
ATOM     20  H   LIG d   1      -2.874  79.189 119.438  0.00  0.00    -0.090 HD
ATOM     21  H   LIG d   1      -3.520  80.594 119.980  0.00  0.00    -0.090 HD
ENDBRANCH   5  18
BRANCH   3  22
ATOM     22  C   LIG d   1      -8.108  81.048 118.552  0.00  0.00     0.382 C 
ATOM     23  O   LIG d   1      -8.976  81.285 117.678  0.00  0.00    -0.241 OA
ATOM     24  O   LIG d   1      -8.179  81.619 119.657  0.00  0.00    -0.241 OA
ENDBRANCH   3  22
TORSDOF 7
ENDMDL
MODEL 8
REMARK VINA RESULT:      -4.1      2.809      4.390
REMARK  7 active torsions:
REMARK  status: ('A' for Active; 'I' for Inactive)
REMARK    1  A    between atoms: C_2  and  C_3 
REMARK    2  A    between atoms: C_3  and  O_6 
REMARK    3  A    between atoms: C_3  and  C_4 
REMARK    4  A    between atoms: C_7  and  O_6 
REMARK    5  A    between atoms: C_9  and  C_10 
REMARK    6  A    between atoms: N_15  and  C_14 
REMARK    7  A    between atoms: N_20  and  C_19 
REMARK       I    between atoms: C_22  and  N_20 
ROOT
ATOM      1  C   LIG d   1      -1.168  77.251 114.456  0.00  0.00     0.161 C 
ATOM      2  C   LIG d   1      -0.742  76.960 113.149  0.00  0.00     0.016 C 
ATOM      3  C   LIG d   1      -0.966  77.818 112.048  0.00  0.00     0.038 C 
ATOM      4  C   LIG d   1      -1.503  79.104 112.208  0.00  0.00     0.028 C 
ATOM      5  C   LIG d   1      -2.407  79.236 113.429  0.00  0.00    -0.047 C 
ATOM      6  C   LIG d   1      -1.656  78.699 114.669  0.00  0.00     0.091 C 
ENDROOT
BRANCH   1   7
ATOM      7  O   LIG d   1      -0.121  76.933 115.394  0.00  0.00    -0.368 OA
BRANCH   7   8
ATOM      8  C   LIG d   1      -0.144  75.593 115.944  0.00  0.00     0.119 C 
BRANCH   8   9
ATOM      9  C   LIG d   1      -1.618  75.223 116.200  0.00  0.00     0.028 C 
ATOM     10  C   LIG d   1      -2.017  75.390 117.676  0.00  0.00     0.006 C 
ENDBRANCH   8   9
BRANCH   8  11
ATOM     11  C   LIG d   1       0.531  75.543 117.318  0.00  0.00     0.028 C 
ATOM     12  C   LIG d   1       1.437  76.755 117.581  0.00  0.00     0.006 C 
ENDBRANCH   8  11
ENDBRANCH   7   8
ENDBRANCH   1   7
BRANCH   6  13
ATOM     13  N   LIG d   1      -2.500  78.714 115.893  0.00  0.00    -0.311 N 
ATOM     14  C   LIG d   1      -2.054  79.105 117.085  0.00  0.00     0.210 C 
ATOM     15  C   LIG d   1      -3.083  79.023 118.218  0.00  0.00     0.109 C 
ATOM     16  O   LIG d   1      -0.915  79.542 117.307  0.00  0.00    -0.276 OA
ATOM     17  H   LIG d   1      -3.447  78.405 115.797  0.00  0.00     0.149 HD
ENDBRANCH   6  13
BRANCH   5  18
ATOM     18  N   LIG d   1      -2.785  80.657 113.552  0.00  0.00     0.381 N 
ATOM     19  H   LIG d   1      -3.779  80.750 113.482  0.00  0.00    -0.090 HD
ATOM     20  H   LIG d   1      -2.366  81.171 112.797  0.00  0.00    -0.090 HD
ATOM     21  H   LIG d   1      -2.471  81.019 114.425  0.00  0.00    -0.090 HD
ENDBRANCH   5  18
BRANCH   3  22
ATOM     22  C   LIG d   1      -0.689  77.375 110.764  0.00  0.00     0.382 C 
ATOM     23  O   LIG d   1      -0.438  76.163 110.559  0.00  0.00    -0.241 OA
ATOM     24  O   LIG d   1      -0.642  78.179 109.814  0.00  0.00    -0.241 OA
ENDBRANCH   3  22
TORSDOF 7
ENDMDL
MODEL 9
REMARK VINA RESULT:      -4.0      2.092      5.002
REMARK  7 active torsions:
REMARK  status: ('A' for Active; 'I' for Inactive)
REMARK    1  A    between atoms: C_2  and  C_3 
REMARK    2  A    between atoms: C_3  and  O_6 
REMARK    3  A    between atoms: C_3  and  C_4 
REMARK    4  A    between atoms: C_7  and  O_6 
REMARK    5  A    between atoms: C_9  and  C_10 
REMARK    6  A    between atoms: N_15  and  C_14 
REMARK    7  A    between atoms: N_20  and  C_19 
REMARK       I    between atoms: C_22  and  N_20 
ROOT
ATOM      1  C   LIG d   1      -1.630  78.399 115.031  0.00  0.00     0.161 C 
ATOM      2  C   LIG d   1      -2.784  78.852 115.693  0.00  0.00     0.016 C 
ATOM      3  C   LIG d   1      -3.143  78.444 116.998  0.00  0.00     0.038 C 
ATOM      4  C   LIG d   1      -2.287  77.667 117.794  0.00  0.00     0.028 C 
ATOM      5  C   LIG d   1      -1.351  76.776 116.985  0.00  0.00    -0.047 C 
ATOM      6  C   LIG d   1      -0.628  77.639 115.925  0.00  0.00     0.091 C 
ENDROOT
BRANCH   1   7
ATOM      7  O   LIG d   1      -0.978  79.505 114.375  0.00  0.00    -0.368 OA
BRANCH   7   8
ATOM      8  C   LIG d   1      -0.886  79.425 112.932  0.00  0.00     0.119 C 
BRANCH   8   9
ATOM      9  C   LIG d   1      -1.301  80.797 112.365  0.00  0.00     0.028 C 
ATOM     10  C   LIG d   1      -2.736  81.185 112.761  0.00  0.00     0.006 C 
ENDBRANCH   8   9
BRANCH   8  11
ATOM     11  C   LIG d   1      -1.900  78.428 112.363  0.00  0.00     0.028 C 
ATOM     12  C   LIG d   1      -1.350  77.635 111.167  0.00  0.00     0.006 C 
ENDBRANCH   8  11
ENDBRANCH   7   8
ENDBRANCH   1   7
BRANCH   6  13
ATOM     13  N   LIG d   1       0.244  76.830 115.035  0.00  0.00    -0.311 N 
ATOM     14  C   LIG d   1      -0.187  75.774 114.347  0.00  0.00     0.210 C 
ATOM     15  C   LIG d   1       0.881  75.070 113.505  0.00  0.00     0.109 C 
ATOM     16  O   LIG d   1      -1.361  75.374 114.329  0.00  0.00    -0.276 OA
ATOM     17  H   LIG d   1       1.205  77.103 114.966  0.00  0.00     0.149 HD
ENDBRANCH   6  13
BRANCH   5  18
ATOM     18  N   LIG d   1      -0.425  76.127 117.932  0.00  0.00     0.381 N 
ATOM     19  H   LIG d   1       0.502  76.129 117.554  0.00  0.00    -0.090 HD
ATOM     20  H   LIG d   1      -0.710  75.173 118.063  0.00  0.00    -0.090 HD
ATOM     21  H   LIG d   1      -0.436  76.608 118.804  0.00  0.00    -0.090 HD
ENDBRANCH   5  18
BRANCH   3  22
ATOM     22  C   LIG d   1      -4.388  78.782 117.505  0.00  0.00     0.382 C 
ATOM     23  O   LIG d   1      -5.128  79.574 116.875  0.00  0.00    -0.241 OA
ATOM     24  O   LIG d   1      -4.763  78.338 118.608  0.00  0.00    -0.241 OA
ENDBRANCH   3  22
TORSDOF 7
ENDMDL
