MODEL 1
REMARK VINA RESULT:      -5.1      0.000      0.000
REMARK  7 active torsions:
REMARK  status: ('A' for Active; 'I' for Inactive)
REMARK    1  A    between atoms: C_2  and  C_3 
REMARK    2  A    between atoms: C_3  and  O_6 
REMARK    3  A    between atoms: C_3  and  C_4 
REMARK    4  A    between atoms: C_7  and  O_6 
REMARK    5  A    between atoms: C_9  and  C_10 
REMARK    6  A    between atoms: N_15  and  C_14 
REMARK    7  A    between atoms: N_20  and  C_19 
REMARK       I    between atoms: C_22  and  N_20 
ROOT
ATOM      1  C   LIG d   1      -2.999  78.382 115.545  0.00  0.00     0.161 C 
ATOM      2  C   LIG d   1      -3.020  79.502 114.697  0.00  0.00     0.016 C 
ATOM      3  C   LIG d   1      -2.276  79.584 113.497  0.00  0.00     0.038 C 
ATOM      4  C   LIG d   1      -1.573  78.484 112.984  0.00  0.00     0.028 C 
ATOM      5  C   LIG d   1      -1.116  77.503 114.058  0.00  0.00    -0.047 C 
ATOM      6  C   LIG d   1      -2.326  77.130 114.945  0.00  0.00     0.091 C 
ENDROOT
BRANCH   1   7
ATOM      7  O   LIG d   1      -4.338  78.072 115.977  0.00  0.00    -0.368 OA
BRANCH   7   8
ATOM      8  C   LIG d   1      -4.669  78.438 117.340  0.00  0.00     0.119 C 
BRANCH   8   9
ATOM      9  C   LIG d   1      -5.658  77.385 117.875  0.00  0.00     0.028 C 
ATOM     10  C   LIG d   1      -5.049  75.973 117.912  0.00  0.00     0.006 C 
ENDBRANCH   8   9
BRANCH   8  11
ATOM     11  C   LIG d   1      -5.425  79.768 117.392  0.00  0.00     0.028 C 
ATOM     12  C   LIG d   1      -6.913  79.595 117.737  0.00  0.00     0.006 C 
ENDBRANCH   8  11
ENDBRANCH   7   8
ENDBRANCH   1   7
BRANCH   6  13
ATOM     13  N   LIG d   1      -1.948  76.239 116.073  0.00  0.00    -0.311 N 
ATOM     14  C   LIG d   1      -1.974  74.909 115.997  0.00  0.00     0.210 C 
ATOM     15  C   LIG d   1      -1.566  74.181 117.281  0.00  0.00     0.109 C 
ATOM     16  O   LIG d   1      -2.266  74.265 114.979  0.00  0.00    -0.276 OA
ATOM     17  H   LIG d   1      -1.669  76.679 116.928  0.00  0.00     0.149 HD
ENDBRANCH   6  13
BRANCH   5  18
ATOM     18  N   LIG d   1      -0.520  76.340 113.375  0.00  0.00     0.381 N 
ATOM     19  H   LIG d   1      -1.244  75.736 113.039  0.00  0.00    -0.090 HD
ATOM     20  H   LIG d   1       0.039  75.826 114.034  0.00  0.00    -0.090 HD
ATOM     21  H   LIG d   1       0.048  76.645 112.614  0.00  0.00    -0.090 HD
ENDBRANCH   5  18
BRANCH   3  22
ATOM     22  C   LIG d   1      -2.198  80.791 112.818  0.00  0.00     0.382 C 
ATOM     23  O   LIG d   1      -1.145  81.101 112.210  0.00  0.00    -0.241 OA
ATOM     24  O   LIG d   1      -3.150  81.593 112.843  0.00  0.00    -0.241 OA
ENDBRANCH   3  22
TORSDOF 7
ENDMDL
MODEL 2
REMARK VINA RESULT:      -4.8      2.158      2.733
REMARK  7 active torsions:
REMARK  status: ('A' for Active; 'I' for Inactive)
REMARK    1  A    between atoms: C_2  and  C_3 
REMARK    2  A    between atoms: C_3  and  O_6 
REMARK    3  A    between atoms: C_3  and  C_4 
REMARK    4  A    between atoms: C_7  and  O_6 
REMARK    5  A    between atoms: C_9  and  C_10 
REMARK    6  A    between atoms: N_15  and  C_14 
REMARK    7  A    between atoms: N_20  and  C_19 
REMARK       I    between atoms: C_22  and  N_20 
ROOT
ATOM      1  C   LIG d   1      -2.590  76.958 115.189  0.00  0.00     0.161 C 
ATOM      2  C   LIG d   1      -2.783  77.818 114.095  0.00  0.00     0.016 C 
ATOM      3  C   LIG d   1      -1.876  78.844 113.743  0.00  0.00     0.038 C 
ATOM      4  C   LIG d   1      -0.631  78.983 114.375  0.00  0.00     0.028 C 
ATOM      5  C   LIG d   1      -0.618  78.460 115.807  0.00  0.00    -0.047 C 
ATOM      6  C   LIG d   1      -1.184  77.022 115.822  0.00  0.00     0.091 C 
ENDROOT
BRANCH   1   7
ATOM      7  O   LIG d   1      -2.906  75.604 114.807  0.00  0.00    -0.368 OA
BRANCH   7   8
ATOM      8  C   LIG d   1      -4.006  74.982 115.516  0.00  0.00     0.119 C 
BRANCH   8   9
ATOM      9  C   LIG d   1      -5.005  74.469 114.461  0.00  0.00     0.028 C 
ATOM     10  C   LIG d   1      -6.055  75.527 114.084  0.00  0.00     0.006 C 
ENDBRANCH   8   9
BRANCH   8  11
ATOM     11  C   LIG d   1      -4.784  76.007 116.346  0.00  0.00     0.028 C 
ATOM     12  C   LIG d   1      -4.818  75.659 117.843  0.00  0.00     0.006 C 
ENDBRANCH   8  11
ENDBRANCH   7   8
ENDBRANCH   1   7
BRANCH   6  13
ATOM     13  N   LIG d   1      -1.285  76.466 117.197  0.00  0.00    -0.311 N 
ATOM     14  C   LIG d   1      -0.785  75.282 117.547  0.00  0.00     0.210 C 
ATOM     15  C   LIG d   1      -1.016  74.890 119.010  0.00  0.00     0.109 C 
ATOM     16  O   LIG d   1      -0.145  74.534 116.794  0.00  0.00    -0.276 OA
ATOM     17  H   LIG d   1      -1.761  77.022 117.880  0.00  0.00     0.149 HD
ENDBRANCH   6  13
BRANCH   5  18
ATOM     18  N   LIG d   1       0.771  78.540 116.298  0.00  0.00     0.381 N 
ATOM     19  H   LIG d   1       0.864  78.006 117.139  0.00  0.00    -0.090 HD
ATOM     20  H   LIG d   1       0.988  79.499 116.507  0.00  0.00    -0.090 HD
ATOM     21  H   LIG d   1       1.398  78.194 115.605  0.00  0.00    -0.090 HD
ENDBRANCH   5  18
BRANCH   3  22
ATOM     22  C   LIG d   1      -2.230  79.771 112.774  0.00  0.00     0.382 C 
ATOM     23  O   LIG d   1      -1.540  79.882 111.732  0.00  0.00    -0.241 OA
ATOM     24  O   LIG d   1      -3.203  80.528 112.949  0.00  0.00    -0.241 OA
ENDBRANCH   3  22
TORSDOF 7
ENDMDL
MODEL 3
REMARK VINA RESULT:      -4.7      1.032      1.868
REMARK  7 active torsions:
REMARK  status: ('A' for Active; 'I' for Inactive)
REMARK    1  A    between atoms: C_2  and  C_3 
REMARK    2  A    between atoms: C_3  and  O_6 
REMARK    3  A    between atoms: C_3  and  C_4 
REMARK    4  A    between atoms: C_7  and  O_6 
REMARK    5  A    between atoms: C_9  and  C_10 
REMARK    6  A    between atoms: N_15  and  C_14 
REMARK    7  A    between atoms: N_20  and  C_19 
REMARK       I    between atoms: C_22  and  N_20 
ROOT
ATOM      1  C   LIG d   1      -2.222  78.338 116.279  0.00  0.00     0.161 C 
ATOM      2  C   LIG d   1      -2.519  79.295 115.294  0.00  0.00     0.016 C 
ATOM      3  C   LIG d   1      -2.128  79.166 113.941  0.00  0.00     0.038 C 
ATOM      4  C   LIG d   1      -1.541  77.991 113.448  0.00  0.00     0.028 C 
ATOM      5  C   LIG d   1      -0.770  77.209 114.505  0.00  0.00    -0.047 C 
ATOM      6  C   LIG d   1      -1.680  76.999 115.737  0.00  0.00     0.091 C 
ENDROOT
BRANCH   1   7
ATOM      7  O   LIG d   1      -3.381  78.112 117.105  0.00  0.00    -0.368 OA
BRANCH   7   8
ATOM      8  C   LIG d   1      -4.652  78.036 116.413  0.00  0.00     0.119 C 
BRANCH   8   9
ATOM      9  C   LIG d   1      -5.692  78.778 117.274  0.00  0.00     0.028 C 
ATOM     10  C   LIG d   1      -5.359  80.270 117.442  0.00  0.00     0.006 C 
ENDBRANCH   8   9
BRANCH   8  11
ATOM     11  C   LIG d   1      -5.153  76.592 116.326  0.00  0.00     0.028 C 
ATOM     12  C   LIG d   1      -4.743  75.744 117.541  0.00  0.00     0.006 C 
ENDBRANCH   8  11
ENDBRANCH   7   8
ENDBRANCH   1   7
BRANCH   6  13
ATOM     13  N   LIG d   1      -0.975  76.315 116.853  0.00  0.00    -0.311 N 
ATOM     14  C   LIG d   1      -1.040  75.002 117.065  0.00  0.00     0.210 C 
ATOM     15  C   LIG d   1      -0.254  74.504 118.283  0.00  0.00     0.109 C 
ATOM     16  O   LIG d   1      -1.647  74.197 116.343  0.00  0.00    -0.276 OA
ATOM     17  H   LIG d   1      -0.433  76.888 117.470  0.00  0.00     0.149 HD
ENDBRANCH   6  13
BRANCH   5  18
ATOM     18  N   LIG d   1      -0.329  75.943 113.890  0.00  0.00     0.381 N 
ATOM     19  H   LIG d   1       0.352  75.501 114.475  0.00  0.00    -0.090 HD
ATOM     20  H   LIG d   1       0.100  76.144 113.004  0.00  0.00    -0.090 HD
ATOM     21  H   LIG d   1      -1.109  75.337 113.760  0.00  0.00    -0.090 HD
ENDBRANCH   5  18
BRANCH   3  22
ATOM     22  C   LIG d   1      -2.288  80.236 113.075  0.00  0.00     0.382 C 
ATOM     23  O   LIG d   1      -1.302  80.682 112.440  0.00  0.00    -0.241 OA
ATOM     24  O   LIG d   1      -3.397  80.790 112.953  0.00  0.00    -0.241 OA
ENDBRANCH   3  22
TORSDOF 7
ENDMDL
MODEL 4
REMARK VINA RESULT:      -4.6      2.697      5.151
REMARK  7 active torsions:
REMARK  status: ('A' for Active; 'I' for Inactive)
REMARK    1  A    between atoms: C_2  and  C_3 
REMARK    2  A    between atoms: C_3  and  O_6 
REMARK    3  A    between atoms: C_3  and  C_4 
REMARK    4  A    between atoms: C_7  and  O_6 
REMARK    5  A    between atoms: C_9  and  C_10 
REMARK    6  A    between atoms: N_15  and  C_14 
REMARK    7  A    between atoms: N_20  and  C_19 
REMARK       I    between atoms: C_22  and  N_20 
ROOT
ATOM      1  C   LIG d   1      -1.187  75.703 115.023  0.00  0.00     0.161 C 
ATOM      2  C   LIG d   1      -0.805  75.437 116.349  0.00  0.00     0.016 C 
ATOM      3  C   LIG d   1      -0.267  76.417 117.215  0.00  0.00     0.038 C 
ATOM      4  C   LIG d   1      -0.216  77.773 116.860  0.00  0.00     0.028 C 
ATOM      5  C   LIG d   1      -0.121  78.002 115.355  0.00  0.00    -0.047 C 
ATOM      6  C   LIG d   1      -1.242  77.200 114.654  0.00  0.00     0.091 C 
ENDROOT
BRANCH   1   7
ATOM      7  O   LIG d   1      -2.452  75.071 114.744  0.00  0.00    -0.368 OA
BRANCH   7   8
ATOM      8  C   LIG d   1      -3.628  75.747 115.252  0.00  0.00     0.119 C 
BRANCH   8   9
ATOM      9  C   LIG d   1      -4.072  75.007 116.528  0.00  0.00     0.028 C 
ATOM     10  C   LIG d   1      -4.130  75.935 117.754  0.00  0.00     0.006 C 
ENDBRANCH   8   9
BRANCH   8  11
ATOM     11  C   LIG d   1      -4.806  75.622 114.280  0.00  0.00     0.028 C 
ATOM     12  C   LIG d   1      -5.847  74.589 114.736  0.00  0.00     0.006 C 
ENDBRANCH   8  11
ENDBRANCH   7   8
ENDBRANCH   1   7
BRANCH   6  13
ATOM     13  N   LIG d   1      -1.170  77.301 113.173  0.00  0.00    -0.311 N 
ATOM     14  C   LIG d   1      -2.078  77.939 112.437  0.00  0.00     0.210 C 
ATOM     15  C   LIG d   1      -1.825  77.906 110.926  0.00  0.00     0.109 C 
ATOM     16  O   LIG d   1      -3.052  78.555 112.893  0.00  0.00    -0.276 OA
ATOM     17  H   LIG d   1      -0.394  76.856 112.723  0.00  0.00     0.149 HD
ENDBRANCH   6  13
BRANCH   5  18
ATOM     18  N   LIG d   1      -0.215  79.455 115.119  0.00  0.00     0.381 N 
ATOM     19  H   LIG d   1      -0.493  79.627 114.173  0.00  0.00    -0.090 HD
ATOM     20  H   LIG d   1       0.691  79.866 115.261  0.00  0.00    -0.090 HD
ATOM     21  H   LIG d   1      -0.874  79.860 115.745  0.00  0.00    -0.090 HD
ENDBRANCH   5  18
BRANCH   3  22
ATOM     22  C   LIG d   1       0.263  76.036 118.438  0.00  0.00     0.382 C 
ATOM     23  O   LIG d   1       0.594  76.908 119.277  0.00  0.00    -0.241 OA
ATOM     24  O   LIG d   1       0.456  74.833 118.696  0.00  0.00    -0.241 OA
ENDBRANCH   3  22
TORSDOF 7
ENDMDL
MODEL 5
REMARK VINA RESULT:      -4.5      3.272      5.698
REMARK  7 active torsions:
REMARK  status: ('A' for Active; 'I' for Inactive)
REMARK    1  A    between atoms: C_2  and  C_3 
REMARK    2  A    between atoms: C_3  and  O_6 
REMARK    3  A    between atoms: C_3  and  C_4 
REMARK    4  A    between atoms: C_7  and  O_6 
REMARK    5  A    between atoms: C_9  and  C_10 
REMARK    6  A    between atoms: N_15  and  C_14 
REMARK    7  A    between atoms: N_20  and  C_19 
REMARK       I    between atoms: C_22  and  N_20 
ROOT
ATOM      1  C   LIG d   1      -1.526  79.585 114.341  0.00  0.00     0.161 C 
ATOM      2  C   LIG d   1      -2.269  78.457 114.727  0.00  0.00     0.016 C 
ATOM      3  C   LIG d   1      -2.683  77.452 113.823  0.00  0.00     0.038 C 
ATOM      4  C   LIG d   1      -2.249  77.430 112.489  0.00  0.00     0.028 C 
ATOM      5  C   LIG d   1      -1.917  78.812 111.937  0.00  0.00    -0.047 C 
ATOM      6  C   LIG d   1      -0.949  79.522 112.912  0.00  0.00     0.091 C 
ENDROOT
BRANCH   1   7
ATOM      7  O   LIG d   1      -0.474  79.827 115.296  0.00  0.00    -0.368 OA
BRANCH   7   8
ATOM      8  C   LIG d   1      -0.614  79.168 116.579  0.00  0.00     0.119 C 
BRANCH   8   9
ATOM      9  C   LIG d   1      -0.782  80.266 117.647  0.00  0.00     0.028 C 
ATOM     10  C   LIG d   1       0.505  81.081 117.859  0.00  0.00     0.006 C 
ENDBRANCH   8   9
BRANCH   8  11
ATOM     11  C   LIG d   1       0.666  78.420 116.964  0.00  0.00     0.028 C 
ATOM     12  C   LIG d   1       0.619  76.929 116.596  0.00  0.00     0.006 C 
ENDBRANCH   8  11
ENDBRANCH   7   8
ENDBRANCH   1   7
BRANCH   6  13
ATOM     13  N   LIG d   1      -0.639  80.913 112.490  0.00  0.00    -0.311 N 
ATOM     14  C   LIG d   1       0.401  81.231 111.722  0.00  0.00     0.210 C 
ATOM     15  C   LIG d   1       0.550  82.726 111.422  0.00  0.00     0.109 C 
ATOM     16  O   LIG d   1       1.197  80.414 111.234  0.00  0.00    -0.276 OA
ATOM     17  H   LIG d   1      -1.251  81.635 112.815  0.00  0.00     0.149 HD
ENDBRANCH   6  13
BRANCH   5  18
ATOM     18  N   LIG d   1      -1.348  78.629 110.589  0.00  0.00     0.381 N 
ATOM     19  H   LIG d   1      -0.768  77.814 110.574  0.00  0.00    -0.090 HD
ATOM     20  H   LIG d   1      -0.778  79.426 110.365  0.00  0.00    -0.090 HD
ATOM     21  H   LIG d   1      -2.080  78.537 109.920  0.00  0.00    -0.090 HD
ENDBRANCH   5  18
BRANCH   3  22
ATOM     22  C   LIG d   1      -3.573  76.475 114.242  0.00  0.00     0.382 C 
ATOM     23  O   LIG d   1      -4.511  76.116 113.489  0.00  0.00    -0.241 OA
ATOM     24  O   LIG d   1      -3.477  75.979 115.381  0.00  0.00    -0.241 OA
ENDBRANCH   3  22
TORSDOF 7
ENDMDL
MODEL 6
REMARK VINA RESULT:      -4.4      2.565      5.216
REMARK  7 active torsions:
REMARK  status: ('A' for Active; 'I' for Inactive)
REMARK    1  A    between atoms: C_2  and  C_3 
REMARK    2  A    between atoms: C_3  and  O_6 
REMARK    3  A    between atoms: C_3  and  C_4 
REMARK    4  A    between atoms: C_7  and  O_6 
REMARK    5  A    between atoms: C_9  and  C_10 
REMARK    6  A    between atoms: N_15  and  C_14 
REMARK    7  A    between atoms: N_20  and  C_19 
REMARK       I    between atoms: C_22  and  N_20 
ROOT
ATOM      1  C   LIG d   1      -1.016  77.442 114.562  0.00  0.00     0.161 C 
ATOM      2  C   LIG d   1      -1.503  77.690 115.856  0.00  0.00     0.016 C 
ATOM      3  C   LIG d   1      -2.381  78.754 116.166  0.00  0.00     0.038 C 
ATOM      4  C   LIG d   1      -2.954  79.557 115.169  0.00  0.00     0.028 C 
ATOM      5  C   LIG d   1      -2.100  79.663 113.911  0.00  0.00    -0.047 C 
ATOM      6  C   LIG d   1      -1.718  78.240 113.443  0.00  0.00     0.091 C 
ENDROOT
BRANCH   1   7
ATOM      7  O   LIG d   1      -1.072  76.030 114.280  0.00  0.00    -0.368 OA
BRANCH   7   8
ATOM      8  C   LIG d   1      -1.126  75.152 115.432  0.00  0.00     0.119 C 
BRANCH   8   9
ATOM      9  C   LIG d   1       0.111  74.234 115.372  0.00  0.00     0.028 C 
ATOM     10  C   LIG d   1       0.761  74.215 113.979  0.00  0.00     0.006 C 
ENDBRANCH   8   9
BRANCH   8  11
ATOM     11  C   LIG d   1      -2.333  74.212 115.360  0.00  0.00     0.028 C 
ATOM     12  C   LIG d   1      -3.607  74.833 115.953  0.00  0.00     0.006 C 
ENDBRANCH   8  11
ENDBRANCH   7   8
ENDBRANCH   1   7
BRANCH   6  13
ATOM     13  N   LIG d   1      -0.811  78.255 112.265  0.00  0.00    -0.311 N 
ATOM     14  C   LIG d   1      -1.227  78.045 111.017  0.00  0.00     0.210 C 
ATOM     15  C   LIG d   1      -0.126  78.085 109.953  0.00  0.00     0.109 C 
ATOM     16  O   LIG d   1      -2.409  77.862 110.687  0.00  0.00    -0.276 OA
ATOM     17  H   LIG d   1       0.159  78.427 112.439  0.00  0.00     0.149 HD
ENDBRANCH   6  13
BRANCH   5  18
ATOM     18  N   LIG d   1      -2.877  80.413 112.906  0.00  0.00     0.381 N 
ATOM     19  H   LIG d   1      -3.777  80.644 113.277  0.00  0.00    -0.090 HD
ATOM     20  H   LIG d   1      -3.009  79.832 112.097  0.00  0.00    -0.090 HD
ATOM     21  H   LIG d   1      -2.391  81.245 112.651  0.00  0.00    -0.090 HD
ENDBRANCH   5  18
BRANCH   3  22
ATOM     22  C   LIG d   1      -2.662  79.048 117.492  0.00  0.00     0.382 C 
ATOM     23  O   LIG d   1      -1.954  78.561 118.406  0.00  0.00    -0.241 OA
ATOM     24  O   LIG d   1      -3.643  79.757 117.787  0.00  0.00    -0.241 OA
ENDBRANCH   3  22
TORSDOF 7
ENDMDL
MODEL 7
REMARK VINA RESULT:      -4.3      2.724      4.418
REMARK  7 active torsions:
REMARK  status: ('A' for Active; 'I' for Inactive)
REMARK    1  A    between atoms: C_2  and  C_3 
REMARK    2  A    between atoms: C_3  and  O_6 
REMARK    3  A    between atoms: C_3  and  C_4 
REMARK    4  A    between atoms: C_7  and  O_6 
REMARK    5  A    between atoms: C_9  and  C_10 
REMARK    6  A    between atoms: N_15  and  C_14 
REMARK    7  A    between atoms: N_20  and  C_19 
REMARK       I    between atoms: C_22  and  N_20 
ROOT
ATOM      1  C   LIG d   1      -2.651  76.897 115.120  0.00  0.00     0.161 C 
ATOM      2  C   LIG d   1      -2.441  77.041 113.738  0.00  0.00     0.016 C 
ATOM      3  C   LIG d   1      -1.639  78.060 113.175  0.00  0.00     0.038 C 
ATOM      4  C   LIG d   1      -0.866  78.920 113.970  0.00  0.00     0.028 C 
ATOM      5  C   LIG d   1      -1.440  79.133 115.366  0.00  0.00    -0.047 C 
ATOM      6  C   LIG d   1      -1.726  77.756 116.007  0.00  0.00     0.091 C 
ENDROOT
BRANCH   1   7
ATOM      7  O   LIG d   1      -2.547  75.507 115.487  0.00  0.00    -0.368 OA
BRANCH   7   8
ATOM      8  C   LIG d   1      -1.278  75.088 116.045  0.00  0.00     0.119 C 
BRANCH   8   9
ATOM      9  C   LIG d   1      -0.592  74.181 115.005  0.00  0.00     0.028 C 
ATOM     10  C   LIG d   1       0.748  74.757 114.517  0.00  0.00     0.006 C 
ENDBRANCH   8   9
BRANCH   8  11
ATOM     11  C   LIG d   1      -1.476  74.207 117.282  0.00  0.00     0.028 C 
ATOM     12  C   LIG d   1      -0.249  74.194 118.207  0.00  0.00     0.006 C 
ENDBRANCH   8  11
ENDBRANCH   7   8
ENDBRANCH   1   7
BRANCH   6  13
ATOM     13  N   LIG d   1      -2.368  77.875 117.342  0.00  0.00    -0.311 N 
ATOM     14  C   LIG d   1      -1.690  77.838 118.488  0.00  0.00     0.210 C 
ATOM     15  C   LIG d   1      -2.548  77.959 119.752  0.00  0.00     0.109 C 
ATOM     16  O   LIG d   1      -0.456  77.750 118.577  0.00  0.00    -0.276 OA
ATOM     17  H   LIG d   1      -3.364  77.982 117.362  0.00  0.00     0.149 HD
ENDBRANCH   6  13
BRANCH   5  18
ATOM     18  N   LIG d   1      -0.466  79.936 116.130  0.00  0.00     0.381 N 
ATOM     19  H   LIG d   1       0.457  79.576 115.986  0.00  0.00    -0.090 HD
ATOM     20  H   LIG d   1      -0.682  79.864 117.109  0.00  0.00    -0.090 HD
ATOM     21  H   LIG d   1      -0.508  80.888 115.842  0.00  0.00    -0.090 HD
ENDBRANCH   5  18
BRANCH   3  22
ATOM     22  C   LIG d   1      -1.637  78.253 111.802  0.00  0.00     0.382 C 
ATOM     23  O   LIG d   1      -1.374  79.385 111.328  0.00  0.00    -0.241 OA
ATOM     24  O   LIG d   1      -1.938  77.321 111.033  0.00  0.00    -0.241 OA
ENDBRANCH   3  22
TORSDOF 7
ENDMDL
MODEL 8
REMARK VINA RESULT:      -4.3      2.122      4.335
REMARK  7 active torsions:
REMARK  status: ('A' for Active; 'I' for Inactive)
REMARK    1  A    between atoms: C_2  and  C_3 
REMARK    2  A    between atoms: C_3  and  O_6 
REMARK    3  A    between atoms: C_3  and  C_4 
REMARK    4  A    between atoms: C_7  and  O_6 
REMARK    5  A    between atoms: C_9  and  C_10 
REMARK    6  A    between atoms: N_15  and  C_14 
REMARK    7  A    between atoms: N_20  and  C_19 
REMARK       I    between atoms: C_22  and  N_20 
ROOT
ATOM      1  C   LIG d   1      -3.341  76.535 114.586  0.00  0.00     0.161 C 
ATOM      2  C   LIG d   1      -2.597  77.309 113.679  0.00  0.00     0.016 C 
ATOM      3  C   LIG d   1      -2.293  78.674 113.887  0.00  0.00     0.038 C 
ATOM      4  C   LIG d   1      -2.584  79.322 115.096  0.00  0.00     0.028 C 
ATOM      5  C   LIG d   1      -3.777  78.722 115.833  0.00  0.00    -0.047 C 
ATOM      6  C   LIG d   1      -3.572  77.196 115.961  0.00  0.00     0.091 C 
ENDROOT
BRANCH   1   7
ATOM      7  O   LIG d   1      -2.722  75.244 114.748  0.00  0.00    -0.368 OA
BRANCH   7   8
ATOM      8  C   LIG d   1      -1.533  75.205 115.575  0.00  0.00     0.119 C 
BRANCH   8   9
ATOM      9  C   LIG d   1      -0.376  74.691 114.697  0.00  0.00     0.028 C 
ATOM     10  C   LIG d   1       0.981  75.289 115.106  0.00  0.00     0.006 C 
ENDBRANCH   8   9
BRANCH   8  11
ATOM     11  C   LIG d   1      -1.672  74.180 116.704  0.00  0.00     0.028 C 
ATOM     12  C   LIG d   1      -1.230  74.732 118.068  0.00  0.00     0.006 C 
ENDBRANCH   8  11
ENDBRANCH   7   8
ENDBRANCH   1   7
BRANCH   6  13
ATOM     13  N   LIG d   1      -4.733  76.519 116.595  0.00  0.00    -0.311 N 
ATOM     14  C   LIG d   1      -4.827  76.299 117.905  0.00  0.00     0.210 C 
ATOM     15  C   LIG d   1      -6.099  75.568 118.348  0.00  0.00     0.109 C 
ATOM     16  O   LIG d   1      -3.994  76.668 118.746  0.00  0.00    -0.276 OA
ATOM     17  H   LIG d   1      -5.470  76.214 115.990  0.00  0.00     0.149 HD
ENDBRANCH   6  13
BRANCH   5  18
ATOM     18  N   LIG d   1      -3.884  79.403 117.137  0.00  0.00     0.381 N 
ATOM     19  H   LIG d   1      -3.442  78.851 117.844  0.00  0.00    -0.090 HD
ATOM     20  H   LIG d   1      -4.855  79.501 117.374  0.00  0.00    -0.090 HD
ATOM     21  H   LIG d   1      -3.454  80.301 117.089  0.00  0.00    -0.090 HD
ENDBRANCH   5  18
BRANCH   3  22
ATOM     22  C   LIG d   1      -1.724  79.415 112.862  0.00  0.00     0.382 C 
ATOM     23  O   LIG d   1      -1.907  79.077 111.668  0.00  0.00    -0.241 OA
ATOM     24  O   LIG d   1      -0.994  80.391 113.119  0.00  0.00    -0.241 OA
ENDBRANCH   3  22
TORSDOF 7
ENDMDL
MODEL 9
REMARK VINA RESULT:      -4.2      2.582      4.607
REMARK  7 active torsions:
REMARK  status: ('A' for Active; 'I' for Inactive)
REMARK    1  A    between atoms: C_2  and  C_3 
REMARK    2  A    between atoms: C_3  and  O_6 
REMARK    3  A    between atoms: C_3  and  C_4 
REMARK    4  A    between atoms: C_7  and  O_6 
REMARK    5  A    between atoms: C_9  and  C_10 
REMARK    6  A    between atoms: N_15  and  C_14 
REMARK    7  A    between atoms: N_20  and  C_19 
REMARK       I    between atoms: C_22  and  N_20 
ROOT
ATOM      1  C   LIG d   1      -2.825  76.871 115.298  0.00  0.00     0.161 C 
ATOM      2  C   LIG d   1      -2.624  76.819 116.687  0.00  0.00     0.016 C 
ATOM      3  C   LIG d   1      -1.669  77.610 117.366  0.00  0.00     0.038 C 
ATOM      4  C   LIG d   1      -0.950  78.624 116.716  0.00  0.00     0.028 C 
ATOM      5  C   LIG d   1      -0.756  78.368 115.225  0.00  0.00    -0.047 C 
ATOM      6  C   LIG d   1      -2.128  78.050 114.588  0.00  0.00     0.091 C 
ENDROOT
BRANCH   1   7
ATOM      7  O   LIG d   1      -4.237  76.876 115.008  0.00  0.00    -0.368 OA
BRANCH   7   8
ATOM      8  C   LIG d   1      -5.104  76.368 116.052  0.00  0.00     0.119 C 
BRANCH   8   9
ATOM      9  C   LIG d   1      -6.037  75.323 115.411  0.00  0.00     0.028 C 
ATOM     10  C   LIG d   1      -5.291  74.377 114.456  0.00  0.00     0.006 C 
ENDBRANCH   8   9
BRANCH   8  11
ATOM     11  C   LIG d   1      -6.030  77.463 116.590  0.00  0.00     0.028 C 
ATOM     12  C   LIG d   1      -7.349  76.907 117.149  0.00  0.00     0.006 C 
ENDBRANCH   8  11
ENDBRANCH   7   8
ENDBRANCH   1   7
BRANCH   6  13
ATOM     13  N   LIG d   1      -2.017  77.705 113.146  0.00  0.00    -0.311 N 
ATOM     14  C   LIG d   1      -2.142  78.598 112.167  0.00  0.00     0.210 C 
ATOM     15  C   LIG d   1      -2.013  78.028 110.751  0.00  0.00     0.109 C 
ATOM     16  O   LIG d   1      -2.316  79.814 112.337  0.00  0.00    -0.276 OA
ATOM     17  H   LIG d   1      -1.845  76.745 112.919  0.00  0.00     0.149 HD
ENDBRANCH   6  13
BRANCH   5  18
ATOM     18  N   LIG d   1      -0.113  79.564 114.648  0.00  0.00     0.381 N 
ATOM     19  H   LIG d   1       0.830  79.632 114.973  0.00  0.00    -0.090 HD
ATOM     20  H   LIG d   1      -0.612  80.381 114.954  0.00  0.00    -0.090 HD
ATOM     21  H   LIG d   1      -0.127  79.512 113.653  0.00  0.00    -0.090 HD
ENDBRANCH   5  18
BRANCH   3  22
ATOM     22  C   LIG d   1      -1.397  77.363 118.703  0.00  0.00     0.382 C 
ATOM     23  O   LIG d   1      -1.791  76.299 119.237  0.00  0.00    -0.241 OA
ATOM     24  O   LIG d   1      -0.802  78.212 119.394  0.00  0.00    -0.241 OA
ENDBRANCH   3  22
TORSDOF 7
ENDMDL
