MODEL 1
REMARK VINA RESULT:      -5.9      0.000      0.000
REMARK  7 active torsions:
REMARK  status: ('A' for Active; 'I' for Inactive)
REMARK    1  A    between atoms: C_2  and  C_3 
REMARK    2  A    between atoms: C_3  and  O_6 
REMARK    3  A    between atoms: C_3  and  C_4 
REMARK    4  A    between atoms: C_7  and  O_6 
REMARK    5  A    between atoms: C_9  and  C_10 
REMARK    6  A    between atoms: N_15  and  C_14 
REMARK    7  A    between atoms: N_20  and  C_19 
REMARK       I    between atoms: C_22  and  N_20 
ROOT
ATOM      1  C   LIG d   1      -2.872  77.890 114.078  0.00  0.00     0.161 C 
ATOM      2  C   LIG d   1      -3.079  79.094 113.386  0.00  0.00     0.016 C 
ATOM      3  C   LIG d   1      -2.174  80.180 113.427  0.00  0.00     0.038 C 
ATOM      4  C   LIG d   1      -0.920  80.077 114.047  0.00  0.00     0.028 C 
ATOM      5  C   LIG d   1      -0.887  79.060 115.182  0.00  0.00    -0.047 C 
ATOM      6  C   LIG d   1      -1.458  77.718 114.670  0.00  0.00     0.091 C 
ENDROOT
BRANCH   1   7
ATOM      7  O   LIG d   1      -3.198  76.774 113.226  0.00  0.00    -0.368 OA
BRANCH   7   8
ATOM      8  C   LIG d   1      -4.491  76.159 113.447  0.00  0.00     0.119 C 
BRANCH   8   9
ATOM      9  C   LIG d   1      -5.505  76.871 112.530  0.00  0.00     0.028 C 
ATOM     10  C   LIG d   1      -6.921  76.896 113.129  0.00  0.00     0.006 C 
ENDBRANCH   8   9
BRANCH   8  11
ATOM     11  C   LIG d   1      -4.990  76.408 114.873  0.00  0.00     0.028 C 
ATOM     12  C   LIG d   1      -4.985  75.137 115.737  0.00  0.00     0.006 C 
ENDBRANCH   8  11
ENDBRANCH   7   8
ENDBRANCH   1   7
BRANCH   6  13
ATOM     13  N   LIG d   1      -1.540  76.690 115.741  0.00  0.00    -0.311 N 
ATOM     14  C   LIG d   1      -1.141  75.430 115.579  0.00  0.00     0.210 C 
ATOM     15  C   LIG d   1      -1.332  74.530 116.804  0.00  0.00     0.109 C 
ATOM     16  O   LIG d   1      -0.617  74.980 114.549  0.00  0.00    -0.276 OA
ATOM     17  H   LIG d   1      -1.923  76.978 116.620  0.00  0.00     0.149 HD
ENDBRANCH   6  13
BRANCH   5  18
ATOM     18  N   LIG d   1       0.509  78.955 115.646  0.00  0.00     0.381 N 
ATOM     19  H   LIG d   1       0.532  78.557 116.564  0.00  0.00    -0.090 HD
ATOM     20  H   LIG d   1       0.907  79.876 115.692  0.00  0.00    -0.090 HD
ATOM     21  H   LIG d   1       1.036  78.388 115.018  0.00  0.00    -0.090 HD
ENDBRANCH   5  18
BRANCH   3  22
ATOM     22  C   LIG d   1      -2.539  81.400 112.877  0.00  0.00     0.382 C 
ATOM     23  O   LIG d   1      -3.752  81.688 112.740  0.00  0.00    -0.241 OA
ATOM     24  O   LIG d   1      -1.670  82.197 112.476  0.00  0.00    -0.241 OA
ENDBRANCH   3  22
TORSDOF 7
ENDMDL
MODEL 2
REMARK VINA RESULT:      -5.4      1.081      1.937
REMARK  7 active torsions:
REMARK  status: ('A' for Active; 'I' for Inactive)
REMARK    1  A    between atoms: C_2  and  C_3 
REMARK    2  A    between atoms: C_3  and  O_6 
REMARK    3  A    between atoms: C_3  and  C_4 
REMARK    4  A    between atoms: C_7  and  O_6 
REMARK    5  A    between atoms: C_9  and  C_10 
REMARK    6  A    between atoms: N_15  and  C_14 
REMARK    7  A    between atoms: N_20  and  C_19 
REMARK       I    between atoms: C_22  and  N_20 
ROOT
ATOM      1  C   LIG d   1      -2.389  78.335 114.953  0.00  0.00     0.161 C 
ATOM      2  C   LIG d   1      -2.753  79.322 114.023  0.00  0.00     0.016 C 
ATOM      3  C   LIG d   1      -1.929  80.424 113.694  0.00  0.00     0.038 C 
ATOM      4  C   LIG d   1      -0.612  80.531 114.166  0.00  0.00     0.028 C 
ATOM      5  C   LIG d   1      -0.387  79.826 115.499  0.00  0.00    -0.047 C 
ATOM      6  C   LIG d   1      -0.911  78.375 115.395  0.00  0.00     0.091 C 
ENDROOT
BRANCH   1   7
ATOM      7  O   LIG d   1      -2.722  77.031 114.438  0.00  0.00    -0.368 OA
BRANCH   7   8
ATOM      8  C   LIG d   1      -4.014  76.503 114.826  0.00  0.00     0.119 C 
BRANCH   8   9
ATOM      9  C   LIG d   1      -3.764  75.228 115.654  0.00  0.00     0.028 C 
ATOM     10  C   LIG d   1      -5.012  74.334 115.748  0.00  0.00     0.006 C 
ENDBRANCH   8   9
BRANCH   8  11
ATOM     11  C   LIG d   1      -4.818  76.043 113.606  0.00  0.00     0.028 C 
ATOM     12  C   LIG d   1      -6.177  76.749 113.486  0.00  0.00     0.006 C 
ENDBRANCH   8  11
ENDBRANCH   7   8
ENDBRANCH   1   7
BRANCH   6  13
ATOM     13  N   LIG d   1      -0.806  77.640 116.682  0.00  0.00    -0.311 N 
ATOM     14  C   LIG d   1      -0.347  76.394 116.779  0.00  0.00     0.210 C 
ATOM     15  C   LIG d   1      -0.341  75.816 118.198  0.00  0.00     0.109 C 
ATOM     16  O   LIG d   1       0.085  75.723 115.830  0.00  0.00    -0.276 OA
ATOM     17  H   LIG d   1      -1.106  78.121 117.508  0.00  0.00     0.149 HD
ENDBRANCH   6  13
BRANCH   5  18
ATOM     18  N   LIG d   1       1.054  79.899 115.804  0.00  0.00     0.381 N 
ATOM     19  H   LIG d   1       1.271  80.790 116.206  0.00  0.00    -0.090 HD
ATOM     20  H   LIG d   1       1.573  79.805 114.949  0.00  0.00    -0.090 HD
ATOM     21  H   LIG d   1       1.307  79.172 116.436  0.00  0.00    -0.090 HD
ENDBRANCH   5  18
BRANCH   3  22
ATOM     22  C   LIG d   1      -2.436  81.453 112.917  0.00  0.00     0.382 C 
ATOM     23  O   LIG d   1      -1.660  82.305 112.421  0.00  0.00    -0.241 OA
ATOM     24  O   LIG d   1      -3.664  81.567 112.741  0.00  0.00    -0.241 OA
ENDBRANCH   3  22
TORSDOF 7
ENDMDL
MODEL 3
REMARK VINA RESULT:      -5.2      2.340      5.093
REMARK  7 active torsions:
REMARK  status: ('A' for Active; 'I' for Inactive)
REMARK    1  A    between atoms: C_2  and  C_3 
REMARK    2  A    between atoms: C_3  and  O_6 
REMARK    3  A    between atoms: C_3  and  C_4 
REMARK    4  A    between atoms: C_7  and  O_6 
REMARK    5  A    between atoms: C_9  and  C_10 
REMARK    6  A    between atoms: N_15  and  C_14 
REMARK    7  A    between atoms: N_20  and  C_19 
REMARK       I    between atoms: C_22  and  N_20 
ROOT
ATOM      1  C   LIG d   1      -1.780  75.481 115.142  0.00  0.00     0.161 C 
ATOM      2  C   LIG d   1      -1.563  74.962 116.429  0.00  0.00     0.016 C 
ATOM      3  C   LIG d   1      -0.827  75.641 117.428  0.00  0.00     0.038 C 
ATOM      4  C   LIG d   1      -0.383  76.960 117.254  0.00  0.00     0.028 C 
ATOM      5  C   LIG d   1      -0.142  77.331 115.795  0.00  0.00    -0.047 C 
ATOM      6  C   LIG d   1      -1.398  76.967 114.971  0.00  0.00     0.091 C 
ENDROOT
BRANCH   1   7
ATOM      7  O   LIG d   1      -3.152  75.269 114.754  0.00  0.00    -0.368 OA
BRANCH   7   8
ATOM      8  C   LIG d   1      -4.123  75.254 115.829  0.00  0.00     0.119 C 
BRANCH   8   9
ATOM      9  C   LIG d   1      -5.177  74.183 115.486  0.00  0.00     0.028 C 
ATOM     10  C   LIG d   1      -6.403  74.249 116.411  0.00  0.00     0.006 C 
ENDBRANCH   8   9
BRANCH   8  11
ATOM     11  C   LIG d   1      -4.895  76.575 115.901  0.00  0.00     0.028 C 
ATOM     12  C   LIG d   1      -4.446  77.464 117.072  0.00  0.00     0.006 C 
ENDBRANCH   8  11
ENDBRANCH   7   8
ENDBRANCH   1   7
BRANCH   6  13
ATOM     13  N   LIG d   1      -1.215  77.220 113.518  0.00  0.00    -0.311 N 
ATOM     14  C   LIG d   1      -2.063  77.942 112.787  0.00  0.00     0.210 C 
ATOM     15  C   LIG d   1      -1.698  78.062 111.304  0.00  0.00     0.109 C 
ATOM     16  O   LIG d   1      -3.065  78.521 113.233  0.00  0.00    -0.276 OA
ATOM     17  H   LIG d   1      -0.411  76.813 113.081  0.00  0.00     0.149 HD
ENDBRANCH   6  13
BRANCH   5  18
ATOM     18  N   LIG d   1       0.183  78.769 115.749  0.00  0.00     0.381 N 
ATOM     19  H   LIG d   1      -0.578  79.275 115.341  0.00  0.00    -0.090 HD
ATOM     20  H   LIG d   1       0.995  78.900 115.171  0.00  0.00    -0.090 HD
ATOM     21  H   LIG d   1       0.362  79.108 116.668  0.00  0.00    -0.090 HD
ENDBRANCH   5  18
BRANCH   3  22
ATOM     22  C   LIG d   1      -0.494  74.982 118.602  0.00  0.00     0.382 C 
ATOM     23  O   LIG d   1      -1.125  75.227 119.658  0.00  0.00    -0.241 OA
ATOM     24  O   LIG d   1       0.459  74.180 118.628  0.00  0.00    -0.241 OA
ENDBRANCH   3  22
TORSDOF 7
ENDMDL
MODEL 4
REMARK VINA RESULT:      -5.1      2.809      4.018
REMARK  7 active torsions:
REMARK  status: ('A' for Active; 'I' for Inactive)
REMARK    1  A    between atoms: C_2  and  C_3 
REMARK    2  A    between atoms: C_3  and  O_6 
REMARK    3  A    between atoms: C_3  and  C_4 
REMARK    4  A    between atoms: C_7  and  O_6 
REMARK    5  A    between atoms: C_9  and  C_10 
REMARK    6  A    between atoms: N_15  and  C_14 
REMARK    7  A    between atoms: N_20  and  C_19 
REMARK       I    between atoms: C_22  and  N_20 
ROOT
ATOM      1  C   LIG d   1      -1.853  78.083 114.154  0.00  0.00     0.161 C 
ATOM      2  C   LIG d   1      -2.485  78.621 115.287  0.00  0.00     0.016 C 
ATOM      3  C   LIG d   1      -2.805  79.992 115.422  0.00  0.00     0.038 C 
ATOM      4  C   LIG d   1      -2.649  80.898 114.362  0.00  0.00     0.028 C 
ATOM      5  C   LIG d   1      -1.550  80.500 113.383  0.00  0.00    -0.047 C 
ATOM      6  C   LIG d   1      -1.776  79.036 112.942  0.00  0.00     0.091 C 
ENDROOT
BRANCH   1   7
ATOM      7  O   LIG d   1      -2.492  76.847 113.779  0.00  0.00    -0.368 OA
BRANCH   7   8
ATOM      8  C   LIG d   1      -3.209  76.155 114.831  0.00  0.00     0.119 C 
BRANCH   8   9
ATOM      9  C   LIG d   1      -2.275  75.064 115.388  0.00  0.00     0.028 C 
ATOM     10  C   LIG d   1      -1.904  75.305 116.861  0.00  0.00     0.006 C 
ENDBRANCH   8   9
BRANCH   8  11
ATOM     11  C   LIG d   1      -4.424  75.405 114.277  0.00  0.00     0.028 C 
ATOM     12  C   LIG d   1      -5.168  74.599 115.354  0.00  0.00     0.006 C 
ENDBRANCH   8  11
ENDBRANCH   7   8
ENDBRANCH   1   7
BRANCH   6  13
ATOM     13  N   LIG d   1      -0.697  78.539 112.048  0.00  0.00    -0.311 N 
ATOM     14  C   LIG d   1      -0.916  78.102 110.809  0.00  0.00     0.210 C 
ATOM     15  C   LIG d   1       0.333  77.616 110.066  0.00  0.00     0.109 C 
ATOM     16  O   LIG d   1      -2.019  78.101 110.244  0.00  0.00    -0.276 OA
ATOM     17  H   LIG d   1       0.234  78.535 112.416  0.00  0.00     0.149 HD
ENDBRANCH   6  13
BRANCH   5  18
ATOM     18  N   LIG d   1      -1.588  81.454 112.258  0.00  0.00     0.381 N 
ATOM     19  H   LIG d   1      -0.667  81.797 112.073  0.00  0.00    -0.090 HD
ATOM     20  H   LIG d   1      -2.169  82.233 112.513  0.00  0.00    -0.090 HD
ATOM     21  H   LIG d   1      -1.954  81.009 111.446  0.00  0.00    -0.090 HD
ENDBRANCH   5  18
BRANCH   3  22
ATOM     22  C   LIG d   1      -3.250  80.477 116.643  0.00  0.00     0.382 C 
ATOM     23  O   LIG d   1      -2.430  80.953 117.464  0.00  0.00    -0.241 OA
ATOM     24  O   LIG d   1      -4.454  80.403 116.950  0.00  0.00    -0.241 OA
ENDBRANCH   3  22
TORSDOF 7
ENDMDL
MODEL 5
REMARK VINA RESULT:      -5.0      2.299      2.989
REMARK  7 active torsions:
REMARK  status: ('A' for Active; 'I' for Inactive)
REMARK    1  A    between atoms: C_2  and  C_3 
REMARK    2  A    between atoms: C_3  and  O_6 
REMARK    3  A    between atoms: C_3  and  C_4 
REMARK    4  A    between atoms: C_7  and  O_6 
REMARK    5  A    between atoms: C_9  and  C_10 
REMARK    6  A    between atoms: N_15  and  C_14 
REMARK    7  A    between atoms: N_20  and  C_19 
REMARK       I    between atoms: C_22  and  N_20 
ROOT
ATOM      1  C   LIG d   1      -3.117  77.473 116.253  0.00  0.00     0.161 C 
ATOM      2  C   LIG d   1      -3.425  77.945 114.966  0.00  0.00     0.016 C 
ATOM      3  C   LIG d   1      -2.617  77.698 113.833  0.00  0.00     0.038 C 
ATOM      4  C   LIG d   1      -1.516  76.829 113.882  0.00  0.00     0.028 C 
ATOM      5  C   LIG d   1      -0.879  76.736 115.264  0.00  0.00    -0.047 C 
ATOM      6  C   LIG d   1      -1.980  76.431 116.305  0.00  0.00     0.091 C 
ENDROOT
BRANCH   1   7
ATOM      7  O   LIG d   1      -4.305  76.950 116.879  0.00  0.00    -0.368 OA
BRANCH   7   8
ATOM      8  C   LIG d   1      -5.408  76.639 115.993  0.00  0.00     0.119 C 
BRANCH   8   9
ATOM      9  C   LIG d   1      -6.697  77.163 116.657  0.00  0.00     0.028 C 
ATOM     10  C   LIG d   1      -7.825  76.118 116.654  0.00  0.00     0.006 C 
ENDBRANCH   8   9
BRANCH   8  11
ATOM     11  C   LIG d   1      -5.607  75.127 115.859  0.00  0.00     0.028 C 
ATOM     12  C   LIG d   1      -4.887  74.537 114.637  0.00  0.00     0.006 C 
ENDBRANCH   8  11
ENDBRANCH   7   8
ENDBRANCH   1   7
BRANCH   6  13
ATOM     13  N   LIG d   1      -1.455  76.406 117.695  0.00  0.00    -0.311 N 
ATOM     14  C   LIG d   1      -1.026  75.298 118.297  0.00  0.00     0.210 C 
ATOM     15  C   LIG d   1      -0.544  75.491 119.738  0.00  0.00     0.109 C 
ATOM     16  O   LIG d   1      -0.968  74.180 117.763  0.00  0.00    -0.276 OA
ATOM     17  H   LIG d   1      -1.437  77.276 118.191  0.00  0.00     0.149 HD
ENDBRANCH   6  13
BRANCH   5  18
ATOM     18  N   LIG d   1       0.165  75.696 115.204  0.00  0.00     0.381 N 
ATOM     19  H   LIG d   1      -0.146  74.936 114.632  0.00  0.00    -0.090 HD
ATOM     20  H   LIG d   1       0.328  75.345 116.132  0.00  0.00    -0.090 HD
ATOM     21  H   LIG d   1       1.007  76.078 114.833  0.00  0.00    -0.090 HD
ENDBRANCH   5  18
BRANCH   3  22
ATOM     22  C   LIG d   1      -2.883  78.357 112.642  0.00  0.00     0.382 C 
ATOM     23  O   LIG d   1      -2.314  79.445 112.386  0.00  0.00    -0.241 OA
ATOM     24  O   LIG d   1      -3.720  77.899 111.841  0.00  0.00    -0.241 OA
ENDBRANCH   3  22
TORSDOF 7
ENDMDL
MODEL 6
REMARK VINA RESULT:      -4.9      2.691      3.699
REMARK  7 active torsions:
REMARK  status: ('A' for Active; 'I' for Inactive)
REMARK    1  A    between atoms: C_2  and  C_3 
REMARK    2  A    between atoms: C_3  and  O_6 
REMARK    3  A    between atoms: C_3  and  C_4 
REMARK    4  A    between atoms: C_7  and  O_6 
REMARK    5  A    between atoms: C_9  and  C_10 
REMARK    6  A    between atoms: N_15  and  C_14 
REMARK    7  A    between atoms: N_20  and  C_19 
REMARK       I    between atoms: C_22  and  N_20 
ROOT
ATOM      1  C   LIG d   1      -3.047  78.205 114.028  0.00  0.00     0.161 C 
ATOM      2  C   LIG d   1      -2.542  77.721 112.810  0.00  0.00     0.016 C 
ATOM      3  C   LIG d   1      -1.491  78.345 112.100  0.00  0.00     0.038 C 
ATOM      4  C   LIG d   1      -0.766  79.418 112.641  0.00  0.00     0.028 C 
ATOM      5  C   LIG d   1      -1.568  80.251 113.635  0.00  0.00    -0.047 C 
ATOM      6  C   LIG d   1      -2.195  79.309 114.688  0.00  0.00     0.091 C 
ENDROOT
BRANCH   1   7
ATOM      7  O   LIG d   1      -3.245  77.110 114.944  0.00  0.00    -0.368 OA
BRANCH   7   8
ATOM      8  C   LIG d   1      -4.590  76.579 115.022  0.00  0.00     0.119 C 
BRANCH   8   9
ATOM      9  C   LIG d   1      -4.999  76.568 116.508  0.00  0.00     0.028 C 
ATOM     10  C   LIG d   1      -5.718  77.861 116.929  0.00  0.00     0.006 C 
ENDBRANCH   8   9
BRANCH   8  11
ATOM     11  C   LIG d   1      -4.638  75.114 114.578  0.00  0.00     0.028 C 
ATOM     12  C   LIG d   1      -5.364  74.209 115.586  0.00  0.00     0.006 C 
ENDBRANCH   8  11
ENDBRANCH   7   8
ENDBRANCH   1   7
BRANCH   6  13
ATOM     13  N   LIG d   1      -3.066  80.034 115.650  0.00  0.00    -0.311 N 
ATOM     14  C   LIG d   1      -2.647  80.461 116.840  0.00  0.00     0.210 C 
ATOM     15  C   LIG d   1      -3.711  81.168 117.685  0.00  0.00     0.109 C 
ATOM     16  O   LIG d   1      -1.487  80.349 117.264  0.00  0.00    -0.276 OA
ATOM     17  H   LIG d   1      -4.015  80.196 115.374  0.00  0.00     0.149 HD
ENDBRANCH   6  13
BRANCH   5  18
ATOM     18  N   LIG d   1      -0.652  81.247 114.223  0.00  0.00     0.381 N 
ATOM     19  H   LIG d   1      -0.436  80.994 115.166  0.00  0.00    -0.090 HD
ATOM     20  H   LIG d   1      -1.109  82.142 114.234  0.00  0.00    -0.090 HD
ATOM     21  H   LIG d   1       0.185  81.300 113.685  0.00  0.00    -0.090 HD
ENDBRANCH   5  18
BRANCH   3  22
ATOM     22  C   LIG d   1      -1.180  77.921 110.817  0.00  0.00     0.382 C 
ATOM     23  O   LIG d   1      -0.760  76.755 110.627  0.00  0.00    -0.241 OA
ATOM     24  O   LIG d   1      -1.274  78.705 109.853  0.00  0.00    -0.241 OA
ENDBRANCH   3  22
TORSDOF 7
ENDMDL
MODEL 7
REMARK VINA RESULT:      -4.9      4.791      7.466
REMARK  7 active torsions:
REMARK  status: ('A' for Active; 'I' for Inactive)
REMARK    1  A    between atoms: C_2  and  C_3 
REMARK    2  A    between atoms: C_3  and  O_6 
REMARK    3  A    between atoms: C_3  and  C_4 
REMARK    4  A    between atoms: C_7  and  O_6 
REMARK    5  A    between atoms: C_9  and  C_10 
REMARK    6  A    between atoms: N_15  and  C_14 
REMARK    7  A    between atoms: N_20  and  C_19 
REMARK       I    between atoms: C_22  and  N_20 
ROOT
ATOM      1  C   LIG d   1      -5.557  78.115 117.285  0.00  0.00     0.161 C 
ATOM      2  C   LIG d   1      -5.954  76.804 116.974  0.00  0.00     0.016 C 
ATOM      3  C   LIG d   1      -7.259  76.312 117.202  0.00  0.00     0.038 C 
ATOM      4  C   LIG d   1      -8.305  77.148 117.620  0.00  0.00     0.028 C 
ATOM      5  C   LIG d   1      -7.831  78.354 118.425  0.00  0.00    -0.047 C 
ATOM      6  C   LIG d   1      -6.713  79.074 117.638  0.00  0.00     0.091 C 
ENDROOT
BRANCH   1   7
ATOM      7  O   LIG d   1      -4.768  78.656 116.207  0.00  0.00    -0.368 OA
BRANCH   7   8
ATOM      8  C   LIG d   1      -3.362  78.863 116.487  0.00  0.00     0.119 C 
BRANCH   8   9
ATOM      9  C   LIG d   1      -3.116  80.384 116.517  0.00  0.00     0.028 C 
ATOM     10  C   LIG d   1      -2.633  80.874 117.893  0.00  0.00     0.006 C 
ENDBRANCH   8   9
BRANCH   8  11
ATOM     11  C   LIG d   1      -2.483  78.332 115.351  0.00  0.00     0.028 C 
ATOM     12  C   LIG d   1      -3.109  77.131 114.625  0.00  0.00     0.006 C 
ENDBRANCH   8  11
ENDBRANCH   7   8
ENDBRANCH   1   7
BRANCH   6  13
ATOM     13  N   LIG d   1      -6.135  80.217 118.393  0.00  0.00    -0.311 N 
ATOM     14  C   LIG d   1      -6.557  81.473 118.258  0.00  0.00     0.210 C 
ATOM     15  C   LIG d   1      -5.811  82.501 119.115  0.00  0.00     0.109 C 
ATOM     16  O   LIG d   1      -7.499  81.829 117.534  0.00  0.00    -0.276 OA
ATOM     17  H   LIG d   1      -5.386  80.014 119.026  0.00  0.00     0.149 HD
ENDBRANCH   6  13
BRANCH   5  18
ATOM     18  N   LIG d   1      -9.005  79.211 118.676  0.00  0.00     0.381 N 
ATOM     19  H   LIG d   1      -9.569  79.264 117.851  0.00  0.00    -0.090 HD
ATOM     20  H   LIG d   1      -8.689  80.137 118.903  0.00  0.00    -0.090 HD
ATOM     21  H   LIG d   1      -9.542  78.842 119.430  0.00  0.00    -0.090 HD
ENDBRANCH   5  18
BRANCH   3  22
ATOM     22  C   LIG d   1      -7.520  74.958 117.050  0.00  0.00     0.382 C 
ATOM     23  O   LIG d   1      -6.623  74.191 116.623  0.00  0.00    -0.241 OA
ATOM     24  O   LIG d   1      -8.653  74.502 117.291  0.00  0.00    -0.241 OA
ENDBRANCH   3  22
TORSDOF 7
ENDMDL
MODEL 8
REMARK VINA RESULT:      -4.9      2.657      3.249
REMARK  7 active torsions:
REMARK  status: ('A' for Active; 'I' for Inactive)
REMARK    1  A    between atoms: C_2  and  C_3 
REMARK    2  A    between atoms: C_3  and  O_6 
REMARK    3  A    between atoms: C_3  and  C_4 
REMARK    4  A    between atoms: C_7  and  O_6 
REMARK    5  A    between atoms: C_9  and  C_10 
REMARK    6  A    between atoms: N_15  and  C_14 
REMARK    7  A    between atoms: N_20  and  C_19 
REMARK       I    between atoms: C_22  and  N_20 
ROOT
ATOM      1  C   LIG d   1      -2.074  79.507 116.398  0.00  0.00     0.161 C 
ATOM      2  C   LIG d   1      -2.461  80.473 115.455  0.00  0.00     0.016 C 
ATOM      3  C   LIG d   1      -2.396  80.267 114.058  0.00  0.00     0.038 C 
ATOM      4  C   LIG d   1      -2.078  79.016 113.507  0.00  0.00     0.028 C 
ATOM      5  C   LIG d   1      -1.194  78.163 114.411  0.00  0.00    -0.047 C 
ATOM      6  C   LIG d   1      -1.831  78.098 115.818  0.00  0.00     0.091 C 
ENDROOT
BRANCH   1   7
ATOM      7  O   LIG d   1      -3.043  79.449 117.464  0.00  0.00    -0.368 OA
BRANCH   7   8
ATOM      8  C   LIG d   1      -4.433  79.390 117.060  0.00  0.00     0.119 C 
BRANCH   8   9
ATOM      9  C   LIG d   1      -5.238  80.261 118.044  0.00  0.00     0.028 C 
ATOM     10  C   LIG d   1      -4.660  81.680 118.181  0.00  0.00     0.006 C 
ENDBRANCH   8   9
BRANCH   8  11
ATOM     11  C   LIG d   1      -4.999  77.976 117.213  0.00  0.00     0.028 C 
ATOM     12  C   LIG d   1      -6.535  77.942 117.182  0.00  0.00     0.006 C 
ENDBRANCH   8  11
ENDBRANCH   7   8
ENDBRANCH   1   7
BRANCH   6  13
ATOM     13  N   LIG d   1      -0.987  77.352 116.787  0.00  0.00    -0.311 N 
ATOM     14  C   LIG d   1      -1.163  76.063 117.073  0.00  0.00     0.210 C 
ATOM     15  C   LIG d   1      -0.195  75.493 118.115  0.00  0.00     0.109 C 
ATOM     16  O   LIG d   1      -2.007  75.329 116.537  0.00  0.00    -0.276 OA
ATOM     17  H   LIG d   1      -0.257  77.863 117.245  0.00  0.00     0.149 HD
ENDBRANCH   6  13
BRANCH   5  18
ATOM     18  N   LIG d   1      -1.056  76.839 113.777  0.00  0.00     0.381 N 
ATOM     19  H   LIG d   1      -1.940  76.370 113.773  0.00  0.00    -0.090 HD
ATOM     20  H   LIG d   1      -0.409  76.288 114.313  0.00  0.00    -0.090 HD
ATOM     21  H   LIG d   1      -0.722  76.941 112.843  0.00  0.00    -0.090 HD
ENDBRANCH   5  18
BRANCH   3  22
ATOM     22  C   LIG d   1      -2.611  81.331 113.195  0.00  0.00     0.382 C 
ATOM     23  O   LIG d   1      -3.750  81.520 112.705  0.00  0.00    -0.241 OA
ATOM     24  O   LIG d   1      -1.670  82.078 112.867  0.00  0.00    -0.241 OA
ENDBRANCH   3  22
TORSDOF 7
ENDMDL
MODEL 9
REMARK VINA RESULT:      -4.8      2.633      4.140
REMARK  7 active torsions:
REMARK  status: ('A' for Active; 'I' for Inactive)
REMARK    1  A    between atoms: C_2  and  C_3 
REMARK    2  A    between atoms: C_3  and  O_6 
REMARK    3  A    between atoms: C_3  and  C_4 
REMARK    4  A    between atoms: C_7  and  O_6 
REMARK    5  A    between atoms: C_9  and  C_10 
REMARK    6  A    between atoms: N_15  and  C_14 
REMARK    7  A    between atoms: N_20  and  C_19 
REMARK       I    between atoms: C_22  and  N_20 
ROOT
ATOM      1  C   LIG d   1      -2.926  77.293 115.063  0.00  0.00     0.161 C 
ATOM      2  C   LIG d   1      -3.009  77.314 116.465  0.00  0.00     0.016 C 
ATOM      3  C   LIG d   1      -2.094  78.010 117.288  0.00  0.00     0.038 C 
ATOM      4  C   LIG d   1      -1.117  78.863 116.754  0.00  0.00     0.028 C 
ATOM      5  C   LIG d   1      -0.679  78.476 115.346  0.00  0.00    -0.047 C 
ATOM      6  C   LIG d   1      -1.933  78.308 114.458  0.00  0.00     0.091 C 
ENDROOT
BRANCH   1   7
ATOM      7  O   LIG d   1      -4.238  77.475 114.493  0.00  0.00    -0.368 OA
BRANCH   7   8
ATOM      8  C   LIG d   1      -4.733  76.388 113.674  0.00  0.00     0.119 C 
BRANCH   8   9
ATOM      9  C   LIG d   1      -6.254  76.583 113.517  0.00  0.00     0.028 C 
ATOM     10  C   LIG d   1      -6.638  77.101 112.121  0.00  0.00     0.006 C 
ENDBRANCH   8   9
BRANCH   8  11
ATOM     11  C   LIG d   1      -4.568  75.038 114.379  0.00  0.00     0.028 C 
ATOM     12  C   LIG d   1      -5.618  74.807 115.477  0.00  0.00     0.006 C 
ENDBRANCH   8  11
ENDBRANCH   7   8
ENDBRANCH   1   7
BRANCH   6  13
ATOM     13  N   LIG d   1      -1.599  77.847 113.086  0.00  0.00    -0.311 N 
ATOM     14  C   LIG d   1      -1.539  78.661 112.033  0.00  0.00     0.210 C 
ATOM     15  C   LIG d   1      -1.197  77.978 110.706  0.00  0.00     0.109 C 
ATOM     16  O   LIG d   1      -1.705  79.890 112.079  0.00  0.00    -0.276 OA
ATOM     17  H   LIG d   1      -1.419  76.870 112.964  0.00  0.00     0.149 HD
ENDBRANCH   6  13
BRANCH   5  18
ATOM     18  N   LIG d   1       0.237  79.525 114.860  0.00  0.00     0.381 N 
ATOM     19  H   LIG d   1       0.511  80.115 115.620  0.00  0.00    -0.090 HD
ATOM     20  H   LIG d   1      -0.244  80.088 114.181  0.00  0.00    -0.090 HD
ATOM     21  H   LIG d   1       1.043  79.109 114.446  0.00  0.00    -0.090 HD
ENDBRANCH   5  18
BRANCH   3  22
ATOM     22  C   LIG d   1      -2.127  77.825 118.662  0.00  0.00     0.382 C 
ATOM     23  O   LIG d   1      -1.727  76.745 119.159  0.00  0.00    -0.241 OA
ATOM     24  O   LIG d   1      -2.593  78.707 119.407  0.00  0.00    -0.241 OA
ENDBRANCH   3  22
TORSDOF 7
ENDMDL
