MODEL 1
REMARK VINA RESULT:      -5.0      0.000      0.000
REMARK  7 active torsions:
REMARK  status: ('A' for Active; 'I' for Inactive)
REMARK    1  A    between atoms: C_2  and  C_3 
REMARK    2  A    between atoms: C_3  and  O_6 
REMARK    3  A    between atoms: C_3  and  C_4 
REMARK    4  A    between atoms: C_7  and  O_6 
REMARK    5  A    between atoms: C_9  and  C_10 
REMARK    6  A    between atoms: N_15  and  C_14 
REMARK    7  A    between atoms: N_20  and  C_19 
REMARK       I    between atoms: C_22  and  N_20 
ROOT
ATOM      1  C   LIG d   1      -2.083  80.865 114.307  0.00  0.00     0.161 C 
ATOM      2  C   LIG d   1      -2.631  79.633 114.701  0.00  0.00     0.016 C 
ATOM      3  C   LIG d   1      -2.606  78.475 113.891  0.00  0.00     0.038 C 
ATOM      4  C   LIG d   1      -1.892  78.430 112.684  0.00  0.00     0.028 C 
ATOM      5  C   LIG d   1      -1.752  79.791 112.011  0.00  0.00    -0.047 C 
ATOM      6  C   LIG d   1      -1.203  80.805 113.041  0.00  0.00     0.091 C 
ENDROOT
BRANCH   1   7
ATOM      7  O   LIG d   1      -1.347  81.445 115.402  0.00  0.00    -0.368 OA
BRANCH   7   8
ATOM      8  C   LIG d   1      -1.889  82.669 115.956  0.00  0.00     0.119 C 
BRANCH   8   9
ATOM      9  C   LIG d   1      -0.702  83.600 116.270  0.00  0.00     0.028 C 
ATOM     10  C   LIG d   1      -0.471  84.648 115.168  0.00  0.00     0.006 C 
ENDBRANCH   8   9
BRANCH   8  11
ATOM     11  C   LIG d   1      -2.573  82.415 117.303  0.00  0.00     0.028 C 
ATOM     12  C   LIG d   1      -1.838  83.078 118.478  0.00  0.00     0.006 C 
ENDBRANCH   8  11
ENDBRANCH   7   8
ENDBRANCH   1   7
BRANCH   6  13
ATOM     13  N   LIG d   1      -1.115  82.182 112.489  0.00  0.00    -0.311 N 
ATOM     14  C   LIG d   1      -0.015  82.677 111.923  0.00  0.00     0.210 C 
ATOM     15  C   LIG d   1      -0.133  84.125 111.438  0.00  0.00     0.109 C 
ATOM     16  O   LIG d   1       1.036  82.043 111.748  0.00  0.00    -0.276 OA
ATOM     17  H   LIG d   1      -1.933  82.755 112.560  0.00  0.00     0.149 HD
ENDBRANCH   6  13
BRANCH   5  18
ATOM     18  N   LIG d   1      -0.872  79.622 110.840  0.00  0.00     0.381 N 
ATOM     19  H   LIG d   1      -0.708  80.509 110.409  0.00  0.00    -0.090 HD
ATOM     20  H   LIG d   1      -1.331  79.027 110.172  0.00  0.00    -0.090 HD
ATOM     21  H   LIG d   1      -0.007  79.215 111.119  0.00  0.00    -0.090 HD
ENDBRANCH   5  18
BRANCH   3  22
ATOM     22  C   LIG d   1      -3.334  77.356 114.267  0.00  0.00     0.382 C 
ATOM     23  O   LIG d   1      -3.229  76.903 115.432  0.00  0.00    -0.241 OA
ATOM     24  O   LIG d   1      -4.060  76.768 113.444  0.00  0.00    -0.241 OA
ENDBRANCH   3  22
TORSDOF 7
ENDMDL
MODEL 2
REMARK VINA RESULT:      -4.8      3.583      5.960
REMARK  7 active torsions:
REMARK  status: ('A' for Active; 'I' for Inactive)
REMARK    1  A    between atoms: C_2  and  C_3 
REMARK    2  A    between atoms: C_3  and  O_6 
REMARK    3  A    between atoms: C_3  and  C_4 
REMARK    4  A    between atoms: C_7  and  O_6 
REMARK    5  A    between atoms: C_9  and  C_10 
REMARK    6  A    between atoms: N_15  and  C_14 
REMARK    7  A    between atoms: N_20  and  C_19 
REMARK       I    between atoms: C_22  and  N_20 
ROOT
ATOM      1  C   LIG d   1      -1.775  76.440 115.019  0.00  0.00     0.161 C 
ATOM      2  C   LIG d   1      -1.647  75.678 116.193  0.00  0.00     0.016 C 
ATOM      3  C   LIG d   1      -0.973  76.136 117.348  0.00  0.00     0.038 C 
ATOM      4  C   LIG d   1      -0.509  77.455 117.462  0.00  0.00     0.028 C 
ATOM      5  C   LIG d   1      -0.170  78.096 116.121  0.00  0.00    -0.047 C 
ATOM      6  C   LIG d   1      -1.372  77.922 115.164  0.00  0.00     0.091 C 
ENDROOT
BRANCH   1   7
ATOM      7  O   LIG d   1      -3.120  76.334 114.512  0.00  0.00    -0.368 OA
BRANCH   7   8
ATOM      8  C   LIG d   1      -4.153  76.077 115.494  0.00  0.00     0.119 C 
BRANCH   8   9
ATOM      9  C   LIG d   1      -5.064  74.969 114.929  0.00  0.00     0.028 C 
ATOM     10  C   LIG d   1      -5.786  74.182 116.036  0.00  0.00     0.006 C 
ENDBRANCH   8   9
BRANCH   8  11
ATOM     11  C   LIG d   1      -5.063  77.295 115.678  0.00  0.00     0.028 C 
ATOM     12  C   LIG d   1      -4.617  78.203 116.835  0.00  0.00     0.006 C 
ENDBRANCH   8  11
ENDBRANCH   7   8
ENDBRANCH   1   7
BRANCH   6  13
ATOM     13  N   LIG d   1      -1.092  78.447 113.802  0.00  0.00    -0.311 N 
ATOM     14  C   LIG d   1      -1.944  79.212 113.122  0.00  0.00     0.210 C 
ATOM     15  C   LIG d   1      -1.468  79.628 111.727  0.00  0.00     0.109 C 
ATOM     16  O   LIG d   1      -3.036  79.612 113.554  0.00  0.00    -0.276 OA
ATOM     17  H   LIG d   1      -0.215  78.197 113.388  0.00  0.00     0.149 HD
ENDBRANCH   6  13
BRANCH   5  18
ATOM     18  N   LIG d   1       0.168  79.509 116.375  0.00  0.00     0.381 N 
ATOM     19  H   LIG d   1      -0.614  80.090 116.146  0.00  0.00    -0.090 HD
ATOM     20  H   LIG d   1       0.938  79.770 115.785  0.00  0.00    -0.090 HD
ATOM     21  H   LIG d   1       0.416  79.634 117.331  0.00  0.00    -0.090 HD
ENDBRANCH   5  18
BRANCH   3  22
ATOM     22  C   LIG d   1      -0.723  75.257 118.391  0.00  0.00     0.382 C 
ATOM     23  O   LIG d   1       0.401  75.250 118.949  0.00  0.00    -0.241 OA
ATOM     24  O   LIG d   1      -1.592  74.441 118.752  0.00  0.00    -0.241 OA
ENDBRANCH   3  22
TORSDOF 7
ENDMDL
MODEL 3
REMARK VINA RESULT:      -4.8      1.957      5.050
REMARK  7 active torsions:
REMARK  status: ('A' for Active; 'I' for Inactive)
REMARK    1  A    between atoms: C_2  and  C_3 
REMARK    2  A    between atoms: C_3  and  O_6 
REMARK    3  A    between atoms: C_3  and  C_4 
REMARK    4  A    between atoms: C_7  and  O_6 
REMARK    5  A    between atoms: C_9  and  C_10 
REMARK    6  A    between atoms: N_15  and  C_14 
REMARK    7  A    between atoms: N_20  and  C_19 
REMARK       I    between atoms: C_22  and  N_20 
ROOT
ATOM      1  C   LIG d   1      -2.246  81.068 114.799  0.00  0.00     0.161 C 
ATOM      2  C   LIG d   1      -1.826  82.287 114.240  0.00  0.00     0.016 C 
ATOM      3  C   LIG d   1      -1.256  82.396 112.951  0.00  0.00     0.038 C 
ATOM      4  C   LIG d   1      -1.206  81.307 112.067  0.00  0.00     0.028 C 
ATOM      5  C   LIG d   1      -1.155  79.956 112.773  0.00  0.00    -0.047 C 
ATOM      6  C   LIG d   1      -2.302  79.887 113.808  0.00  0.00     0.091 C 
ENDROOT
BRANCH   1   7
ATOM      7  O   LIG d   1      -3.523  81.242 115.445  0.00  0.00    -0.368 OA
BRANCH   7   8
ATOM      8  C   LIG d   1      -3.531  81.103 116.887  0.00  0.00     0.119 C 
BRANCH   8   9
ATOM      9  C   LIG d   1      -4.901  80.520 117.288  0.00  0.00     0.028 C 
ATOM     10  C   LIG d   1      -5.007  79.014 116.994  0.00  0.00     0.006 C 
ENDBRANCH   8   9
BRANCH   8  11
ATOM     11  C   LIG d   1      -3.453  82.467 117.579  0.00  0.00     0.028 C 
ATOM     12  C   LIG d   1      -2.043  82.792 118.096  0.00  0.00     0.006 C 
ENDBRANCH   8  11
ENDBRANCH   7   8
ENDBRANCH   1   7
BRANCH   6  13
ATOM     13  N   LIG d   1      -2.274  78.631 114.603  0.00  0.00    -0.311 N 
ATOM     14  C   LIG d   1      -2.941  77.531 114.259  0.00  0.00     0.210 C 
ATOM     15  C   LIG d   1      -2.791  76.355 115.228  0.00  0.00     0.109 C 
ATOM     16  O   LIG d   1      -3.617  77.408 113.227  0.00  0.00    -0.276 OA
ATOM     17  H   LIG d   1      -1.724  78.634 115.440  0.00  0.00     0.149 HD
ENDBRANCH   6  13
BRANCH   5  18
ATOM     18  N   LIG d   1      -1.246  78.909 111.739  0.00  0.00     0.381 N 
ATOM     19  H   LIG d   1      -2.203  78.645 111.606  0.00  0.00    -0.090 HD
ATOM     20  H   LIG d   1      -0.737  78.100 112.049  0.00  0.00    -0.090 HD
ATOM     21  H   LIG d   1      -0.864  79.242 110.881  0.00  0.00    -0.090 HD
ENDBRANCH   5  18
BRANCH   3  22
ATOM     22  C   LIG d   1      -0.691  83.596 112.548  0.00  0.00     0.382 C 
ATOM     23  O   LIG d   1      -1.136  84.680 112.998  0.00  0.00    -0.241 OA
ATOM     24  O   LIG d   1       0.227  83.612 111.706  0.00  0.00    -0.241 OA
ENDBRANCH   3  22
TORSDOF 7
ENDMDL
MODEL 4
REMARK VINA RESULT:      -4.7      3.050      6.113
REMARK  7 active torsions:
REMARK  status: ('A' for Active; 'I' for Inactive)
REMARK    1  A    between atoms: C_2  and  C_3 
REMARK    2  A    between atoms: C_3  and  O_6 
REMARK    3  A    between atoms: C_3  and  C_4 
REMARK    4  A    between atoms: C_7  and  O_6 
REMARK    5  A    between atoms: C_9  and  C_10 
REMARK    6  A    between atoms: N_15  and  C_14 
REMARK    7  A    between atoms: N_20  and  C_19 
REMARK       I    between atoms: C_22  and  N_20 
ROOT
ATOM      1  C   LIG d   1      -2.368  78.481 114.655  0.00  0.00     0.161 C 
ATOM      2  C   LIG d   1      -2.620  79.321 113.558  0.00  0.00     0.016 C 
ATOM      3  C   LIG d   1      -1.850  80.469 113.264  0.00  0.00     0.038 C 
ATOM      4  C   LIG d   1      -0.674  80.773 113.966  0.00  0.00     0.028 C 
ATOM      5  C   LIG d   1      -0.666  80.238 115.394  0.00  0.00    -0.047 C 
ATOM      6  C   LIG d   1      -1.022  78.734 115.368  0.00  0.00     0.091 C 
ENDROOT
BRANCH   1   7
ATOM      7  O   LIG d   1      -2.467  77.102 114.248  0.00  0.00    -0.368 OA
BRANCH   7   8
ATOM      8  C   LIG d   1      -3.586  76.357 114.788  0.00  0.00     0.119 C 
BRANCH   8   9
ATOM      9  C   LIG d   1      -4.440  77.338 115.614  0.00  0.00     0.028 C 
ATOM     10  C   LIG d   1      -5.850  76.794 115.898  0.00  0.00     0.006 C 
ENDBRANCH   8   9
BRANCH   8  11
ATOM     11  C   LIG d   1      -3.118  75.290 115.782  0.00  0.00     0.028 C 
ATOM     12  C   LIG d   1      -1.699  74.782 115.486  0.00  0.00     0.006 C 
ENDBRANCH   8  11
ENDBRANCH   7   8
ENDBRANCH   1   7
BRANCH   6  13
ATOM     13  N   LIG d   1      -1.119  78.150 116.731  0.00  0.00    -0.311 N 
ATOM     14  C   LIG d   1      -0.114  77.511 117.328  0.00  0.00     0.210 C 
ATOM     15  C   LIG d   1      -0.431  76.970 118.725  0.00  0.00     0.109 C 
ATOM     16  O   LIG d   1       1.020  77.370 116.846  0.00  0.00    -0.276 OA
ATOM     17  H   LIG d   1      -1.994  78.246 117.208  0.00  0.00     0.149 HD
ENDBRANCH   6  13
BRANCH   5  18
ATOM     18  N   LIG d   1       0.669  80.505 115.963  0.00  0.00     0.381 N 
ATOM     19  H   LIG d   1       0.579  80.788 116.918  0.00  0.00    -0.090 HD
ATOM     20  H   LIG d   1       1.096  81.256 115.450  0.00  0.00    -0.090 HD
ATOM     21  H   LIG d   1       1.235  79.688 115.903  0.00  0.00    -0.090 HD
ENDBRANCH   5  18
BRANCH   3  22
ATOM     22  C   LIG d   1      -2.277  81.350 112.282  0.00  0.00     0.382 C 
ATOM     23  O   LIG d   1      -3.504  81.524 112.087  0.00  0.00    -0.241 OA
ATOM     24  O   LIG d   1      -1.451  81.940 111.560  0.00  0.00    -0.241 OA
ENDBRANCH   3  22
TORSDOF 7
ENDMDL
MODEL 5
REMARK VINA RESULT:      -4.6      2.079      4.377
REMARK  7 active torsions:
REMARK  status: ('A' for Active; 'I' for Inactive)
REMARK    1  A    between atoms: C_2  and  C_3 
REMARK    2  A    between atoms: C_3  and  O_6 
REMARK    3  A    between atoms: C_3  and  C_4 
REMARK    4  A    between atoms: C_7  and  O_6 
REMARK    5  A    between atoms: C_9  and  C_10 
REMARK    6  A    between atoms: N_15  and  C_14 
REMARK    7  A    between atoms: N_20  and  C_19 
REMARK       I    between atoms: C_22  and  N_20 
ROOT
ATOM      1  C   LIG d   1      -0.545  80.838 113.062  0.00  0.00     0.161 C 
ATOM      2  C   LIG d   1      -1.213  79.638 112.765  0.00  0.00     0.016 C 
ATOM      3  C   LIG d   1      -2.209  79.076 113.596  0.00  0.00     0.038 C 
ATOM      4  C   LIG d   1      -2.715  79.758 114.713  0.00  0.00     0.028 C 
ATOM      5  C   LIG d   1      -1.719  80.734 115.329  0.00  0.00    -0.047 C 
ATOM      6  C   LIG d   1      -1.162  81.653 114.218  0.00  0.00     0.091 C 
ENDROOT
BRANCH   1   7
ATOM      7  O   LIG d   1      -0.447  81.649 111.874  0.00  0.00    -0.368 OA
BRANCH   7   8
ATOM      8  C   LIG d   1       0.886  81.834 111.338  0.00  0.00     0.119 C 
BRANCH   8   9
ATOM      9  C   LIG d   1       1.224  83.334 111.443  0.00  0.00     0.028 C 
ATOM     10  C   LIG d   1       0.037  84.231 111.055  0.00  0.00     0.006 C 
ENDBRANCH   8   9
BRANCH   8  11
ATOM     11  C   LIG d   1       0.934  81.512 109.841  0.00  0.00     0.028 C 
ATOM     12  C   LIG d   1       0.372  80.119 109.513  0.00  0.00     0.006 C 
ENDBRANCH   8  11
ENDBRANCH   7   8
ENDBRANCH   1   7
BRANCH   6  13
ATOM     13  N   LIG d   1      -0.117  82.582 114.721  0.00  0.00    -0.311 N 
ATOM     14  C   LIG d   1      -0.269  83.905 114.758  0.00  0.00     0.210 C 
ATOM     15  C   LIG d   1       0.939  84.679 115.294  0.00  0.00     0.109 C 
ATOM     16  O   LIG d   1      -1.300  84.508 114.427  0.00  0.00    -0.276 OA
ATOM     17  H   LIG d   1       0.741  82.175 115.039  0.00  0.00     0.149 HD
ENDBRANCH   6  13
BRANCH   5  18
ATOM     18  N   LIG d   1      -2.421  81.474 116.395  0.00  0.00     0.381 N 
ATOM     19  H   LIG d   1      -3.291  81.027 116.601  0.00  0.00    -0.090 HD
ATOM     20  H   LIG d   1      -2.613  82.406 116.070  0.00  0.00    -0.090 HD
ATOM     21  H   LIG d   1      -1.855  81.510 117.214  0.00  0.00    -0.090 HD
ENDBRANCH   5  18
BRANCH   3  22
ATOM     22  C   LIG d   1      -2.682  77.799 113.335  0.00  0.00     0.382 C 
ATOM     23  O   LIG d   1      -3.493  77.610 112.397  0.00  0.00    -0.241 OA
ATOM     24  O   LIG d   1      -2.340  76.840 114.053  0.00  0.00    -0.241 OA
ENDBRANCH   3  22
TORSDOF 7
ENDMDL
MODEL 6
REMARK VINA RESULT:      -4.6      1.433      2.122
REMARK  7 active torsions:
REMARK  status: ('A' for Active; 'I' for Inactive)
REMARK    1  A    between atoms: C_2  and  C_3 
REMARK    2  A    between atoms: C_3  and  O_6 
REMARK    3  A    between atoms: C_3  and  C_4 
REMARK    4  A    between atoms: C_7  and  O_6 
REMARK    5  A    between atoms: C_9  and  C_10 
REMARK    6  A    between atoms: N_15  and  C_14 
REMARK    7  A    between atoms: N_20  and  C_19 
REMARK       I    between atoms: C_22  and  N_20 
ROOT
ATOM      1  C   LIG d   1      -2.180  80.719 114.456  0.00  0.00     0.161 C 
ATOM      2  C   LIG d   1      -2.670  79.466 114.863  0.00  0.00     0.016 C 
ATOM      3  C   LIG d   1      -2.615  78.309 114.053  0.00  0.00     0.038 C 
ATOM      4  C   LIG d   1      -1.925  78.291 112.831  0.00  0.00     0.028 C 
ATOM      5  C   LIG d   1      -1.854  79.656 112.155  0.00  0.00    -0.047 C 
ATOM      6  C   LIG d   1      -1.325  80.692 113.172  0.00  0.00     0.091 C 
ENDROOT
BRANCH   1   7
ATOM      7  O   LIG d   1      -1.446  81.330 115.535  0.00  0.00    -0.368 OA
BRANCH   7   8
ATOM      8  C   LIG d   1      -0.055  80.943 115.659  0.00  0.00     0.119 C 
BRANCH   8   9
ATOM      9  C   LIG d   1       0.121  80.288 117.043  0.00  0.00     0.028 C 
ATOM     10  C   LIG d   1       0.274  78.761 116.955  0.00  0.00     0.006 C 
ENDBRANCH   8   9
BRANCH   8  11
ATOM     11  C   LIG d   1       0.865  82.167 115.669  0.00  0.00     0.028 C 
ATOM     12  C   LIG d   1       0.092  83.493 115.737  0.00  0.00     0.006 C 
ENDBRANCH   8  11
ENDBRANCH   7   8
ENDBRANCH   1   7
BRANCH   6  13
ATOM     13  N   LIG d   1      -1.304  82.071 112.617  0.00  0.00    -0.311 N 
ATOM     14  C   LIG d   1      -0.219  82.632 112.086  0.00  0.00     0.210 C 
ATOM     15  C   LIG d   1      -0.409  84.068 111.591  0.00  0.00     0.109 C 
ATOM     16  O   LIG d   1       0.876  82.064 111.950  0.00  0.00    -0.276 OA
ATOM     17  H   LIG d   1      -2.158  82.592 112.659  0.00  0.00     0.149 HD
ENDBRANCH   6  13
BRANCH   5  18
ATOM     18  N   LIG d   1      -0.992  79.520 110.966  0.00  0.00     0.381 N 
ATOM     19  H   LIG d   1      -1.514  79.114 110.214  0.00  0.00    -0.090 HD
ATOM     20  H   LIG d   1      -0.228  78.906 111.187  0.00  0.00    -0.090 HD
ATOM     21  H   LIG d   1      -0.643  80.412 110.694  0.00  0.00    -0.090 HD
ENDBRANCH   5  18
BRANCH   3  22
ATOM     22  C   LIG d   1      -3.290  77.163 114.445  0.00  0.00     0.382 C 
ATOM     23  O   LIG d   1      -4.529  77.200 114.638  0.00  0.00    -0.241 OA
ATOM     24  O   LIG d   1      -2.668  76.103 114.652  0.00  0.00    -0.241 OA
ENDBRANCH   3  22
TORSDOF 7
ENDMDL
MODEL 7
REMARK VINA RESULT:      -4.4      2.345      4.426
REMARK  7 active torsions:
REMARK  status: ('A' for Active; 'I' for Inactive)
REMARK    1  A    between atoms: C_2  and  C_3 
REMARK    2  A    between atoms: C_3  and  O_6 
REMARK    3  A    between atoms: C_3  and  C_4 
REMARK    4  A    between atoms: C_7  and  O_6 
REMARK    5  A    between atoms: C_9  and  C_10 
REMARK    6  A    between atoms: N_15  and  C_14 
REMARK    7  A    between atoms: N_20  and  C_19 
REMARK       I    between atoms: C_22  and  N_20 
ROOT
ATOM      1  C   LIG d   1      -1.604  81.193 114.606  0.00  0.00     0.161 C 
ATOM      2  C   LIG d   1      -1.799  80.195 113.637  0.00  0.00     0.016 C 
ATOM      3  C   LIG d   1      -2.476  78.981 113.897  0.00  0.00     0.038 C 
ATOM      4  C   LIG d   1      -3.138  78.746 115.110  0.00  0.00     0.028 C 
ATOM      5  C   LIG d   1      -2.539  79.509 116.286  0.00  0.00    -0.047 C 
ATOM      6  C   LIG d   1      -2.416  81.002 115.904  0.00  0.00     0.091 C 
ENDROOT
BRANCH   1   7
ATOM      7  O   LIG d   1      -1.871  82.489 114.034  0.00  0.00    -0.368 OA
BRANCH   7   8
ATOM      8  C   LIG d   1      -0.712  83.305 113.736  0.00  0.00     0.119 C 
BRANCH   8   9
ATOM      9  C   LIG d   1      -0.875  84.636 114.495  0.00  0.00     0.028 C 
ATOM     10  C   LIG d   1      -0.046  84.679 115.790  0.00  0.00     0.006 C 
ENDBRANCH   8   9
BRANCH   8  11
ATOM     11  C   LIG d   1      -0.665  83.687 112.254  0.00  0.00     0.028 C 
ATOM     12  C   LIG d   1      -0.164  82.542 111.359  0.00  0.00     0.006 C 
ENDBRANCH   8  11
ENDBRANCH   7   8
ENDBRANCH   1   7
BRANCH   6  13
ATOM     13  N   LIG d   1      -1.761  81.807 116.968  0.00  0.00    -0.311 N 
ATOM     14  C   LIG d   1      -2.435  82.493 117.889  0.00  0.00     0.210 C 
ATOM     15  C   LIG d   1      -1.565  83.272 118.881  0.00  0.00     0.109 C 
ATOM     16  O   LIG d   1      -3.670  82.505 117.998  0.00  0.00    -0.276 OA
ATOM     17  H   LIG d   1      -0.760  81.828 116.972  0.00  0.00     0.149 HD
ENDBRANCH   6  13
BRANCH   5  18
ATOM     18  N   LIG d   1      -3.408  79.281 117.456  0.00  0.00     0.381 N 
ATOM     19  H   LIG d   1      -2.872  79.364 118.297  0.00  0.00    -0.090 HD
ATOM     20  H   LIG d   1      -3.778  78.348 117.409  0.00  0.00    -0.090 HD
ATOM     21  H   LIG d   1      -4.153  79.942 117.461  0.00  0.00    -0.090 HD
ENDBRANCH   5  18
BRANCH   3  22
ATOM     22  C   LIG d   1      -2.459  77.969 112.948  0.00  0.00     0.382 C 
ATOM     23  O   LIG d   1      -3.414  77.848 112.144  0.00  0.00    -0.241 OA
ATOM     24  O   LIG d   1      -1.522  77.149 112.916  0.00  0.00    -0.241 OA
ENDBRANCH   3  22
TORSDOF 7
ENDMDL
MODEL 8
REMARK VINA RESULT:      -4.3      1.466      1.965
REMARK  7 active torsions:
REMARK  status: ('A' for Active; 'I' for Inactive)
REMARK    1  A    between atoms: C_2  and  C_3 
REMARK    2  A    between atoms: C_3  and  O_6 
REMARK    3  A    between atoms: C_3  and  C_4 
REMARK    4  A    between atoms: C_7  and  O_6 
REMARK    5  A    between atoms: C_9  and  C_10 
REMARK    6  A    between atoms: N_15  and  C_14 
REMARK    7  A    between atoms: N_20  and  C_19 
REMARK       I    between atoms: C_22  and  N_20 
ROOT
ATOM      1  C   LIG d   1      -2.169  80.691 114.503  0.00  0.00     0.161 C 
ATOM      2  C   LIG d   1      -2.674  79.446 114.915  0.00  0.00     0.016 C 
ATOM      3  C   LIG d   1      -2.658  78.291 114.099  0.00  0.00     0.038 C 
ATOM      4  C   LIG d   1      -1.994  78.266 112.864  0.00  0.00     0.028 C 
ATOM      5  C   LIG d   1      -1.911  79.632 112.192  0.00  0.00    -0.047 C 
ATOM      6  C   LIG d   1      -1.341  80.654 113.202  0.00  0.00     0.091 C 
ENDROOT
BRANCH   1   7
ATOM      7  O   LIG d   1      -1.401  81.283 115.569  0.00  0.00    -0.368 OA
BRANCH   7   8
ATOM      8  C   LIG d   1      -1.211  80.464 116.749  0.00  0.00     0.119 C 
BRANCH   8   9
ATOM      9  C   LIG d   1      -1.393  81.374 117.979  0.00  0.00     0.028 C 
ATOM     10  C   LIG d   1      -2.013  82.734 117.616  0.00  0.00     0.006 C 
ENDBRANCH   8   9
BRANCH   8  11
ATOM     11  C   LIG d   1       0.227  79.943 116.840  0.00  0.00     0.028 C 
ATOM     12  C   LIG d   1       0.299  78.412 116.958  0.00  0.00     0.006 C 
ENDBRANCH   8  11
ENDBRANCH   7   8
ENDBRANCH   1   7
BRANCH   6  13
ATOM     13  N   LIG d   1      -1.305  82.034 112.652  0.00  0.00    -0.311 N 
ATOM     14  C   LIG d   1      -0.176  82.704 112.425  0.00  0.00     0.210 C 
ATOM     15  C   LIG d   1      -0.365  84.121 111.874  0.00  0.00     0.109 C 
ATOM     16  O   LIG d   1       0.964  82.247 112.596  0.00  0.00    -0.276 OA
ATOM     17  H   LIG d   1      -2.185  82.470 112.455  0.00  0.00     0.149 HD
ENDBRANCH   6  13
BRANCH   5  18
ATOM     18  N   LIG d   1      -1.076  79.485 110.984  0.00  0.00     0.381 N 
ATOM     19  H   LIG d   1      -0.772  78.536 110.896  0.00  0.00    -0.090 HD
ATOM     20  H   LIG d   1      -0.264  80.069 111.077  0.00  0.00    -0.090 HD
ATOM     21  H   LIG d   1      -1.595  79.751 110.177  0.00  0.00    -0.090 HD
ENDBRANCH   5  18
BRANCH   3  22
ATOM     22  C   LIG d   1      -3.346  77.157 114.501  0.00  0.00     0.382 C 
ATOM     23  O   LIG d   1      -4.570  77.227 114.766  0.00  0.00    -0.241 OA
ATOM     24  O   LIG d   1      -2.749  76.073 114.644  0.00  0.00    -0.241 OA
ENDBRANCH   3  22
TORSDOF 7
ENDMDL
MODEL 9
REMARK VINA RESULT:      -4.3      3.602      6.792
REMARK  7 active torsions:
REMARK  status: ('A' for Active; 'I' for Inactive)
REMARK    1  A    between atoms: C_2  and  C_3 
REMARK    2  A    between atoms: C_3  and  O_6 
REMARK    3  A    between atoms: C_3  and  C_4 
REMARK    4  A    between atoms: C_7  and  O_6 
REMARK    5  A    between atoms: C_9  and  C_10 
REMARK    6  A    between atoms: N_15  and  C_14 
REMARK    7  A    between atoms: N_20  and  C_19 
REMARK       I    between atoms: C_22  and  N_20 
ROOT
ATOM      1  C   LIG d   1      -4.209  77.743 116.159  0.00  0.00     0.161 C 
ATOM      2  C   LIG d   1      -3.693  77.610 114.859  0.00  0.00     0.016 C 
ATOM      3  C   LIG d   1      -2.830  78.558 114.263  0.00  0.00     0.038 C 
ATOM      4  C   LIG d   1      -2.301  79.637 114.986  0.00  0.00     0.028 C 
ATOM      5  C   LIG d   1      -3.190  80.087 116.141  0.00  0.00    -0.047 C 
ATOM      6  C   LIG d   1      -3.554  78.857 117.003  0.00  0.00     0.091 C 
ENDROOT
BRANCH   1   7
ATOM      7  O   LIG d   1      -4.130  76.480 116.848  0.00  0.00    -0.368 OA
BRANCH   7   8
ATOM      8  C   LIG d   1      -5.388  75.798 117.074  0.00  0.00     0.119 C 
BRANCH   8   9
ATOM      9  C   LIG d   1      -5.297  74.420 116.390  0.00  0.00     0.028 C 
ATOM     10  C   LIG d   1      -5.516  74.505 114.870  0.00  0.00     0.006 C 
ENDBRANCH   8   9
BRANCH   8  11
ATOM     11  C   LIG d   1      -6.546  76.520 116.381  0.00  0.00     0.028 C 
ATOM     12  C   LIG d   1      -7.758  76.725 117.303  0.00  0.00     0.006 C 
ENDBRANCH   8  11
ENDBRANCH   7   8
ENDBRANCH   1   7
BRANCH   6  13
ATOM     13  N   LIG d   1      -4.491  79.194 118.106  0.00  0.00    -0.311 N 
ATOM     14  C   LIG d   1      -5.674  79.774 117.911  0.00  0.00     0.210 C 
ATOM     15  C   LIG d   1      -6.475  80.054 119.187  0.00  0.00     0.109 C 
ATOM     16  O   LIG d   1      -6.150  80.054 116.801  0.00  0.00    -0.276 OA
ATOM     17  H   LIG d   1      -4.197  78.973 119.038  0.00  0.00     0.149 HD
ENDBRANCH   6  13
BRANCH   5  18
ATOM     18  N   LIG d   1      -2.456  81.123 116.891  0.00  0.00     0.381 N 
ATOM     19  H   LIG d   1      -1.471  80.974 116.800  0.00  0.00    -0.090 HD
ATOM     20  H   LIG d   1      -2.697  81.051 117.864  0.00  0.00    -0.090 HD
ATOM     21  H   LIG d   1      -2.696  82.027 116.548  0.00  0.00    -0.090 HD
ENDBRANCH   5  18
BRANCH   3  22
ATOM     22  C   LIG d   1      -2.521  78.454 112.915  0.00  0.00     0.382 C 
ATOM     23  O   LIG d   1      -1.558  79.104 112.441  0.00  0.00    -0.241 OA
ATOM     24  O   LIG d   1      -3.220  77.753 112.159  0.00  0.00    -0.241 OA
ENDBRANCH   3  22
TORSDOF 7
ENDMDL
