MODEL 1
REMARK VINA RESULT:      -5.1      0.000      0.000
REMARK  7 active torsions:
REMARK  status: ('A' for Active; 'I' for Inactive)
REMARK    1  A    between atoms: C_2  and  C_3 
REMARK    2  A    between atoms: C_3  and  O_6 
REMARK    3  A    between atoms: C_3  and  C_4 
REMARK    4  A    between atoms: C_7  and  O_6 
REMARK    5  A    between atoms: C_9  and  C_10 
REMARK    6  A    between atoms: N_15  and  C_14 
REMARK    7  A    between atoms: N_20  and  C_19 
REMARK       I    between atoms: C_22  and  N_20 
ROOT
ATOM      1  C   LIG d   1      -2.293  78.509 114.833  0.00  0.00     0.161 C 
ATOM      2  C   LIG d   1      -2.645  79.348 113.762  0.00  0.00     0.016 C 
ATOM      3  C   LIG d   1      -1.891  80.481 113.380  0.00  0.00     0.038 C 
ATOM      4  C   LIG d   1      -0.642  80.767 113.952  0.00  0.00     0.028 C 
ATOM      5  C   LIG d   1      -0.491  80.239 115.374  0.00  0.00    -0.047 C 
ATOM      6  C   LIG d   1      -0.876  78.742 115.397  0.00  0.00     0.091 C 
ENDROOT
BRANCH   1   7
ATOM      7  O   LIG d   1      -2.460  77.130 114.449  0.00  0.00    -0.368 OA
BRANCH   7   8
ATOM      8  C   LIG d   1      -3.490  76.393 115.151  0.00  0.00     0.119 C 
BRANCH   8   9
ATOM      9  C   LIG d   1      -2.795  75.267 115.943  0.00  0.00     0.028 C 
ATOM     10  C   LIG d   1      -1.455  74.849 115.315  0.00  0.00     0.006 C 
ENDBRANCH   8   9
BRANCH   8  11
ATOM     11  C   LIG d   1      -4.430  75.681 114.175  0.00  0.00     0.028 C 
ATOM     12  C   LIG d   1      -5.627  75.018 114.876  0.00  0.00     0.006 C 
ENDBRANCH   8  11
ENDBRANCH   7   8
ENDBRANCH   1   7
BRANCH   6  13
ATOM     13  N   LIG d   1      -0.837  78.167 116.767  0.00  0.00    -0.311 N 
ATOM     14  C   LIG d   1       0.214  77.513 117.258  0.00  0.00     0.210 C 
ATOM     15  C   LIG d   1       0.038  76.984 118.685  0.00  0.00     0.109 C 
ATOM     16  O   LIG d   1       1.288  77.348 116.659  0.00  0.00    -0.276 OA
ATOM     17  H   LIG d   1      -1.655  78.282 117.333  0.00  0.00     0.149 HD
ENDBRANCH   6  13
BRANCH   5  18
ATOM     18  N   LIG d   1       0.901  80.485 115.796  0.00  0.00     0.381 N 
ATOM     19  H   LIG d   1       1.004  80.266 116.767  0.00  0.00    -0.090 HD
ATOM     20  H   LIG d   1       1.112  81.459 115.668  0.00  0.00    -0.090 HD
ATOM     21  H   LIG d   1       1.525  79.928 115.255  0.00  0.00    -0.090 HD
ENDBRANCH   5  18
BRANCH   3  22
ATOM     22  C   LIG d   1      -2.404  81.364 112.443  0.00  0.00     0.382 C 
ATOM     23  O   LIG d   1      -1.647  82.191 111.879  0.00  0.00    -0.241 OA
ATOM     24  O   LIG d   1      -3.623  81.375 112.186  0.00  0.00    -0.241 OA
ENDBRANCH   3  22
TORSDOF 7
ENDMDL
MODEL 2
REMARK VINA RESULT:      -5.1      3.116      6.145
REMARK  7 active torsions:
REMARK  status: ('A' for Active; 'I' for Inactive)
REMARK    1  A    between atoms: C_2  and  C_3 
REMARK    2  A    between atoms: C_3  and  O_6 
REMARK    3  A    between atoms: C_3  and  C_4 
REMARK    4  A    between atoms: C_7  and  O_6 
REMARK    5  A    between atoms: C_9  and  C_10 
REMARK    6  A    between atoms: N_15  and  C_14 
REMARK    7  A    between atoms: N_20  and  C_19 
REMARK       I    between atoms: C_22  and  N_20 
ROOT
ATOM      1  C   LIG d   1      -2.471  80.987 113.636  0.00  0.00     0.161 C 
ATOM      2  C   LIG d   1      -2.985  79.803 114.190  0.00  0.00     0.016 C 
ATOM      3  C   LIG d   1      -2.694  78.516 113.683  0.00  0.00     0.038 C 
ATOM      4  C   LIG d   1      -1.741  78.315 112.673  0.00  0.00     0.028 C 
ATOM      5  C   LIG d   1      -1.577  79.516 111.748  0.00  0.00    -0.047 C 
ATOM      6  C   LIG d   1      -1.342  80.781 112.605  0.00  0.00     0.091 C 
ENDROOT
BRANCH   1   7
ATOM      7  O   LIG d   1      -2.032  81.869 114.689  0.00  0.00    -0.368 OA
BRANCH   7   8
ATOM      8  C   LIG d   1      -0.698  81.634 115.203  0.00  0.00     0.119 C 
BRANCH   8   9
ATOM      9  C   LIG d   1      -0.831  81.310 116.704  0.00  0.00     0.028 C 
ATOM     10  C   LIG d   1      -2.123  81.878 117.315  0.00  0.00     0.006 C 
ENDBRANCH   8   9
BRANCH   8  11
ATOM     11  C   LIG d   1       0.156  82.903 115.136  0.00  0.00     0.028 C 
ATOM     12  C   LIG d   1      -0.650  84.143 114.719  0.00  0.00     0.006 C 
ENDBRANCH   8  11
ENDBRANCH   7   8
ENDBRANCH   1   7
BRANCH   6  13
ATOM     13  N   LIG d   1      -1.255  82.016 111.781  0.00  0.00    -0.311 N 
ATOM     14  C   LIG d   1      -0.103  82.542 111.368  0.00  0.00     0.210 C 
ATOM     15  C   LIG d   1      -0.237  83.828 110.547  0.00  0.00     0.109 C 
ATOM     16  O   LIG d   1       1.015  82.047 111.576  0.00  0.00    -0.276 OA
ATOM     17  H   LIG d   1      -2.116  82.465 111.540  0.00  0.00     0.149 HD
ENDBRANCH   6  13
BRANCH   5  18
ATOM     18  N   LIG d   1      -0.459  79.223 110.831  0.00  0.00     0.381 N 
ATOM     19  H   LIG d   1      -0.668  79.575 109.918  0.00  0.00    -0.090 HD
ATOM     20  H   LIG d   1      -0.344  78.227 110.767  0.00  0.00    -0.090 HD
ATOM     21  H   LIG d   1       0.379  79.640 111.171  0.00  0.00    -0.090 HD
ENDBRANCH   5  18
BRANCH   3  22
ATOM     22  C   LIG d   1      -3.389  77.416 114.160  0.00  0.00     0.382 C 
ATOM     23  O   LIG d   1      -2.925  76.262 113.998  0.00  0.00    -0.241 OA
ATOM     24  O   LIG d   1      -4.497  77.559 114.711  0.00  0.00    -0.241 OA
ENDBRANCH   3  22
TORSDOF 7
ENDMDL
MODEL 3
REMARK VINA RESULT:      -4.9      3.118      5.991
REMARK  7 active torsions:
REMARK  status: ('A' for Active; 'I' for Inactive)
REMARK    1  A    between atoms: C_2  and  C_3 
REMARK    2  A    between atoms: C_3  and  O_6 
REMARK    3  A    between atoms: C_3  and  C_4 
REMARK    4  A    between atoms: C_7  and  O_6 
REMARK    5  A    between atoms: C_9  and  C_10 
REMARK    6  A    between atoms: N_15  and  C_14 
REMARK    7  A    between atoms: N_20  and  C_19 
REMARK       I    between atoms: C_22  and  N_20 
ROOT
ATOM      1  C   LIG d   1      -2.270  80.494 113.951  0.00  0.00     0.161 C 
ATOM      2  C   LIG d   1      -2.842  79.278 114.361  0.00  0.00     0.016 C 
ATOM      3  C   LIG d   1      -2.727  78.077 113.623  0.00  0.00     0.038 C 
ATOM      4  C   LIG d   1      -1.901  77.976 112.495  0.00  0.00     0.028 C 
ATOM      5  C   LIG d   1      -1.711  79.300 111.762  0.00  0.00    -0.047 C 
ATOM      6  C   LIG d   1      -1.272  80.378 112.780  0.00  0.00     0.091 C 
ENDROOT
BRANCH   1   7
ATOM      7  O   LIG d   1      -1.649  81.146 115.076  0.00  0.00    -0.368 OA
BRANCH   7   8
ATOM      8  C   LIG d   1      -2.466  82.109 115.786  0.00  0.00     0.119 C 
BRANCH   8   9
ATOM      9  C   LIG d   1      -2.164  83.499 115.194  0.00  0.00     0.028 C 
ATOM     10  C   LIG d   1      -0.655  83.765 115.061  0.00  0.00     0.006 C 
ENDBRANCH   8   9
BRANCH   8  11
ATOM     11  C   LIG d   1      -2.064  82.201 117.261  0.00  0.00     0.028 C 
ATOM     12  C   LIG d   1      -2.743  81.131 118.131  0.00  0.00     0.006 C 
ENDBRANCH   8  11
ENDBRANCH   7   8
ENDBRANCH   1   7
BRANCH   6  13
ATOM     13  N   LIG d   1      -1.146  81.723 112.161  0.00  0.00    -0.311 N 
ATOM     14  C   LIG d   1       0.001  82.207 111.686  0.00  0.00     0.210 C 
ATOM     15  C   LIG d   1      -0.085  83.623 111.108  0.00  0.00     0.109 C 
ATOM     16  O   LIG d   1       1.074  81.585 111.660  0.00  0.00    -0.276 OA
ATOM     17  H   LIG d   1      -1.974  82.283 112.113  0.00  0.00     0.149 HD
ENDBRANCH   6  13
BRANCH   5  18
ATOM     18  N   LIG d   1      -0.720  79.079 110.691  0.00  0.00     0.381 N 
ATOM     19  H   LIG d   1      -0.196  79.917 110.536  0.00  0.00    -0.090 HD
ATOM     20  H   LIG d   1      -1.206  78.849 109.842  0.00  0.00    -0.090 HD
ATOM     21  H   LIG d   1      -0.106  78.336 110.943  0.00  0.00    -0.090 HD
ENDBRANCH   5  18
BRANCH   3  22
ATOM     22  C   LIG d   1      -3.477  76.971 113.992  0.00  0.00     0.382 C 
ATOM     23  O   LIG d   1      -2.940  75.838 114.041  0.00  0.00    -0.241 OA
ATOM     24  O   LIG d   1      -4.694  77.084 114.233  0.00  0.00    -0.241 OA
ENDBRANCH   3  22
TORSDOF 7
ENDMDL
MODEL 4
REMARK VINA RESULT:      -4.9      3.951      6.704
REMARK  7 active torsions:
REMARK  status: ('A' for Active; 'I' for Inactive)
REMARK    1  A    between atoms: C_2  and  C_3 
REMARK    2  A    between atoms: C_3  and  O_6 
REMARK    3  A    between atoms: C_3  and  C_4 
REMARK    4  A    between atoms: C_7  and  O_6 
REMARK    5  A    between atoms: C_9  and  C_10 
REMARK    6  A    between atoms: N_15  and  C_14 
REMARK    7  A    between atoms: N_20  and  C_19 
REMARK       I    between atoms: C_22  and  N_20 
ROOT
ATOM      1  C   LIG d   1      -4.641  78.638 116.149  0.00  0.00     0.161 C 
ATOM      2  C   LIG d   1      -4.502  77.449 115.414  0.00  0.00     0.016 C 
ATOM      3  C   LIG d   1      -5.514  76.466 115.327  0.00  0.00     0.038 C 
ATOM      4  C   LIG d   1      -6.799  76.676 115.849  0.00  0.00     0.028 C 
ATOM      5  C   LIG d   1      -6.823  77.642 117.028  0.00  0.00    -0.047 C 
ATOM      6  C   LIG d   1      -6.076  78.936 116.633  0.00  0.00     0.091 C 
ENDROOT
BRANCH   1   7
ATOM      7  O   LIG d   1      -4.130  79.748 115.383  0.00  0.00    -0.368 OA
BRANCH   7   8
ATOM      8  C   LIG d   1      -2.830  80.250 115.779  0.00  0.00     0.119 C 
BRANCH   8   9
ATOM      9  C   LIG d   1      -3.045  81.633 116.424  0.00  0.00     0.028 C 
ATOM     10  C   LIG d   1      -2.720  81.636 117.927  0.00  0.00     0.006 C 
ENDBRANCH   8   9
BRANCH   8  11
ATOM     11  C   LIG d   1      -1.937  80.506 114.561  0.00  0.00     0.028 C 
ATOM     12  C   LIG d   1      -2.642  80.196 113.230  0.00  0.00     0.006 C 
ENDBRANCH   8  11
ENDBRANCH   7   8
ENDBRANCH   1   7
BRANCH   6  13
ATOM     13  N   LIG d   1      -5.979  79.902 117.758  0.00  0.00    -0.311 N 
ATOM     14  C   LIG d   1      -6.544  81.108 117.739  0.00  0.00     0.210 C 
ATOM     15  C   LIG d   1      -6.305  81.953 118.994  0.00  0.00     0.109 C 
ATOM     16  O   LIG d   1      -7.247  81.546 116.816  0.00  0.00    -0.276 OA
ATOM     17  H   LIG d   1      -5.453  79.616 118.561  0.00  0.00     0.149 HD
ENDBRANCH   6  13
BRANCH   5  18
ATOM     18  N   LIG d   1      -8.236  77.876 117.384  0.00  0.00     0.381 N 
ATOM     19  H   LIG d   1      -8.652  77.023 117.699  0.00  0.00    -0.090 HD
ATOM     20  H   LIG d   1      -8.730  78.185 116.565  0.00  0.00    -0.090 HD
ATOM     21  H   LIG d   1      -8.297  78.568 118.099  0.00  0.00    -0.090 HD
ENDBRANCH   5  18
BRANCH   3  22
ATOM     22  C   LIG d   1      -5.232  75.239 114.746  0.00  0.00     0.382 C 
ATOM     23  O   LIG d   1      -5.897  74.225 115.069  0.00  0.00    -0.241 OA
ATOM     24  O   LIG d   1      -4.292  75.124 113.937  0.00  0.00    -0.241 OA
ENDBRANCH   3  22
TORSDOF 7
ENDMDL
MODEL 5
REMARK VINA RESULT:      -4.9      2.941      4.564
REMARK  7 active torsions:
REMARK  status: ('A' for Active; 'I' for Inactive)
REMARK    1  A    between atoms: C_2  and  C_3 
REMARK    2  A    between atoms: C_3  and  O_6 
REMARK    3  A    between atoms: C_3  and  C_4 
REMARK    4  A    between atoms: C_7  and  O_6 
REMARK    5  A    between atoms: C_9  and  C_10 
REMARK    6  A    between atoms: N_15  and  C_14 
REMARK    7  A    between atoms: N_20  and  C_19 
REMARK       I    between atoms: C_22  and  N_20 
ROOT
ATOM      1  C   LIG d   1      -2.590  80.415 114.848  0.00  0.00     0.161 C 
ATOM      2  C   LIG d   1      -2.071  81.663 114.463  0.00  0.00     0.016 C 
ATOM      3  C   LIG d   1      -1.410  81.884 113.233  0.00  0.00     0.038 C 
ATOM      4  C   LIG d   1      -1.355  80.901 112.233  0.00  0.00     0.028 C 
ATOM      5  C   LIG d   1      -1.421  79.478 112.778  0.00  0.00    -0.047 C 
ATOM      6  C   LIG d   1      -2.638  79.359 113.724  0.00  0.00     0.091 C 
ENDROOT
BRANCH   1   7
ATOM      7  O   LIG d   1      -3.897  80.588 115.429  0.00  0.00    -0.368 OA
BRANCH   7   8
ATOM      8  C   LIG d   1      -4.067  80.087 116.778  0.00  0.00     0.119 C 
BRANCH   8   9
ATOM      9  C   LIG d   1      -5.406  79.326 116.824  0.00  0.00     0.028 C 
ATOM     10  C   LIG d   1      -6.553  80.189 117.376  0.00  0.00     0.006 C 
ENDBRANCH   8   9
BRANCH   8  11
ATOM     11  C   LIG d   1      -4.217  81.233 117.783  0.00  0.00     0.028 C 
ATOM     12  C   LIG d   1      -2.890  81.609 118.461  0.00  0.00     0.006 C 
ENDBRANCH   8  11
ENDBRANCH   7   8
ENDBRANCH   1   7
BRANCH   6  13
ATOM     13  N   LIG d   1      -2.727  78.022 114.367  0.00  0.00    -0.311 N 
ATOM     14  C   LIG d   1      -3.469  77.026 113.885  0.00  0.00     0.210 C 
ATOM     15  C   LIG d   1      -3.435  75.737 114.713  0.00  0.00     0.109 C 
ATOM     16  O   LIG d   1      -4.126  77.077 112.835  0.00  0.00    -0.276 OA
ATOM     17  H   LIG d   1      -2.201  77.884 115.207  0.00  0.00     0.149 HD
ENDBRANCH   6  13
BRANCH   5  18
ATOM     18  N   LIG d   1      -1.494  78.562 111.624  0.00  0.00     0.381 N 
ATOM     19  H   LIG d   1      -2.447  78.311 111.451  0.00  0.00    -0.090 HD
ATOM     20  H   LIG d   1      -0.982  77.725 111.841  0.00  0.00    -0.090 HD
ATOM     21  H   LIG d   1      -1.105  78.998 110.817  0.00  0.00    -0.090 HD
ENDBRANCH   5  18
BRANCH   3  22
ATOM     22  C   LIG d   1      -0.759  83.088 113.009  0.00  0.00     0.382 C 
ATOM     23  O   LIG d   1      -0.905  83.686 111.916  0.00  0.00    -0.241 OA
ATOM     24  O   LIG d   1       0.007  83.561 113.870  0.00  0.00    -0.241 OA
ENDBRANCH   3  22
TORSDOF 7
ENDMDL
MODEL 6
REMARK VINA RESULT:      -4.7      2.512      3.301
REMARK  7 active torsions:
REMARK  status: ('A' for Active; 'I' for Inactive)
REMARK    1  A    between atoms: C_2  and  C_3 
REMARK    2  A    between atoms: C_3  and  O_6 
REMARK    3  A    between atoms: C_3  and  C_4 
REMARK    4  A    between atoms: C_7  and  O_6 
REMARK    5  A    between atoms: C_9  and  C_10 
REMARK    6  A    between atoms: N_15  and  C_14 
REMARK    7  A    between atoms: N_20  and  C_19 
REMARK       I    between atoms: C_22  and  N_20 
ROOT
ATOM      1  C   LIG d   1      -2.720  79.169 116.194  0.00  0.00     0.161 C 
ATOM      2  C   LIG d   1      -3.000  80.215 115.299  0.00  0.00     0.016 C 
ATOM      3  C   LIG d   1      -2.642  80.186 113.932  0.00  0.00     0.038 C 
ATOM      4  C   LIG d   1      -2.110  79.036 113.329  0.00  0.00     0.028 C 
ATOM      5  C   LIG d   1      -1.348  78.141 114.300  0.00  0.00    -0.047 C 
ATOM      6  C   LIG d   1      -2.240  77.861 115.531  0.00  0.00     0.091 C 
ENDROOT
BRANCH   1   7
ATOM      7  O   LIG d   1      -3.870  78.916 117.025  0.00  0.00    -0.368 OA
BRANCH   7   8
ATOM      8  C   LIG d   1      -5.161  79.011 116.374  0.00  0.00     0.119 C 
BRANCH   8   9
ATOM      9  C   LIG d   1      -6.018  80.000 117.189  0.00  0.00     0.028 C 
ATOM     10  C   LIG d   1      -7.433  79.461 117.463  0.00  0.00     0.006 C 
ENDBRANCH   8   9
BRANCH   8  11
ATOM     11  C   LIG d   1      -5.914  77.679 116.431  0.00  0.00     0.028 C 
ATOM     12  C   LIG d   1      -5.702  76.821 115.173  0.00  0.00     0.006 C 
ENDBRANCH   8  11
ENDBRANCH   7   8
ENDBRANCH   1   7
BRANCH   6  13
ATOM     13  N   LIG d   1      -1.539  77.061 116.569  0.00  0.00    -0.311 N 
ATOM     14  C   LIG d   1      -1.615  75.733 116.646  0.00  0.00     0.210 C 
ATOM     15  C   LIG d   1      -0.831  75.108 117.804  0.00  0.00     0.109 C 
ATOM     16  O   LIG d   1      -2.230  75.012 115.846  0.00  0.00    -0.276 OA
ATOM     17  H   LIG d   1      -0.992  77.564 117.240  0.00  0.00     0.149 HD
ENDBRANCH   6  13
BRANCH   5  18
ATOM     18  N   LIG d   1      -0.967  76.916 113.571  0.00  0.00     0.381 N 
ATOM     19  H   LIG d   1      -0.058  77.030 113.170  0.00  0.00    -0.090 HD
ATOM     20  H   LIG d   1      -1.624  76.764 112.826  0.00  0.00    -0.090 HD
ATOM     21  H   LIG d   1      -0.969  76.136 114.191  0.00  0.00    -0.090 HD
ENDBRANCH   5  18
BRANCH   3  22
ATOM     22  C   LIG d   1      -2.779  81.330 113.161  0.00  0.00     0.382 C 
ATOM     23  O   LIG d   1      -3.551  81.331 112.172  0.00  0.00    -0.241 OA
ATOM     24  O   LIG d   1      -2.108  82.348 113.416  0.00  0.00    -0.241 OA
ENDBRANCH   3  22
TORSDOF 7
ENDMDL
MODEL 7
REMARK VINA RESULT:      -4.7      3.037      5.409
REMARK  7 active torsions:
REMARK  status: ('A' for Active; 'I' for Inactive)
REMARK    1  A    between atoms: C_2  and  C_3 
REMARK    2  A    between atoms: C_3  and  O_6 
REMARK    3  A    between atoms: C_3  and  C_4 
REMARK    4  A    between atoms: C_7  and  O_6 
REMARK    5  A    between atoms: C_9  and  C_10 
REMARK    6  A    between atoms: N_15  and  C_14 
REMARK    7  A    between atoms: N_20  and  C_19 
REMARK       I    between atoms: C_22  and  N_20 
ROOT
ATOM      1  C   LIG d   1      -2.557  80.019 114.635  0.00  0.00     0.161 C 
ATOM      2  C   LIG d   1      -3.218  78.783 114.729  0.00  0.00     0.016 C 
ATOM      3  C   LIG d   1      -3.139  77.780 113.736  0.00  0.00     0.038 C 
ATOM      4  C   LIG d   1      -2.265  77.886 112.643  0.00  0.00     0.028 C 
ATOM      5  C   LIG d   1      -1.963  79.328 112.248  0.00  0.00    -0.047 C 
ATOM      6  C   LIG d   1      -1.512  80.109 113.503  0.00  0.00     0.091 C 
ENDROOT
BRANCH   1   7
ATOM      7  O   LIG d   1      -1.954  80.349 115.901  0.00  0.00    -0.368 OA
BRANCH   7   8
ATOM      8  C   LIG d   1      -2.487  81.514 116.577  0.00  0.00     0.119 C 
BRANCH   8   9
ATOM      9  C   LIG d   1      -1.314  82.211 117.293  0.00  0.00     0.028 C 
ATOM     10  C   LIG d   1      -1.409  82.096 118.824  0.00  0.00     0.006 C 
ENDBRANCH   8   9
BRANCH   8  11
ATOM     11  C   LIG d   1      -3.462  81.116 117.689  0.00  0.00     0.028 C 
ATOM     12  C   LIG d   1      -4.933  81.218 117.257  0.00  0.00     0.006 C 
ENDBRANCH   8  11
ENDBRANCH   7   8
ENDBRANCH   1   7
BRANCH   6  13
ATOM     13  N   LIG d   1      -1.277  81.549 113.221  0.00  0.00    -0.311 N 
ATOM     14  C   LIG d   1      -0.173  82.197 113.588  0.00  0.00     0.210 C 
ATOM     15  C   LIG d   1      -0.141  83.683 113.215  0.00  0.00     0.109 C 
ATOM     16  O   LIG d   1       0.798  81.675 114.157  0.00  0.00    -0.276 OA
ATOM     17  H   LIG d   1      -2.000  82.042 112.735  0.00  0.00     0.149 HD
ENDBRANCH   6  13
BRANCH   5  18
ATOM     18  N   LIG d   1      -0.937  79.293 111.189  0.00  0.00     0.381 N 
ATOM     19  H   LIG d   1      -0.167  79.879 111.444  0.00  0.00    -0.090 HD
ATOM     20  H   LIG d   1      -1.335  79.649 110.338  0.00  0.00    -0.090 HD
ATOM     21  H   LIG d   1      -0.621  78.358 111.050  0.00  0.00    -0.090 HD
ENDBRANCH   5  18
BRANCH   3  22
ATOM     22  C   LIG d   1      -3.969  76.672 113.810  0.00  0.00     0.382 C 
ATOM     23  O   LIG d   1      -5.207  76.805 113.657  0.00  0.00    -0.241 OA
ATOM     24  O   LIG d   1      -3.501  75.548 114.072  0.00  0.00    -0.241 OA
ENDBRANCH   3  22
TORSDOF 7
ENDMDL
MODEL 8
REMARK VINA RESULT:      -4.6      3.875      6.509
REMARK  7 active torsions:
REMARK  status: ('A' for Active; 'I' for Inactive)
REMARK    1  A    between atoms: C_2  and  C_3 
REMARK    2  A    between atoms: C_3  and  O_6 
REMARK    3  A    between atoms: C_3  and  C_4 
REMARK    4  A    between atoms: C_7  and  O_6 
REMARK    5  A    between atoms: C_9  and  C_10 
REMARK    6  A    between atoms: N_15  and  C_14 
REMARK    7  A    between atoms: N_20  and  C_19 
REMARK       I    between atoms: C_22  and  N_20 
ROOT
ATOM      1  C   LIG d   1      -4.098  79.374 116.159  0.00  0.00     0.161 C 
ATOM      2  C   LIG d   1      -3.545  78.395 115.317  0.00  0.00     0.016 C 
ATOM      3  C   LIG d   1      -4.195  77.179 115.005  0.00  0.00     0.038 C 
ATOM      4  C   LIG d   1      -5.518  76.924 115.397  0.00  0.00     0.028 C 
ATOM      5  C   LIG d   1      -5.927  77.663 116.667  0.00  0.00    -0.047 C 
ATOM      6  C   LIG d   1      -5.587  79.162 116.506  0.00  0.00     0.091 C 
ENDROOT
BRANCH   1   7
ATOM      7  O   LIG d   1      -3.898  80.681 115.586  0.00  0.00    -0.368 OA
BRANCH   7   8
ATOM      8  C   LIG d   1      -3.311  81.677 116.460  0.00  0.00     0.119 C 
BRANCH   8   9
ATOM      9  C   LIG d   1      -2.291  82.479 115.628  0.00  0.00     0.028 C 
ATOM     10  C   LIG d   1      -2.244  82.023 114.160  0.00  0.00     0.006 C 
ENDBRANCH   8   9
BRANCH   8  11
ATOM     11  C   LIG d   1      -2.497  81.025 117.580  0.00  0.00     0.028 C 
ATOM     12  C   LIG d   1      -2.759  81.660 118.955  0.00  0.00     0.006 C 
ENDBRANCH   8  11
ENDBRANCH   7   8
ENDBRANCH   1   7
BRANCH   6  13
ATOM     13  N   LIG d   1      -5.877  79.944 117.736  0.00  0.00    -0.311 N 
ATOM     14  C   LIG d   1      -6.703  80.989 117.763  0.00  0.00     0.210 C 
ATOM     15  C   LIG d   1      -6.846  81.665 119.130  0.00  0.00     0.109 C 
ATOM     16  O   LIG d   1      -7.355  81.399 116.791  0.00  0.00    -0.276 OA
ATOM     17  H   LIG d   1      -5.414  79.660 118.577  0.00  0.00     0.149 HD
ENDBRANCH   6  13
BRANCH   5  18
ATOM     18  N   LIG d   1      -7.365  77.416 116.882  0.00  0.00     0.381 N 
ATOM     19  H   LIG d   1      -7.824  77.299 116.001  0.00  0.00    -0.090 HD
ATOM     20  H   LIG d   1      -7.766  78.213 117.344  0.00  0.00    -0.090 HD
ATOM     21  H   LIG d   1      -7.491  76.601 117.441  0.00  0.00    -0.090 HD
ENDBRANCH   5  18
BRANCH   3  22
ATOM     22  C   LIG d   1      -3.506  76.185 114.327  0.00  0.00     0.382 C 
ATOM     23  O   LIG d   1      -4.101  75.139 113.973  0.00  0.00    -0.241 OA
ATOM     24  O   LIG d   1      -2.286  76.303 114.103  0.00  0.00    -0.241 OA
ENDBRANCH   3  22
TORSDOF 7
ENDMDL
MODEL 9
REMARK VINA RESULT:      -4.4      2.932      4.126
REMARK  7 active torsions:
REMARK  status: ('A' for Active; 'I' for Inactive)
REMARK    1  A    between atoms: C_2  and  C_3 
REMARK    2  A    between atoms: C_3  and  O_6 
REMARK    3  A    between atoms: C_3  and  C_4 
REMARK    4  A    between atoms: C_7  and  O_6 
REMARK    5  A    between atoms: C_9  and  C_10 
REMARK    6  A    between atoms: N_15  and  C_14 
REMARK    7  A    between atoms: N_20  and  C_19 
REMARK       I    between atoms: C_22  and  N_20 
ROOT
ATOM      1  C   LIG d   1      -2.916  80.073 115.444  0.00  0.00     0.161 C 
ATOM      2  C   LIG d   1      -2.622  81.207 114.669  0.00  0.00     0.016 C 
ATOM      3  C   LIG d   1      -1.971  81.146 113.416  0.00  0.00     0.038 C 
ATOM      4  C   LIG d   1      -1.702  79.925 112.779  0.00  0.00     0.028 C 
ATOM      5  C   LIG d   1      -1.524  78.762 113.749  0.00  0.00    -0.047 C 
ATOM      6  C   LIG d   1      -2.730  78.726 114.715  0.00  0.00     0.091 C 
ENDROOT
BRANCH   1   7
ATOM      7  O   LIG d   1      -4.252  80.176 115.974  0.00  0.00    -0.368 OA
BRANCH   7   8
ATOM      8  C   LIG d   1      -4.472  81.224 116.950  0.00  0.00     0.119 C 
BRANCH   8   9
ATOM      9  C   LIG d   1      -3.569  80.925 118.163  0.00  0.00     0.028 C 
ATOM     10  C   LIG d   1      -4.065  81.609 119.447  0.00  0.00     0.006 C 
ENDBRANCH   8   9
BRANCH   8  11
ATOM     11  C   LIG d   1      -5.904  81.190 117.492  0.00  0.00     0.028 C 
ATOM     12  C   LIG d   1      -6.594  79.835 117.267  0.00  0.00     0.006 C 
ENDBRANCH   8  11
ENDBRANCH   7   8
ENDBRANCH   1   7
BRANCH   6  13
ATOM     13  N   LIG d   1      -2.595  77.669 115.751  0.00  0.00    -0.311 N 
ATOM     14  C   LIG d   1      -3.040  76.424 115.591  0.00  0.00     0.210 C 
ATOM     15  C   LIG d   1      -2.817  75.497 116.790  0.00  0.00     0.109 C 
ATOM     16  O   LIG d   1      -3.569  75.990 114.556  0.00  0.00    -0.276 OA
ATOM     17  H   LIG d   1      -2.149  77.926 116.610  0.00  0.00     0.149 HD
ENDBRANCH   6  13
BRANCH   5  18
ATOM     18  N   LIG d   1      -1.388  77.531 112.948  0.00  0.00     0.381 N 
ATOM     19  H   LIG d   1      -2.281  77.260 112.589  0.00  0.00    -0.090 HD
ATOM     20  H   LIG d   1      -1.049  76.793 113.541  0.00  0.00    -0.090 HD
ATOM     21  H   LIG d   1      -0.751  77.682 112.197  0.00  0.00    -0.090 HD
ENDBRANCH   5  18
BRANCH   3  22
ATOM     22  C   LIG d   1      -1.545  82.315 112.805  0.00  0.00     0.382 C 
ATOM     23  O   LIG d   1      -1.268  83.322 113.501  0.00  0.00    -0.241 OA
ATOM     24  O   LIG d   1      -1.476  82.391 111.563  0.00  0.00    -0.241 OA
ENDBRANCH   3  22
TORSDOF 7
ENDMDL
