MODEL 1
REMARK VINA RESULT:      -5.4      0.000      0.000
REMARK  7 active torsions:
REMARK  status: ('A' for Active; 'I' for Inactive)
REMARK    1  A    between atoms: C_2  and  C_3 
REMARK    2  A    between atoms: C_3  and  O_6 
REMARK    3  A    between atoms: C_3  and  C_4 
REMARK    4  A    between atoms: C_7  and  O_6 
REMARK    5  A    between atoms: C_9  and  C_10 
REMARK    6  A    between atoms: N_15  and  C_14 
REMARK    7  A    between atoms: N_20  and  C_19 
REMARK       I    between atoms: C_22  and  N_20 
ROOT
ATOM      1  C   LIG d   1      -3.368  77.463 114.689  0.00  0.00     0.161 C 
ATOM      2  C   LIG d   1      -3.321  77.884 113.349  0.00  0.00     0.016 C 
ATOM      3  C   LIG d   1      -2.216  77.649 112.498  0.00  0.00     0.038 C 
ATOM      4  C   LIG d   1      -1.139  76.840 112.888  0.00  0.00     0.028 C 
ATOM      5  C   LIG d   1      -0.913  76.816 114.396  0.00  0.00    -0.047 C 
ATOM      6  C   LIG d   1      -2.249  76.482 115.098  0.00  0.00     0.091 C 
ENDROOT
BRANCH   1   7
ATOM      7  O   LIG d   1      -4.661  76.896 114.977  0.00  0.00    -0.368 OA
BRANCH   7   8
ATOM      8  C   LIG d   1      -4.740  75.449 114.967  0.00  0.00     0.119 C 
BRANCH   8   9
ATOM      9  C   LIG d   1      -5.608  75.041 113.761  0.00  0.00     0.028 C 
ATOM     10  C   LIG d   1      -6.884  75.892 113.642  0.00  0.00     0.006 C 
ENDBRANCH   8   9
BRANCH   8  11
ATOM     11  C   LIG d   1      -5.483  74.922 116.198  0.00  0.00     0.028 C 
ATOM     12  C   LIG d   1      -5.789  76.024 117.225  0.00  0.00     0.006 C 
ENDBRANCH   8  11
ENDBRANCH   7   8
ENDBRANCH   1   7
BRANCH   6  13
ATOM     13  N   LIG d   1      -2.136  76.522 116.580  0.00  0.00    -0.311 N 
ATOM     14  C   LIG d   1      -1.951  75.437 117.330  0.00  0.00     0.210 C 
ATOM     15  C   LIG d   1      -1.883  75.698 118.838  0.00  0.00     0.109 C 
ATOM     16  O   LIG d   1      -1.805  74.288 116.888  0.00  0.00    -0.276 OA
ATOM     17  H   LIG d   1      -2.213  77.418 117.019  0.00  0.00     0.149 HD
ENDBRANCH   6  13
BRANCH   5  18
ATOM     18  N   LIG d   1       0.148  75.830 114.673  0.00  0.00     0.381 N 
ATOM     19  H   LIG d   1       0.965  76.053 114.140  0.00  0.00    -0.090 HD
ATOM     20  H   LIG d   1      -0.173  74.920 114.393  0.00  0.00    -0.090 HD
ATOM     21  H   LIG d   1       0.367  75.828 115.645  0.00  0.00    -0.090 HD
ENDBRANCH   5  18
BRANCH   3  22
ATOM     22  C   LIG d   1      -2.164  78.261 111.255  0.00  0.00     0.382 C 
ATOM     23  O   LIG d   1      -2.765  77.750 110.279  0.00  0.00    -0.241 OA
ATOM     24  O   LIG d   1      -1.488  79.294 111.087  0.00  0.00    -0.241 OA
ENDBRANCH   3  22
TORSDOF 7
ENDMDL
MODEL 2
REMARK VINA RESULT:      -5.3      1.852      2.461
REMARK  7 active torsions:
REMARK  status: ('A' for Active; 'I' for Inactive)
REMARK    1  A    between atoms: C_2  and  C_3 
REMARK    2  A    between atoms: C_3  and  O_6 
REMARK    3  A    between atoms: C_3  and  C_4 
REMARK    4  A    between atoms: C_7  and  O_6 
REMARK    5  A    between atoms: C_9  and  C_10 
REMARK    6  A    between atoms: N_15  and  C_14 
REMARK    7  A    between atoms: N_20  and  C_19 
REMARK       I    between atoms: C_22  and  N_20 
ROOT
ATOM      1  C   LIG d   1      -2.536  78.451 116.337  0.00  0.00     0.161 C 
ATOM      2  C   LIG d   1      -2.968  79.044 115.139  0.00  0.00     0.016 C 
ATOM      3  C   LIG d   1      -2.417  78.734 113.875  0.00  0.00     0.038 C 
ATOM      4  C   LIG d   1      -1.495  77.691 113.703  0.00  0.00     0.028 C 
ATOM      5  C   LIG d   1      -0.661  77.409 114.949  0.00  0.00    -0.047 C 
ATOM      6  C   LIG d   1      -1.609  77.231 116.157  0.00  0.00     0.091 C 
ENDROOT
BRANCH   1   7
ATOM      7  O   LIG d   1      -3.676  78.099 117.146  0.00  0.00    -0.368 OA
BRANCH   7   8
ATOM      8  C   LIG d   1      -4.884  77.749 116.427  0.00  0.00     0.119 C 
BRANCH   8   9
ATOM      9  C   LIG d   1      -6.076  78.319 117.221  0.00  0.00     0.028 C 
ATOM     10  C   LIG d   1      -5.917  79.818 117.523  0.00  0.00     0.006 C 
ENDBRANCH   8   9
BRANCH   8  11
ATOM     11  C   LIG d   1      -5.100  76.233 116.405  0.00  0.00     0.028 C 
ATOM     12  C   LIG d   1      -4.817  75.611 115.028  0.00  0.00     0.006 C 
ENDBRANCH   8  11
ENDBRANCH   7   8
ENDBRANCH   1   7
BRANCH   6  13
ATOM     13  N   LIG d   1      -0.871  77.035 117.432  0.00  0.00    -0.311 N 
ATOM     14  C   LIG d   1      -1.193  76.107 118.331  0.00  0.00     0.210 C 
ATOM     15  C   LIG d   1      -0.314  76.088 119.586  0.00  0.00     0.109 C 
ATOM     16  O   LIG d   1      -2.103  75.275 118.193  0.00  0.00    -0.276 OA
ATOM     17  H   LIG d   1      -0.098  77.647 117.611  0.00  0.00     0.149 HD
ENDBRANCH   6  13
BRANCH   5  18
ATOM     18  N   LIG d   1       0.158  76.213 114.676  0.00  0.00     0.381 N 
ATOM     19  H   LIG d   1       0.725  76.369 113.866  0.00  0.00    -0.090 HD
ATOM     20  H   LIG d   1      -0.452  75.437 114.489  0.00  0.00    -0.090 HD
ATOM     21  H   LIG d   1       0.737  76.009 115.461  0.00  0.00    -0.090 HD
ENDBRANCH   5  18
BRANCH   3  22
ATOM     22  C   LIG d   1      -2.760  79.498 112.769  0.00  0.00     0.382 C 
ATOM     23  O   LIG d   1      -2.283  79.220 111.643  0.00  0.00    -0.241 OA
ATOM     24  O   LIG d   1      -3.505  80.488 112.893  0.00  0.00    -0.241 OA
ENDBRANCH   3  22
TORSDOF 7
ENDMDL
MODEL 3
REMARK VINA RESULT:      -5.3      1.872      4.901
REMARK  7 active torsions:
REMARK  status: ('A' for Active; 'I' for Inactive)
REMARK    1  A    between atoms: C_2  and  C_3 
REMARK    2  A    between atoms: C_3  and  O_6 
REMARK    3  A    between atoms: C_3  and  C_4 
REMARK    4  A    between atoms: C_7  and  O_6 
REMARK    5  A    between atoms: C_9  and  C_10 
REMARK    6  A    between atoms: N_15  and  C_14 
REMARK    7  A    between atoms: N_20  and  C_19 
REMARK       I    between atoms: C_22  and  N_20 
ROOT
ATOM      1  C   LIG d   1      -2.343  75.855 114.915  0.00  0.00     0.161 C 
ATOM      2  C   LIG d   1      -2.165  75.569 116.279  0.00  0.00     0.016 C 
ATOM      3  C   LIG d   1      -1.485  76.428 117.172  0.00  0.00     0.038 C 
ATOM      4  C   LIG d   1      -1.066  77.712 116.791  0.00  0.00     0.028 C 
ATOM      5  C   LIG d   1      -0.777  77.837 115.299  0.00  0.00    -0.047 C 
ATOM      6  C   LIG d   1      -1.990  77.301 114.506  0.00  0.00     0.091 C 
ENDROOT
BRANCH   1   7
ATOM      7  O   LIG d   1      -3.693  75.538 114.521  0.00  0.00    -0.368 OA
BRANCH   7   8
ATOM      8  C   LIG d   1      -4.673  75.490 115.587  0.00  0.00     0.119 C 
BRANCH   8   9
ATOM      9  C   LIG d   1      -5.632  74.323 115.283  0.00  0.00     0.028 C 
ATOM     10  C   LIG d   1      -6.738  74.181 116.341  0.00  0.00     0.006 C 
ENDBRANCH   8   9
BRANCH   8  11
ATOM     11  C   LIG d   1      -5.551  76.745 115.594  0.00  0.00     0.028 C 
ATOM     12  C   LIG d   1      -5.174  77.730 116.712  0.00  0.00     0.006 C 
ENDBRANCH   8  11
ENDBRANCH   7   8
ENDBRANCH   1   7
BRANCH   6  13
ATOM     13  N   LIG d   1      -1.757  77.309 113.038  0.00  0.00    -0.311 N 
ATOM     14  C   LIG d   1      -2.506  77.999 112.180  0.00  0.00     0.210 C 
ATOM     15  C   LIG d   1      -2.105  77.852 110.709  0.00  0.00     0.109 C 
ATOM     16  O   LIG d   1      -3.444  78.744 112.501  0.00  0.00    -0.276 OA
ATOM     17  H   LIG d   1      -0.996  76.756 112.695  0.00  0.00     0.149 HD
ENDBRANCH   6  13
BRANCH   5  18
ATOM     18  N   LIG d   1      -0.485  79.256 115.019  0.00  0.00     0.381 N 
ATOM     19  H   LIG d   1      -0.427  79.765 115.878  0.00  0.00    -0.090 HD
ATOM     20  H   LIG d   1      -1.236  79.641 114.474  0.00  0.00    -0.090 HD
ATOM     21  H   LIG d   1       0.373  79.335 114.519  0.00  0.00    -0.090 HD
ENDBRANCH   5  18
BRANCH   3  22
ATOM     22  C   LIG d   1      -1.183  75.989 118.452  0.00  0.00     0.382 C 
ATOM     23  O   LIG d   1      -0.166  76.429 119.042  0.00  0.00    -0.241 OA
ATOM     24  O   LIG d   1      -1.890  75.127 119.007  0.00  0.00    -0.241 OA
ENDBRANCH   3  22
TORSDOF 7
ENDMDL
MODEL 4
REMARK VINA RESULT:      -5.3      1.833      2.504
REMARK  7 active torsions:
REMARK  status: ('A' for Active; 'I' for Inactive)
REMARK    1  A    between atoms: C_2  and  C_3 
REMARK    2  A    between atoms: C_3  and  O_6 
REMARK    3  A    between atoms: C_3  and  C_4 
REMARK    4  A    between atoms: C_7  and  O_6 
REMARK    5  A    between atoms: C_9  and  C_10 
REMARK    6  A    between atoms: N_15  and  C_14 
REMARK    7  A    between atoms: N_20  and  C_19 
REMARK       I    between atoms: C_22  and  N_20 
ROOT
ATOM      1  C   LIG d   1      -3.238  78.535 115.634  0.00  0.00     0.161 C 
ATOM      2  C   LIG d   1      -3.185  79.359 114.497  0.00  0.00     0.016 C 
ATOM      3  C   LIG d   1      -2.190  79.244 113.499  0.00  0.00     0.038 C 
ATOM      4  C   LIG d   1      -1.262  78.193 113.495  0.00  0.00     0.028 C 
ATOM      5  C   LIG d   1      -0.964  77.642 114.886  0.00  0.00    -0.047 C 
ATOM      6  C   LIG d   1      -2.299  77.312 115.591  0.00  0.00     0.091 C 
ENDROOT
BRANCH   1   7
ATOM      7  O   LIG d   1      -4.597  78.117 115.872  0.00  0.00    -0.368 OA
BRANCH   7   8
ATOM      8  C   LIG d   1      -5.106  78.334 117.211  0.00  0.00     0.119 C 
BRANCH   8   9
ATOM      9  C   LIG d   1      -6.235  77.313 117.448  0.00  0.00     0.028 C 
ATOM     10  C   LIG d   1      -5.834  75.887 117.033  0.00  0.00     0.006 C 
ENDBRANCH   8   9
BRANCH   8  11
ATOM     11  C   LIG d   1      -5.769  79.709 117.339  0.00  0.00     0.028 C 
ATOM     12  C   LIG d   1      -7.158  79.642 117.993  0.00  0.00     0.006 C 
ENDBRANCH   8  11
ENDBRANCH   7   8
ENDBRANCH   1   7
BRANCH   6  13
ATOM     13  N   LIG d   1      -2.102  76.846 116.988  0.00  0.00    -0.311 N 
ATOM     14  C   LIG d   1      -2.036  75.560 117.330  0.00  0.00     0.210 C 
ATOM     15  C   LIG d   1      -1.849  75.298 118.828  0.00  0.00     0.109 C 
ATOM     16  O   LIG d   1      -2.081  74.613 116.532  0.00  0.00    -0.276 OA
ATOM     17  H   LIG d   1      -2.024  77.549 117.697  0.00  0.00     0.149 HD
ENDBRANCH   6  13
BRANCH   5  18
ATOM     18  N   LIG d   1      -0.090  76.465 114.722  0.00  0.00     0.381 N 
ATOM     19  H   LIG d   1      -0.638  75.670 114.462  0.00  0.00    -0.090 HD
ATOM     20  H   LIG d   1       0.357  76.267 115.599  0.00  0.00    -0.090 HD
ATOM     21  H   LIG d   1       0.597  76.646 114.023  0.00  0.00    -0.090 HD
ENDBRANCH   5  18
BRANCH   3  22
ATOM     22  C   LIG d   1      -2.093  80.213 112.512  0.00  0.00     0.382 C 
ATOM     23  O   LIG d   1      -2.816  81.237 112.565  0.00  0.00    -0.241 OA
ATOM     24  O   LIG d   1      -1.323  80.055 111.546  0.00  0.00    -0.241 OA
ENDBRANCH   3  22
TORSDOF 7
ENDMDL
MODEL 5
REMARK VINA RESULT:      -5.0      2.506      5.097
REMARK  7 active torsions:
REMARK  status: ('A' for Active; 'I' for Inactive)
REMARK    1  A    between atoms: C_2  and  C_3 
REMARK    2  A    between atoms: C_3  and  O_6 
REMARK    3  A    between atoms: C_3  and  C_4 
REMARK    4  A    between atoms: C_7  and  O_6 
REMARK    5  A    between atoms: C_9  and  C_10 
REMARK    6  A    between atoms: N_15  and  C_14 
REMARK    7  A    between atoms: N_20  and  C_19 
REMARK       I    between atoms: C_22  and  N_20 
ROOT
ATOM      1  C   LIG d   1      -3.204  78.362 115.518  0.00  0.00     0.161 C 
ATOM      2  C   LIG d   1      -1.966  78.751 116.056  0.00  0.00     0.016 C 
ATOM      3  C   LIG d   1      -1.080  77.855 116.697  0.00  0.00     0.038 C 
ATOM      4  C   LIG d   1      -1.306  76.471 116.709  0.00  0.00     0.028 C 
ATOM      5  C   LIG d   1      -2.782  76.097 116.622  0.00  0.00    -0.047 C 
ATOM      6  C   LIG d   1      -3.417  76.837 115.423  0.00  0.00     0.091 C 
ENDROOT
BRANCH   1   7
ATOM      7  O   LIG d   1      -3.389  78.976 114.226  0.00  0.00    -0.368 OA
BRANCH   7   8
ATOM      8  C   LIG d   1      -2.410  78.637 113.214  0.00  0.00     0.119 C 
BRANCH   8   9
ATOM      9  C   LIG d   1      -1.873  79.958 112.629  0.00  0.00     0.028 C 
ATOM     10  C   LIG d   1      -2.898  81.101 112.725  0.00  0.00     0.006 C 
ENDBRANCH   8   9
BRANCH   8  11
ATOM     11  C   LIG d   1      -3.058  77.906 112.035  0.00  0.00     0.028 C 
ATOM     12  C   LIG d   1      -2.189  77.932 110.767  0.00  0.00     0.006 C 
ENDBRANCH   8  11
ENDBRANCH   7   8
ENDBRANCH   1   7
BRANCH   6  13
ATOM     13  N   LIG d   1      -4.879  76.593 115.316  0.00  0.00    -0.311 N 
ATOM     14  C   LIG d   1      -5.418  75.727 114.460  0.00  0.00     0.210 C 
ATOM     15  C   LIG d   1      -6.947  75.644 114.500  0.00  0.00     0.109 C 
ATOM     16  O   LIG d   1      -4.772  74.996 113.694  0.00  0.00    -0.276 OA
ATOM     17  H   LIG d   1      -5.475  77.122 115.923  0.00  0.00     0.149 HD
ENDBRANCH   6  13
BRANCH   5  18
ATOM     18  N   LIG d   1      -2.864  74.629 116.505  0.00  0.00     0.381 N 
ATOM     19  H   LIG d   1      -2.040  74.212 116.889  0.00  0.00    -0.090 HD
ATOM     20  H   LIG d   1      -2.918  74.383 115.532  0.00  0.00    -0.090 HD
ATOM     21  H   LIG d   1      -3.670  74.293 116.985  0.00  0.00    -0.090 HD
ENDBRANCH   5  18
BRANCH   3  22
ATOM     22  C   LIG d   1       0.028  78.347 117.370  0.00  0.00     0.382 C 
ATOM     23  O   LIG d   1       0.351  77.866 118.483  0.00  0.00    -0.241 OA
ATOM     24  O   LIG d   1       0.683  79.296 116.899  0.00  0.00    -0.241 OA
ENDBRANCH   3  22
TORSDOF 7
ENDMDL
MODEL 6
REMARK VINA RESULT:      -4.7      2.448      4.787
REMARK  7 active torsions:
REMARK  status: ('A' for Active; 'I' for Inactive)
REMARK    1  A    between atoms: C_2  and  C_3 
REMARK    2  A    between atoms: C_3  and  O_6 
REMARK    3  A    between atoms: C_3  and  C_4 
REMARK    4  A    between atoms: C_7  and  O_6 
REMARK    5  A    between atoms: C_9  and  C_10 
REMARK    6  A    between atoms: N_15  and  C_14 
REMARK    7  A    between atoms: N_20  and  C_19 
REMARK       I    between atoms: C_22  and  N_20 
ROOT
ATOM      1  C   LIG d   1      -1.687  76.982 114.556  0.00  0.00     0.161 C 
ATOM      2  C   LIG d   1      -2.912  76.484 114.081  0.00  0.00     0.016 C 
ATOM      3  C   LIG d   1      -4.120  76.564 114.810  0.00  0.00     0.038 C 
ATOM      4  C   LIG d   1      -4.217  77.287 116.008  0.00  0.00     0.028 C 
ATOM      5  C   LIG d   1      -2.900  77.374 116.771  0.00  0.00    -0.047 C 
ATOM      6  C   LIG d   1      -1.795  77.873 115.812  0.00  0.00     0.091 C 
ENDROOT
BRANCH   1   7
ATOM      7  O   LIG d   1      -1.003  77.685 113.501  0.00  0.00    -0.368 OA
BRANCH   7   8
ATOM      8  C   LIG d   1      -1.816  78.087 112.371  0.00  0.00     0.119 C 
BRANCH   8   9
ATOM      9  C   LIG d   1      -1.136  77.550 111.097  0.00  0.00     0.028 C 
ATOM     10  C   LIG d   1      -1.958  77.835 109.828  0.00  0.00     0.006 C 
ENDBRANCH   8   9
BRANCH   8  11
ATOM     11  C   LIG d   1      -1.832  79.610 112.210  0.00  0.00     0.028 C 
ATOM     12  C   LIG d   1      -2.993  80.277 112.966  0.00  0.00     0.006 C 
ENDBRANCH   8  11
ENDBRANCH   7   8
ENDBRANCH   1   7
BRANCH   6  13
ATOM     13  N   LIG d   1      -0.457  77.906 116.456  0.00  0.00    -0.311 N 
ATOM     14  C   LIG d   1       0.032  78.978 117.077  0.00  0.00     0.210 C 
ATOM     15  C   LIG d   1       1.440  78.805 117.656  0.00  0.00     0.109 C 
ATOM     16  O   LIG d   1      -0.580  80.046 117.232  0.00  0.00    -0.276 OA
ATOM     17  H   LIG d   1       0.095  77.072 116.406  0.00  0.00     0.149 HD
ENDBRANCH   6  13
BRANCH   5  18
ATOM     18  N   LIG d   1      -3.111  78.268 117.925  0.00  0.00     0.381 N 
ATOM     19  H   LIG d   1      -2.308  78.851 118.053  0.00  0.00    -0.090 HD
ATOM     20  H   LIG d   1      -3.230  77.710 118.752  0.00  0.00    -0.090 HD
ATOM     21  H   LIG d   1      -3.919  78.831 117.776  0.00  0.00    -0.090 HD
ENDBRANCH   5  18
BRANCH   3  22
ATOM     22  C   LIG d   1      -5.240  75.881 114.361  0.00  0.00     0.382 C 
ATOM     23  O   LIG d   1      -5.110  74.908 113.580  0.00  0.00    -0.241 OA
ATOM     24  O   LIG d   1      -6.382  76.254 114.691  0.00  0.00    -0.241 OA
ENDBRANCH   3  22
TORSDOF 7
ENDMDL
MODEL 7
REMARK VINA RESULT:      -4.6      2.364      3.352
REMARK  7 active torsions:
REMARK  status: ('A' for Active; 'I' for Inactive)
REMARK    1  A    between atoms: C_2  and  C_3 
REMARK    2  A    between atoms: C_3  and  O_6 
REMARK    3  A    between atoms: C_3  and  C_4 
REMARK    4  A    between atoms: C_7  and  O_6 
REMARK    5  A    between atoms: C_9  and  C_10 
REMARK    6  A    between atoms: N_15  and  C_14 
REMARK    7  A    between atoms: N_20  and  C_19 
REMARK       I    between atoms: C_22  and  N_20 
ROOT
ATOM      1  C   LIG d   1      -2.427  77.311 113.759  0.00  0.00     0.161 C 
ATOM      2  C   LIG d   1      -1.758  77.008 112.562  0.00  0.00     0.016 C 
ATOM      3  C   LIG d   1      -1.450  77.974 111.576  0.00  0.00     0.038 C 
ATOM      4  C   LIG d   1      -1.658  79.344 111.790  0.00  0.00     0.028 C 
ATOM      5  C   LIG d   1      -2.788  79.640 112.770  0.00  0.00    -0.047 C 
ATOM      6  C   LIG d   1      -2.562  78.819 114.060  0.00  0.00     0.091 C 
ENDROOT
BRANCH   1   7
ATOM      7  O   LIG d   1      -1.788  76.636 114.860  0.00  0.00    -0.368 OA
BRANCH   7   8
ATOM      8  C   LIG d   1      -2.343  75.349 115.228  0.00  0.00     0.119 C 
BRANCH   8   9
ATOM      9  C   LIG d   1      -3.821  75.573 115.604  0.00  0.00     0.028 C 
ATOM     10  C   LIG d   1      -4.787  74.936 114.591  0.00  0.00     0.006 C 
ENDBRANCH   8   9
BRANCH   8  11
ATOM     11  C   LIG d   1      -1.682  74.798 116.494  0.00  0.00     0.028 C 
ATOM     12  C   LIG d   1      -1.295  75.900 117.493  0.00  0.00     0.006 C 
ENDBRANCH   8  11
ENDBRANCH   7   8
ENDBRANCH   1   7
BRANCH   6  13
ATOM     13  N   LIG d   1      -3.668  78.985 115.039  0.00  0.00    -0.311 N 
ATOM     14  C   LIG d   1      -3.474  79.095 116.352  0.00  0.00     0.210 C 
ATOM     15  C   LIG d   1      -4.752  79.238 117.185  0.00  0.00     0.109 C 
ATOM     16  O   LIG d   1      -2.363  79.121 116.904  0.00  0.00    -0.276 OA
ATOM     17  H   LIG d   1      -4.600  79.006 114.675  0.00  0.00     0.149 HD
ENDBRANCH   6  13
BRANCH   5  18
ATOM     18  N   LIG d   1      -2.804  81.096 113.006  0.00  0.00     0.381 N 
ATOM     19  H   LIG d   1      -2.166  81.326 113.742  0.00  0.00    -0.090 HD
ATOM     20  H   LIG d   1      -3.728  81.368 113.293  0.00  0.00    -0.090 HD
ATOM     21  H   LIG d   1      -2.551  81.579 112.173  0.00  0.00    -0.090 HD
ENDBRANCH   5  18
BRANCH   3  22
ATOM     22  C   LIG d   1      -0.965  77.566 110.342  0.00  0.00     0.382 C 
ATOM     23  O   LIG d   1      -0.668  76.362 110.152  0.00  0.00    -0.241 OA
ATOM     24  O   LIG d   1      -0.779  78.395 109.432  0.00  0.00    -0.241 OA
ENDBRANCH   3  22
TORSDOF 7
ENDMDL
MODEL 8
REMARK VINA RESULT:      -4.6      2.410      5.096
REMARK  7 active torsions:
REMARK  status: ('A' for Active; 'I' for Inactive)
REMARK    1  A    between atoms: C_2  and  C_3 
REMARK    2  A    between atoms: C_3  and  O_6 
REMARK    3  A    between atoms: C_3  and  C_4 
REMARK    4  A    between atoms: C_7  and  O_6 
REMARK    5  A    between atoms: C_9  and  C_10 
REMARK    6  A    between atoms: N_15  and  C_14 
REMARK    7  A    between atoms: N_20  and  C_19 
REMARK       I    between atoms: C_22  and  N_20 
ROOT
ATOM      1  C   LIG d   1      -2.111  77.287 114.333  0.00  0.00     0.161 C 
ATOM      2  C   LIG d   1      -1.194  78.060 115.065  0.00  0.00     0.016 C 
ATOM      3  C   LIG d   1      -0.729  77.704 116.352  0.00  0.00     0.038 C 
ATOM      4  C   LIG d   1      -1.037  76.466 116.936  0.00  0.00     0.028 C 
ATOM      5  C   LIG d   1      -2.359  75.881 116.453  0.00  0.00    -0.047 C 
ATOM      6  C   LIG d   1      -2.372  75.878 114.907  0.00  0.00     0.091 C 
ENDROOT
BRANCH   1   7
ATOM      7  O   LIG d   1      -1.687  77.198 112.959  0.00  0.00    -0.368 OA
BRANCH   7   8
ATOM      8  C   LIG d   1      -2.352  78.087 112.028  0.00  0.00     0.119 C 
BRANCH   8   9
ATOM      9  C   LIG d   1      -1.926  77.672 110.606  0.00  0.00     0.028 C 
ATOM     10  C   LIG d   1      -0.801  78.559 110.048  0.00  0.00     0.006 C 
ENDBRANCH   8   9
BRANCH   8  11
ATOM     11  C   LIG d   1      -1.865  79.530 112.192  0.00  0.00     0.028 C 
ATOM     12  C   LIG d   1      -2.939  80.457 112.782  0.00  0.00     0.006 C 
ENDBRANCH   8  11
ENDBRANCH   7   8
ENDBRANCH   1   7
BRANCH   6  13
ATOM     13  N   LIG d   1      -3.664  75.399 114.351  0.00  0.00    -0.311 N 
ATOM     14  C   LIG d   1      -4.823  76.028 114.543  0.00  0.00     0.210 C 
ATOM     15  C   LIG d   1      -6.038  75.353 113.899  0.00  0.00     0.109 C 
ATOM     16  O   LIG d   1      -4.954  77.097 115.157  0.00  0.00    -0.276 OA
ATOM     17  H   LIG d   1      -3.644  74.555 113.813  0.00  0.00     0.149 HD
ENDBRANCH   6  13
BRANCH   5  18
ATOM     18  N   LIG d   1      -2.488  74.531 117.034  0.00  0.00     0.381 N 
ATOM     19  H   LIG d   1      -3.316  74.482 117.594  0.00  0.00    -0.090 HD
ATOM     20  H   LIG d   1      -1.696  74.355 117.626  0.00  0.00    -0.090 HD
ATOM     21  H   LIG d   1      -2.528  73.850 116.309  0.00  0.00    -0.090 HD
ENDBRANCH   5  18
BRANCH   3  22
ATOM     22  C   LIG d   1       0.021  78.610 117.087  0.00  0.00     0.382 C 
ATOM     23  O   LIG d   1       0.174  79.783 116.667  0.00  0.00    -0.241 OA
ATOM     24  O   LIG d   1       0.583  78.258 118.141  0.00  0.00    -0.241 OA
ENDBRANCH   3  22
TORSDOF 7
ENDMDL
MODEL 9
REMARK VINA RESULT:      -4.5      1.814      2.365
REMARK  7 active torsions:
REMARK  status: ('A' for Active; 'I' for Inactive)
REMARK    1  A    between atoms: C_2  and  C_3 
REMARK    2  A    between atoms: C_3  and  O_6 
REMARK    3  A    between atoms: C_3  and  C_4 
REMARK    4  A    between atoms: C_7  and  O_6 
REMARK    5  A    between atoms: C_9  and  C_10 
REMARK    6  A    between atoms: N_15  and  C_14 
REMARK    7  A    between atoms: N_20  and  C_19 
REMARK       I    between atoms: C_22  and  N_20 
ROOT
ATOM      1  C   LIG d   1      -3.672  76.727 114.473  0.00  0.00     0.161 C 
ATOM      2  C   LIG d   1      -3.256  77.007 113.161  0.00  0.00     0.016 C 
ATOM      3  C   LIG d   1      -2.224  77.922 112.850  0.00  0.00     0.038 C 
ATOM      4  C   LIG d   1      -1.429  78.510 113.845  0.00  0.00     0.028 C 
ATOM      5  C   LIG d   1      -2.141  78.645 115.187  0.00  0.00    -0.047 C 
ATOM      6  C   LIG d   1      -2.743  77.275 115.576  0.00  0.00     0.091 C 
ENDROOT
BRANCH   1   7
ATOM      7  O   LIG d   1      -3.859  75.307 114.634  0.00  0.00    -0.368 OA
BRANCH   7   8
ATOM      8  C   LIG d   1      -5.226  74.833 114.572  0.00  0.00     0.119 C 
BRANCH   8   9
ATOM      9  C   LIG d   1      -6.137  76.066 114.415  0.00  0.00     0.028 C 
ATOM     10  C   LIG d   1      -7.005  75.996 113.147  0.00  0.00     0.006 C 
ENDBRANCH   8   9
BRANCH   8  11
ATOM     11  C   LIG d   1      -5.650  74.181 115.891  0.00  0.00     0.028 C 
ATOM     12  C   LIG d   1      -6.668  75.027 116.674  0.00  0.00     0.006 C 
ENDBRANCH   8  11
ENDBRANCH   7   8
ENDBRANCH   1   7
BRANCH   6  13
ATOM     13  N   LIG d   1      -3.529  77.339 116.836  0.00  0.00    -0.311 N 
ATOM     14  C   LIG d   1      -4.534  78.191 117.031  0.00  0.00     0.210 C 
ATOM     15  C   LIG d   1      -5.198  78.104 118.408  0.00  0.00     0.109 C 
ATOM     16  O   LIG d   1      -4.959  78.989 116.182  0.00  0.00    -0.276 OA
ATOM     17  H   LIG d   1      -3.271  76.705 117.567  0.00  0.00     0.149 HD
ENDBRANCH   6  13
BRANCH   5  18
ATOM     18  N   LIG d   1      -1.157  79.143 116.166  0.00  0.00     0.381 N 
ATOM     19  H   LIG d   1      -1.021  80.127 116.039  0.00  0.00    -0.090 HD
ATOM     20  H   LIG d   1      -0.279  78.681 116.008  0.00  0.00    -0.090 HD
ATOM     21  H   LIG d   1      -1.475  78.961 117.092  0.00  0.00    -0.090 HD
ENDBRANCH   5  18
BRANCH   3  22
ATOM     22  C   LIG d   1      -2.004  78.287 111.530  0.00  0.00     0.382 C 
ATOM     23  O   LIG d   1      -1.495  79.403 111.265  0.00  0.00    -0.241 OA
ATOM     24  O   LIG d   1      -2.349  77.534 110.600  0.00  0.00    -0.241 OA
ENDBRANCH   3  22
TORSDOF 7
ENDMDL
