MODEL 1
REMARK VINA RESULT:      -4.7      0.000      0.000
REMARK  7 active torsions:
REMARK  status: ('A' for Active; 'I' for Inactive)
REMARK    1  A    between atoms: C_2  and  C_3 
REMARK    2  A    between atoms: C_3  and  O_6 
REMARK    3  A    between atoms: C_3  and  C_4 
REMARK    4  A    between atoms: C_7  and  O_6 
REMARK    5  A    between atoms: C_9  and  C_10 
REMARK    6  A    between atoms: N_15  and  C_14 
REMARK    7  A    between atoms: N_20  and  C_19 
REMARK       I    between atoms: C_22  and  N_20 
ROOT
ATOM      1  C   LIG d   1      -2.025  80.819 114.246  0.00  0.00     0.161 C 
ATOM      2  C   LIG d   1      -2.428  79.571 114.751  0.00  0.00     0.016 C 
ATOM      3  C   LIG d   1      -2.209  78.350 114.073  0.00  0.00     0.038 C 
ATOM      4  C   LIG d   1      -1.433  78.278 112.907  0.00  0.00     0.028 C 
ATOM      5  C   LIG d   1      -1.437  79.569 112.096  0.00  0.00    -0.047 C 
ATOM      6  C   LIG d   1      -1.079  80.749 113.029  0.00  0.00     0.091 C 
ENDROOT
BRANCH   1   7
ATOM      7  O   LIG d   1      -1.430  81.603 115.299  0.00  0.00    -0.368 OA
BRANCH   7   8
ATOM      8  C   LIG d   1      -2.347  82.367 116.120  0.00  0.00     0.119 C 
BRANCH   8   9
ATOM      9  C   LIG d   1      -2.921  83.497 115.244  0.00  0.00     0.028 C 
ATOM     10  C   LIG d   1      -1.910  84.633 115.015  0.00  0.00     0.006 C 
ENDBRANCH   8   9
BRANCH   8  11
ATOM     11  C   LIG d   1      -1.613  83.074 117.264  0.00  0.00     0.028 C 
ATOM     12  C   LIG d   1      -2.315  82.898 118.620  0.00  0.00     0.006 C 
ENDBRANCH   8  11
ENDBRANCH   7   8
ENDBRANCH   1   7
BRANCH   6  13
ATOM     13  N   LIG d   1      -1.142  82.061 112.334  0.00  0.00    -0.311 N 
ATOM     14  C   LIG d   1      -0.092  82.867 112.193  0.00  0.00     0.210 C 
ATOM     15  C   LIG d   1      -0.380  84.182 111.461  0.00  0.00     0.109 C 
ATOM     16  O   LIG d   1       1.058  82.604 112.576  0.00  0.00    -0.276 OA
ATOM     17  H   LIG d   1      -2.031  82.339 111.965  0.00  0.00     0.149 HD
ENDBRANCH   6  13
BRANCH   5  18
ATOM     18  N   LIG d   1      -0.481  79.401 110.985  0.00  0.00     0.381 N 
ATOM     19  H   LIG d   1       0.419  79.156 111.346  0.00  0.00    -0.090 HD
ATOM     20  H   LIG d   1      -0.397  80.273 110.493  0.00  0.00    -0.090 HD
ATOM     21  H   LIG d   1      -0.802  78.691 110.364  0.00  0.00    -0.090 HD
ENDBRANCH   5  18
BRANCH   3  22
ATOM     22  C   LIG d   1      -2.805  77.188 114.541  0.00  0.00     0.382 C 
ATOM     23  O   LIG d   1      -2.267  76.076 114.321  0.00  0.00    -0.241 OA
ATOM     24  O   LIG d   1      -3.895  77.234 115.140  0.00  0.00    -0.241 OA
ENDBRANCH   3  22
TORSDOF 7
ENDMDL
MODEL 2
REMARK VINA RESULT:      -4.6      2.425      5.338
REMARK  7 active torsions:
REMARK  status: ('A' for Active; 'I' for Inactive)
REMARK    1  A    between atoms: C_2  and  C_3 
REMARK    2  A    between atoms: C_3  and  O_6 
REMARK    3  A    between atoms: C_3  and  C_4 
REMARK    4  A    between atoms: C_7  and  O_6 
REMARK    5  A    between atoms: C_9  and  C_10 
REMARK    6  A    between atoms: N_15  and  C_14 
REMARK    7  A    between atoms: N_20  and  C_19 
REMARK       I    between atoms: C_22  and  N_20 
ROOT
ATOM      1  C   LIG d   1      -2.491  79.740 115.271  0.00  0.00     0.161 C 
ATOM      2  C   LIG d   1      -2.341  80.958 114.587  0.00  0.00     0.016 C 
ATOM      3  C   LIG d   1      -1.792  81.059 113.288  0.00  0.00     0.038 C 
ATOM      4  C   LIG d   1      -1.493  79.924 112.520  0.00  0.00     0.028 C 
ATOM      5  C   LIG d   1      -1.156  78.696 113.358  0.00  0.00    -0.047 C 
ATOM      6  C   LIG d   1      -2.273  78.481 114.405  0.00  0.00     0.091 C 
ENDROOT
BRANCH   1   7
ATOM      7  O   LIG d   1      -3.783  79.692 115.907  0.00  0.00    -0.368 OA
BRANCH   7   8
ATOM      8  C   LIG d   1      -3.783  79.752 117.355  0.00  0.00     0.119 C 
BRANCH   8   9
ATOM      9  C   LIG d   1      -4.284  78.390 117.874  0.00  0.00     0.028 C 
ATOM     10  C   LIG d   1      -5.293  77.732 116.918  0.00  0.00     0.006 C 
ENDBRANCH   8   9
BRANCH   8  11
ATOM     11  C   LIG d   1      -4.795  80.779 117.871  0.00  0.00     0.028 C 
ATOM     12  C   LIG d   1      -4.505  82.203 117.372  0.00  0.00     0.006 C 
ENDBRANCH   8  11
ENDBRANCH   7   8
ENDBRANCH   1   7
BRANCH   6  13
ATOM     13  N   LIG d   1      -1.980  77.349 115.323  0.00  0.00    -0.311 N 
ATOM     14  C   LIG d   1      -2.406  76.105 115.111  0.00  0.00     0.210 C 
ATOM     15  C   LIG d   1      -2.010  75.094 116.191  0.00  0.00     0.109 C 
ATOM     16  O   LIG d   1      -3.047  75.737 114.115  0.00  0.00    -0.276 OA
ATOM     17  H   LIG d   1      -1.439  77.553 116.140  0.00  0.00     0.149 HD
ENDBRANCH   6  13
BRANCH   5  18
ATOM     18  N   LIG d   1      -1.001  77.555 112.436  0.00  0.00     0.381 N 
ATOM     19  H   LIG d   1      -0.166  77.667 111.896  0.00  0.00    -0.090 HD
ATOM     20  H   LIG d   1      -1.783  77.537 111.806  0.00  0.00    -0.090 HD
ATOM     21  H   LIG d   1      -0.960  76.703 112.951  0.00  0.00    -0.090 HD
ENDBRANCH   5  18
BRANCH   3  22
ATOM     22  C   LIG d   1      -1.500  82.307 112.761  0.00  0.00     0.382 C 
ATOM     23  O   LIG d   1      -1.657  83.336 113.461  0.00  0.00    -0.241 OA
ATOM     24  O   LIG d   1      -1.124  82.421 111.579  0.00  0.00    -0.241 OA
ENDBRANCH   3  22
TORSDOF 7
ENDMDL
MODEL 3
REMARK VINA RESULT:      -4.5      2.644      5.395
REMARK  7 active torsions:
REMARK  status: ('A' for Active; 'I' for Inactive)
REMARK    1  A    between atoms: C_2  and  C_3 
REMARK    2  A    between atoms: C_3  and  O_6 
REMARK    3  A    between atoms: C_3  and  C_4 
REMARK    4  A    between atoms: C_7  and  O_6 
REMARK    5  A    between atoms: C_9  and  C_10 
REMARK    6  A    between atoms: N_15  and  C_14 
REMARK    7  A    between atoms: N_20  and  C_19 
REMARK       I    between atoms: C_22  and  N_20 
ROOT
ATOM      1  C   LIG d   1      -2.624  79.048 115.620  0.00  0.00     0.161 C 
ATOM      2  C   LIG d   1      -2.755  80.304 115.004  0.00  0.00     0.016 C 
ATOM      3  C   LIG d   1      -2.326  80.571 113.683  0.00  0.00     0.038 C 
ATOM      4  C   LIG d   1      -1.873  79.554 112.831  0.00  0.00     0.028 C 
ATOM      5  C   LIG d   1      -1.253  78.374 113.572  0.00  0.00    -0.047 C 
ATOM      6  C   LIG d   1      -2.234  77.898 114.667  0.00  0.00     0.091 C 
ENDROOT
BRANCH   1   7
ATOM      7  O   LIG d   1      -3.837  78.722 116.327  0.00  0.00    -0.368 OA
BRANCH   7   8
ATOM      8  C   LIG d   1      -4.415  79.785 117.124  0.00  0.00     0.119 C 
BRANCH   8   9
ATOM      9  C   LIG d   1      -3.645  79.834 118.458  0.00  0.00     0.028 C 
ATOM     10  C   LIG d   1      -3.109  81.240 118.775  0.00  0.00     0.006 C 
ENDBRANCH   8   9
BRANCH   8  11
ATOM     11  C   LIG d   1      -5.865  79.471 117.504  0.00  0.00     0.028 C 
ATOM     12  C   LIG d   1      -6.307  78.067 117.060  0.00  0.00     0.006 C 
ENDBRANCH   8  11
ENDBRANCH   7   8
ENDBRANCH   1   7
BRANCH   6  13
ATOM     13  N   LIG d   1      -1.670  76.800 115.495  0.00  0.00    -0.311 N 
ATOM     14  C   LIG d   1      -1.939  75.513 115.287  0.00  0.00     0.210 C 
ATOM     15  C   LIG d   1      -1.269  74.545 116.268  0.00  0.00     0.109 C 
ATOM     16  O   LIG d   1      -2.642  75.078 114.363  0.00  0.00    -0.276 OA
ATOM     17  H   LIG d   1      -1.063  77.062 116.248  0.00  0.00     0.149 HD
ENDBRANCH   6  13
BRANCH   5  18
ATOM     18  N   LIG d   1      -0.949  77.331 112.574  0.00  0.00     0.381 N 
ATOM     19  H   LIG d   1      -1.268  77.622 111.672  0.00  0.00    -0.090 HD
ATOM     20  H   LIG d   1      -1.439  76.490 112.824  0.00  0.00    -0.090 HD
ATOM     21  H   LIG d   1       0.031  77.158 112.548  0.00  0.00    -0.090 HD
ENDBRANCH   5  18
BRANCH   3  22
ATOM     22  C   LIG d   1      -2.312  81.877 113.217  0.00  0.00     0.382 C 
ATOM     23  O   LIG d   1      -1.824  82.135 112.090  0.00  0.00    -0.241 OA
ATOM     24  O   LIG d   1      -2.741  82.806 113.927  0.00  0.00    -0.241 OA
ENDBRANCH   3  22
TORSDOF 7
ENDMDL
MODEL 4
REMARK VINA RESULT:      -4.3      1.971      5.013
REMARK  7 active torsions:
REMARK  status: ('A' for Active; 'I' for Inactive)
REMARK    1  A    between atoms: C_2  and  C_3 
REMARK    2  A    between atoms: C_3  and  O_6 
REMARK    3  A    between atoms: C_3  and  C_4 
REMARK    4  A    between atoms: C_7  and  O_6 
REMARK    5  A    between atoms: C_9  and  C_10 
REMARK    6  A    between atoms: N_15  and  C_14 
REMARK    7  A    between atoms: N_20  and  C_19 
REMARK       I    between atoms: C_22  and  N_20 
ROOT
ATOM      1  C   LIG d   1      -1.207  80.738 114.783  0.00  0.00     0.161 C 
ATOM      2  C   LIG d   1      -1.220  82.098 114.431  0.00  0.00     0.016 C 
ATOM      3  C   LIG d   1      -0.957  82.566 113.123  0.00  0.00     0.038 C 
ATOM      4  C   LIG d   1      -0.810  81.690 112.037  0.00  0.00     0.028 C 
ATOM      5  C   LIG d   1      -0.289  80.313 112.436  0.00  0.00    -0.047 C 
ATOM      6  C   LIG d   1      -1.159  79.762 113.589  0.00  0.00     0.091 C 
ENDROOT
BRANCH   1   7
ATOM      7  O   LIG d   1      -2.337  80.441 115.627  0.00  0.00    -0.368 OA
BRANCH   7   8
ATOM      8  C   LIG d   1      -2.041  80.201 117.025  0.00  0.00     0.119 C 
BRANCH   8   9
ATOM      9  C   LIG d   1      -2.363  78.723 117.320  0.00  0.00     0.028 C 
ATOM     10  C   LIG d   1      -3.519  78.191 116.457  0.00  0.00     0.006 C 
ENDBRANCH   8   9
BRANCH   8  11
ATOM     11  C   LIG d   1      -2.971  81.007 117.937  0.00  0.00     0.028 C 
ATOM     12  C   LIG d   1      -3.760  82.086 117.179  0.00  0.00     0.006 C 
ENDBRANCH   8  11
ENDBRANCH   7   8
ENDBRANCH   1   7
BRANCH   6  13
ATOM     13  N   LIG d   1      -0.665  78.455 114.096  0.00  0.00    -0.311 N 
ATOM     14  C   LIG d   1      -1.187  77.284 113.735  0.00  0.00     0.210 C 
ATOM     15  C   LIG d   1      -0.542  76.059 114.392  0.00  0.00     0.109 C 
ATOM     16  O   LIG d   1      -2.101  77.141 112.910  0.00  0.00    -0.276 OA
ATOM     17  H   LIG d   1       0.096  78.476 114.747  0.00  0.00     0.149 HD
ENDBRANCH   6  13
BRANCH   5  18
ATOM     18  N   LIG d   1      -0.315  79.461 111.233  0.00  0.00     0.381 N 
ATOM     19  H   LIG d   1       0.111  78.578 111.434  0.00  0.00    -0.090 HD
ATOM     20  H   LIG d   1       0.215  79.908 110.506  0.00  0.00    -0.090 HD
ATOM     21  H   LIG d   1      -1.255  79.324 110.932  0.00  0.00    -0.090 HD
ENDBRANCH   5  18
BRANCH   3  22
ATOM     22  C   LIG d   1      -0.799  83.925 112.899  0.00  0.00     0.382 C 
ATOM     23  O   LIG d   1      -0.978  84.396 111.749  0.00  0.00    -0.241 OA
ATOM     24  O   LIG d   1      -0.436  84.680 113.821  0.00  0.00    -0.241 OA
ENDBRANCH   3  22
TORSDOF 7
ENDMDL
MODEL 5
REMARK VINA RESULT:      -4.0      2.621      5.784
REMARK  7 active torsions:
REMARK  status: ('A' for Active; 'I' for Inactive)
REMARK    1  A    between atoms: C_2  and  C_3 
REMARK    2  A    between atoms: C_3  and  O_6 
REMARK    3  A    between atoms: C_3  and  C_4 
REMARK    4  A    between atoms: C_7  and  O_6 
REMARK    5  A    between atoms: C_9  and  C_10 
REMARK    6  A    between atoms: N_15  and  C_14 
REMARK    7  A    between atoms: N_20  and  C_19 
REMARK       I    between atoms: C_22  and  N_20 
ROOT
ATOM      1  C   LIG d   1      -2.656  79.360 115.982  0.00  0.00     0.161 C 
ATOM      2  C   LIG d   1      -3.032  80.711 116.057  0.00  0.00     0.016 C 
ATOM      3  C   LIG d   1      -2.460  81.724 115.253  0.00  0.00     0.038 C 
ATOM      4  C   LIG d   1      -1.574  81.428 114.207  0.00  0.00     0.028 C 
ATOM      5  C   LIG d   1      -0.785  80.141 114.426  0.00  0.00    -0.047 C 
ATOM      6  C   LIG d   1      -1.771  79.001 114.769  0.00  0.00     0.091 C 
ENDROOT
BRANCH   1   7
ATOM      7  O   LIG d   1      -3.830  78.524 116.010  0.00  0.00    -0.368 OA
BRANCH   7   8
ATOM      8  C   LIG d   1      -3.896  77.555 117.085  0.00  0.00     0.119 C 
BRANCH   8   9
ATOM      9  C   LIG d   1      -4.082  76.165 116.445  0.00  0.00     0.028 C 
ATOM     10  C   LIG d   1      -4.410  75.080 117.484  0.00  0.00     0.006 C 
ENDBRANCH   8   9
BRANCH   8  11
ATOM     11  C   LIG d   1      -5.139  77.771 117.953  0.00  0.00     0.028 C 
ATOM     12  C   LIG d   1      -6.315  78.376 117.171  0.00  0.00     0.006 C 
ENDBRANCH   8  11
ENDBRANCH   7   8
ENDBRANCH   1   7
BRANCH   6  13
ATOM     13  N   LIG d   1      -1.076  77.725 115.082  0.00  0.00    -0.311 N 
ATOM     14  C   LIG d   1      -0.907  76.746 114.195  0.00  0.00     0.210 C 
ATOM     15  C   LIG d   1      -0.180  75.508 114.729  0.00  0.00     0.109 C 
ATOM     16  O   LIG d   1      -1.260  76.799 113.007  0.00  0.00    -0.276 OA
ATOM     17  H   LIG d   1      -0.729  77.611 116.014  0.00  0.00     0.149 HD
ENDBRANCH   6  13
BRANCH   5  18
ATOM     18  N   LIG d   1      -0.005  79.882 113.201  0.00  0.00     0.381 N 
ATOM     19  H   LIG d   1       0.970  80.006 113.388  0.00  0.00    -0.090 HD
ATOM     20  H   LIG d   1      -0.278  80.544 112.496  0.00  0.00    -0.090 HD
ATOM     21  H   LIG d   1      -0.174  78.954 112.880  0.00  0.00    -0.090 HD
ENDBRANCH   5  18
BRANCH   3  22
ATOM     22  C   LIG d   1      -2.743  83.055 115.520  0.00  0.00     0.382 C 
ATOM     23  O   LIG d   1      -3.787  83.578 115.061  0.00  0.00    -0.241 OA
ATOM     24  O   LIG d   1      -1.946  83.751 116.176  0.00  0.00    -0.241 OA
ENDBRANCH   3  22
TORSDOF 7
ENDMDL
MODEL 6
REMARK VINA RESULT:      -3.9      3.018      4.989
REMARK  7 active torsions:
REMARK  status: ('A' for Active; 'I' for Inactive)
REMARK    1  A    between atoms: C_2  and  C_3 
REMARK    2  A    between atoms: C_3  and  O_6 
REMARK    3  A    between atoms: C_3  and  C_4 
REMARK    4  A    between atoms: C_7  and  O_6 
REMARK    5  A    between atoms: C_9  and  C_10 
REMARK    6  A    between atoms: N_15  and  C_14 
REMARK    7  A    between atoms: N_20  and  C_19 
REMARK       I    between atoms: C_22  and  N_20 
ROOT
ATOM      1  C   LIG d   1      -2.843  79.514 115.780  0.00  0.00     0.161 C 
ATOM      2  C   LIG d   1      -2.555  78.372 115.015  0.00  0.00     0.016 C 
ATOM      3  C   LIG d   1      -3.109  77.098 115.278  0.00  0.00     0.038 C 
ATOM      4  C   LIG d   1      -4.114  76.911 116.239  0.00  0.00     0.028 C 
ATOM      5  C   LIG d   1      -4.067  77.932 117.371  0.00  0.00    -0.047 C 
ATOM      6  C   LIG d   1      -4.022  79.353 116.763  0.00  0.00     0.091 C 
ENDROOT
BRANCH   1   7
ATOM      7  O   LIG d   1      -3.066  80.641 114.911  0.00  0.00    -0.368 OA
BRANCH   7   8
ATOM      8  C   LIG d   1      -1.881  81.266 114.360  0.00  0.00     0.119 C 
BRANCH   8   9
ATOM      9  C   LIG d   1      -1.651  82.582 115.129  0.00  0.00     0.028 C 
ATOM     10  C   LIG d   1      -2.948  83.386 115.316  0.00  0.00     0.006 C 
ENDBRANCH   8   9
BRANCH   8  11
ATOM     11  C   LIG d   1      -2.096  81.681 112.902  0.00  0.00     0.028 C 
ATOM     12  C   LIG d   1      -0.900  82.452 112.319  0.00  0.00     0.006 C 
ENDBRANCH   8  11
ENDBRANCH   7   8
ENDBRANCH   1   7
BRANCH   6  13
ATOM     13  N   LIG d   1      -3.890  80.409 117.801  0.00  0.00    -0.311 N 
ATOM     14  C   LIG d   1      -4.696  81.466 117.877  0.00  0.00     0.210 C 
ATOM     15  C   LIG d   1      -4.373  82.445 119.011  0.00  0.00     0.109 C 
ATOM     16  O   LIG d   1      -5.669  81.669 117.135  0.00  0.00    -0.276 OA
ATOM     17  H   LIG d   1      -3.146  80.307 118.463  0.00  0.00     0.149 HD
ENDBRANCH   6  13
BRANCH   5  18
ATOM     18  N   LIG d   1      -5.249  77.706 118.224  0.00  0.00     0.381 N 
ATOM     19  H   LIG d   1      -4.965  77.618 119.179  0.00  0.00    -0.090 HD
ATOM     20  H   LIG d   1      -5.691  76.847 117.946  0.00  0.00    -0.090 HD
ATOM     21  H   LIG d   1      -5.889  78.463 118.128  0.00  0.00    -0.090 HD
ENDBRANCH   5  18
BRANCH   3  22
ATOM     22  C   LIG d   1      -2.629  75.987 114.602  0.00  0.00     0.382 C 
ATOM     23  O   LIG d   1      -3.412  75.058 114.288  0.00  0.00    -0.241 OA
ATOM     24  O   LIG d   1      -1.416  75.881 114.341  0.00  0.00    -0.241 OA
ENDBRANCH   3  22
TORSDOF 7
ENDMDL
MODEL 7
REMARK VINA RESULT:      -3.9      5.255      7.943
REMARK  7 active torsions:
REMARK  status: ('A' for Active; 'I' for Inactive)
REMARK    1  A    between atoms: C_2  and  C_3 
REMARK    2  A    between atoms: C_3  and  O_6 
REMARK    3  A    between atoms: C_3  and  C_4 
REMARK    4  A    between atoms: C_7  and  O_6 
REMARK    5  A    between atoms: C_9  and  C_10 
REMARK    6  A    between atoms: N_15  and  C_14 
REMARK    7  A    between atoms: N_20  and  C_19 
REMARK       I    between atoms: C_22  and  N_20 
ROOT
ATOM      1  C   LIG d   1      -5.812  77.324 117.088  0.00  0.00     0.161 C 
ATOM      2  C   LIG d   1      -6.818  78.285 117.280  0.00  0.00     0.016 C 
ATOM      3  C   LIG d   1      -6.554  79.634 117.609  0.00  0.00     0.038 C 
ATOM      4  C   LIG d   1      -5.250  80.153 117.620  0.00  0.00     0.028 C 
ATOM      5  C   LIG d   1      -4.185  79.106 117.928  0.00  0.00    -0.047 C 
ATOM      6  C   LIG d   1      -4.382  77.897 116.986  0.00  0.00     0.091 C 
ENDROOT
BRANCH   1   7
ATOM      7  O   LIG d   1      -6.115  76.524 115.927  0.00  0.00    -0.368 OA
BRANCH   7   8
ATOM      8  C   LIG d   1      -6.477  75.145 116.181  0.00  0.00     0.119 C 
BRANCH   8   9
ATOM      9  C   LIG d   1      -6.442  74.930 117.707  0.00  0.00     0.028 C 
ATOM     10  C   LIG d   1      -7.702  74.220 118.229  0.00  0.00     0.006 C 
ENDBRANCH   8   9
BRANCH   8  11
ATOM     11  C   LIG d   1      -5.431  74.181 115.612  0.00  0.00     0.028 C 
ATOM     12  C   LIG d   1      -4.915  74.610 114.230  0.00  0.00     0.006 C 
ENDBRANCH   8  11
ENDBRANCH   7   8
ENDBRANCH   1   7
BRANCH   6  13
ATOM     13  N   LIG d   1      -3.433  76.791 117.277  0.00  0.00    -0.311 N 
ATOM     14  C   LIG d   1      -2.529  76.351 116.404  0.00  0.00     0.210 C 
ATOM     15  C   LIG d   1      -1.663  75.189 116.899  0.00  0.00     0.109 C 
ATOM     16  O   LIG d   1      -2.341  76.835 115.277  0.00  0.00    -0.276 OA
ATOM     17  H   LIG d   1      -3.496  76.362 118.180  0.00  0.00     0.149 HD
ENDBRANCH   6  13
BRANCH   5  18
ATOM     18  N   LIG d   1      -2.868  79.752 117.771  0.00  0.00     0.381 N 
ATOM     19  H   LIG d   1      -2.175  79.062 117.560  0.00  0.00    -0.090 HD
ATOM     20  H   LIG d   1      -2.618  80.195 118.638  0.00  0.00    -0.090 HD
ATOM     21  H   LIG d   1      -2.905  80.430 117.042  0.00  0.00    -0.090 HD
ENDBRANCH   5  18
BRANCH   3  22
ATOM     22  C   LIG d   1      -7.599  80.471 117.970  0.00  0.00     0.382 C 
ATOM     23  O   LIG d   1      -7.999  81.354 117.174  0.00  0.00    -0.241 OA
ATOM     24  O   LIG d   1      -8.116  80.383 119.100  0.00  0.00    -0.241 OA
ENDBRANCH   3  22
TORSDOF 7
ENDMDL
MODEL 8
REMARK VINA RESULT:      -3.9      2.321      4.991
REMARK  7 active torsions:
REMARK  status: ('A' for Active; 'I' for Inactive)
REMARK    1  A    between atoms: C_2  and  C_3 
REMARK    2  A    between atoms: C_3  and  O_6 
REMARK    3  A    between atoms: C_3  and  C_4 
REMARK    4  A    between atoms: C_7  and  O_6 
REMARK    5  A    between atoms: C_9  and  C_10 
REMARK    6  A    between atoms: N_15  and  C_14 
REMARK    7  A    between atoms: N_20  and  C_19 
REMARK       I    between atoms: C_22  and  N_20 
ROOT
ATOM      1  C   LIG d   1      -0.348  79.761 114.970  0.00  0.00     0.161 C 
ATOM      2  C   LIG d   1      -0.576  81.040 114.434  0.00  0.00     0.016 C 
ATOM      3  C   LIG d   1      -1.352  81.271 113.275  0.00  0.00     0.038 C 
ATOM      4  C   LIG d   1      -2.083  80.247 112.655  0.00  0.00     0.028 C 
ATOM      5  C   LIG d   1      -1.479  78.862 112.862  0.00  0.00    -0.047 C 
ATOM      6  C   LIG d   1      -1.228  78.644 114.371  0.00  0.00     0.091 C 
ENDROOT
BRANCH   1   7
ATOM      7  O   LIG d   1      -0.492  79.799 116.403  0.00  0.00    -0.368 OA
BRANCH   7   8
ATOM      8  C   LIG d   1      -0.538  81.117 117.005  0.00  0.00     0.119 C 
BRANCH   8   9
ATOM      9  C   LIG d   1       0.627  81.207 118.010  0.00  0.00     0.028 C 
ATOM     10  C   LIG d   1       0.941  79.853 118.667  0.00  0.00     0.006 C 
ENDBRANCH   8   9
BRANCH   8  11
ATOM     11  C   LIG d   1      -1.809  81.305 117.838  0.00  0.00     0.028 C 
ATOM     12  C   LIG d   1      -2.190  82.783 118.017  0.00  0.00     0.006 C 
ENDBRANCH   8  11
ENDBRANCH   7   8
ENDBRANCH   1   7
BRANCH   6  13
ATOM     13  N   LIG d   1      -0.561  77.346 114.654  0.00  0.00    -0.311 N 
ATOM     14  C   LIG d   1      -1.225  76.223 114.919  0.00  0.00     0.210 C 
ATOM     15  C   LIG d   1      -0.343  75.002 115.201  0.00  0.00     0.109 C 
ATOM     16  O   LIG d   1      -2.460  76.114 114.916  0.00  0.00    -0.276 OA
ATOM     17  H   LIG d   1       0.441  77.337 114.646  0.00  0.00     0.149 HD
ENDBRANCH   6  13
BRANCH   5  18
ATOM     18  N   LIG d   1      -2.412  77.878 112.282  0.00  0.00     0.381 N 
ATOM     19  H   LIG d   1      -1.953  77.361 111.559  0.00  0.00    -0.090 HD
ATOM     20  H   LIG d   1      -3.190  78.367 111.876  0.00  0.00    -0.090 HD
ATOM     21  H   LIG d   1      -2.735  77.256 112.991  0.00  0.00    -0.090 HD
ENDBRANCH   5  18
BRANCH   3  22
ATOM     22  C   LIG d   1      -1.370  82.533 112.701  0.00  0.00     0.382 C 
ATOM     23  O   LIG d   1      -1.096  82.673 111.485  0.00  0.00    -0.241 OA
ATOM     24  O   LIG d   1      -1.614  83.539 113.394  0.00  0.00    -0.241 OA
ENDBRANCH   3  22
TORSDOF 7
ENDMDL
MODEL 9
REMARK VINA RESULT:      -3.9      2.202      5.161
REMARK  7 active torsions:
REMARK  status: ('A' for Active; 'I' for Inactive)
REMARK    1  A    between atoms: C_2  and  C_3 
REMARK    2  A    between atoms: C_3  and  O_6 
REMARK    3  A    between atoms: C_3  and  C_4 
REMARK    4  A    between atoms: C_7  and  O_6 
REMARK    5  A    between atoms: C_9  and  C_10 
REMARK    6  A    between atoms: N_15  and  C_14 
REMARK    7  A    between atoms: N_20  and  C_19 
REMARK       I    between atoms: C_22  and  N_20 
ROOT
ATOM      1  C   LIG d   1      -2.449  80.273 115.498  0.00  0.00     0.161 C 
ATOM      2  C   LIG d   1      -3.269  80.606 116.589  0.00  0.00     0.016 C 
ATOM      3  C   LIG d   1      -3.568  81.937 116.961  0.00  0.00     0.038 C 
ATOM      4  C   LIG d   1      -3.187  83.031 116.169  0.00  0.00     0.028 C 
ATOM      5  C   LIG d   1      -1.934  82.771 115.340  0.00  0.00    -0.047 C 
ATOM      6  C   LIG d   1      -2.115  81.450 114.558  0.00  0.00     0.091 C 
ENDROOT
BRANCH   1   7
ATOM      7  O   LIG d   1      -3.041  79.190 114.755  0.00  0.00    -0.368 OA
BRANCH   7   8
ATOM      8  C   LIG d   1      -2.417  77.892 114.913  0.00  0.00     0.119 C 
BRANCH   8   9
ATOM      9  C   LIG d   1      -1.947  77.431 113.519  0.00  0.00     0.028 C 
ATOM     10  C   LIG d   1      -2.645  78.196 112.382  0.00  0.00     0.006 C 
ENDBRANCH   8   9
BRANCH   8  11
ATOM     11  C   LIG d   1      -3.430  76.838 115.369  0.00  0.00     0.028 C 
ATOM     12  C   LIG d   1      -3.014  75.408 114.989  0.00  0.00     0.006 C 
ENDBRANCH   8  11
ENDBRANCH   7   8
ENDBRANCH   1   7
BRANCH   6  13
ATOM     13  N   LIG d   1      -0.901  81.077 113.785  0.00  0.00    -0.311 N 
ATOM     14  C   LIG d   1      -0.710  81.416 112.511  0.00  0.00     0.210 C 
ATOM     15  C   LIG d   1       0.601  80.914 111.898  0.00  0.00     0.109 C 
ATOM     16  O   LIG d   1      -1.487  82.112 111.841  0.00  0.00    -0.276 OA
ATOM     17  H   LIG d   1      -0.204  80.539 114.262  0.00  0.00     0.149 HD
ENDBRANCH   6  13
BRANCH   5  18
ATOM     18  N   LIG d   1      -1.730  83.939 114.462  0.00  0.00     0.381 N 
ATOM     19  H   LIG d   1      -2.594  84.188 114.024  0.00  0.00    -0.090 HD
ATOM     20  H   LIG d   1      -1.071  83.695 113.744  0.00  0.00    -0.090 HD
ATOM     21  H   LIG d   1      -1.384  84.708 114.993  0.00  0.00    -0.090 HD
ENDBRANCH   5  18
BRANCH   3  22
ATOM     22  C   LIG d   1      -4.222  82.186 118.157  0.00  0.00     0.382 C 
ATOM     23  O   LIG d   1      -5.472  82.291 118.178  0.00  0.00    -0.241 OA
ATOM     24  O   LIG d   1      -3.575  82.351 119.209  0.00  0.00    -0.241 OA
ENDBRANCH   3  22
TORSDOF 7
ENDMDL
