MODEL 1
REMARK VINA RESULT:      -5.2      0.000      0.000
REMARK  7 active torsions:
REMARK  status: ('A' for Active; 'I' for Inactive)
REMARK    1  A    between atoms: C_2  and  C_3 
REMARK    2  A    between atoms: C_3  and  O_6 
REMARK    3  A    between atoms: C_3  and  C_4 
REMARK    4  A    between atoms: C_7  and  O_6 
REMARK    5  A    between atoms: C_9  and  C_10 
REMARK    6  A    between atoms: N_15  and  C_14 
REMARK    7  A    between atoms: N_20  and  C_19 
REMARK       I    between atoms: C_22  and  N_20 
ROOT
ATOM      1  C   LIG d   1      -3.048  76.950 115.273  0.00  0.00     0.161 C 
ATOM      2  C   LIG d   1      -3.203  77.780 114.149  0.00  0.00     0.016 C 
ATOM      3  C   LIG d   1      -2.199  78.662 113.689  0.00  0.00     0.038 C 
ATOM      4  C   LIG d   1      -0.907  78.664 114.235  0.00  0.00     0.028 C 
ATOM      5  C   LIG d   1      -0.863  78.207 115.690  0.00  0.00    -0.047 C 
ATOM      6  C   LIG d   1      -1.606  76.858 115.814  0.00  0.00     0.091 C 
ENDROOT
BRANCH   1   7
ATOM      7  O   LIG d   1      -3.560  75.634 114.983  0.00  0.00    -0.368 OA
BRANCH   7   8
ATOM      8  C   LIG d   1      -4.653  75.178 115.817  0.00  0.00     0.119 C 
BRANCH   8   9
ATOM      9  C   LIG d   1      -5.804  74.757 114.882  0.00  0.00     0.028 C 
ATOM     10  C   LIG d   1      -6.746  75.925 114.548  0.00  0.00     0.006 C 
ENDBRANCH   8   9
BRANCH   8  11
ATOM     11  C   LIG d   1      -5.219  76.318 116.668  0.00  0.00     0.028 C 
ATOM     12  C   LIG d   1      -5.235  75.991 118.169  0.00  0.00     0.006 C 
ENDBRANCH   8  11
ENDBRANCH   7   8
ENDBRANCH   1   7
BRANCH   6  13
ATOM     13  N   LIG d   1      -1.684  76.381 117.220  0.00  0.00    -0.311 N 
ATOM     14  C   LIG d   1      -1.449  75.120 117.581  0.00  0.00     0.210 C 
ATOM     15  C   LIG d   1      -1.603  74.837 119.078  0.00  0.00     0.109 C 
ATOM     16  O   LIG d   1      -1.097  74.217 116.807  0.00  0.00    -0.276 OA
ATOM     17  H   LIG d   1      -1.933  77.055 117.917  0.00  0.00     0.149 HD
ENDBRANCH   6  13
BRANCH   5  18
ATOM     18  N   LIG d   1       0.555  78.125 116.089  0.00  0.00     0.381 N 
ATOM     19  H   LIG d   1       1.140  78.263 115.289  0.00  0.00    -0.090 HD
ATOM     20  H   LIG d   1       0.736  77.208 116.458  0.00  0.00    -0.090 HD
ATOM     21  H   LIG d   1       0.755  78.815 116.779  0.00  0.00    -0.090 HD
ENDBRANCH   5  18
BRANCH   3  22
ATOM     22  C   LIG d   1      -2.495  79.583 112.696  0.00  0.00     0.382 C 
ATOM     23  O   LIG d   1      -3.206  80.582 112.961  0.00  0.00    -0.241 OA
ATOM     24  O   LIG d   1      -2.099  79.404 111.529  0.00  0.00    -0.241 OA
ENDBRANCH   3  22
TORSDOF 7
ENDMDL
MODEL 2
REMARK VINA RESULT:      -5.1      1.740      4.804
REMARK  7 active torsions:
REMARK  status: ('A' for Active; 'I' for Inactive)
REMARK    1  A    between atoms: C_2  and  C_3 
REMARK    2  A    between atoms: C_3  and  O_6 
REMARK    3  A    between atoms: C_3  and  C_4 
REMARK    4  A    between atoms: C_7  and  O_6 
REMARK    5  A    between atoms: C_9  and  C_10 
REMARK    6  A    between atoms: N_15  and  C_14 
REMARK    7  A    between atoms: N_20  and  C_19 
REMARK       I    between atoms: C_22  and  N_20 
ROOT
ATOM      1  C   LIG d   1      -3.587  76.085 115.097  0.00  0.00     0.161 C 
ATOM      2  C   LIG d   1      -3.426  75.400 116.313  0.00  0.00     0.016 C 
ATOM      3  C   LIG d   1      -2.242  75.448 117.083  0.00  0.00     0.038 C 
ATOM      4  C   LIG d   1      -1.184  76.313 116.763  0.00  0.00     0.028 C 
ATOM      5  C   LIG d   1      -1.099  76.641 115.276  0.00  0.00    -0.047 C 
ATOM      6  C   LIG d   1      -2.486  77.120 114.788  0.00  0.00     0.091 C 
ENDROOT
BRANCH   1   7
ATOM      7  O   LIG d   1      -4.886  76.707 115.055  0.00  0.00    -0.368 OA
BRANCH   7   8
ATOM      8  C   LIG d   1      -5.797  76.354 116.124  0.00  0.00     0.119 C 
BRANCH   8   9
ATOM      9  C   LIG d   1      -7.017  75.664 115.485  0.00  0.00     0.028 C 
ATOM     10  C   LIG d   1      -8.297  75.844 116.317  0.00  0.00     0.006 C 
ENDBRANCH   8   9
BRANCH   8  11
ATOM     11  C   LIG d   1      -6.354  77.602 116.817  0.00  0.00     0.028 C 
ATOM     12  C   LIG d   1      -5.262  78.622 117.174  0.00  0.00     0.006 C 
ENDBRANCH   8  11
ENDBRANCH   7   8
ENDBRANCH   1   7
BRANCH   6  13
ATOM     13  N   LIG d   1      -2.512  77.382 113.325  0.00  0.00    -0.311 N 
ATOM     14  C   LIG d   1      -2.616  78.602 112.800  0.00  0.00     0.210 C 
ATOM     15  C   LIG d   1      -2.645  78.647 111.269  0.00  0.00     0.109 C 
ATOM     16  O   LIG d   1      -2.654  79.653 113.457  0.00  0.00    -0.276 OA
ATOM     17  H   LIG d   1      -2.454  76.588 112.718  0.00  0.00     0.149 HD
ENDBRANCH   6  13
BRANCH   5  18
ATOM     18  N   LIG d   1      -0.043  77.656 115.103  0.00  0.00     0.381 N 
ATOM     19  H   LIG d   1       0.703  77.481 115.746  0.00  0.00    -0.090 HD
ATOM     20  H   LIG d   1      -0.427  78.562 115.304  0.00  0.00    -0.090 HD
ATOM     21  H   LIG d   1       0.302  77.633 114.169  0.00  0.00    -0.090 HD
ENDBRANCH   5  18
BRANCH   3  22
ATOM     22  C   LIG d   1      -2.091  74.596 118.166  0.00  0.00     0.382 C 
ATOM     23  O   LIG d   1      -0.950  74.180 118.483  0.00  0.00    -0.241 OA
ATOM     24  O   LIG d   1      -3.086  74.203 118.804  0.00  0.00    -0.241 OA
ENDBRANCH   3  22
TORSDOF 7
ENDMDL
MODEL 3
REMARK VINA RESULT:      -4.8      1.521      2.084
REMARK  7 active torsions:
REMARK  status: ('A' for Active; 'I' for Inactive)
REMARK    1  A    between atoms: C_2  and  C_3 
REMARK    2  A    between atoms: C_3  and  O_6 
REMARK    3  A    between atoms: C_3  and  C_4 
REMARK    4  A    between atoms: C_7  and  O_6 
REMARK    5  A    between atoms: C_9  and  C_10 
REMARK    6  A    between atoms: N_15  and  C_14 
REMARK    7  A    between atoms: N_20  and  C_19 
REMARK       I    between atoms: C_22  and  N_20 
ROOT
ATOM      1  C   LIG d   1      -2.694  77.827 116.459  0.00  0.00     0.161 C 
ATOM      2  C   LIG d   1      -3.012  78.456 115.244  0.00  0.00     0.016 C 
ATOM      3  C   LIG d   1      -2.294  78.240 114.045  0.00  0.00     0.038 C 
ATOM      4  C   LIG d   1      -1.297  77.258 113.944  0.00  0.00     0.028 C 
ATOM      5  C   LIG d   1      -0.605  76.959 115.270  0.00  0.00    -0.047 C 
ATOM      6  C   LIG d   1      -1.680  76.669 116.342  0.00  0.00     0.091 C 
ENDROOT
BRANCH   1   7
ATOM      7  O   LIG d   1      -3.900  77.373 117.104  0.00  0.00    -0.368 OA
BRANCH   7   8
ATOM      8  C   LIG d   1      -5.052  77.187 116.245  0.00  0.00     0.119 C 
BRANCH   8   9
ATOM      9  C   LIG d   1      -6.258  77.852 116.936  0.00  0.00     0.028 C 
ATOM     10  C   LIG d   1      -5.853  79.079 117.770  0.00  0.00     0.006 C 
ENDBRANCH   8   9
BRANCH   8  11
ATOM     11  C   LIG d   1      -5.421  75.706 116.121  0.00  0.00     0.028 C 
ATOM     12  C   LIG d   1      -5.293  75.178 114.683  0.00  0.00     0.006 C 
ENDBRANCH   8  11
ENDBRANCH   7   8
ENDBRANCH   1   7
BRANCH   6  13
ATOM     13  N   LIG d   1      -1.092  76.449 117.689  0.00  0.00    -0.311 N 
ATOM     14  C   LIG d   1      -0.795  75.244 118.172  0.00  0.00     0.210 C 
ATOM     15  C   LIG d   1      -0.215  75.239 119.590  0.00  0.00     0.109 C 
ATOM     16  O   LIG d   1      -0.926  74.180 117.547  0.00  0.00    -0.276 OA
ATOM     17  H   LIG d   1      -0.923  77.260 118.252  0.00  0.00     0.149 HD
ENDBRANCH   6  13
BRANCH   5  18
ATOM     18  N   LIG d   1       0.311  75.824 115.048  0.00  0.00     0.381 N 
ATOM     19  H   LIG d   1       1.140  75.947 115.594  0.00  0.00    -0.090 HD
ATOM     20  H   LIG d   1       0.572  75.801 114.078  0.00  0.00    -0.090 HD
ATOM     21  H   LIG d   1      -0.137  74.970 115.300  0.00  0.00    -0.090 HD
ENDBRANCH   5  18
BRANCH   3  22
ATOM     22  C   LIG d   1      -2.545  79.039 112.940  0.00  0.00     0.382 C 
ATOM     23  O   LIG d   1      -3.398  78.685 112.091  0.00  0.00    -0.241 OA
ATOM     24  O   LIG d   1      -1.898  80.088 112.759  0.00  0.00    -0.241 OA
ENDBRANCH   3  22
TORSDOF 7
ENDMDL
MODEL 4
REMARK VINA RESULT:      -4.8      1.819      4.913
REMARK  7 active torsions:
REMARK  status: ('A' for Active; 'I' for Inactive)
REMARK    1  A    between atoms: C_2  and  C_3 
REMARK    2  A    between atoms: C_3  and  O_6 
REMARK    3  A    between atoms: C_3  and  C_4 
REMARK    4  A    between atoms: C_7  and  O_6 
REMARK    5  A    between atoms: C_9  and  C_10 
REMARK    6  A    between atoms: N_15  and  C_14 
REMARK    7  A    between atoms: N_20  and  C_19 
REMARK       I    between atoms: C_22  and  N_20 
ROOT
ATOM      1  C   LIG d   1      -1.395  75.461 115.481  0.00  0.00     0.161 C 
ATOM      2  C   LIG d   1      -1.066  75.134 116.807  0.00  0.00     0.016 C 
ATOM      3  C   LIG d   1      -0.414  76.025 117.689  0.00  0.00     0.038 C 
ATOM      4  C   LIG d   1      -0.181  77.367 117.350  0.00  0.00     0.028 C 
ATOM      5  C   LIG d   1      -0.040  77.596 115.849  0.00  0.00    -0.047 C 
ATOM      6  C   LIG d   1      -1.248  76.956 115.128  0.00  0.00     0.091 C 
ENDROOT
BRANCH   1   7
ATOM      7  O   LIG d   1      -2.728  75.003 115.181  0.00  0.00    -0.368 OA
BRANCH   7   8
ATOM      8  C   LIG d   1      -3.811  75.831 115.672  0.00  0.00     0.119 C 
BRANCH   8   9
ATOM      9  C   LIG d   1      -4.458  75.091 116.859  0.00  0.00     0.028 C 
ATOM     10  C   LIG d   1      -4.355  75.885 118.172  0.00  0.00     0.006 C 
ENDBRANCH   8   9
BRANCH   8  11
ATOM     11  C   LIG d   1      -4.923  75.972 114.628  0.00  0.00     0.028 C 
ATOM     12  C   LIG d   1      -6.223  75.266 115.043  0.00  0.00     0.006 C 
ENDBRANCH   8  11
ENDBRANCH   7   8
ENDBRANCH   1   7
BRANCH   6  13
ATOM     13  N   LIG d   1      -1.147  77.061 113.649  0.00  0.00    -0.311 N 
ATOM     14  C   LIG d   1      -1.984  77.782 112.906  0.00  0.00     0.210 C 
ATOM     15  C   LIG d   1      -1.714  77.738 111.399  0.00  0.00     0.109 C 
ATOM     16  O   LIG d   1      -2.906  78.480 113.355  0.00  0.00    -0.276 OA
ATOM     17  H   LIG d   1      -0.408  76.551 113.205  0.00  0.00     0.149 HD
ENDBRANCH   6  13
BRANCH   5  18
ATOM     18  N   LIG d   1       0.061  79.051 115.628  0.00  0.00     0.381 N 
ATOM     19  H   LIG d   1       0.496  79.230 114.745  0.00  0.00    -0.090 HD
ATOM     20  H   LIG d   1       0.634  79.450 116.349  0.00  0.00    -0.090 HD
ATOM     21  H   LIG d   1      -0.846  79.462 115.648  0.00  0.00    -0.090 HD
ENDBRANCH   5  18
BRANCH   3  22
ATOM     22  C   LIG d   1       0.048  75.566 118.913  0.00  0.00     0.382 C 
ATOM     23  O   LIG d   1       1.234  75.786 119.259  0.00  0.00    -0.241 OA
ATOM     24  O   LIG d   1      -0.693  74.896 119.657  0.00  0.00    -0.241 OA
ENDBRANCH   3  22
TORSDOF 7
ENDMDL
MODEL 5
REMARK VINA RESULT:      -4.5      2.193      5.220
REMARK  7 active torsions:
REMARK  status: ('A' for Active; 'I' for Inactive)
REMARK    1  A    between atoms: C_2  and  C_3 
REMARK    2  A    between atoms: C_3  and  O_6 
REMARK    3  A    between atoms: C_3  and  C_4 
REMARK    4  A    between atoms: C_7  and  O_6 
REMARK    5  A    between atoms: C_9  and  C_10 
REMARK    6  A    between atoms: N_15  and  C_14 
REMARK    7  A    between atoms: N_20  and  C_19 
REMARK       I    between atoms: C_22  and  N_20 
ROOT
ATOM      1  C   LIG d   1      -2.748  78.153 115.306  0.00  0.00     0.161 C 
ATOM      2  C   LIG d   1      -1.426  78.431 115.690  0.00  0.00     0.016 C 
ATOM      3  C   LIG d   1      -0.609  77.513 116.390  0.00  0.00     0.038 C 
ATOM      4  C   LIG d   1      -1.013  76.190 116.623  0.00  0.00     0.028 C 
ATOM      5  C   LIG d   1      -2.526  76.022 116.699  0.00  0.00    -0.047 C 
ATOM      6  C   LIG d   1      -3.167  76.675 115.453  0.00  0.00     0.091 C 
ENDROOT
BRANCH   1   7
ATOM      7  O   LIG d   1      -2.969  78.604 113.955  0.00  0.00    -0.368 OA
BRANCH   7   8
ATOM      8  C   LIG d   1      -1.787  78.757 113.132  0.00  0.00     0.119 C 
BRANCH   8   9
ATOM      9  C   LIG d   1      -1.927  80.084 112.361  0.00  0.00     0.028 C 
ATOM     10  C   LIG d   1      -0.565  80.699 111.998  0.00  0.00     0.006 C 
ENDBRANCH   8   9
BRANCH   8  11
ATOM     11  C   LIG d   1      -1.712  77.669 112.057  0.00  0.00     0.028 C 
ATOM     12  C   LIG d   1      -2.600  77.973 110.839  0.00  0.00     0.006 C 
ENDBRANCH   8  11
ENDBRANCH   7   8
ENDBRANCH   1   7
BRANCH   6  13
ATOM     13  N   LIG d   1      -4.652  76.630 115.489  0.00  0.00    -0.311 N 
ATOM     14  C   LIG d   1      -5.373  75.699 114.866  0.00  0.00     0.210 C 
ATOM     15  C   LIG d   1      -6.890  75.848 115.016  0.00  0.00     0.109 C 
ATOM     16  O   LIG d   1      -4.899  74.745 114.230  0.00  0.00    -0.276 OA
ATOM     17  H   LIG d   1      -5.117  77.348 116.008  0.00  0.00     0.149 HD
ENDBRANCH   6  13
BRANCH   5  18
ATOM     18  N   LIG d   1      -2.810  74.578 116.806  0.00  0.00     0.381 N 
ATOM     19  H   LIG d   1      -3.518  74.423 117.495  0.00  0.00    -0.090 HD
ATOM     20  H   LIG d   1      -1.975  74.104 117.099  0.00  0.00    -0.090 HD
ATOM     21  H   LIG d   1      -3.110  74.224 115.924  0.00  0.00    -0.090 HD
ENDBRANCH   5  18
BRANCH   3  22
ATOM     22  C   LIG d   1       0.610  77.929 116.901  0.00  0.00     0.382 C 
ATOM     23  O   LIG d   1       1.421  77.086 117.354  0.00  0.00    -0.241 OA
ATOM     24  O   LIG d   1       0.892  79.141 116.956  0.00  0.00    -0.241 OA
ENDBRANCH   3  22
TORSDOF 7
ENDMDL
MODEL 6
REMARK VINA RESULT:      -4.4      2.183      4.465
REMARK  7 active torsions:
REMARK  status: ('A' for Active; 'I' for Inactive)
REMARK    1  A    between atoms: C_2  and  C_3 
REMARK    2  A    between atoms: C_3  and  O_6 
REMARK    3  A    between atoms: C_3  and  C_4 
REMARK    4  A    between atoms: C_7  and  O_6 
REMARK    5  A    between atoms: C_9  and  C_10 
REMARK    6  A    between atoms: N_15  and  C_14 
REMARK    7  A    between atoms: N_20  and  C_19 
REMARK       I    between atoms: C_22  and  N_20 
ROOT
ATOM      1  C   LIG d   1      -3.198  75.417 115.443  0.00  0.00     0.161 C 
ATOM      2  C   LIG d   1      -4.452  75.664 114.860  0.00  0.00     0.016 C 
ATOM      3  C   LIG d   1      -5.600  76.016 115.605  0.00  0.00     0.038 C 
ATOM      4  C   LIG d   1      -5.537  76.293 116.979  0.00  0.00     0.028 C 
ATOM      5  C   LIG d   1      -4.401  75.566 117.692  0.00  0.00    -0.047 C 
ATOM      6  C   LIG d   1      -3.083  75.823 116.927  0.00  0.00     0.091 C 
ENDROOT
BRANCH   1   7
ATOM      7  O   LIG d   1      -2.164  76.055 114.667  0.00  0.00    -0.368 OA
BRANCH   7   8
ATOM      8  C   LIG d   1      -2.458  77.391 114.190  0.00  0.00     0.119 C 
BRANCH   8   9
ATOM      9  C   LIG d   1      -1.758  77.561 112.828  0.00  0.00     0.028 C 
ATOM     10  C   LIG d   1      -2.679  78.191 111.769  0.00  0.00     0.006 C 
ENDBRANCH   8   9
BRANCH   8  11
ATOM     11  C   LIG d   1      -1.839  78.456 115.099  0.00  0.00     0.028 C 
ATOM     12  C   LIG d   1      -0.435  78.073 115.596  0.00  0.00     0.006 C 
ENDBRANCH   8  11
ENDBRANCH   7   8
ENDBRANCH   1   7
BRANCH   6  13
ATOM     13  N   LIG d   1      -1.936  75.079 117.509  0.00  0.00    -0.311 N 
ATOM     14  C   LIG d   1      -1.115  75.596 118.422  0.00  0.00     0.210 C 
ATOM     15  C   LIG d   1       0.015  74.666 118.875  0.00  0.00     0.109 C 
ATOM     16  O   LIG d   1      -1.234  76.724 118.924  0.00  0.00    -0.276 OA
ATOM     17  H   LIG d   1      -1.784  74.145 117.182  0.00  0.00     0.149 HD
ENDBRANCH   6  13
BRANCH   5  18
ATOM     18  N   LIG d   1      -4.366  76.052 119.084  0.00  0.00     0.381 N 
ATOM     19  H   LIG d   1      -4.243  77.045 119.093  0.00  0.00    -0.090 HD
ATOM     20  H   LIG d   1      -3.584  75.633 119.555  0.00  0.00    -0.090 HD
ATOM     21  H   LIG d   1      -5.213  75.811 119.551  0.00  0.00    -0.090 HD
ENDBRANCH   5  18
BRANCH   3  22
ATOM     22  C   LIG d   1      -6.839  76.054 114.982  0.00  0.00     0.382 C 
ATOM     23  O   LIG d   1      -7.880  75.821 115.642  0.00  0.00    -0.241 OA
ATOM     24  O   LIG d   1      -6.924  76.274 113.759  0.00  0.00    -0.241 OA
ENDBRANCH   3  22
TORSDOF 7
ENDMDL
MODEL 7
REMARK VINA RESULT:      -4.3      2.951      4.268
REMARK  7 active torsions:
REMARK  status: ('A' for Active; 'I' for Inactive)
REMARK    1  A    between atoms: C_2  and  C_3 
REMARK    2  A    between atoms: C_3  and  O_6 
REMARK    3  A    between atoms: C_3  and  C_4 
REMARK    4  A    between atoms: C_7  and  O_6 
REMARK    5  A    between atoms: C_9  and  C_10 
REMARK    6  A    between atoms: N_15  and  C_14 
REMARK    7  A    between atoms: N_20  and  C_19 
REMARK       I    between atoms: C_22  and  N_20 
ROOT
ATOM      1  C   LIG d   1      -3.394  78.086 116.984  0.00  0.00     0.161 C 
ATOM      2  C   LIG d   1      -2.430  78.957 117.517  0.00  0.00     0.016 C 
ATOM      3  C   LIG d   1      -1.049  78.863 117.226  0.00  0.00     0.038 C 
ATOM      4  C   LIG d   1      -0.555  77.978 116.257  0.00  0.00     0.028 C 
ATOM      5  C   LIG d   1      -1.424  76.740 116.067  0.00  0.00    -0.047 C 
ATOM      6  C   LIG d   1      -2.887  77.184 115.838  0.00  0.00     0.091 C 
ENDROOT
BRANCH   1   7
ATOM      7  O   LIG d   1      -4.549  78.835 116.558  0.00  0.00    -0.368 OA
BRANCH   7   8
ATOM      8  C   LIG d   1      -5.645  78.908 117.502  0.00  0.00     0.119 C 
BRANCH   8   9
ATOM      9  C   LIG d   1      -6.683  77.847 117.089  0.00  0.00     0.028 C 
ATOM     10  C   LIG d   1      -6.635  76.598 117.986  0.00  0.00     0.006 C 
ENDBRANCH   8   9
BRANCH   8  11
ATOM     11  C   LIG d   1      -6.376  80.250 117.405  0.00  0.00     0.028 C 
ATOM     12  C   LIG d   1      -7.881  80.131 117.691  0.00  0.00     0.006 C 
ENDBRANCH   8  11
ENDBRANCH   7   8
ENDBRANCH   1   7
BRANCH   6  13
ATOM     13  N   LIG d   1      -3.819  76.032 115.727  0.00  0.00    -0.311 N 
ATOM     14  C   LIG d   1      -4.671  75.873 114.716  0.00  0.00     0.210 C 
ATOM     15  C   LIG d   1      -5.556  74.625 114.807  0.00  0.00     0.109 C 
ATOM     16  O   LIG d   1      -4.756  76.629 113.737  0.00  0.00    -0.276 OA
ATOM     17  H   LIG d   1      -3.795  75.353 116.463  0.00  0.00     0.149 HD
ENDBRANCH   6  13
BRANCH   5  18
ATOM     18  N   LIG d   1      -0.869  75.974 114.935  0.00  0.00     0.381 N 
ATOM     19  H   LIG d   1      -0.041  76.422 114.597  0.00  0.00    -0.090 HD
ATOM     20  H   LIG d   1      -1.544  75.957 114.192  0.00  0.00    -0.090 HD
ATOM     21  H   LIG d   1      -0.658  75.044 115.223  0.00  0.00    -0.090 HD
ENDBRANCH   5  18
BRANCH   3  22
ATOM     22  C   LIG d   1      -0.143  79.634 117.938  0.00  0.00     0.382 C 
ATOM     23  O   LIG d   1       0.214  79.280 119.088  0.00  0.00    -0.241 OA
ATOM     24  O   LIG d   1       0.289  80.701 117.464  0.00  0.00    -0.241 OA
ENDBRANCH   3  22
TORSDOF 7
ENDMDL
MODEL 8
REMARK VINA RESULT:      -4.3      3.593      4.831
REMARK  7 active torsions:
REMARK  status: ('A' for Active; 'I' for Inactive)
REMARK    1  A    between atoms: C_2  and  C_3 
REMARK    2  A    between atoms: C_3  and  O_6 
REMARK    3  A    between atoms: C_3  and  C_4 
REMARK    4  A    between atoms: C_7  and  O_6 
REMARK    5  A    between atoms: C_9  and  C_10 
REMARK    6  A    between atoms: N_15  and  C_14 
REMARK    7  A    between atoms: N_20  and  C_19 
REMARK       I    between atoms: C_22  and  N_20 
ROOT
ATOM      1  C   LIG d   1      -4.916  77.884 117.108  0.00  0.00     0.161 C 
ATOM      2  C   LIG d   1      -6.270  78.248 117.019  0.00  0.00     0.016 C 
ATOM      3  C   LIG d   1      -6.840  79.310 117.759  0.00  0.00     0.038 C 
ATOM      4  C   LIG d   1      -6.057  80.181 118.530  0.00  0.00     0.028 C 
ATOM      5  C   LIG d   1      -4.771  79.544 119.045  0.00  0.00    -0.047 C 
ATOM      6  C   LIG d   1      -4.023  78.893 117.859  0.00  0.00     0.091 C 
ENDROOT
BRANCH   1   7
ATOM      7  O   LIG d   1      -4.390  77.633 115.790  0.00  0.00    -0.368 OA
BRANCH   7   8
ATOM      8  C   LIG d   1      -4.069  76.254 115.483  0.00  0.00     0.119 C 
BRANCH   8   9
ATOM      9  C   LIG d   1      -5.196  75.704 114.588  0.00  0.00     0.028 C 
ATOM     10  C   LIG d   1      -6.138  74.754 115.347  0.00  0.00     0.006 C 
ENDBRANCH   8   9
BRANCH   8  11
ATOM     11  C   LIG d   1      -4.091  75.384 116.743  0.00  0.00     0.028 C 
ATOM     12  C   LIG d   1      -2.728  74.742 117.048  0.00  0.00     0.006 C 
ENDBRANCH   8  11
ENDBRANCH   7   8
ENDBRANCH   1   7
BRANCH   6  13
ATOM     13  N   LIG d   1      -2.795  78.174 118.289  0.00  0.00    -0.311 N 
ATOM     14  C   LIG d   1      -1.613  78.322 117.695  0.00  0.00     0.210 C 
ATOM     15  C   LIG d   1      -0.482  77.472 118.283  0.00  0.00     0.109 C 
ATOM     16  O   LIG d   1      -1.385  79.100 116.756  0.00  0.00    -0.276 OA
ATOM     17  H   LIG d   1      -2.883  77.545 119.063  0.00  0.00     0.149 HD
ENDBRANCH   6  13
BRANCH   5  18
ATOM     18  N   LIG d   1      -3.987  80.599 119.714  0.00  0.00     0.381 N 
ATOM     19  H   LIG d   1      -3.214  80.191 120.201  0.00  0.00    -0.090 HD
ATOM     20  H   LIG d   1      -4.573  81.063 120.385  0.00  0.00    -0.090 HD
ATOM     21  H   LIG d   1      -3.656  81.256 119.042  0.00  0.00    -0.090 HD
ENDBRANCH   5  18
BRANCH   3  22
ATOM     22  C   LIG d   1      -8.216  79.483 117.763  0.00  0.00     0.382 C 
ATOM     23  O   LIG d   1      -8.974  78.486 117.835  0.00  0.00    -0.241 OA
ATOM     24  O   LIG d   1      -8.710  80.622 117.651  0.00  0.00    -0.241 OA
ENDBRANCH   3  22
TORSDOF 7
ENDMDL
MODEL 9
REMARK VINA RESULT:      -4.0      3.567      5.069
REMARK  7 active torsions:
REMARK  status: ('A' for Active; 'I' for Inactive)
REMARK    1  A    between atoms: C_2  and  C_3 
REMARK    2  A    between atoms: C_3  and  O_6 
REMARK    3  A    between atoms: C_3  and  C_4 
REMARK    4  A    between atoms: C_7  and  O_6 
REMARK    5  A    between atoms: C_9  and  C_10 
REMARK    6  A    between atoms: N_15  and  C_14 
REMARK    7  A    between atoms: N_20  and  C_19 
REMARK       I    between atoms: C_22  and  N_20 
ROOT
ATOM      1  C   LIG d   1      -4.602  77.354 118.045  0.00  0.00     0.161 C 
ATOM      2  C   LIG d   1      -3.420  78.053 117.746  0.00  0.00     0.016 C 
ATOM      3  C   LIG d   1      -2.735  77.932 116.516  0.00  0.00     0.038 C 
ATOM      4  C   LIG d   1      -3.270  77.215 115.436  0.00  0.00     0.028 C 
ATOM      5  C   LIG d   1      -4.205  76.087 115.861  0.00  0.00    -0.047 C 
ATOM      6  C   LIG d   1      -5.261  76.653 116.838  0.00  0.00     0.091 C 
ENDROOT
BRANCH   1   7
ATOM      7  O   LIG d   1      -5.543  78.237 118.686  0.00  0.00    -0.368 OA
BRANCH   7   8
ATOM      8  C   LIG d   1      -5.486  79.628 118.287  0.00  0.00     0.119 C 
BRANCH   8   9
ATOM      9  C   LIG d   1      -5.405  80.476 119.571  0.00  0.00     0.028 C 
ATOM     10  C   LIG d   1      -6.393  81.655 119.559  0.00  0.00     0.006 C 
ENDBRANCH   8   9
BRANCH   8  11
ATOM     11  C   LIG d   1      -6.782  80.063 117.595  0.00  0.00     0.028 C 
ATOM     12  C   LIG d   1      -7.896  79.008 117.700  0.00  0.00     0.006 C 
ENDBRANCH   8  11
ENDBRANCH   7   8
ENDBRANCH   1   7
BRANCH   6  13
ATOM     13  N   LIG d   1      -6.164  75.598 117.369  0.00  0.00    -0.311 N 
ATOM     14  C   LIG d   1      -7.333  75.286 116.813  0.00  0.00     0.210 C 
ATOM     15  C   LIG d   1      -8.117  74.183 117.531  0.00  0.00     0.109 C 
ATOM     16  O   LIG d   1      -7.780  75.796 115.774  0.00  0.00    -0.276 OA
ATOM     17  H   LIG d   1      -5.864  75.112 118.192  0.00  0.00     0.149 HD
ENDBRANCH   6  13
BRANCH   5  18
ATOM     18  N   LIG d   1      -4.797  75.514 114.638  0.00  0.00     0.381 N 
ATOM     19  H   LIG d   1      -5.457  74.803 114.883  0.00  0.00    -0.090 HD
ATOM     20  H   LIG d   1      -4.068  75.092 114.091  0.00  0.00    -0.090 HD
ATOM     21  H   LIG d   1      -5.248  76.229 114.110  0.00  0.00    -0.090 HD
ENDBRANCH   5  18
BRANCH   3  22
ATOM     22  C   LIG d   1      -1.479  78.502 116.370  0.00  0.00     0.382 C 
ATOM     23  O   LIG d   1      -1.099  79.394 117.166  0.00  0.00    -0.241 OA
ATOM     24  O   LIG d   1      -0.739  78.166 115.426  0.00  0.00    -0.241 OA
ENDBRANCH   3  22
TORSDOF 7
ENDMDL
