MODEL 1
REMARK VINA RESULT:      -5.7      0.000      0.000
REMARK  7 active torsions:
REMARK  status: ('A' for Active; 'I' for Inactive)
REMARK    1  A    between atoms: C_2  and  C_3 
REMARK    2  A    between atoms: C_3  and  O_6 
REMARK    3  A    between atoms: C_3  and  C_4 
REMARK    4  A    between atoms: C_7  and  O_6 
REMARK    5  A    between atoms: C_9  and  C_10 
REMARK    6  A    between atoms: N_15  and  C_14 
REMARK    7  A    between atoms: N_20  and  C_19 
REMARK       I    between atoms: C_22  and  N_20 
ROOT
ATOM      1  C   LIG d   1      -2.096  77.551 115.750  0.00  0.00     0.161 C 
ATOM      2  C   LIG d   1      -2.561  78.316 114.668  0.00  0.00     0.016 C 
ATOM      3  C   LIG d   1      -1.963  78.296 113.387  0.00  0.00     0.038 C 
ATOM      4  C   LIG d   1      -0.945  77.389 113.058  0.00  0.00     0.028 C 
ATOM      5  C   LIG d   1      -0.110  76.955 114.258  0.00  0.00    -0.047 C 
ATOM      6  C   LIG d   1      -1.056  76.472 115.380  0.00  0.00     0.091 C 
ENDROOT
BRANCH   1   7
ATOM      7  O   LIG d   1      -3.212  76.955 116.442  0.00  0.00    -0.368 OA
BRANCH   7   8
ATOM      8  C   LIG d   1      -4.436  76.820 115.679  0.00  0.00     0.119 C 
BRANCH   8   9
ATOM      9  C   LIG d   1      -5.594  77.305 116.573  0.00  0.00     0.028 C 
ATOM     10  C   LIG d   1      -5.211  78.534 117.414  0.00  0.00     0.006 C 
ENDBRANCH   8   9
BRANCH   8  11
ATOM     11  C   LIG d   1      -4.745  75.350 115.377  0.00  0.00     0.028 C 
ATOM     12  C   LIG d   1      -6.248  75.082 115.199  0.00  0.00     0.006 C 
ENDBRANCH   8  11
ENDBRANCH   7   8
ENDBRANCH   1   7
BRANCH   6  13
ATOM     13  N   LIG d   1      -0.325  76.109 116.622  0.00  0.00    -0.311 N 
ATOM     14  C   LIG d   1      -0.604  75.027 117.347  0.00  0.00     0.210 C 
ATOM     15  C   LIG d   1       0.258  74.849 118.601  0.00  0.00     0.109 C 
ATOM     16  O   LIG d   1      -1.462  74.181 117.053  0.00  0.00    -0.276 OA
ATOM     17  H   LIG d   1       0.408  76.724 116.916  0.00  0.00     0.149 HD
ENDBRANCH   6  13
BRANCH   5  18
ATOM     18  N   LIG d   1       0.822  75.908 113.797  0.00  0.00     0.381 N 
ATOM     19  H   LIG d   1       0.646  75.698 112.835  0.00  0.00    -0.090 HD
ATOM     20  H   LIG d   1       0.666  75.074 114.336  0.00  0.00    -0.090 HD
ATOM     21  H   LIG d   1       1.763  76.215 113.911  0.00  0.00    -0.090 HD
ENDBRANCH   5  18
BRANCH   3  22
ATOM     22  C   LIG d   1      -2.357  79.219 112.430  0.00  0.00     0.382 C 
ATOM     23  O   LIG d   1      -3.082  80.190 112.756  0.00  0.00    -0.241 OA
ATOM     24  O   LIG d   1      -2.033  79.069 111.237  0.00  0.00    -0.241 OA
ENDBRANCH   3  22
TORSDOF 7
ENDMDL
MODEL 2
REMARK VINA RESULT:      -5.5      1.622      4.963
REMARK  7 active torsions:
REMARK  status: ('A' for Active; 'I' for Inactive)
REMARK    1  A    between atoms: C_2  and  C_3 
REMARK    2  A    between atoms: C_3  and  O_6 
REMARK    3  A    between atoms: C_3  and  C_4 
REMARK    4  A    between atoms: C_7  and  O_6 
REMARK    5  A    between atoms: C_9  and  C_10 
REMARK    6  A    between atoms: N_15  and  C_14 
REMARK    7  A    between atoms: N_20  and  C_19 
REMARK       I    between atoms: C_22  and  N_20 
ROOT
ATOM      1  C   LIG d   1      -2.411  76.072 115.048  0.00  0.00     0.161 C 
ATOM      2  C   LIG d   1      -2.344  75.485 116.322  0.00  0.00     0.016 C 
ATOM      3  C   LIG d   1      -1.460  75.923 117.335  0.00  0.00     0.038 C 
ATOM      4  C   LIG d   1      -0.684  77.082 117.192  0.00  0.00     0.028 C 
ATOM      5  C   LIG d   1      -0.347  77.410 115.741  0.00  0.00    -0.047 C 
ATOM      6  C   LIG d   1      -1.651  77.408 114.911  0.00  0.00     0.091 C 
ENDROOT
BRANCH   1   7
ATOM      7  O   LIG d   1      -3.789  76.237 114.657  0.00  0.00    -0.368 OA
BRANCH   7   8
ATOM      8  C   LIG d   1      -4.777  75.997 115.689  0.00  0.00     0.119 C 
BRANCH   8   9
ATOM      9  C   LIG d   1      -5.896  75.139 115.068  0.00  0.00     0.028 C 
ATOM     10  C   LIG d   1      -7.280  75.465 115.654  0.00  0.00     0.006 C 
ENDBRANCH   8   9
BRANCH   8  11
ATOM     11  C   LIG d   1      -5.457  77.298 116.123  0.00  0.00     0.028 C 
ATOM     12  C   LIG d   1      -4.721  78.000 117.276  0.00  0.00     0.006 C 
ENDBRANCH   8  11
ENDBRANCH   7   8
ENDBRANCH   1   7
BRANCH   6  13
ATOM     13  N   LIG d   1      -1.402  77.637 113.463  0.00  0.00    -0.311 N 
ATOM     14  C   LIG d   1      -2.012  78.586 112.756  0.00  0.00     0.210 C 
ATOM     15  C   LIG d   1      -1.625  78.638 111.274  0.00  0.00     0.109 C 
ATOM     16  O   LIG d   1      -2.813  79.411 113.221  0.00  0.00    -0.276 OA
ATOM     17  H   LIG d   1      -0.743  77.033 113.013  0.00  0.00     0.149 HD
ENDBRANCH   6  13
BRANCH   5  18
ATOM     18  N   LIG d   1       0.345  78.713 115.728  0.00  0.00     0.381 N 
ATOM     19  H   LIG d   1      -0.314  79.448 115.889  0.00  0.00    -0.090 HD
ATOM     20  H   LIG d   1       0.758  78.852 114.822  0.00  0.00    -0.090 HD
ATOM     21  H   LIG d   1       1.052  78.731 116.430  0.00  0.00    -0.090 HD
ENDBRANCH   5  18
BRANCH   3  22
ATOM     22  C   LIG d   1      -1.317  75.174 118.493  0.00  0.00     0.382 C 
ATOM     23  O   LIG d   1      -0.494  74.228 118.530  0.00  0.00    -0.241 OA
ATOM     24  O   LIG d   1      -2.033  75.403 119.487  0.00  0.00    -0.241 OA
ENDBRANCH   3  22
TORSDOF 7
ENDMDL
MODEL 3
REMARK VINA RESULT:      -5.3      1.145      1.910
REMARK  7 active torsions:
REMARK  status: ('A' for Active; 'I' for Inactive)
REMARK    1  A    between atoms: C_2  and  C_3 
REMARK    2  A    between atoms: C_3  and  O_6 
REMARK    3  A    between atoms: C_3  and  C_4 
REMARK    4  A    between atoms: C_7  and  O_6 
REMARK    5  A    between atoms: C_9  and  C_10 
REMARK    6  A    between atoms: N_15  and  C_14 
REMARK    7  A    between atoms: N_20  and  C_19 
REMARK       I    between atoms: C_22  and  N_20 
ROOT
ATOM      1  C   LIG d   1      -2.962  77.160 115.081  0.00  0.00     0.161 C 
ATOM      2  C   LIG d   1      -3.085  77.680 113.781  0.00  0.00     0.016 C 
ATOM      3  C   LIG d   1      -1.981  77.918 112.931  0.00  0.00     0.038 C 
ATOM      4  C   LIG d   1      -0.683  77.507 113.268  0.00  0.00     0.028 C 
ATOM      5  C   LIG d   1      -0.441  77.439 114.772  0.00  0.00    -0.047 C 
ATOM      6  C   LIG d   1      -1.565  76.602 115.424  0.00  0.00     0.091 C 
ENDROOT
BRANCH   1   7
ATOM      7  O   LIG d   1      -3.971  76.155 115.302  0.00  0.00    -0.368 OA
BRANCH   7   8
ATOM      8  C   LIG d   1      -4.995  76.483 116.274  0.00  0.00     0.119 C 
BRANCH   8   9
ATOM      9  C   LIG d   1      -6.350  76.473 115.540  0.00  0.00     0.028 C 
ATOM     10  C   LIG d   1      -7.027  75.093 115.576  0.00  0.00     0.006 C 
ENDBRANCH   8   9
BRANCH   8  11
ATOM     11  C   LIG d   1      -4.828  77.913 116.798  0.00  0.00     0.028 C 
ATOM     12  C   LIG d   1      -6.170  78.589 117.122  0.00  0.00     0.006 C 
ENDBRANCH   8  11
ENDBRANCH   7   8
ENDBRANCH   1   7
BRANCH   6  13
ATOM     13  N   LIG d   1      -1.451  76.556 116.906  0.00  0.00    -0.311 N 
ATOM     14  C   LIG d   1      -1.646  75.450 117.622  0.00  0.00     0.210 C 
ATOM     15  C   LIG d   1      -1.499  75.627 119.136  0.00  0.00     0.109 C 
ATOM     16  O   LIG d   1      -1.895  74.333 117.144  0.00  0.00    -0.276 OA
ATOM     17  H   LIG d   1      -1.222  77.412 117.372  0.00  0.00     0.149 HD
ENDBRANCH   6  13
BRANCH   5  18
ATOM     18  N   LIG d   1       0.902  76.867 114.982  0.00  0.00     0.381 N 
ATOM     19  H   LIG d   1       1.084  76.168 114.290  0.00  0.00    -0.090 HD
ATOM     20  H   LIG d   1       0.931  76.430 115.887  0.00  0.00    -0.090 HD
ATOM     21  H   LIG d   1       1.591  77.584 114.930  0.00  0.00    -0.090 HD
ENDBRANCH   5  18
BRANCH   3  22
ATOM     22  C   LIG d   1      -2.165  78.610 111.743  0.00  0.00     0.382 C 
ATOM     23  O   LIG d   1      -2.628  78.018 110.738  0.00  0.00    -0.241 OA
ATOM     24  O   LIG d   1      -1.832  79.806 111.651  0.00  0.00    -0.241 OA
ENDBRANCH   3  22
TORSDOF 7
ENDMDL
MODEL 4
REMARK VINA RESULT:      -5.3      3.656      5.700
REMARK  7 active torsions:
REMARK  status: ('A' for Active; 'I' for Inactive)
REMARK    1  A    between atoms: C_2  and  C_3 
REMARK    2  A    between atoms: C_3  and  O_6 
REMARK    3  A    between atoms: C_3  and  C_4 
REMARK    4  A    between atoms: C_7  and  O_6 
REMARK    5  A    between atoms: C_9  and  C_10 
REMARK    6  A    between atoms: N_15  and  C_14 
REMARK    7  A    between atoms: N_20  and  C_19 
REMARK       I    between atoms: C_22  and  N_20 
ROOT
ATOM      1  C   LIG d   1      -5.880  78.183 117.302  0.00  0.00     0.161 C 
ATOM      2  C   LIG d   1      -7.040  78.975 117.279  0.00  0.00     0.016 C 
ATOM      3  C   LIG d   1      -7.134  80.236 117.912  0.00  0.00     0.038 C 
ATOM      4  C   LIG d   1      -6.019  80.862 118.487  0.00  0.00     0.028 C 
ATOM      5  C   LIG d   1      -4.957  79.881 118.973  0.00  0.00    -0.047 C 
ATOM      6  C   LIG d   1      -4.618  78.900 117.829  0.00  0.00     0.091 C 
ENDROOT
BRANCH   1   7
ATOM      7  O   LIG d   1      -5.635  77.638 115.990  0.00  0.00    -0.368 OA
BRANCH   7   8
ATOM      8  C   LIG d   1      -5.789  76.203 115.858  0.00  0.00     0.119 C 
BRANCH   8   9
ATOM      9  C   LIG d   1      -4.685  75.705 114.905  0.00  0.00     0.028 C 
ATOM     10  C   LIG d   1      -3.458  75.165 115.659  0.00  0.00     0.006 C 
ENDBRANCH   8   9
BRANCH   8  11
ATOM     11  C   LIG d   1      -7.110  75.846 115.170  0.00  0.00     0.028 C 
ATOM     12  C   LIG d   1      -8.261  75.634 116.166  0.00  0.00     0.006 C 
ENDBRANCH   8  11
ENDBRANCH   7   8
ENDBRANCH   1   7
BRANCH   6  13
ATOM     13  N   LIG d   1      -3.649  77.854 118.247  0.00  0.00    -0.311 N 
ATOM     14  C   LIG d   1      -2.337  77.944 118.037  0.00  0.00     0.210 C 
ATOM     15  C   LIG d   1      -1.519  76.745 118.529  0.00  0.00     0.109 C 
ATOM     16  O   LIG d   1      -1.769  78.916 117.517  0.00  0.00    -0.276 OA
ATOM     17  H   LIG d   1      -4.021  77.044 118.704  0.00  0.00     0.149 HD
ENDBRANCH   6  13
BRANCH   5  18
ATOM     18  N   LIG d   1      -3.794  80.670 119.422  0.00  0.00     0.381 N 
ATOM     19  H   LIG d   1      -2.948  80.199 119.171  0.00  0.00    -0.090 HD
ATOM     20  H   LIG d   1      -3.824  80.752 120.423  0.00  0.00    -0.090 HD
ATOM     21  H   LIG d   1      -3.815  81.575 119.006  0.00  0.00    -0.090 HD
ENDBRANCH   5  18
BRANCH   3  22
ATOM     22  C   LIG d   1      -8.366  80.865 118.009  0.00  0.00     0.382 C 
ATOM     23  O   LIG d   1      -8.811  81.201 119.133  0.00  0.00    -0.241 OA
ATOM     24  O   LIG d   1      -9.057  81.062 116.992  0.00  0.00    -0.241 OA
ENDBRANCH   3  22
TORSDOF 7
ENDMDL
MODEL 5
REMARK VINA RESULT:      -5.1      1.493      2.146
REMARK  7 active torsions:
REMARK  status: ('A' for Active; 'I' for Inactive)
REMARK    1  A    between atoms: C_2  and  C_3 
REMARK    2  A    between atoms: C_3  and  O_6 
REMARK    3  A    between atoms: C_3  and  C_4 
REMARK    4  A    between atoms: C_7  and  O_6 
REMARK    5  A    between atoms: C_9  and  C_10 
REMARK    6  A    between atoms: N_15  and  C_14 
REMARK    7  A    between atoms: N_20  and  C_19 
REMARK       I    between atoms: C_22  and  N_20 
ROOT
ATOM      1  C   LIG d   1      -1.967  77.428 115.815  0.00  0.00     0.161 C 
ATOM      2  C   LIG d   1      -2.578  78.065 114.722  0.00  0.00     0.016 C 
ATOM      3  C   LIG d   1      -2.091  77.976 113.398  0.00  0.00     0.038 C 
ATOM      4  C   LIG d   1      -1.039  77.115 113.051  0.00  0.00     0.028 C 
ATOM      5  C   LIG d   1      -0.075  76.843 114.200  0.00  0.00    -0.047 C 
ATOM      6  C   LIG d   1      -0.884  76.395 115.439  0.00  0.00     0.091 C 
ENDROOT
BRANCH   1   7
ATOM      7  O   LIG d   1      -2.972  76.819 116.650  0.00  0.00    -0.368 OA
BRANCH   7   8
ATOM      8  C   LIG d   1      -3.281  77.512 117.884  0.00  0.00     0.119 C 
BRANCH   8   9
ATOM      9  C   LIG d   1      -4.576  78.314 117.653  0.00  0.00     0.028 C 
ATOM     10  C   LIG d   1      -4.738  79.470 118.655  0.00  0.00     0.006 C 
ENDBRANCH   8   9
BRANCH   8  11
ATOM     11  C   LIG d   1      -2.212  78.557 118.219  0.00  0.00     0.028 C 
ATOM     12  C   LIG d   1      -1.338  78.152 119.417  0.00  0.00     0.006 C 
ENDBRANCH   8  11
ENDBRANCH   7   8
ENDBRANCH   1   7
BRANCH   6  13
ATOM     13  N   LIG d   1      -0.025  76.188 116.633  0.00  0.00    -0.311 N 
ATOM     14  C   LIG d   1      -0.132  75.135 117.441  0.00  0.00     0.210 C 
ATOM     15  C   LIG d   1       0.838  75.127 118.626  0.00  0.00     0.109 C 
ATOM     16  O   LIG d   1      -0.918  74.190 117.270  0.00  0.00    -0.276 OA
ATOM     17  H   LIG d   1       0.661  76.891 116.829  0.00  0.00     0.149 HD
ENDBRANCH   6  13
BRANCH   5  18
ATOM     18  N   LIG d   1       0.890  75.826 113.741  0.00  0.00     0.381 N 
ATOM     19  H   LIG d   1       1.038  75.149 114.463  0.00  0.00    -0.090 HD
ATOM     20  H   LIG d   1       1.767  76.275 113.545  0.00  0.00    -0.090 HD
ATOM     21  H   LIG d   1       0.547  75.377 112.920  0.00  0.00    -0.090 HD
ENDBRANCH   5  18
BRANCH   3  22
ATOM     22  C   LIG d   1      -2.633  78.786 112.411  0.00  0.00     0.382 C 
ATOM     23  O   LIG d   1      -2.819  80.006 112.634  0.00  0.00    -0.241 OA
ATOM     24  O   LIG d   1      -2.979  78.302 111.317  0.00  0.00    -0.241 OA
ENDBRANCH   3  22
TORSDOF 7
ENDMDL
MODEL 6
REMARK VINA RESULT:      -5.0      1.196      1.372
REMARK  7 active torsions:
REMARK  status: ('A' for Active; 'I' for Inactive)
REMARK    1  A    between atoms: C_2  and  C_3 
REMARK    2  A    between atoms: C_3  and  O_6 
REMARK    3  A    between atoms: C_3  and  C_4 
REMARK    4  A    between atoms: C_7  and  O_6 
REMARK    5  A    between atoms: C_9  and  C_10 
REMARK    6  A    between atoms: N_15  and  C_14 
REMARK    7  A    between atoms: N_20  and  C_19 
REMARK       I    between atoms: C_22  and  N_20 
ROOT
ATOM      1  C   LIG d   1      -2.641  77.402 115.760  0.00  0.00     0.161 C 
ATOM      2  C   LIG d   1      -2.986  78.083 114.581  0.00  0.00     0.016 C 
ATOM      3  C   LIG d   1      -2.098  78.258 113.495  0.00  0.00     0.038 C 
ATOM      4  C   LIG d   1      -0.844  77.630 113.453  0.00  0.00     0.028 C 
ATOM      5  C   LIG d   1      -0.259  77.354 114.834  0.00  0.00    -0.047 C 
ATOM      6  C   LIG d   1      -1.315  76.615 115.688  0.00  0.00     0.091 C 
ENDROOT
BRANCH   1   7
ATOM      7  O   LIG d   1      -3.719  76.532 116.156  0.00  0.00    -0.368 OA
BRANCH   7   8
ATOM      8  C   LIG d   1      -4.928  76.612 115.361  0.00  0.00     0.119 C 
BRANCH   8   9
ATOM      9  C   LIG d   1      -6.093  76.925 116.320  0.00  0.00     0.028 C 
ATOM     10  C   LIG d   1      -5.954  78.306 116.981  0.00  0.00     0.006 C 
ENDBRANCH   8   9
BRANCH   8  11
ATOM     11  C   LIG d   1      -5.272  75.258 114.733  0.00  0.00     0.028 C 
ATOM     12  C   LIG d   1      -6.432  74.547 115.448  0.00  0.00     0.006 C 
ENDBRANCH   8  11
ENDBRANCH   7   8
ENDBRANCH   1   7
BRANCH   6  13
ATOM     13  N   LIG d   1      -0.855  76.381 117.081  0.00  0.00    -0.311 N 
ATOM     14  C   LIG d   1      -0.481  77.359 117.904  0.00  0.00     0.210 C 
ATOM     15  C   LIG d   1      -0.022  76.898 119.291  0.00  0.00     0.109 C 
ATOM     16  O   LIG d   1      -0.516  78.568 117.628  0.00  0.00    -0.276 OA
ATOM     17  H   LIG d   1      -0.825  75.431 117.398  0.00  0.00     0.149 HD
ENDBRANCH   6  13
BRANCH   5  18
ATOM     18  N   LIG d   1       0.979  76.576 114.646  0.00  0.00     0.381 N 
ATOM     19  H   LIG d   1       1.480  76.522 115.510  0.00  0.00    -0.090 HD
ATOM     20  H   LIG d   1       1.559  77.046 113.973  0.00  0.00    -0.090 HD
ATOM     21  H   LIG d   1       0.760  75.659 114.323  0.00  0.00    -0.090 HD
ENDBRANCH   5  18
BRANCH   3  22
ATOM     22  C   LIG d   1      -2.446  79.103 112.452  0.00  0.00     0.382 C 
ATOM     23  O   LIG d   1      -3.034  80.185 112.691  0.00  0.00    -0.241 OA
ATOM     24  O   LIG d   1      -2.220  78.776 111.271  0.00  0.00    -0.241 OA
ENDBRANCH   3  22
TORSDOF 7
ENDMDL
MODEL 7
REMARK VINA RESULT:      -4.9      2.573      3.671
REMARK  7 active torsions:
REMARK  status: ('A' for Active; 'I' for Inactive)
REMARK    1  A    between atoms: C_2  and  C_3 
REMARK    2  A    between atoms: C_3  and  O_6 
REMARK    3  A    between atoms: C_3  and  C_4 
REMARK    4  A    between atoms: C_7  and  O_6 
REMARK    5  A    between atoms: C_9  and  C_10 
REMARK    6  A    between atoms: N_15  and  C_14 
REMARK    7  A    between atoms: N_20  and  C_19 
REMARK       I    between atoms: C_22  and  N_20 
ROOT
ATOM      1  C   LIG d   1      -0.267  77.241 116.457  0.00  0.00     0.161 C 
ATOM      2  C   LIG d   1      -0.802  77.899 115.338  0.00  0.00     0.016 C 
ATOM      3  C   LIG d   1      -1.961  77.461 114.657  0.00  0.00     0.038 C 
ATOM      4  C   LIG d   1      -2.756  76.413 115.146  0.00  0.00     0.028 C 
ATOM      5  C   LIG d   1      -1.979  75.404 115.985  0.00  0.00    -0.047 C 
ATOM      6  C   LIG d   1      -1.183  76.162 117.072  0.00  0.00     0.091 C 
ENDROOT
BRANCH   1   7
ATOM      7  O   LIG d   1       0.110  78.207 117.458  0.00  0.00    -0.368 OA
BRANCH   7   8
ATOM      8  C   LIG d   1      -0.761  79.358 117.593  0.00  0.00     0.119 C 
BRANCH   8   9
ATOM      9  C   LIG d   1       0.113  80.552 118.022  0.00  0.00     0.028 C 
ATOM     10  C   LIG d   1      -0.623  81.506 118.977  0.00  0.00     0.006 C 
ENDBRANCH   8   9
BRANCH   8  11
ATOM     11  C   LIG d   1      -1.768  79.164 118.731  0.00  0.00     0.028 C 
ATOM     12  C   LIG d   1      -3.214  79.022 118.230  0.00  0.00     0.006 C 
ENDBRANCH   8  11
ENDBRANCH   7   8
ENDBRANCH   1   7
BRANCH   6  13
ATOM     13  N   LIG d   1      -0.329  75.256 117.883  0.00  0.00    -0.311 N 
ATOM     14  C   LIG d   1      -0.415  75.160 119.209  0.00  0.00     0.210 C 
ATOM     15  C   LIG d   1       0.572  74.181 119.852  0.00  0.00     0.109 C 
ATOM     16  O   LIG d   1      -1.237  75.769 119.910  0.00  0.00    -0.276 OA
ATOM     17  H   LIG d   1       0.345  74.702 117.392  0.00  0.00     0.149 HD
ENDBRANCH   6  13
BRANCH   5  18
ATOM     18  N   LIG d   1      -2.952  74.446 116.543  0.00  0.00     0.381 N 
ATOM     19  H   LIG d   1      -2.467  73.692 116.988  0.00  0.00    -0.090 HD
ATOM     20  H   LIG d   1      -3.502  74.067 115.793  0.00  0.00    -0.090 HD
ATOM     21  H   LIG d   1      -3.543  74.904 117.201  0.00  0.00    -0.090 HD
ENDBRANCH   5  18
BRANCH   3  22
ATOM     22  C   LIG d   1      -2.314  78.048 113.452  0.00  0.00     0.382 C 
ATOM     23  O   LIG d   1      -3.173  77.503 112.717  0.00  0.00    -0.241 OA
ATOM     24  O   LIG d   1      -1.752  79.091 113.069  0.00  0.00    -0.241 OA
ENDBRANCH   3  22
TORSDOF 7
ENDMDL
MODEL 8
REMARK VINA RESULT:      -4.8      2.570      4.269
REMARK  7 active torsions:
REMARK  status: ('A' for Active; 'I' for Inactive)
REMARK    1  A    between atoms: C_2  and  C_3 
REMARK    2  A    between atoms: C_3  and  O_6 
REMARK    3  A    between atoms: C_3  and  C_4 
REMARK    4  A    between atoms: C_7  and  O_6 
REMARK    5  A    between atoms: C_9  and  C_10 
REMARK    6  A    between atoms: N_15  and  C_14 
REMARK    7  A    between atoms: N_20  and  C_19 
REMARK       I    between atoms: C_22  and  N_20 
ROOT
ATOM      1  C   LIG d   1      -2.383  77.567 117.008  0.00  0.00     0.161 C 
ATOM      2  C   LIG d   1      -3.482  76.824 116.545  0.00  0.00     0.016 C 
ATOM      3  C   LIG d   1      -3.792  76.665 115.175  0.00  0.00     0.038 C 
ATOM      4  C   LIG d   1      -2.932  77.117 114.163  0.00  0.00     0.028 C 
ATOM      5  C   LIG d   1      -2.076  78.307 114.581  0.00  0.00    -0.047 C 
ATOM      6  C   LIG d   1      -1.371  77.973 115.916  0.00  0.00     0.091 C 
ENDROOT
BRANCH   1   7
ATOM      7  O   LIG d   1      -1.717  76.848 118.065  0.00  0.00    -0.368 OA
BRANCH   7   8
ATOM      8  C   LIG d   1      -1.723  75.403 117.955  0.00  0.00     0.119 C 
BRANCH   8   9
ATOM      9  C   LIG d   1      -1.660  74.830 119.384  0.00  0.00     0.028 C 
ATOM     10  C   LIG d   1      -0.217  74.685 119.896  0.00  0.00     0.006 C 
ENDBRANCH   8   9
BRANCH   8  11
ATOM     11  C   LIG d   1      -0.459  74.893 117.258  0.00  0.00     0.028 C 
ATOM     12  C   LIG d   1      -0.716  74.446 115.810  0.00  0.00     0.006 C 
ENDBRANCH   8  11
ENDBRANCH   7   8
ENDBRANCH   1   7
BRANCH   6  13
ATOM     13  N   LIG d   1      -0.579  79.116 116.440  0.00  0.00    -0.311 N 
ATOM     14  C   LIG d   1       0.693  79.013 116.821  0.00  0.00     0.210 C 
ATOM     15  C   LIG d   1       1.317  80.309 117.350  0.00  0.00     0.109 C 
ATOM     16  O   LIG d   1       1.373  77.979 116.742  0.00  0.00    -0.276 OA
ATOM     17  H   LIG d   1      -1.044  80.000 116.508  0.00  0.00     0.149 HD
ENDBRANCH   6  13
BRANCH   5  18
ATOM     18  N   LIG d   1      -1.132  78.585 113.483  0.00  0.00     0.381 N 
ATOM     19  H   LIG d   1      -0.851  77.727 113.052  0.00  0.00    -0.090 HD
ATOM     20  H   LIG d   1      -0.315  79.031 113.861  0.00  0.00    -0.090 HD
ATOM     21  H   LIG d   1      -1.560  79.180 112.808  0.00  0.00    -0.090 HD
ENDBRANCH   5  18
BRANCH   3  22
ATOM     22  C   LIG d   1      -4.996  76.083 114.806  0.00  0.00     0.382 C 
ATOM     23  O   LIG d   1      -5.000  75.014 114.150  0.00  0.00    -0.241 OA
ATOM     24  O   LIG d   1      -6.076  76.638 115.083  0.00  0.00    -0.241 OA
ENDBRANCH   3  22
TORSDOF 7
ENDMDL
MODEL 9
REMARK VINA RESULT:      -4.8      2.239      4.724
REMARK  7 active torsions:
REMARK  status: ('A' for Active; 'I' for Inactive)
REMARK    1  A    between atoms: C_2  and  C_3 
REMARK    2  A    between atoms: C_3  and  O_6 
REMARK    3  A    between atoms: C_3  and  C_4 
REMARK    4  A    between atoms: C_7  and  O_6 
REMARK    5  A    between atoms: C_9  and  C_10 
REMARK    6  A    between atoms: N_15  and  C_14 
REMARK    7  A    between atoms: N_20  and  C_19 
REMARK       I    between atoms: C_22  and  N_20 
ROOT
ATOM      1  C   LIG d   1      -3.241  76.460 116.301  0.00  0.00     0.161 C 
ATOM      2  C   LIG d   1      -4.525  77.016 116.173  0.00  0.00     0.016 C 
ATOM      3  C   LIG d   1      -5.071  77.935 117.098  0.00  0.00     0.038 C 
ATOM      4  C   LIG d   1      -4.306  78.480 118.140  0.00  0.00     0.028 C 
ATOM      5  C   LIG d   1      -3.174  77.569 118.602  0.00  0.00    -0.047 C 
ATOM      6  C   LIG d   1      -2.351  77.127 117.370  0.00  0.00     0.091 C 
ENDROOT
BRANCH   1   7
ATOM      7  O   LIG d   1      -2.578  76.465 115.021  0.00  0.00    -0.368 OA
BRANCH   7   8
ATOM      8  C   LIG d   1      -2.155  77.760 114.528  0.00  0.00     0.119 C 
BRANCH   8   9
ATOM      9  C   LIG d   1      -2.684  77.902 113.088  0.00  0.00     0.028 C 
ATOM     10  C   LIG d   1      -2.042  79.083 112.340  0.00  0.00     0.006 C 
ENDBRANCH   8   9
BRANCH   8  11
ATOM     11  C   LIG d   1      -0.630  77.841 114.409  0.00  0.00     0.028 C 
ATOM     12  C   LIG d   1       0.033  76.458 114.307  0.00  0.00     0.006 C 
ENDBRANCH   8  11
ENDBRANCH   7   8
ENDBRANCH   1   7
BRANCH   6  13
ATOM     13  N   LIG d   1      -1.274  76.166 117.722  0.00  0.00    -0.311 N 
ATOM     14  C   LIG d   1      -0.029  76.536 118.018  0.00  0.00     0.210 C 
ATOM     15  C   LIG d   1       0.930  75.384 118.333  0.00  0.00     0.109 C 
ATOM     16  O   LIG d   1       0.363  77.711 118.082  0.00  0.00    -0.276 OA
ATOM     17  H   LIG d   1      -1.513  75.194 117.725  0.00  0.00     0.149 HD
ENDBRANCH   6  13
BRANCH   5  18
ATOM     18  N   LIG d   1      -2.376  78.316 119.592  0.00  0.00     0.381 N 
ATOM     19  H   LIG d   1      -1.680  78.862 119.125  0.00  0.00    -0.090 HD
ATOM     20  H   LIG d   1      -1.910  77.660 120.195  0.00  0.00    -0.090 HD
ATOM     21  H   LIG d   1      -2.968  78.909 120.130  0.00  0.00    -0.090 HD
ENDBRANCH   5  18
BRANCH   3  22
ATOM     22  C   LIG d   1      -6.409  78.288 117.009  0.00  0.00     0.382 C 
ATOM     23  O   LIG d   1      -6.744  79.495 117.068  0.00  0.00    -0.241 OA
ATOM     24  O   LIG d   1      -7.288  77.411 116.916  0.00  0.00    -0.241 OA
ENDBRANCH   3  22
TORSDOF 7
ENDMDL
