MODEL 1
REMARK VINA RESULT:      -5.4      0.000      0.000
REMARK  7 active torsions:
REMARK  status: ('A' for Active; 'I' for Inactive)
REMARK    1  A    between atoms: C_2  and  C_3 
REMARK    2  A    between atoms: C_3  and  O_6 
REMARK    3  A    between atoms: C_3  and  C_4 
REMARK    4  A    between atoms: C_7  and  O_6 
REMARK    5  A    between atoms: C_9  and  C_10 
REMARK    6  A    between atoms: N_15  and  C_14 
REMARK    7  A    between atoms: N_20  and  C_19 
REMARK       I    between atoms: C_22  and  N_20 
ROOT
ATOM      1  C   LIG d   1      -1.892  75.662 114.971  0.00  0.00     0.161 C 
ATOM      2  C   LIG d   1      -1.692  75.264 116.303  0.00  0.00     0.016 C 
ATOM      3  C   LIG d   1      -1.092  76.090 117.281  0.00  0.00     0.038 C 
ATOM      4  C   LIG d   1      -0.787  77.436 117.029  0.00  0.00     0.028 C 
ATOM      5  C   LIG d   1      -0.507  77.728 115.558  0.00  0.00    -0.047 C 
ATOM      6  C   LIG d   1      -1.667  77.166 114.705  0.00  0.00     0.091 C 
ENDROOT
BRANCH   1   7
ATOM      7  O   LIG d   1      -3.208  75.268 114.536  0.00  0.00    -0.368 OA
BRANCH   7   8
ATOM      8  C   LIG d   1      -4.239  75.253 115.554  0.00  0.00     0.119 C 
BRANCH   8   9
ATOM      9  C   LIG d   1      -5.295  74.215 115.129  0.00  0.00     0.028 C 
ATOM     10  C   LIG d   1      -6.501  74.180 116.082  0.00  0.00     0.006 C 
ENDBRANCH   8   9
BRANCH   8  11
ATOM     11  C   LIG d   1      -4.985  76.590 115.611  0.00  0.00     0.028 C 
ATOM     12  C   LIG d   1      -4.720  77.365 116.912  0.00  0.00     0.006 C 
ENDBRANCH   8  11
ENDBRANCH   7   8
ENDBRANCH   1   7
BRANCH   6  13
ATOM     13  N   LIG d   1      -1.432  77.334 113.248  0.00  0.00    -0.311 N 
ATOM     14  C   LIG d   1      -2.313  77.900 112.424  0.00  0.00     0.210 C 
ATOM     15  C   LIG d   1      -1.881  77.956 110.955  0.00  0.00     0.109 C 
ATOM     16  O   LIG d   1      -3.397  78.389 112.775  0.00  0.00    -0.276 OA
ATOM     17  H   LIG d   1      -0.564  76.994 112.883  0.00  0.00     0.149 HD
ENDBRANCH   6  13
BRANCH   5  18
ATOM     18  N   LIG d   1      -0.340  79.187 115.418  0.00  0.00     0.381 N 
ATOM     19  H   LIG d   1      -0.729  79.490 114.547  0.00  0.00    -0.090 HD
ATOM     20  H   LIG d   1       0.641  79.403 115.417  0.00  0.00    -0.090 HD
ATOM     21  H   LIG d   1      -0.790  79.656 116.172  0.00  0.00    -0.090 HD
ENDBRANCH   5  18
BRANCH   3  22
ATOM     22  C   LIG d   1      -0.755  75.559 118.517  0.00  0.00     0.382 C 
ATOM     23  O   LIG d   1      -0.561  76.321 119.495  0.00  0.00    -0.241 OA
ATOM     24  O   LIG d   1      -0.599  74.331 118.655  0.00  0.00    -0.241 OA
ENDBRANCH   3  22
TORSDOF 7
ENDMDL
MODEL 2
REMARK VINA RESULT:      -5.4      1.708      4.953
REMARK  7 active torsions:
REMARK  status: ('A' for Active; 'I' for Inactive)
REMARK    1  A    between atoms: C_2  and  C_3 
REMARK    2  A    between atoms: C_3  and  O_6 
REMARK    3  A    between atoms: C_3  and  C_4 
REMARK    4  A    between atoms: C_7  and  O_6 
REMARK    5  A    between atoms: C_9  and  C_10 
REMARK    6  A    between atoms: N_15  and  C_14 
REMARK    7  A    between atoms: N_20  and  C_19 
REMARK       I    between atoms: C_22  and  N_20 
ROOT
ATOM      1  C   LIG d   1      -2.924  77.330 116.131  0.00  0.00     0.161 C 
ATOM      2  C   LIG d   1      -3.320  77.781 114.861  0.00  0.00     0.016 C 
ATOM      3  C   LIG d   1      -2.549  77.589 113.691  0.00  0.00     0.038 C 
ATOM      4  C   LIG d   1      -1.392  76.795 113.687  0.00  0.00     0.028 C 
ATOM      5  C   LIG d   1      -0.689  76.744 115.039  0.00  0.00    -0.047 C 
ATOM      6  C   LIG d   1      -1.719  76.365 116.127  0.00  0.00     0.091 C 
ENDROOT
BRANCH   1   7
ATOM      7  O   LIG d   1      -4.045  76.729 116.807  0.00  0.00    -0.368 OA
BRANCH   7   8
ATOM      8  C   LIG d   1      -5.172  76.364 115.973  0.00  0.00     0.119 C 
BRANCH   8   9
ATOM      9  C   LIG d   1      -6.454  76.619 116.790  0.00  0.00     0.028 C 
ATOM     10  C   LIG d   1      -6.467  78.013 117.440  0.00  0.00     0.006 C 
ENDBRANCH   8   9
BRANCH   8  11
ATOM     11  C   LIG d   1      -5.178  74.863 115.669  0.00  0.00     0.028 C 
ATOM     12  C   LIG d   1      -6.499  74.181 116.059  0.00  0.00     0.006 C 
ENDBRANCH   8  11
ENDBRANCH   7   8
ENDBRANCH   1   7
BRANCH   6  13
ATOM     13  N   LIG d   1      -1.132  76.375 117.492  0.00  0.00    -0.311 N 
ATOM     14  C   LIG d   1      -0.597  75.299 118.068  0.00  0.00     0.210 C 
ATOM     15  C   LIG d   1      -0.066  75.522 119.488  0.00  0.00     0.109 C 
ATOM     16  O   LIG d   1      -0.484  74.190 117.526  0.00  0.00    -0.276 OA
ATOM     17  H   LIG d   1      -1.154  77.242 117.992  0.00  0.00     0.149 HD
ENDBRANCH   6  13
BRANCH   5  18
ATOM     18  N   LIG d   1       0.418  75.775 114.929  0.00  0.00     0.381 N 
ATOM     19  H   LIG d   1       0.054  74.843 114.929  0.00  0.00    -0.090 HD
ATOM     20  H   LIG d   1       1.021  75.878 115.726  0.00  0.00    -0.090 HD
ATOM     21  H   LIG d   1       0.932  75.938 114.091  0.00  0.00    -0.090 HD
ENDBRANCH   5  18
BRANCH   3  22
ATOM     22  C   LIG d   1      -2.912  78.229 112.516  0.00  0.00     0.382 C 
ATOM     23  O   LIG d   1      -2.140  79.068 111.994  0.00  0.00    -0.241 OA
ATOM     24  O   LIG d   1      -4.022  78.010 111.994  0.00  0.00    -0.241 OA
ENDBRANCH   3  22
TORSDOF 7
ENDMDL
MODEL 3
REMARK VINA RESULT:      -5.0      2.766      5.680
REMARK  7 active torsions:
REMARK  status: ('A' for Active; 'I' for Inactive)
REMARK    1  A    between atoms: C_2  and  C_3 
REMARK    2  A    between atoms: C_3  and  O_6 
REMARK    3  A    between atoms: C_3  and  C_4 
REMARK    4  A    between atoms: C_7  and  O_6 
REMARK    5  A    between atoms: C_9  and  C_10 
REMARK    6  A    between atoms: N_15  and  C_14 
REMARK    7  A    between atoms: N_20  and  C_19 
REMARK       I    between atoms: C_22  and  N_20 
ROOT
ATOM      1  C   LIG d   1      -2.484  78.889 116.006  0.00  0.00     0.161 C 
ATOM      2  C   LIG d   1      -2.711  79.923 115.082  0.00  0.00     0.016 C 
ATOM      3  C   LIG d   1      -2.337  79.846 113.721  0.00  0.00     0.038 C 
ATOM      4  C   LIG d   1      -1.844  78.661 113.153  0.00  0.00     0.028 C 
ATOM      5  C   LIG d   1      -1.130  77.761 114.156  0.00  0.00    -0.047 C 
ATOM      6  C   LIG d   1      -2.048  77.548 115.381  0.00  0.00     0.091 C 
ENDROOT
BRANCH   1   7
ATOM      7  O   LIG d   1      -3.653  78.703 116.828  0.00  0.00    -0.368 OA
BRANCH   7   8
ATOM      8  C   LIG d   1      -4.137  79.878 117.524  0.00  0.00     0.119 C 
BRANCH   8   9
ATOM      9  C   LIG d   1      -3.535  79.856 118.943  0.00  0.00     0.028 C 
ATOM     10  C   LIG d   1      -2.749  81.137 119.267  0.00  0.00     0.006 C 
ENDBRANCH   8   9
BRANCH   8  11
ATOM     11  C   LIG d   1      -5.654  79.821 117.726  0.00  0.00     0.028 C 
ATOM     12  C   LIG d   1      -6.316  81.206 117.660  0.00  0.00     0.006 C 
ENDBRANCH   8  11
ENDBRANCH   7   8
ENDBRANCH   1   7
BRANCH   6  13
ATOM     13  N   LIG d   1      -1.392  76.747 116.448  0.00  0.00    -0.311 N 
ATOM     14  C   LIG d   1      -1.455  75.418 116.510  0.00  0.00     0.210 C 
ATOM     15  C   LIG d   1      -0.726  74.791 117.703  0.00  0.00     0.109 C 
ATOM     16  O   LIG d   1      -2.019  74.696 115.673  0.00  0.00    -0.276 OA
ATOM     17  H   LIG d   1      -0.887  77.250 117.151  0.00  0.00     0.149 HD
ENDBRANCH   6  13
BRANCH   5  18
ATOM     18  N   LIG d   1      -0.790  76.504 113.463  0.00  0.00     0.381 N 
ATOM     19  H   LIG d   1      -0.063  76.029 113.961  0.00  0.00    -0.090 HD
ATOM     20  H   LIG d   1      -0.451  76.722 112.542  0.00  0.00    -0.090 HD
ATOM     21  H   LIG d   1      -1.595  75.921 113.399  0.00  0.00    -0.090 HD
ENDBRANCH   5  18
BRANCH   3  22
ATOM     22  C   LIG d   1      -2.419  80.975 112.920  0.00  0.00     0.382 C 
ATOM     23  O   LIG d   1      -1.375  81.484 112.445  0.00  0.00    -0.241 OA
ATOM     24  O   LIG d   1      -3.519  81.517 112.704  0.00  0.00    -0.241 OA
ENDBRANCH   3  22
TORSDOF 7
ENDMDL
MODEL 4
REMARK VINA RESULT:      -4.8      1.737      1.958
REMARK  7 active torsions:
REMARK  status: ('A' for Active; 'I' for Inactive)
REMARK    1  A    between atoms: C_2  and  C_3 
REMARK    2  A    between atoms: C_3  and  O_6 
REMARK    3  A    between atoms: C_3  and  C_4 
REMARK    4  A    between atoms: C_7  and  O_6 
REMARK    5  A    between atoms: C_9  and  C_10 
REMARK    6  A    between atoms: N_15  and  C_14 
REMARK    7  A    between atoms: N_20  and  C_19 
REMARK       I    between atoms: C_22  and  N_20 
ROOT
ATOM      1  C   LIG d   1      -2.866  77.334 115.568  0.00  0.00     0.161 C 
ATOM      2  C   LIG d   1      -2.741  77.487 116.959  0.00  0.00     0.016 C 
ATOM      3  C   LIG d   1      -1.904  78.454 117.563  0.00  0.00     0.038 C 
ATOM      4  C   LIG d   1      -1.246  79.439 116.811  0.00  0.00     0.028 C 
ATOM      5  C   LIG d   1      -0.945  79.008 115.380  0.00  0.00    -0.047 C 
ATOM      6  C   LIG d   1      -2.242  78.472 114.733  0.00  0.00     0.091 C 
ENDROOT
BRANCH   1   7
ATOM      7  O   LIG d   1      -4.253  77.158 115.219  0.00  0.00    -0.368 OA
BRANCH   7   8
ATOM      8  C   LIG d   1      -5.035  76.326 116.111  0.00  0.00     0.119 C 
BRANCH   8   9
ATOM      9  C   LIG d   1      -5.382  75.031 115.350  0.00  0.00     0.028 C 
ATOM     10  C   LIG d   1      -6.429  74.180 116.087  0.00  0.00     0.006 C 
ENDBRANCH   8   9
BRANCH   8  11
ATOM     11  C   LIG d   1      -6.382  76.975 116.442  0.00  0.00     0.028 C 
ATOM     12  C   LIG d   1      -6.395  77.647 117.824  0.00  0.00     0.006 C 
ENDBRANCH   8  11
ENDBRANCH   7   8
ENDBRANCH   1   7
BRANCH   6  13
ATOM     13  N   LIG d   1      -2.018  77.950 113.360  0.00  0.00    -0.311 N 
ATOM     14  C   LIG d   1      -2.204  78.678 112.260  0.00  0.00     0.210 C 
ATOM     15  C   LIG d   1      -1.934  77.942 110.944  0.00  0.00     0.109 C 
ATOM     16  O   LIG d   1      -2.536  79.873 112.250  0.00  0.00    -0.276 OA
ATOM     17  H   LIG d   1      -1.717  76.999 113.276  0.00  0.00     0.149 HD
ENDBRANCH   6  13
BRANCH   5  18
ATOM     18  N   LIG d   1      -0.385  80.175 114.672  0.00  0.00     0.381 N 
ATOM     19  H   LIG d   1      -1.128  80.744 114.318  0.00  0.00    -0.090 HD
ATOM     20  H   LIG d   1       0.162  79.851 113.893  0.00  0.00    -0.090 HD
ATOM     21  H   LIG d   1       0.186  80.707 115.290  0.00  0.00    -0.090 HD
ENDBRANCH   5  18
BRANCH   3  22
ATOM     22  C   LIG d   1      -1.687  78.415 118.932  0.00  0.00     0.382 C 
ATOM     23  O   LIG d   1      -1.309  79.448 119.536  0.00  0.00    -0.241 OA
ATOM     24  O   LIG d   1      -1.821  77.350 119.563  0.00  0.00    -0.241 OA
ENDBRANCH   3  22
TORSDOF 7
ENDMDL
MODEL 5
REMARK VINA RESULT:      -4.6      3.040      5.308
REMARK  7 active torsions:
REMARK  status: ('A' for Active; 'I' for Inactive)
REMARK    1  A    between atoms: C_2  and  C_3 
REMARK    2  A    between atoms: C_3  and  O_6 
REMARK    3  A    between atoms: C_3  and  C_4 
REMARK    4  A    between atoms: C_7  and  O_6 
REMARK    5  A    between atoms: C_9  and  C_10 
REMARK    6  A    between atoms: N_15  and  C_14 
REMARK    7  A    between atoms: N_20  and  C_19 
REMARK       I    between atoms: C_22  and  N_20 
ROOT
ATOM      1  C   LIG d   1      -1.895  79.943 114.340  0.00  0.00     0.161 C 
ATOM      2  C   LIG d   1      -2.615  78.758 114.564  0.00  0.00     0.016 C 
ATOM      3  C   LIG d   1      -2.704  77.711 113.618  0.00  0.00     0.038 C 
ATOM      4  C   LIG d   1      -1.950  77.714 112.435  0.00  0.00     0.028 C 
ATOM      5  C   LIG d   1      -1.607  79.115 111.940  0.00  0.00    -0.047 C 
ATOM      6  C   LIG d   1      -0.976  79.917 113.101  0.00  0.00     0.091 C 
ENDROOT
BRANCH   1   7
ATOM      7  O   LIG d   1      -1.139  80.286 115.518  0.00  0.00    -0.368 OA
BRANCH   7   8
ATOM      8  C   LIG d   1      -1.318  79.419 116.665  0.00  0.00     0.119 C 
BRANCH   8   9
ATOM      9  C   LIG d   1      -1.722  80.307 117.858  0.00  0.00     0.028 C 
ATOM     10  C   LIG d   1      -3.157  80.028 118.337  0.00  0.00     0.006 C 
ENDBRANCH   8   9
BRANCH   8  11
ATOM     11  C   LIG d   1       0.003  78.762 117.078  0.00  0.00     0.028 C 
ATOM     12  C   LIG d   1       0.059  77.267 116.727  0.00  0.00     0.006 C 
ENDBRANCH   8  11
ENDBRANCH   7   8
ENDBRANCH   1   7
BRANCH   6  13
ATOM     13  N   LIG d   1      -0.687  81.326 112.725  0.00  0.00    -0.311 N 
ATOM     14  C   LIG d   1       0.482  81.728 112.230  0.00  0.00     0.210 C 
ATOM     15  C   LIG d   1       0.576  83.227 111.929  0.00  0.00     0.109 C 
ATOM     16  O   LIG d   1       1.440  80.980 111.981  0.00  0.00    -0.276 OA
ATOM     17  H   LIG d   1      -1.419  81.995 112.865  0.00  0.00     0.149 HD
ENDBRANCH   6  13
BRANCH   5  18
ATOM     18  N   LIG d   1      -0.705  78.970 110.781  0.00  0.00     0.381 N 
ATOM     19  H   LIG d   1      -1.221  78.640 109.990  0.00  0.00    -0.090 HD
ATOM     20  H   LIG d   1       0.001  78.291 111.002  0.00  0.00    -0.090 HD
ATOM     21  H   LIG d   1      -0.280  79.845 110.568  0.00  0.00    -0.090 HD
ENDBRANCH   5  18
BRANCH   3  22
ATOM     22  C   LIG d   1      -3.586  76.663 113.834  0.00  0.00     0.382 C 
ATOM     23  O   LIG d   1      -3.258  75.711 114.582  0.00  0.00    -0.241 OA
ATOM     24  O   LIG d   1      -4.689  76.636 113.254  0.00  0.00    -0.241 OA
ENDBRANCH   3  22
TORSDOF 7
ENDMDL
MODEL 6
REMARK VINA RESULT:      -4.6      2.401      5.203
REMARK  7 active torsions:
REMARK  status: ('A' for Active; 'I' for Inactive)
REMARK    1  A    between atoms: C_2  and  C_3 
REMARK    2  A    between atoms: C_3  and  O_6 
REMARK    3  A    between atoms: C_3  and  C_4 
REMARK    4  A    between atoms: C_7  and  O_6 
REMARK    5  A    between atoms: C_9  and  C_10 
REMARK    6  A    between atoms: N_15  and  C_14 
REMARK    7  A    between atoms: N_20  and  C_19 
REMARK       I    between atoms: C_22  and  N_20 
ROOT
ATOM      1  C   LIG d   1      -2.251  77.710 114.419  0.00  0.00     0.161 C 
ATOM      2  C   LIG d   1      -1.789  77.292 113.161  0.00  0.00     0.016 C 
ATOM      3  C   LIG d   1      -1.611  78.169 112.066  0.00  0.00     0.038 C 
ATOM      4  C   LIG d   1      -1.741  79.559 112.201  0.00  0.00     0.028 C 
ATOM      5  C   LIG d   1      -2.694  79.973 113.317  0.00  0.00    -0.047 C 
ATOM      6  C   LIG d   1      -2.292  79.240 114.618  0.00  0.00     0.091 C 
ENDROOT
BRANCH   1   7
ATOM      7  O   LIG d   1      -1.468  77.091 115.459  0.00  0.00    -0.368 OA
BRANCH   7   8
ATOM      8  C   LIG d   1      -2.136  76.068 116.237  0.00  0.00     0.119 C 
BRANCH   8   9
ATOM      9  C   LIG d   1      -1.730  74.702 115.652  0.00  0.00     0.028 C 
ATOM     10  C   LIG d   1      -0.409  74.180 116.241  0.00  0.00     0.006 C 
ENDBRANCH   8   9
BRANCH   8  11
ATOM     11  C   LIG d   1      -3.657  76.145 116.070  0.00  0.00     0.028 C 
ATOM     12  C   LIG d   1      -4.243  74.909 115.370  0.00  0.00     0.006 C 
ENDBRANCH   8  11
ENDBRANCH   7   8
ENDBRANCH   1   7
BRANCH   6  13
ATOM     13  N   LIG d   1      -3.224  79.524 115.740  0.00  0.00    -0.311 N 
ATOM     14  C   LIG d   1      -2.819  79.787 116.981  0.00  0.00     0.210 C 
ATOM     15  C   LIG d   1      -3.945  80.031 117.990  0.00  0.00     0.109 C 
ATOM     16  O   LIG d   1      -1.634  79.872 117.335  0.00  0.00    -0.276 OA
ATOM     17  H   LIG d   1      -4.204  79.506 115.534  0.00  0.00     0.149 HD
ENDBRANCH   6  13
BRANCH   5  18
ATOM     18  N   LIG d   1      -2.628  81.442 113.437  0.00  0.00     0.381 N 
ATOM     19  H   LIG d   1      -3.453  81.782 113.890  0.00  0.00    -0.090 HD
ATOM     20  H   LIG d   1      -2.586  81.841 112.516  0.00  0.00    -0.090 HD
ATOM     21  H   LIG d   1      -1.821  81.705 113.959  0.00  0.00    -0.090 HD
ENDBRANCH   5  18
BRANCH   3  22
ATOM     22  C   LIG d   1      -1.338  77.652 110.809  0.00  0.00     0.382 C 
ATOM     23  O   LIG d   1      -1.321  78.410 109.809  0.00  0.00    -0.241 OA
ATOM     24  O   LIG d   1      -1.153  76.429 110.655  0.00  0.00    -0.241 OA
ENDBRANCH   3  22
TORSDOF 7
ENDMDL
MODEL 7
REMARK VINA RESULT:      -4.4      2.567      3.483
REMARK  7 active torsions:
REMARK  status: ('A' for Active; 'I' for Inactive)
REMARK    1  A    between atoms: C_2  and  C_3 
REMARK    2  A    between atoms: C_3  and  O_6 
REMARK    3  A    between atoms: C_3  and  C_4 
REMARK    4  A    between atoms: C_7  and  O_6 
REMARK    5  A    between atoms: C_9  and  C_10 
REMARK    6  A    between atoms: N_15  and  C_14 
REMARK    7  A    between atoms: N_20  and  C_19 
REMARK       I    between atoms: C_22  and  N_20 
ROOT
ATOM      1  C   LIG d   1      -2.569  77.006 117.079  0.00  0.00     0.161 C 
ATOM      2  C   LIG d   1      -3.005  78.112 117.827  0.00  0.00     0.016 C 
ATOM      3  C   LIG d   1      -2.629  79.444 117.538  0.00  0.00     0.038 C 
ATOM      4  C   LIG d   1      -1.907  79.776 116.382  0.00  0.00     0.028 C 
ATOM      5  C   LIG d   1      -1.021  78.644 115.874  0.00  0.00    -0.047 C 
ATOM      6  C   LIG d   1      -1.872  77.359 115.748  0.00  0.00     0.091 C 
ENDROOT
BRANCH   1   7
ATOM      7  O   LIG d   1      -3.673  76.110 116.843  0.00  0.00    -0.368 OA
BRANCH   7   8
ATOM      8  C   LIG d   1      -4.731  76.612 115.990  0.00  0.00     0.119 C 
BRANCH   8   9
ATOM      9  C   LIG d   1      -6.054  76.489 116.771  0.00  0.00     0.028 C 
ATOM     10  C   LIG d   1      -6.571  77.849 117.269  0.00  0.00     0.006 C 
ENDBRANCH   8   9
BRANCH   8  11
ATOM     11  C   LIG d   1      -4.910  75.734 114.748  0.00  0.00     0.028 C 
ATOM     12  C   LIG d   1      -5.382  74.311 115.088  0.00  0.00     0.006 C 
ENDBRANCH   8  11
ENDBRANCH   7   8
ENDBRANCH   1   7
BRANCH   6  13
ATOM     13  N   LIG d   1      -1.064  76.182 115.338  0.00  0.00    -0.311 N 
ATOM     14  C   LIG d   1      -0.931  75.788 114.072  0.00  0.00     0.210 C 
ATOM     15  C   LIG d   1      -0.070  74.538 113.871  0.00  0.00     0.109 C 
ATOM     16  O   LIG d   1      -1.420  76.375 113.095  0.00  0.00    -0.276 OA
ATOM     17  H   LIG d   1      -0.607  75.666 116.065  0.00  0.00     0.149 HD
ENDBRANCH   6  13
BRANCH   5  18
ATOM     18  N   LIG d   1      -0.435  79.077 114.592  0.00  0.00     0.381 N 
ATOM     19  H   LIG d   1      -1.162  79.240 113.925  0.00  0.00    -0.090 HD
ATOM     20  H   LIG d   1       0.156  78.344 114.241  0.00  0.00    -0.090 HD
ATOM     21  H   LIG d   1       0.098  79.908 114.724  0.00  0.00    -0.090 HD
ENDBRANCH   5  18
BRANCH   3  22
ATOM     22  C   LIG d   1      -2.941  80.456 118.433  0.00  0.00     0.382 C 
ATOM     23  O   LIG d   1      -2.025  81.137 118.954  0.00  0.00    -0.241 OA
ATOM     24  O   LIG d   1      -4.125  80.668 118.759  0.00  0.00    -0.241 OA
ENDBRANCH   3  22
TORSDOF 7
ENDMDL
MODEL 8
REMARK VINA RESULT:      -4.3      2.733      5.466
REMARK  7 active torsions:
REMARK  status: ('A' for Active; 'I' for Inactive)
REMARK    1  A    between atoms: C_2  and  C_3 
REMARK    2  A    between atoms: C_3  and  O_6 
REMARK    3  A    between atoms: C_3  and  C_4 
REMARK    4  A    between atoms: C_7  and  O_6 
REMARK    5  A    between atoms: C_9  and  C_10 
REMARK    6  A    between atoms: N_15  and  C_14 
REMARK    7  A    between atoms: N_20  and  C_19 
REMARK       I    between atoms: C_22  and  N_20 
ROOT
ATOM      1  C   LIG d   1      -2.940  77.306 116.875  0.00  0.00     0.161 C 
ATOM      2  C   LIG d   1      -4.003  77.938 117.541  0.00  0.00     0.016 C 
ATOM      3  C   LIG d   1      -5.362  77.617 117.318  0.00  0.00     0.038 C 
ATOM      4  C   LIG d   1      -5.746  76.529 116.520  0.00  0.00     0.028 C 
ATOM      5  C   LIG d   1      -4.730  76.186 115.435  0.00  0.00    -0.047 C 
ATOM      6  C   LIG d   1      -3.334  76.041 116.083  0.00  0.00     0.091 C 
ENDROOT
BRANCH   1   7
ATOM      7  O   LIG d   1      -1.888  77.002 117.812  0.00  0.00    -0.368 OA
BRANCH   7   8
ATOM      8  C   LIG d   1      -0.867  78.018 117.975  0.00  0.00     0.119 C 
BRANCH   8   9
ATOM      9  C   LIG d   1      -0.447  78.482 116.567  0.00  0.00     0.028 C 
ATOM     10  C   LIG d   1      -0.448  80.014 116.429  0.00  0.00     0.006 C 
ENDBRANCH   8   9
BRANCH   8  11
ATOM     11  C   LIG d   1       0.401  77.437 118.606  0.00  0.00     0.028 C 
ATOM     12  C   LIG d   1       1.338  76.789 117.574  0.00  0.00     0.006 C 
ENDBRANCH   8  11
ENDBRANCH   7   8
ENDBRANCH   1   7
BRANCH   6  13
ATOM     13  N   LIG d   1      -2.267  75.788 115.080  0.00  0.00    -0.311 N 
ATOM     14  C   LIG d   1      -1.280  74.913 115.264  0.00  0.00     0.210 C 
ATOM     15  C   LIG d   1      -0.274  74.821 114.113  0.00  0.00     0.109 C 
ATOM     16  O   LIG d   1      -1.161  74.181 116.258  0.00  0.00    -0.276 OA
ATOM     17  H   LIG d   1      -2.305  76.317 114.230  0.00  0.00     0.149 HD
ENDBRANCH   6  13
BRANCH   5  18
ATOM     18  N   LIG d   1      -5.189  74.953 114.769  0.00  0.00     0.381 N 
ATOM     19  H   LIG d   1      -6.189  74.925 114.759  0.00  0.00    -0.090 HD
ATOM     20  H   LIG d   1      -4.857  74.159 115.289  0.00  0.00    -0.090 HD
ATOM     21  H   LIG d   1      -4.840  74.918 113.837  0.00  0.00    -0.090 HD
ENDBRANCH   5  18
BRANCH   3  22
ATOM     22  C   LIG d   1      -6.355  78.414 117.867  0.00  0.00     0.382 C 
ATOM     23  O   LIG d   1      -6.834  78.133 118.992  0.00  0.00    -0.241 OA
ATOM     24  O   LIG d   1      -6.809  79.385 117.232  0.00  0.00    -0.241 OA
ENDBRANCH   3  22
TORSDOF 7
ENDMDL
MODEL 9
REMARK VINA RESULT:      -4.2      2.463      3.579
REMARK  7 active torsions:
REMARK  status: ('A' for Active; 'I' for Inactive)
REMARK    1  A    between atoms: C_2  and  C_3 
REMARK    2  A    between atoms: C_3  and  O_6 
REMARK    3  A    between atoms: C_3  and  C_4 
REMARK    4  A    between atoms: C_7  and  O_6 
REMARK    5  A    between atoms: C_9  and  C_10 
REMARK    6  A    between atoms: N_15  and  C_14 
REMARK    7  A    between atoms: N_20  and  C_19 
REMARK       I    between atoms: C_22  and  N_20 
ROOT
ATOM      1  C   LIG d   1      -1.894  77.336 114.991  0.00  0.00     0.161 C 
ATOM      2  C   LIG d   1      -2.235  77.651 116.318  0.00  0.00     0.016 C 
ATOM      3  C   LIG d   1      -2.629  78.943 116.734  0.00  0.00     0.038 C 
ATOM      4  C   LIG d   1      -2.858  79.980 115.817  0.00  0.00     0.028 C 
ATOM      5  C   LIG d   1      -2.042  79.846 114.536  0.00  0.00    -0.047 C 
ATOM      6  C   LIG d   1      -2.245  78.427 113.958  0.00  0.00     0.091 C 
ENDROOT
BRANCH   1   7
ATOM      7  O   LIG d   1      -2.495  76.080 114.618  0.00  0.00    -0.368 OA
BRANCH   7   8
ATOM      8  C   LIG d   1      -1.666  74.903 114.782  0.00  0.00     0.119 C 
BRANCH   8   9
ATOM      9  C   LIG d   1      -1.675  74.535 116.278  0.00  0.00     0.028 C 
ATOM     10  C   LIG d   1      -0.262  74.514 116.886  0.00  0.00     0.006 C 
ENDBRANCH   8   9
BRANCH   8  11
ATOM     11  C   LIG d   1      -0.202  75.202 114.447  0.00  0.00     0.028 C 
ATOM     12  C   LIG d   1       0.324  74.362 113.272  0.00  0.00     0.006 C 
ENDBRANCH   8  11
ENDBRANCH   7   8
ENDBRANCH   1   7
BRANCH   6  13
ATOM     13  N   LIG d   1      -1.416  78.183 112.749  0.00  0.00    -0.311 N 
ATOM     14  C   LIG d   1      -1.929  77.896 111.553  0.00  0.00     0.210 C 
ATOM     15  C   LIG d   1      -0.897  77.662 110.446  0.00  0.00     0.109 C 
ATOM     16  O   LIG d   1      -3.142  77.845 111.298  0.00  0.00    -0.276 OA
ATOM     17  H   LIG d   1      -0.422  78.236 112.859  0.00  0.00     0.149 HD
ENDBRANCH   6  13
BRANCH   5  18
ATOM     18  N   LIG d   1      -2.480  80.913 113.616  0.00  0.00     0.381 N 
ATOM     19  H   LIG d   1      -3.462  81.070 113.722  0.00  0.00    -0.090 HD
ATOM     20  H   LIG d   1      -2.308  80.617 112.671  0.00  0.00    -0.090 HD
ATOM     21  H   LIG d   1      -1.979  81.753 113.805  0.00  0.00    -0.090 HD
ENDBRANCH   5  18
BRANCH   3  22
ATOM     22  C   LIG d   1      -2.761  79.219 118.087  0.00  0.00     0.382 C 
ATOM     23  O   LIG d   1      -2.585  80.387 118.508  0.00  0.00    -0.241 OA
ATOM     24  O   LIG d   1      -3.010  78.305 118.896  0.00  0.00    -0.241 OA
ENDBRANCH   3  22
TORSDOF 7
ENDMDL
