MODEL 1
REMARK VINA RESULT:      -5.0      0.000      0.000
REMARK  7 active torsions:
REMARK  status: ('A' for Active; 'I' for Inactive)
REMARK    1  A    between atoms: C_2  and  C_3 
REMARK    2  A    between atoms: C_3  and  O_6 
REMARK    3  A    between atoms: C_3  and  C_4 
REMARK    4  A    between atoms: C_7  and  O_6 
REMARK    5  A    between atoms: C_9  and  C_10 
REMARK    6  A    between atoms: N_15  and  C_14 
REMARK    7  A    between atoms: N_20  and  C_19 
REMARK       I    between atoms: C_22  and  N_20 
ROOT
ATOM      1  C   LIG d   1      -1.514  75.795 115.052  0.00  0.00     0.161 C 
ATOM      2  C   LIG d   1      -1.153  75.078 116.205  0.00  0.00     0.016 C 
ATOM      3  C   LIG d   1      -0.621  75.687 117.365  0.00  0.00     0.038 C 
ATOM      4  C   LIG d   1      -0.555  77.081 117.507  0.00  0.00     0.028 C 
ATOM      5  C   LIG d   1      -0.437  77.820 116.178  0.00  0.00    -0.047 C 
ATOM      6  C   LIG d   1      -1.553  77.327 115.229  0.00  0.00     0.091 C 
ENDROOT
BRANCH   1   7
ATOM      7  O   LIG d   1      -2.779  75.316 114.555  0.00  0.00    -0.368 OA
BRANCH   7   8
ATOM      8  C   LIG d   1      -3.929  76.157 114.822  0.00  0.00     0.119 C 
BRANCH   8   9
ATOM      9  C   LIG d   1      -4.654  75.573 116.050  0.00  0.00     0.028 C 
ATOM     10  C   LIG d   1      -4.514  76.467 117.293  0.00  0.00     0.006 C 
ENDBRANCH   8   9
BRANCH   8  11
ATOM     11  C   LIG d   1      -4.947  76.088 113.680  0.00  0.00     0.028 C 
ATOM     12  C   LIG d   1      -6.401  76.125 114.175  0.00  0.00     0.006 C 
ENDBRANCH   8  11
ENDBRANCH   7   8
ENDBRANCH   1   7
BRANCH   6  13
ATOM     13  N   LIG d   1      -1.459  77.939 113.878  0.00  0.00    -0.311 N 
ATOM     14  C   LIG d   1      -2.196  78.979 113.491  0.00  0.00     0.210 C 
ATOM     15  C   LIG d   1      -1.956  79.441 112.050  0.00  0.00     0.109 C 
ATOM     16  O   LIG d   1      -3.002  79.583 114.214  0.00  0.00    -0.276 OA
ATOM     17  H   LIG d   1      -0.807  77.531 113.237  0.00  0.00     0.149 HD
ENDBRANCH   6  13
BRANCH   5  18
ATOM     18  N   LIG d   1      -0.517  79.265 116.464  0.00  0.00     0.381 N 
ATOM     19  H   LIG d   1       0.223  79.529 117.083  0.00  0.00    -0.090 HD
ATOM     20  H   LIG d   1      -1.392  79.459 116.917  0.00  0.00    -0.090 HD
ATOM     21  H   LIG d   1      -0.451  79.784 115.616  0.00  0.00    -0.090 HD
ENDBRANCH   5  18
BRANCH   3  22
ATOM     22  C   LIG d   1      -0.111  74.896 118.383  0.00  0.00     0.382 C 
ATOM     23  O   LIG d   1       1.125  74.863 118.592  0.00  0.00    -0.241 OA
ATOM     24  O   LIG d   1      -0.868  74.180 119.067  0.00  0.00    -0.241 OA
ENDBRANCH   3  22
TORSDOF 7
ENDMDL
MODEL 2
REMARK VINA RESULT:      -4.9      3.577      5.769
REMARK  7 active torsions:
REMARK  status: ('A' for Active; 'I' for Inactive)
REMARK    1  A    between atoms: C_2  and  C_3 
REMARK    2  A    between atoms: C_3  and  O_6 
REMARK    3  A    between atoms: C_3  and  C_4 
REMARK    4  A    between atoms: C_7  and  O_6 
REMARK    5  A    between atoms: C_9  and  C_10 
REMARK    6  A    between atoms: N_15  and  C_14 
REMARK    7  A    between atoms: N_20  and  C_19 
REMARK       I    between atoms: C_22  and  N_20 
ROOT
ATOM      1  C   LIG d   1      -5.790  77.837 116.837  0.00  0.00     0.161 C 
ATOM      2  C   LIG d   1      -6.808  78.781 117.047  0.00  0.00     0.016 C 
ATOM      3  C   LIG d   1      -6.676  79.889 117.916  0.00  0.00     0.038 C 
ATOM      4  C   LIG d   1      -5.453  80.213 118.523  0.00  0.00     0.028 C 
ATOM      5  C   LIG d   1      -4.545  79.007 118.737  0.00  0.00    -0.047 C 
ATOM      6  C   LIG d   1      -4.411  78.236 117.404  0.00  0.00     0.091 C 
ENDROOT
BRANCH   1   7
ATOM      7  O   LIG d   1      -5.685  77.536 115.431  0.00  0.00    -0.368 OA
BRANCH   7   8
ATOM      8  C   LIG d   1      -6.412  76.369 114.974  0.00  0.00     0.119 C 
BRANCH   8   9
ATOM      9  C   LIG d   1      -6.426  75.350 116.129  0.00  0.00     0.028 C 
ATOM     10  C   LIG d   1      -7.853  74.965 116.555  0.00  0.00     0.006 C 
ENDBRANCH   8   9
BRANCH   8  11
ATOM     11  C   LIG d   1      -5.679  75.671 113.825  0.00  0.00     0.028 C 
ATOM     12  C   LIG d   1      -4.771  74.528 114.305  0.00  0.00     0.006 C 
ENDBRANCH   8  11
ENDBRANCH   7   8
ENDBRANCH   1   7
BRANCH   6  13
ATOM     13  N   LIG d   1      -3.607  76.994 117.545  0.00  0.00    -0.311 N 
ATOM     14  C   LIG d   1      -2.673  76.622 116.671  0.00  0.00     0.210 C 
ATOM     15  C   LIG d   1      -1.975  75.298 116.995  0.00  0.00     0.109 C 
ATOM     16  O   LIG d   1      -2.333  77.280 115.676  0.00  0.00    -0.276 OA
ATOM     17  H   LIG d   1      -3.795  76.417 118.341  0.00  0.00     0.149 HD
ENDBRANCH   6  13
BRANCH   5  18
ATOM     18  N   LIG d   1      -3.254  79.506 119.248  0.00  0.00     0.381 N 
ATOM     19  H   LIG d   1      -2.831  80.107 118.569  0.00  0.00    -0.090 HD
ATOM     20  H   LIG d   1      -2.641  78.725 119.403  0.00  0.00    -0.090 HD
ATOM     21  H   LIG d   1      -3.394  80.002 120.101  0.00  0.00    -0.090 HD
ENDBRANCH   5  18
BRANCH   3  22
ATOM     22  C   LIG d   1      -7.786  80.663 118.218  0.00  0.00     0.382 C 
ATOM     23  O   LIG d   1      -8.386  81.280 117.305  0.00  0.00    -0.241 OA
ATOM     24  O   LIG d   1      -8.168  80.787 119.397  0.00  0.00    -0.241 OA
ENDBRANCH   3  22
TORSDOF 7
ENDMDL
MODEL 3
REMARK VINA RESULT:      -4.8      2.075      4.854
REMARK  7 active torsions:
REMARK  status: ('A' for Active; 'I' for Inactive)
REMARK    1  A    between atoms: C_2  and  C_3 
REMARK    2  A    between atoms: C_3  and  O_6 
REMARK    3  A    between atoms: C_3  and  C_4 
REMARK    4  A    between atoms: C_7  and  O_6 
REMARK    5  A    between atoms: C_9  and  C_10 
REMARK    6  A    between atoms: N_15  and  C_14 
REMARK    7  A    between atoms: N_20  and  C_19 
REMARK       I    between atoms: C_22  and  N_20 
ROOT
ATOM      1  C   LIG d   1      -3.139  77.294 116.314  0.00  0.00     0.161 C 
ATOM      2  C   LIG d   1      -3.213  78.241 115.279  0.00  0.00     0.016 C 
ATOM      3  C   LIG d   1      -2.420  78.181 114.110  0.00  0.00     0.038 C 
ATOM      4  C   LIG d   1      -1.601  77.078 113.826  0.00  0.00     0.028 C 
ATOM      5  C   LIG d   1      -1.115  76.347 115.073  0.00  0.00    -0.047 C 
ATOM      6  C   LIG d   1      -2.331  76.024 115.971  0.00  0.00     0.091 C 
ENDROOT
BRANCH   1   7
ATOM      7  O   LIG d   1      -4.466  76.941 116.750  0.00  0.00    -0.368 OA
BRANCH   7   8
ATOM      8  C   LIG d   1      -5.520  77.085 115.766  0.00  0.00     0.119 C 
BRANCH   8   9
ATOM      9  C   LIG d   1      -6.806  77.476 116.519  0.00  0.00     0.028 C 
ATOM     10  C   LIG d   1      -7.936  76.451 116.321  0.00  0.00     0.006 C 
ENDBRANCH   8   9
BRANCH   8  11
ATOM     11  C   LIG d   1      -5.836  75.748 115.089  0.00  0.00     0.028 C 
ATOM     12  C   LIG d   1      -5.307  75.670 113.648  0.00  0.00     0.006 C 
ENDBRANCH   8  11
ENDBRANCH   7   8
ENDBRANCH   1   7
BRANCH   6  13
ATOM     13  N   LIG d   1      -1.935  75.384 117.252  0.00  0.00    -0.311 N 
ATOM     14  C   LIG d   1      -1.099  75.943 118.124  0.00  0.00     0.210 C 
ATOM     15  C   LIG d   1      -0.809  75.104 119.373  0.00  0.00     0.109 C 
ATOM     16  O   LIG d   1      -0.594  77.069 117.997  0.00  0.00    -0.276 OA
ATOM     17  H   LIG d   1      -2.323  74.482 117.450  0.00  0.00     0.149 HD
ENDBRANCH   6  13
BRANCH   5  18
ATOM     18  N   LIG d   1      -0.388  75.143 114.629  0.00  0.00     0.381 N 
ATOM     19  H   LIG d   1      -0.961  74.334 114.761  0.00  0.00    -0.090 HD
ATOM     20  H   LIG d   1       0.440  75.038 115.189  0.00  0.00    -0.090 HD
ATOM     21  H   LIG d   1      -0.140  75.230 113.668  0.00  0.00    -0.090 HD
ENDBRANCH   5  18
BRANCH   3  22
ATOM     22  C   LIG d   1      -2.413  79.252 113.229  0.00  0.00     0.382 C 
ATOM     23  O   LIG d   1      -3.030  80.305 113.518  0.00  0.00    -0.241 OA
ATOM     24  O   LIG d   1      -1.833  79.162 112.131  0.00  0.00    -0.241 OA
ENDBRANCH   3  22
TORSDOF 7
ENDMDL
MODEL 4
REMARK VINA RESULT:      -4.8      1.472      4.917
REMARK  7 active torsions:
REMARK  status: ('A' for Active; 'I' for Inactive)
REMARK    1  A    between atoms: C_2  and  C_3 
REMARK    2  A    between atoms: C_3  and  O_6 
REMARK    3  A    between atoms: C_3  and  C_4 
REMARK    4  A    between atoms: C_7  and  O_6 
REMARK    5  A    between atoms: C_9  and  C_10 
REMARK    6  A    between atoms: N_15  and  C_14 
REMARK    7  A    between atoms: N_20  and  C_19 
REMARK       I    between atoms: C_22  and  N_20 
ROOT
ATOM      1  C   LIG d   1      -2.853  77.077 115.362  0.00  0.00     0.161 C 
ATOM      2  C   LIG d   1      -2.998  77.883 114.221  0.00  0.00     0.016 C 
ATOM      3  C   LIG d   1      -2.000  78.777 113.767  0.00  0.00     0.038 C 
ATOM      4  C   LIG d   1      -0.721  78.814 114.343  0.00  0.00     0.028 C 
ATOM      5  C   LIG d   1      -0.702  78.383 115.805  0.00  0.00    -0.047 C 
ATOM      6  C   LIG d   1      -1.422  77.022 115.937  0.00  0.00     0.091 C 
ENDROOT
BRANCH   1   7
ATOM      7  O   LIG d   1      -3.333  75.746 115.083  0.00  0.00    -0.368 OA
BRANCH   7   8
ATOM      8  C   LIG d   1      -4.511  75.328 115.815  0.00  0.00     0.119 C 
BRANCH   8   9
ATOM      9  C   LIG d   1      -5.557  74.865 114.782  0.00  0.00     0.028 C 
ATOM     10  C   LIG d   1      -6.138  76.035 113.970  0.00  0.00     0.006 C 
ENDBRANCH   8   9
BRANCH   8  11
ATOM     11  C   LIG d   1      -5.160  76.506 116.548  0.00  0.00     0.028 C 
ATOM     12  C   LIG d   1      -6.113  76.059 117.668  0.00  0.00     0.006 C 
ENDBRANCH   8  11
ENDBRANCH   7   8
ENDBRANCH   1   7
BRANCH   6  13
ATOM     13  N   LIG d   1      -1.523  76.568 117.349  0.00  0.00    -0.311 N 
ATOM     14  C   LIG d   1      -0.631  75.764 117.926  0.00  0.00     0.210 C 
ATOM     15  C   LIG d   1      -0.934  75.402 119.383  0.00  0.00     0.109 C 
ATOM     16  O   LIG d   1       0.399  75.343 117.379  0.00  0.00    -0.276 OA
ATOM     17  H   LIG d   1      -2.312  76.888 117.876  0.00  0.00     0.149 HD
ENDBRANCH   6  13
BRANCH   5  18
ATOM     18  N   LIG d   1       0.707  78.336 116.238  0.00  0.00     0.381 N 
ATOM     19  H   LIG d   1       1.202  79.123 115.867  0.00  0.00    -0.090 HD
ATOM     20  H   LIG d   1       1.130  77.499 115.877  0.00  0.00    -0.090 HD
ATOM     21  H   LIG d   1       0.759  78.340 117.233  0.00  0.00    -0.090 HD
ENDBRANCH   5  18
BRANCH   3  22
ATOM     22  C   LIG d   1      -2.292  79.675 112.752  0.00  0.00     0.382 C 
ATOM     23  O   LIG d   1      -2.984  80.693 112.995  0.00  0.00    -0.241 OA
ATOM     24  O   LIG d   1      -1.910  79.457 111.587  0.00  0.00    -0.241 OA
ENDBRANCH   3  22
TORSDOF 7
ENDMDL
MODEL 5
REMARK VINA RESULT:      -4.8      3.110      5.380
REMARK  7 active torsions:
REMARK  status: ('A' for Active; 'I' for Inactive)
REMARK    1  A    between atoms: C_2  and  C_3 
REMARK    2  A    between atoms: C_3  and  O_6 
REMARK    3  A    between atoms: C_3  and  C_4 
REMARK    4  A    between atoms: C_7  and  O_6 
REMARK    5  A    between atoms: C_9  and  C_10 
REMARK    6  A    between atoms: N_15  and  C_14 
REMARK    7  A    between atoms: N_20  and  C_19 
REMARK       I    between atoms: C_22  and  N_20 
ROOT
ATOM      1  C   LIG d   1      -4.410  75.837 116.470  0.00  0.00     0.161 C 
ATOM      2  C   LIG d   1      -3.159  76.237 115.971  0.00  0.00     0.016 C 
ATOM      3  C   LIG d   1      -2.939  76.602 114.623  0.00  0.00     0.038 C 
ATOM      4  C   LIG d   1      -3.995  76.738 113.710  0.00  0.00     0.028 C 
ATOM      5  C   LIG d   1      -5.197  75.859 114.039  0.00  0.00    -0.047 C 
ATOM      6  C   LIG d   1      -5.596  76.086 115.514  0.00  0.00     0.091 C 
ENDROOT
BRANCH   1   7
ATOM      7  O   LIG d   1      -4.652  76.465 117.744  0.00  0.00    -0.368 OA
BRANCH   7   8
ATOM      8  C   LIG d   1      -3.772  77.563 118.090  0.00  0.00     0.119 C 
BRANCH   8   9
ATOM      9  C   LIG d   1      -3.132  77.231 119.452  0.00  0.00     0.028 C 
ATOM     10  C   LIG d   1      -1.794  76.488 119.306  0.00  0.00     0.006 C 
ENDBRANCH   8   9
BRANCH   8  11
ATOM     11  C   LIG d   1      -4.559  78.858 118.317  0.00  0.00     0.028 C 
ATOM     12  C   LIG d   1      -5.257  79.361 117.043  0.00  0.00     0.006 C 
ENDBRANCH   8  11
ENDBRANCH   7   8
ENDBRANCH   1   7
BRANCH   6  13
ATOM     13  N   LIG d   1      -6.711  75.201 115.942  0.00  0.00    -0.311 N 
ATOM     14  C   LIG d   1      -7.871  75.659 116.412  0.00  0.00     0.210 C 
ATOM     15  C   LIG d   1      -8.877  74.576 116.815  0.00  0.00     0.109 C 
ATOM     16  O   LIG d   1      -8.174  76.858 116.502  0.00  0.00    -0.276 OA
ATOM     17  H   LIG d   1      -6.563  74.214 115.873  0.00  0.00     0.149 HD
ENDBRANCH   6  13
BRANCH   5  18
ATOM     18  N   LIG d   1      -6.273  76.201 113.089  0.00  0.00     0.381 N 
ATOM     19  H   LIG d   1      -6.048  75.848 112.181  0.00  0.00    -0.090 HD
ATOM     20  H   LIG d   1      -6.347  77.202 113.029  0.00  0.00    -0.090 HD
ATOM     21  H   LIG d   1      -7.137  75.815 113.399  0.00  0.00    -0.090 HD
ENDBRANCH   5  18
BRANCH   3  22
ATOM     22  C   LIG d   1      -1.644  76.797 114.167  0.00  0.00     0.382 C 
ATOM     23  O   LIG d   1      -0.930  75.810 113.867  0.00  0.00    -0.241 OA
ATOM     24  O   LIG d   1      -1.166  77.945 114.093  0.00  0.00    -0.241 OA
ENDBRANCH   3  22
TORSDOF 7
ENDMDL
MODEL 6
REMARK VINA RESULT:      -4.8      3.606      5.617
REMARK  7 active torsions:
REMARK  status: ('A' for Active; 'I' for Inactive)
REMARK    1  A    between atoms: C_2  and  C_3 
REMARK    2  A    between atoms: C_3  and  O_6 
REMARK    3  A    between atoms: C_3  and  C_4 
REMARK    4  A    between atoms: C_7  and  O_6 
REMARK    5  A    between atoms: C_9  and  C_10 
REMARK    6  A    between atoms: N_15  and  C_14 
REMARK    7  A    between atoms: N_20  and  C_19 
REMARK       I    between atoms: C_22  and  N_20 
ROOT
ATOM      1  C   LIG d   1      -4.802  77.155 117.379  0.00  0.00     0.161 C 
ATOM      2  C   LIG d   1      -3.629  77.851 117.043  0.00  0.00     0.016 C 
ATOM      3  C   LIG d   1      -3.034  77.800 115.761  0.00  0.00     0.038 C 
ATOM      4  C   LIG d   1      -3.660  77.165 114.678  0.00  0.00     0.028 C 
ATOM      5  C   LIG d   1      -4.587  76.029 115.096  0.00  0.00    -0.047 C 
ATOM      6  C   LIG d   1      -5.559  76.547 116.180  0.00  0.00     0.091 C 
ENDROOT
BRANCH   1   7
ATOM      7  O   LIG d   1      -5.676  78.011 118.142  0.00  0.00    -0.368 OA
BRANCH   7   8
ATOM      8  C   LIG d   1      -6.466  78.957 117.381  0.00  0.00     0.119 C 
BRANCH   8   9
ATOM      9  C   LIG d   1      -6.044  80.372 117.822  0.00  0.00     0.028 C 
ATOM     10  C   LIG d   1      -7.189  81.391 117.694  0.00  0.00     0.006 C 
ENDBRANCH   8   9
BRANCH   8  11
ATOM     11  C   LIG d   1      -7.953  78.849 117.729  0.00  0.00     0.028 C 
ATOM     12  C   LIG d   1      -8.212  77.987 118.975  0.00  0.00     0.006 C 
ENDBRANCH   8  11
ENDBRANCH   7   8
ENDBRANCH   1   7
BRANCH   6  13
ATOM     13  N   LIG d   1      -6.446  75.476 116.705  0.00  0.00    -0.311 N 
ATOM     14  C   LIG d   1      -7.722  75.341 116.349  0.00  0.00     0.210 C 
ATOM     15  C   LIG d   1      -8.462  74.182 117.024  0.00  0.00     0.109 C 
ATOM     16  O   LIG d   1      -8.303  76.051 115.515  0.00  0.00    -0.276 OA
ATOM     17  H   LIG d   1      -6.047  74.836 117.364  0.00  0.00     0.149 HD
ENDBRANCH   6  13
BRANCH   5  18
ATOM     18  N   LIG d   1      -5.277  75.548 113.884  0.00  0.00     0.381 N 
ATOM     19  H   LIG d   1      -5.319  76.281 113.205  0.00  0.00    -0.090 HD
ATOM     20  H   LIG d   1      -6.216  75.287 114.126  0.00  0.00    -0.090 HD
ATOM     21  H   LIG d   1      -4.793  74.763 113.505  0.00  0.00    -0.090 HD
ENDBRANCH   5  18
BRANCH   3  22
ATOM     22  C   LIG d   1      -1.779  78.356 115.563  0.00  0.00     0.382 C 
ATOM     23  O   LIG d   1      -1.148  78.117 114.505  0.00  0.00    -0.241 OA
ATOM     24  O   LIG d   1      -1.252  79.057 116.448  0.00  0.00    -0.241 OA
ENDBRANCH   3  22
TORSDOF 7
ENDMDL
MODEL 7
REMARK VINA RESULT:      -4.7      2.604      4.369
REMARK  7 active torsions:
REMARK  status: ('A' for Active; 'I' for Inactive)
REMARK    1  A    between atoms: C_2  and  C_3 
REMARK    2  A    between atoms: C_3  and  O_6 
REMARK    3  A    between atoms: C_3  and  C_4 
REMARK    4  A    between atoms: C_7  and  O_6 
REMARK    5  A    between atoms: C_9  and  C_10 
REMARK    6  A    between atoms: N_15  and  C_14 
REMARK    7  A    between atoms: N_20  and  C_19 
REMARK       I    between atoms: C_22  and  N_20 
ROOT
ATOM      1  C   LIG d   1      -3.705  76.185 117.023  0.00  0.00     0.161 C 
ATOM      2  C   LIG d   1      -4.713  77.108 117.347  0.00  0.00     0.016 C 
ATOM      3  C   LIG d   1      -4.546  78.509 117.248  0.00  0.00     0.038 C 
ATOM      4  C   LIG d   1      -3.403  79.081 116.670  0.00  0.00     0.028 C 
ATOM      5  C   LIG d   1      -2.160  78.207 116.795  0.00  0.00    -0.047 C 
ATOM      6  C   LIG d   1      -2.491  76.786 116.285  0.00  0.00     0.091 C 
ENDROOT
BRANCH   1   7
ATOM      7  O   LIG d   1      -4.266  75.097 116.261  0.00  0.00    -0.368 OA
BRANCH   7   8
ATOM      8  C   LIG d   1      -5.539  75.357 115.621  0.00  0.00     0.119 C 
BRANCH   8   9
ATOM      9  C   LIG d   1      -6.475  74.180 115.958  0.00  0.00     0.028 C 
ATOM     10  C   LIG d   1      -7.399  74.487 117.148  0.00  0.00     0.006 C 
ENDBRANCH   8   9
BRANCH   8  11
ATOM     11  C   LIG d   1      -5.409  75.348 114.095  0.00  0.00     0.028 C 
ATOM     12  C   LIG d   1      -6.428  76.269 113.405  0.00  0.00     0.006 C 
ENDBRANCH   8  11
ENDBRANCH   7   8
ENDBRANCH   1   7
BRANCH   6  13
ATOM     13  N   LIG d   1      -1.352  75.845 116.450  0.00  0.00    -0.311 N 
ATOM     14  C   LIG d   1      -0.851  75.119 115.453  0.00  0.00     0.210 C 
ATOM     15  C   LIG d   1       0.309  74.197 115.844  0.00  0.00     0.109 C 
ATOM     16  O   LIG d   1      -1.235  75.174 114.275  0.00  0.00    -0.276 OA
ATOM     17  H   LIG d   1      -0.959  75.761 117.367  0.00  0.00     0.149 HD
ENDBRANCH   6  13
BRANCH   5  18
ATOM     18  N   LIG d   1      -1.079  78.859 116.032  0.00  0.00     0.381 N 
ATOM     19  H   LIG d   1      -0.644  78.193 115.425  0.00  0.00    -0.090 HD
ATOM     20  H   LIG d   1      -0.386  79.199 116.675  0.00  0.00    -0.090 HD
ATOM     21  H   LIG d   1      -1.446  79.616 115.498  0.00  0.00    -0.090 HD
ENDBRANCH   5  18
BRANCH   3  22
ATOM     22  C   LIG d   1      -5.515  79.354 117.768  0.00  0.00     0.382 C 
ATOM     23  O   LIG d   1      -6.083  80.189 117.024  0.00  0.00    -0.241 OA
ATOM     24  O   LIG d   1      -5.795  79.323 118.982  0.00  0.00    -0.241 OA
ENDBRANCH   3  22
TORSDOF 7
ENDMDL
MODEL 8
REMARK VINA RESULT:      -4.7      3.610      5.818
REMARK  7 active torsions:
REMARK  status: ('A' for Active; 'I' for Inactive)
REMARK    1  A    between atoms: C_2  and  C_3 
REMARK    2  A    between atoms: C_3  and  O_6 
REMARK    3  A    between atoms: C_3  and  C_4 
REMARK    4  A    between atoms: C_7  and  O_6 
REMARK    5  A    between atoms: C_9  and  C_10 
REMARK    6  A    between atoms: N_15  and  C_14 
REMARK    7  A    between atoms: N_20  and  C_19 
REMARK       I    between atoms: C_22  and  N_20 
ROOT
ATOM      1  C   LIG d   1      -4.948  77.586 116.380  0.00  0.00     0.161 C 
ATOM      2  C   LIG d   1      -3.955  78.361 115.759  0.00  0.00     0.016 C 
ATOM      3  C   LIG d   1      -3.234  77.934 114.620  0.00  0.00     0.038 C 
ATOM      4  C   LIG d   1      -3.565  76.757 113.931  0.00  0.00     0.028 C 
ATOM      5  C   LIG d   1      -4.221  75.702 114.815  0.00  0.00    -0.047 C 
ATOM      6  C   LIG d   1      -5.400  76.348 115.577  0.00  0.00     0.091 C 
ENDROOT
BRANCH   1   7
ATOM      7  O   LIG d   1      -6.083  78.414 116.704  0.00  0.00    -0.368 OA
BRANCH   7   8
ATOM      8  C   LIG d   1      -5.945  79.253 117.878  0.00  0.00     0.119 C 
BRANCH   8   9
ATOM      9  C   LIG d   1      -5.786  78.323 119.096  0.00  0.00     0.028 C 
ATOM     10  C   LIG d   1      -7.086  77.576 119.438  0.00  0.00     0.006 C 
ENDBRANCH   8   9
BRANCH   8  11
ATOM     11  C   LIG d   1      -7.223  80.054 118.143  0.00  0.00     0.028 C 
ATOM     12  C   LIG d   1      -7.042  81.561 117.901  0.00  0.00     0.006 C 
ENDBRANCH   8  11
ENDBRANCH   7   8
ENDBRANCH   1   7
BRANCH   6  13
ATOM     13  N   LIG d   1      -6.045  75.406 116.528  0.00  0.00    -0.311 N 
ATOM     14  C   LIG d   1      -7.356  75.173 116.554  0.00  0.00     0.210 C 
ATOM     15  C   LIG d   1      -7.816  74.180 117.627  0.00  0.00     0.109 C 
ATOM     16  O   LIG d   1      -8.178  75.669 115.769  0.00  0.00    -0.276 OA
ATOM     17  H   LIG d   1      -5.448  74.935 117.180  0.00  0.00     0.149 HD
ENDBRANCH   6  13
BRANCH   5  18
ATOM     18  N   LIG d   1      -4.637  74.587 113.943  0.00  0.00     0.381 N 
ATOM     19  H   LIG d   1      -5.040  74.947 113.101  0.00  0.00    -0.090 HD
ATOM     20  H   LIG d   1      -5.336  74.045 114.420  0.00  0.00    -0.090 HD
ATOM     21  H   LIG d   1      -3.853  74.013 113.726  0.00  0.00    -0.090 HD
ENDBRANCH   5  18
BRANCH   3  22
ATOM     22  C   LIG d   1      -2.142  78.668 114.183  0.00  0.00     0.382 C 
ATOM     23  O   LIG d   1      -0.979  78.235 114.372  0.00  0.00    -0.241 OA
ATOM     24  O   LIG d   1      -2.302  79.778 113.643  0.00  0.00    -0.241 OA
ENDBRANCH   3  22
TORSDOF 7
ENDMDL
MODEL 9
REMARK VINA RESULT:      -4.7      2.803      5.850
REMARK  7 active torsions:
REMARK  status: ('A' for Active; 'I' for Inactive)
REMARK    1  A    between atoms: C_2  and  C_3 
REMARK    2  A    between atoms: C_3  and  O_6 
REMARK    3  A    between atoms: C_3  and  C_4 
REMARK    4  A    between atoms: C_7  and  O_6 
REMARK    5  A    between atoms: C_9  and  C_10 
REMARK    6  A    between atoms: N_15  and  C_14 
REMARK    7  A    between atoms: N_20  and  C_19 
REMARK       I    between atoms: C_22  and  N_20 
ROOT
ATOM      1  C   LIG d   1      -5.527  76.043 115.784  0.00  0.00     0.161 C 
ATOM      2  C   LIG d   1      -6.197  76.123 114.552  0.00  0.00     0.016 C 
ATOM      3  C   LIG d   1      -5.547  76.410 113.330  0.00  0.00     0.038 C 
ATOM      4  C   LIG d   1      -4.149  76.489 113.234  0.00  0.00     0.028 C 
ATOM      5  C   LIG d   1      -3.476  76.915 114.535  0.00  0.00    -0.047 C 
ATOM      6  C   LIG d   1      -3.988  76.016 115.683  0.00  0.00     0.091 C 
ENDROOT
BRANCH   1   7
ATOM      7  O   LIG d   1      -6.001  74.901 116.525  0.00  0.00    -0.368 OA
BRANCH   7   8
ATOM      8  C   LIG d   1      -6.927  75.180 117.604  0.00  0.00     0.119 C 
BRANCH   8   9
ATOM      9  C   LIG d   1      -8.353  75.048 117.036  0.00  0.00     0.028 C 
ATOM     10  C   LIG d   1      -9.060  76.407 116.903  0.00  0.00     0.006 C 
ENDBRANCH   8   9
BRANCH   8  11
ATOM     11  C   LIG d   1      -6.811  76.632 118.076  0.00  0.00     0.028 C 
ATOM     12  C   LIG d   1      -6.431  76.748 119.561  0.00  0.00     0.006 C 
ENDBRANCH   8  11
ENDBRANCH   7   8
ENDBRANCH   1   7
BRANCH   6  13
ATOM     13  N   LIG d   1      -3.443  76.420 117.005  0.00  0.00    -0.311 N 
ATOM     14  C   LIG d   1      -2.333  75.903 117.530  0.00  0.00     0.210 C 
ATOM     15  C   LIG d   1      -1.958  76.445 118.913  0.00  0.00     0.109 C 
ATOM     16  O   LIG d   1      -1.606  75.070 116.968  0.00  0.00    -0.276 OA
ATOM     17  H   LIG d   1      -3.953  77.114 117.516  0.00  0.00     0.149 HD
ENDBRANCH   6  13
BRANCH   5  18
ATOM     18  N   LIG d   1      -2.018  76.822 114.333  0.00  0.00     0.381 N 
ATOM     19  H   LIG d   1      -1.725  77.503 113.661  0.00  0.00    -0.090 HD
ATOM     20  H   LIG d   1      -1.797  75.910 113.974  0.00  0.00    -0.090 HD
ATOM     21  H   LIG d   1      -1.544  76.972 115.196  0.00  0.00    -0.090 HD
ENDBRANCH   5  18
BRANCH   3  22
ATOM     22  C   LIG d   1      -6.300  76.662 112.193  0.00  0.00     0.382 C 
ATOM     23  O   LIG d   1      -5.732  76.805 111.084  0.00  0.00    -0.241 OA
ATOM     24  O   LIG d   1      -7.536  76.792 112.271  0.00  0.00    -0.241 OA
ENDBRANCH   3  22
TORSDOF 7
ENDMDL
