MODEL 1
REMARK VINA RESULT:      -5.4      0.000      0.000
REMARK  7 active torsions:
REMARK  status: ('A' for Active; 'I' for Inactive)
REMARK    1  A    between atoms: C_2  and  C_3 
REMARK    2  A    between atoms: C_3  and  O_6 
REMARK    3  A    between atoms: C_3  and  C_4 
REMARK    4  A    between atoms: C_7  and  O_6 
REMARK    5  A    between atoms: C_9  and  C_10 
REMARK    6  A    between atoms: N_15  and  C_14 
REMARK    7  A    between atoms: N_20  and  C_19 
REMARK       I    between atoms: C_22  and  N_20 
ROOT
ATOM      1  C   LIG d   1      -2.680  78.661 115.379  0.00  0.00     0.161 C 
ATOM      2  C   LIG d   1      -3.031  79.856 114.730  0.00  0.00     0.016 C 
ATOM      3  C   LIG d   1      -2.880  80.059 113.339  0.00  0.00     0.038 C 
ATOM      4  C   LIG d   1      -2.506  79.020 112.474  0.00  0.00     0.028 C 
ATOM      5  C   LIG d   1      -1.659  77.946 113.149  0.00  0.00    -0.047 C 
ATOM      6  C   LIG d   1      -2.375  77.478 114.437  0.00  0.00     0.091 C 
ENDROOT
BRANCH   1   7
ATOM      7  O   LIG d   1      -3.707  78.297 116.323  0.00  0.00    -0.368 OA
BRANCH   7   8
ATOM      8  C   LIG d   1      -4.274  79.383 117.097  0.00  0.00     0.119 C 
BRANCH   8   9
ATOM      9  C   LIG d   1      -3.492  79.464 118.422  0.00  0.00     0.028 C 
ATOM     10  C   LIG d   1      -2.832  80.838 118.630  0.00  0.00     0.006 C 
ENDBRANCH   8   9
BRANCH   8  11
ATOM     11  C   LIG d   1      -5.722  79.084 117.499  0.00  0.00     0.028 C 
ATOM     12  C   LIG d   1      -6.507  80.348 117.881  0.00  0.00     0.006 C 
ENDBRANCH   8  11
ENDBRANCH   7   8
ENDBRANCH   1   7
BRANCH   6  13
ATOM     13  N   LIG d   1      -1.574  76.488 115.202  0.00  0.00    -0.311 N 
ATOM     14  C   LIG d   1      -2.069  75.337 115.655  0.00  0.00     0.210 C 
ATOM     15  C   LIG d   1      -1.078  74.471 116.438  0.00  0.00     0.109 C 
ATOM     16  O   LIG d   1      -3.226  74.938 115.456  0.00  0.00    -0.276 OA
ATOM     17  H   LIG d   1      -0.616  76.717 115.382  0.00  0.00     0.149 HD
ENDBRANCH   6  13
BRANCH   5  18
ATOM     18  N   LIG d   1      -1.458  76.859 112.172  0.00  0.00     0.381 N 
ATOM     19  H   LIG d   1      -1.866  76.013 112.517  0.00  0.00    -0.090 HD
ATOM     20  H   LIG d   1      -0.471  76.707 112.053  0.00  0.00    -0.090 HD
ATOM     21  H   LIG d   1      -1.871  77.104 111.299  0.00  0.00    -0.090 HD
ENDBRANCH   5  18
BRANCH   3  22
ATOM     22  C   LIG d   1      -3.067  81.325 112.805  0.00  0.00     0.382 C 
ATOM     23  O   LIG d   1      -4.130  81.951 113.032  0.00  0.00    -0.241 OA
ATOM     24  O   LIG d   1      -2.203  81.831 112.063  0.00  0.00    -0.241 OA
ENDBRANCH   3  22
TORSDOF 7
ENDMDL
MODEL 2
REMARK VINA RESULT:      -5.3      0.950      1.232
REMARK  7 active torsions:
REMARK  status: ('A' for Active; 'I' for Inactive)
REMARK    1  A    between atoms: C_2  and  C_3 
REMARK    2  A    between atoms: C_3  and  O_6 
REMARK    3  A    between atoms: C_3  and  C_4 
REMARK    4  A    between atoms: C_7  and  O_6 
REMARK    5  A    between atoms: C_9  and  C_10 
REMARK    6  A    between atoms: N_15  and  C_14 
REMARK    7  A    between atoms: N_20  and  C_19 
REMARK       I    between atoms: C_22  and  N_20 
ROOT
ATOM      1  C   LIG d   1      -2.703  78.643 115.353  0.00  0.00     0.161 C 
ATOM      2  C   LIG d   1      -3.052  79.839 114.705  0.00  0.00     0.016 C 
ATOM      3  C   LIG d   1      -2.879  80.053 113.319  0.00  0.00     0.038 C 
ATOM      4  C   LIG d   1      -2.483  79.022 112.454  0.00  0.00     0.028 C 
ATOM      5  C   LIG d   1      -1.639  77.950 113.136  0.00  0.00    -0.047 C 
ATOM      6  C   LIG d   1      -2.373  77.468 114.408  0.00  0.00     0.091 C 
ENDROOT
BRANCH   1   7
ATOM      7  O   LIG d   1      -3.743  78.266 116.277  0.00  0.00    -0.368 OA
BRANCH   7   8
ATOM      8  C   LIG d   1      -3.573  78.710 117.645  0.00  0.00     0.119 C 
BRANCH   8   9
ATOM      9  C   LIG d   1      -3.273  77.465 118.502  0.00  0.00     0.028 C 
ATOM     10  C   LIG d   1      -4.423  76.444 118.477  0.00  0.00     0.006 C 
ENDBRANCH   8   9
BRANCH   8  11
ATOM     11  C   LIG d   1      -4.874  79.287 118.210  0.00  0.00     0.028 C 
ATOM     12  C   LIG d   1      -5.183  80.695 117.677  0.00  0.00     0.006 C 
ENDBRANCH   8  11
ENDBRANCH   7   8
ENDBRANCH   1   7
BRANCH   6  13
ATOM     13  N   LIG d   1      -1.577  76.479 115.181  0.00  0.00    -0.311 N 
ATOM     14  C   LIG d   1      -2.084  75.345 115.661  0.00  0.00     0.210 C 
ATOM     15  C   LIG d   1      -1.096  74.477 116.447  0.00  0.00     0.109 C 
ATOM     16  O   LIG d   1      -3.250  74.960 115.483  0.00  0.00    -0.276 OA
ATOM     17  H   LIG d   1      -0.614  76.697 115.345  0.00  0.00     0.149 HD
ENDBRANCH   6  13
BRANCH   5  18
ATOM     18  N   LIG d   1      -1.412  76.871 112.156  0.00  0.00     0.381 N 
ATOM     19  H   LIG d   1      -0.583  77.060 111.629  0.00  0.00    -0.090 HD
ATOM     20  H   LIG d   1      -2.190  76.840 111.520  0.00  0.00    -0.090 HD
ATOM     21  H   LIG d   1      -1.324  75.997 112.626  0.00  0.00    -0.090 HD
ENDBRANCH   5  18
BRANCH   3  22
ATOM     22  C   LIG d   1      -3.066  81.321 112.790  0.00  0.00     0.382 C 
ATOM     23  O   LIG d   1      -4.130  81.945 113.018  0.00  0.00    -0.241 OA
ATOM     24  O   LIG d   1      -2.203  81.830 112.051  0.00  0.00    -0.241 OA
ENDBRANCH   3  22
TORSDOF 7
ENDMDL
MODEL 3
REMARK VINA RESULT:      -5.1      0.818      1.477
REMARK  7 active torsions:
REMARK  status: ('A' for Active; 'I' for Inactive)
REMARK    1  A    between atoms: C_2  and  C_3 
REMARK    2  A    between atoms: C_3  and  O_6 
REMARK    3  A    between atoms: C_3  and  C_4 
REMARK    4  A    between atoms: C_7  and  O_6 
REMARK    5  A    between atoms: C_9  and  C_10 
REMARK    6  A    between atoms: N_15  and  C_14 
REMARK    7  A    between atoms: N_20  and  C_19 
REMARK       I    between atoms: C_22  and  N_20 
ROOT
ATOM      1  C   LIG d   1      -3.092  78.616 115.426  0.00  0.00     0.161 C 
ATOM      2  C   LIG d   1      -3.248  79.796 114.679  0.00  0.00     0.016 C 
ATOM      3  C   LIG d   1      -2.795  79.940 113.348  0.00  0.00     0.038 C 
ATOM      4  C   LIG d   1      -2.287  78.856 112.617  0.00  0.00     0.028 C 
ATOM      5  C   LIG d   1      -1.647  77.783 113.491  0.00  0.00    -0.047 C 
ATOM      6  C   LIG d   1      -2.639  77.389 114.609  0.00  0.00     0.091 C 
ENDROOT
BRANCH   1   7
ATOM      7  O   LIG d   1      -4.311  78.323 116.137  0.00  0.00    -0.368 OA
BRANCH   7   8
ATOM      8  C   LIG d   1      -4.284  78.547 117.568  0.00  0.00     0.119 C 
BRANCH   8   9
ATOM      9  C   LIG d   1      -5.046  79.858 117.846  0.00  0.00     0.028 C 
ATOM     10  C   LIG d   1      -4.154  80.929 118.497  0.00  0.00     0.006 C 
ENDBRANCH   8   9
BRANCH   8  11
ATOM     11  C   LIG d   1      -2.857  78.795 118.067  0.00  0.00     0.028 C 
ATOM     12  C   LIG d   1      -2.342  77.672 118.981  0.00  0.00     0.006 C 
ENDBRANCH   8  11
ENDBRANCH   7   8
ENDBRANCH   1   7
BRANCH   6  13
ATOM     13  N   LIG d   1      -2.061  76.404 115.560  0.00  0.00    -0.311 N 
ATOM     14  C   LIG d   1      -2.655  75.255 115.878  0.00  0.00     0.210 C 
ATOM     15  C   LIG d   1      -1.897  74.394 116.893  0.00  0.00     0.109 C 
ATOM     16  O   LIG d   1      -3.723  74.853 115.392  0.00  0.00    -0.276 OA
ATOM     17  H   LIG d   1      -1.181  76.636 115.977  0.00  0.00     0.149 HD
ENDBRANCH   6  13
BRANCH   5  18
ATOM     18  N   LIG d   1      -1.284  76.652 112.615  0.00  0.00     0.381 N 
ATOM     19  H   LIG d   1      -0.489  76.174 112.991  0.00  0.00    -0.090 HD
ATOM     20  H   LIG d   1      -1.038  77.009 111.709  0.00  0.00    -0.090 HD
ATOM     21  H   LIG d   1      -2.052  76.023 112.535  0.00  0.00    -0.090 HD
ENDBRANCH   5  18
BRANCH   3  22
ATOM     22  C   LIG d   1      -2.813  81.189 112.747  0.00  0.00     0.382 C 
ATOM     23  O   LIG d   1      -3.883  81.841 112.686  0.00  0.00    -0.241 OA
ATOM     24  O   LIG d   1      -1.781  81.654 112.227  0.00  0.00    -0.241 OA
ENDBRANCH   3  22
TORSDOF 7
ENDMDL
MODEL 4
REMARK VINA RESULT:      -4.8      3.211      4.764
REMARK  7 active torsions:
REMARK  status: ('A' for Active; 'I' for Inactive)
REMARK    1  A    between atoms: C_2  and  C_3 
REMARK    2  A    between atoms: C_3  and  O_6 
REMARK    3  A    between atoms: C_3  and  C_4 
REMARK    4  A    between atoms: C_7  and  O_6 
REMARK    5  A    between atoms: C_9  and  C_10 
REMARK    6  A    between atoms: N_15  and  C_14 
REMARK    7  A    between atoms: N_20  and  C_19 
REMARK       I    between atoms: C_22  and  N_20 
ROOT
ATOM      1  C   LIG d   1      -5.533  77.410 117.349  0.00  0.00     0.161 C 
ATOM      2  C   LIG d   1      -6.188  78.629 117.587  0.00  0.00     0.016 C 
ATOM      3  C   LIG d   1      -5.570  79.890 117.422  0.00  0.00     0.038 C 
ATOM      4  C   LIG d   1      -4.291  80.021 116.860  0.00  0.00     0.028 C 
ATOM      5  C   LIG d   1      -3.405  78.799 117.078  0.00  0.00    -0.047 C 
ATOM      6  C   LIG d   1      -4.174  77.535 116.629  0.00  0.00     0.091 C 
ENDROOT
BRANCH   1   7
ATOM      7  O   LIG d   1      -6.404  76.520 116.624  0.00  0.00    -0.368 OA
BRANCH   7   8
ATOM      8  C   LIG d   1      -6.570  75.194 117.183  0.00  0.00     0.119 C 
BRANCH   8   9
ATOM      9  C   LIG d   1      -6.371  74.181 116.039  0.00  0.00     0.028 C 
ATOM     10  C   LIG d   1      -6.104  74.866 114.688  0.00  0.00     0.006 C 
ENDBRANCH   8   9
BRANCH   8  11
ATOM     11  C   LIG d   1      -8.003  74.972 117.676  0.00  0.00     0.028 C 
ATOM     12  C   LIG d   1      -9.059  75.335 116.621  0.00  0.00     0.006 C 
ENDBRANCH   8  11
ENDBRANCH   7   8
ENDBRANCH   1   7
BRANCH   6  13
ATOM     13  N   LIG d   1      -3.411  76.286 116.887  0.00  0.00    -0.311 N 
ATOM     14  C   LIG d   1      -2.722  75.640 115.947  0.00  0.00     0.210 C 
ATOM     15  C   LIG d   1      -2.024  74.362 116.421  0.00  0.00     0.109 C 
ATOM     16  O   LIG d   1      -2.597  76.023 114.774  0.00  0.00    -0.276 OA
ATOM     17  H   LIG d   1      -3.433  75.922 117.819  0.00  0.00     0.149 HD
ENDBRANCH   6  13
BRANCH   5  18
ATOM     18  N   LIG d   1      -2.156  79.014 116.324  0.00  0.00     0.381 N 
ATOM     19  H   LIG d   1      -2.368  79.224 115.370  0.00  0.00    -0.090 HD
ATOM     20  H   LIG d   1      -1.613  78.169 116.348  0.00  0.00    -0.090 HD
ATOM     21  H   LIG d   1      -1.637  79.762 116.730  0.00  0.00    -0.090 HD
ENDBRANCH   5  18
BRANCH   3  22
ATOM     22  C   LIG d   1      -6.217  81.035 117.860  0.00  0.00     0.382 C 
ATOM     23  O   LIG d   1      -7.286  81.399 117.313  0.00  0.00    -0.241 OA
ATOM     24  O   LIG d   1      -5.722  81.734 118.765  0.00  0.00    -0.241 OA
ENDBRANCH   3  22
TORSDOF 7
ENDMDL
MODEL 5
REMARK VINA RESULT:      -4.7      1.445      1.782
REMARK  7 active torsions:
REMARK  status: ('A' for Active; 'I' for Inactive)
REMARK    1  A    between atoms: C_2  and  C_3 
REMARK    2  A    between atoms: C_3  and  O_6 
REMARK    3  A    between atoms: C_3  and  C_4 
REMARK    4  A    between atoms: C_7  and  O_6 
REMARK    5  A    between atoms: C_9  and  C_10 
REMARK    6  A    between atoms: N_15  and  C_14 
REMARK    7  A    between atoms: N_20  and  C_19 
REMARK       I    between atoms: C_22  and  N_20 
ROOT
ATOM      1  C   LIG d   1      -0.890  78.932 114.852  0.00  0.00     0.161 C 
ATOM      2  C   LIG d   1      -0.974  80.221 114.300  0.00  0.00     0.016 C 
ATOM      3  C   LIG d   1      -1.482  80.481 113.006  0.00  0.00     0.038 C 
ATOM      4  C   LIG d   1      -2.082  79.480 112.230  0.00  0.00     0.028 C 
ATOM      5  C   LIG d   1      -1.562  78.080 112.539  0.00  0.00    -0.047 C 
ATOM      6  C   LIG d   1      -1.643  77.840 114.064  0.00  0.00     0.091 C 
ENDROOT
BRANCH   1   7
ATOM      7  O   LIG d   1      -1.335  78.957 116.223  0.00  0.00    -0.368 OA
BRANCH   7   8
ATOM      8  C   LIG d   1      -2.268  80.008 116.571  0.00  0.00     0.119 C 
BRANCH   8   9
ATOM      9  C   LIG d   1      -1.988  80.413 118.031  0.00  0.00     0.028 C 
ATOM     10  C   LIG d   1      -0.679  81.207 118.178  0.00  0.00     0.006 C 
ENDBRANCH   8   9
BRANCH   8  11
ATOM     11  C   LIG d   1      -3.712  79.497 116.562  0.00  0.00     0.028 C 
ATOM     12  C   LIG d   1      -4.656  80.362 117.412  0.00  0.00     0.006 C 
ENDBRANCH   8  11
ENDBRANCH   7   8
ENDBRANCH   1   7
BRANCH   6  13
ATOM     13  N   LIG d   1      -1.075  76.525 114.461  0.00  0.00    -0.311 N 
ATOM     14  C   LIG d   1      -1.649  75.718 115.351  0.00  0.00     0.210 C 
ATOM     15  C   LIG d   1      -0.887  74.419 115.632  0.00  0.00     0.109 C 
ATOM     16  O   LIG d   1      -2.733  75.939 115.912  0.00  0.00    -0.276 OA
ATOM     17  H   LIG d   1      -0.212  76.252 114.032  0.00  0.00     0.149 HD
ENDBRANCH   6  13
BRANCH   5  18
ATOM     18  N   LIG d   1      -2.369  77.122 111.759  0.00  0.00     0.381 N 
ATOM     19  H   LIG d   1      -2.282  76.207 112.153  0.00  0.00    -0.090 HD
ATOM     20  H   LIG d   1      -2.020  77.095 110.817  0.00  0.00    -0.090 HD
ATOM     21  H   LIG d   1      -3.325  77.403 111.759  0.00  0.00    -0.090 HD
ENDBRANCH   5  18
BRANCH   3  22
ATOM     22  C   LIG d   1      -1.354  81.750 112.461  0.00  0.00     0.382 C 
ATOM     23  O   LIG d   1      -0.227  82.299 112.409  0.00  0.00    -0.241 OA
ATOM     24  O   LIG d   1      -2.358  82.370 112.061  0.00  0.00    -0.241 OA
ENDBRANCH   3  22
TORSDOF 7
ENDMDL
MODEL 6
REMARK VINA RESULT:      -4.6      2.882      5.768
REMARK  7 active torsions:
REMARK  status: ('A' for Active; 'I' for Inactive)
REMARK    1  A    between atoms: C_2  and  C_3 
REMARK    2  A    between atoms: C_3  and  O_6 
REMARK    3  A    between atoms: C_3  and  C_4 
REMARK    4  A    between atoms: C_7  and  O_6 
REMARK    5  A    between atoms: C_9  and  C_10 
REMARK    6  A    between atoms: N_15  and  C_14 
REMARK    7  A    between atoms: N_20  and  C_19 
REMARK       I    between atoms: C_22  and  N_20 
ROOT
ATOM      1  C   LIG d   1      -1.607  75.144 115.713  0.00  0.00     0.161 C 
ATOM      2  C   LIG d   1      -1.075  74.832 116.975  0.00  0.00     0.016 C 
ATOM      3  C   LIG d   1      -0.362  75.759 117.770  0.00  0.00     0.038 C 
ATOM      4  C   LIG d   1      -0.264  77.114 117.420  0.00  0.00     0.028 C 
ATOM      5  C   LIG d   1      -0.351  77.359 115.917  0.00  0.00    -0.047 C 
ATOM      6  C   LIG d   1      -1.606  76.647 115.364  0.00  0.00     0.091 C 
ENDROOT
BRANCH   1   7
ATOM      7  O   LIG d   1      -2.939  74.604 115.598  0.00  0.00    -0.368 OA
BRANCH   7   8
ATOM      8  C   LIG d   1      -4.021  75.492 115.969  0.00  0.00     0.119 C 
BRANCH   8   9
ATOM      9  C   LIG d   1      -4.584  74.998 117.316  0.00  0.00     0.028 C 
ATOM     10  C   LIG d   1      -4.341  76.002 118.456  0.00  0.00     0.006 C 
ENDBRANCH   8   9
BRANCH   8  11
ATOM     11  C   LIG d   1      -5.188  75.391 114.982  0.00  0.00     0.028 C 
ATOM     12  C   LIG d   1      -6.156  74.246 115.318  0.00  0.00     0.006 C 
ENDBRANCH   8  11
ENDBRANCH   7   8
ENDBRANCH   1   7
BRANCH   6  13
ATOM     13  N   LIG d   1      -1.721  76.766 113.887  0.00  0.00    -0.311 N 
ATOM     14  C   LIG d   1      -2.523  77.641 113.283  0.00  0.00     0.210 C 
ATOM     15  C   LIG d   1      -2.505  77.584 111.752  0.00  0.00     0.109 C 
ATOM     16  O   LIG d   1      -3.224  78.480 113.868  0.00  0.00    -0.276 OA
ATOM     17  H   LIG d   1      -1.165  76.144 113.335  0.00  0.00     0.149 HD
ENDBRANCH   6  13
BRANCH   5  18
ATOM     18  N   LIG d   1      -0.374  78.819 115.705  0.00  0.00     0.381 N 
ATOM     19  H   LIG d   1       0.470  79.226 116.055  0.00  0.00    -0.090 HD
ATOM     20  H   LIG d   1      -1.147  79.210 116.213  0.00  0.00    -0.090 HD
ATOM     21  H   LIG d   1      -0.470  79.021 114.734  0.00  0.00    -0.090 HD
ENDBRANCH   5  18
BRANCH   3  22
ATOM     22  C   LIG d   1       0.296  75.324 118.910  0.00  0.00     0.382 C 
ATOM     23  O   LIG d   1       1.161  76.054 119.452  0.00  0.00    -0.241 OA
ATOM     24  O   LIG d   1       0.067  74.193 119.378  0.00  0.00    -0.241 OA
ENDBRANCH   3  22
TORSDOF 7
ENDMDL
MODEL 7
REMARK VINA RESULT:      -4.6      2.901      4.020
REMARK  7 active torsions:
REMARK  status: ('A' for Active; 'I' for Inactive)
REMARK    1  A    between atoms: C_2  and  C_3 
REMARK    2  A    between atoms: C_3  and  O_6 
REMARK    3  A    between atoms: C_3  and  C_4 
REMARK    4  A    between atoms: C_7  and  O_6 
REMARK    5  A    between atoms: C_9  and  C_10 
REMARK    6  A    between atoms: N_15  and  C_14 
REMARK    7  A    between atoms: N_20  and  C_19 
REMARK       I    between atoms: C_22  and  N_20 
ROOT
ATOM      1  C   LIG d   1      -3.187  77.003 115.129  0.00  0.00     0.161 C 
ATOM      2  C   LIG d   1      -3.236  77.048 113.725  0.00  0.00     0.016 C 
ATOM      3  C   LIG d   1      -2.394  77.873 112.944  0.00  0.00     0.038 C 
ATOM      4  C   LIG d   1      -1.338  78.601 113.509  0.00  0.00     0.028 C 
ATOM      5  C   LIG d   1      -1.573  78.978 114.968  0.00  0.00    -0.047 C 
ATOM      6  C   LIG d   1      -1.966  77.707 115.756  0.00  0.00     0.091 C 
ENDROOT
BRANCH   1   7
ATOM      7  O   LIG d   1      -3.262  75.635 115.577  0.00  0.00    -0.368 OA
BRANCH   7   8
ATOM      8  C   LIG d   1      -4.509  75.234 116.195  0.00  0.00     0.119 C 
BRANCH   8   9
ATOM      9  C   LIG d   1      -4.176  74.181 117.269  0.00  0.00     0.028 C 
ATOM     10  C   LIG d   1      -2.755  74.347 117.833  0.00  0.00     0.006 C 
ENDBRANCH   8   9
BRANCH   8  11
ATOM     11  C   LIG d   1      -5.421  74.517 115.194  0.00  0.00     0.028 C 
ATOM     12  C   LIG d   1      -6.617  75.378 114.756  0.00  0.00     0.006 C 
ENDBRANCH   8  11
ENDBRANCH   7   8
ENDBRANCH   1   7
BRANCH   6  13
ATOM     13  N   LIG d   1      -2.297  78.000 117.175  0.00  0.00    -0.311 N 
ATOM     14  C   LIG d   1      -1.488  77.708 118.192  0.00  0.00     0.210 C 
ATOM     15  C   LIG d   1      -2.030  78.077 119.577  0.00  0.00     0.109 C 
ATOM     16  O   LIG d   1      -0.359  77.207 118.076  0.00  0.00    -0.276 OA
ATOM     17  H   LIG d   1      -3.180  78.435 117.358  0.00  0.00     0.149 HD
ENDBRANCH   6  13
BRANCH   5  18
ATOM     18  N   LIG d   1      -0.340  79.611 115.470  0.00  0.00     0.381 N 
ATOM     19  H   LIG d   1       0.132  80.075 114.720  0.00  0.00    -0.090 HD
ATOM     20  H   LIG d   1       0.268  78.897 115.832  0.00  0.00    -0.090 HD
ATOM     21  H   LIG d   1      -0.560  80.265 116.189  0.00  0.00    -0.090 HD
ENDBRANCH   5  18
BRANCH   3  22
ATOM     22  C   LIG d   1      -2.633  78.005 111.584  0.00  0.00     0.382 C 
ATOM     23  O   LIG d   1      -1.847  78.676 110.872  0.00  0.00    -0.241 OA
ATOM     24  O   LIG d   1      -3.647  77.499 111.068  0.00  0.00    -0.241 OA
ENDBRANCH   3  22
TORSDOF 7
ENDMDL
MODEL 8
REMARK VINA RESULT:      -4.5      2.233      3.116
REMARK  7 active torsions:
REMARK  status: ('A' for Active; 'I' for Inactive)
REMARK    1  A    between atoms: C_2  and  C_3 
REMARK    2  A    between atoms: C_3  and  O_6 
REMARK    3  A    between atoms: C_3  and  C_4 
REMARK    4  A    between atoms: C_7  and  O_6 
REMARK    5  A    between atoms: C_9  and  C_10 
REMARK    6  A    between atoms: N_15  and  C_14 
REMARK    7  A    between atoms: N_20  and  C_19 
REMARK       I    between atoms: C_22  and  N_20 
ROOT
ATOM      1  C   LIG d   1      -2.517  78.073 116.402  0.00  0.00     0.161 C 
ATOM      2  C   LIG d   1      -2.964  78.733 115.246  0.00  0.00     0.016 C 
ATOM      3  C   LIG d   1      -2.517  78.412 113.944  0.00  0.00     0.038 C 
ATOM      4  C   LIG d   1      -1.699  77.300 113.694  0.00  0.00     0.028 C 
ATOM      5  C   LIG d   1      -0.822  76.914 114.881  0.00  0.00    -0.047 C 
ATOM      6  C   LIG d   1      -1.710  76.784 116.140  0.00  0.00     0.091 C 
ENDROOT
BRANCH   1   7
ATOM      7  O   LIG d   1      -3.634  77.796 117.270  0.00  0.00    -0.368 OA
BRANCH   7   8
ATOM      8  C   LIG d   1      -4.126  76.434 117.261  0.00  0.00     0.119 C 
BRANCH   8   9
ATOM      9  C   LIG d   1      -5.371  76.397 116.354  0.00  0.00     0.028 C 
ATOM     10  C   LIG d   1      -5.148  75.558 115.085  0.00  0.00     0.006 C 
ENDBRANCH   8   9
BRANCH   8  11
ATOM     11  C   LIG d   1      -4.622  76.011 118.647  0.00  0.00     0.028 C 
ATOM     12  C   LIG d   1      -3.628  76.357 119.767  0.00  0.00     0.006 C 
ENDBRANCH   8  11
ENDBRANCH   7   8
ENDBRANCH   1   7
BRANCH   6  13
ATOM     13  N   LIG d   1      -0.919  76.491 117.363  0.00  0.00    -0.311 N 
ATOM     14  C   LIG d   1      -0.654  75.257 117.787  0.00  0.00     0.210 C 
ATOM     15  C   LIG d   1       0.161  75.179 119.082  0.00  0.00     0.109 C 
ATOM     16  O   LIG d   1      -0.988  74.219 117.196  0.00  0.00    -0.276 OA
ATOM     17  H   LIG d   1      -0.581  77.276 117.887  0.00  0.00     0.149 HD
ENDBRANCH   6  13
BRANCH   5  18
ATOM     18  N   LIG d   1      -0.126  75.661 114.532  0.00  0.00     0.381 N 
ATOM     19  H   LIG d   1       0.539  75.834 113.805  0.00  0.00    -0.090 HD
ATOM     20  H   LIG d   1      -0.801  74.999 114.191  0.00  0.00    -0.090 HD
ATOM     21  H   LIG d   1       0.336  75.293 115.334  0.00  0.00    -0.090 HD
ENDBRANCH   5  18
BRANCH   3  22
ATOM     22  C   LIG d   1      -2.856  79.232 112.879  0.00  0.00     0.382 C 
ATOM     23  O   LIG d   1      -2.271  79.103 111.777  0.00  0.00    -0.241 OA
ATOM     24  O   LIG d   1      -3.709  80.130 113.019  0.00  0.00    -0.241 OA
ENDBRANCH   3  22
TORSDOF 7
ENDMDL
MODEL 9
REMARK VINA RESULT:      -4.4      2.654      5.057
REMARK  7 active torsions:
REMARK  status: ('A' for Active; 'I' for Inactive)
REMARK    1  A    between atoms: C_2  and  C_3 
REMARK    2  A    between atoms: C_3  and  O_6 
REMARK    3  A    between atoms: C_3  and  C_4 
REMARK    4  A    between atoms: C_7  and  O_6 
REMARK    5  A    between atoms: C_9  and  C_10 
REMARK    6  A    between atoms: N_15  and  C_14 
REMARK    7  A    between atoms: N_20  and  C_19 
REMARK       I    between atoms: C_22  and  N_20 
ROOT
ATOM      1  C   LIG d   1      -3.093  78.320 115.880  0.00  0.00     0.161 C 
ATOM      2  C   LIG d   1      -1.788  78.692 116.242  0.00  0.00     0.016 C 
ATOM      3  C   LIG d   1      -0.847  77.793 116.795  0.00  0.00     0.038 C 
ATOM      4  C   LIG d   1      -1.101  76.416 116.883  0.00  0.00     0.028 C 
ATOM      5  C   LIG d   1      -2.584  76.080 116.999  0.00  0.00    -0.047 C 
ATOM      6  C   LIG d   1      -3.351  76.799 115.866  0.00  0.00     0.091 C 
ENDROOT
BRANCH   1   7
ATOM      7  O   LIG d   1      -3.429  78.897 114.603  0.00  0.00    -0.368 OA
BRANCH   7   8
ATOM      8  C   LIG d   1      -2.494  78.648 113.525  0.00  0.00     0.119 C 
BRANCH   8   9
ATOM      9  C   LIG d   1      -2.115  80.012 112.916  0.00  0.00     0.028 C 
ATOM     10  C   LIG d   1      -3.257  81.037 113.017  0.00  0.00     0.006 C 
ENDBRANCH   8   9
BRANCH   8  11
ATOM     11  C   LIG d   1      -3.152  77.865 112.385  0.00  0.00     0.028 C 
ATOM     12  C   LIG d   1      -2.362  77.950 111.070  0.00  0.00     0.006 C 
ENDBRANCH   8  11
ENDBRANCH   7   8
ENDBRANCH   1   7
BRANCH   6  13
ATOM     13  N   LIG d   1      -4.820  76.591 115.956  0.00  0.00    -0.311 N 
ATOM     14  C   LIG d   1      -5.462  75.609 115.325  0.00  0.00     0.210 C 
ATOM     15  C   LIG d   1      -6.979  75.587 115.537  0.00  0.00     0.109 C 
ATOM     16  O   LIG d   1      -4.915  74.734 114.637  0.00  0.00    -0.276 OA
ATOM     17  H   LIG d   1      -5.339  77.237 116.519  0.00  0.00     0.149 HD
ENDBRANCH   6  13
BRANCH   5  18
ATOM     18  N   LIG d   1      -2.714  74.612 116.944  0.00  0.00     0.381 N 
ATOM     19  H   LIG d   1      -3.400  74.307 117.606  0.00  0.00    -0.090 HD
ATOM     20  H   LIG d   1      -1.832  74.198 117.191  0.00  0.00    -0.090 HD
ATOM     21  H   LIG d   1      -2.977  74.327 116.027  0.00  0.00    -0.090 HD
ENDBRANCH   5  18
BRANCH   3  22
ATOM     22  C   LIG d   1       0.349  78.276 117.303  0.00  0.00     0.382 C 
ATOM     23  O   LIG d   1       1.248  77.476 117.659  0.00  0.00    -0.241 OA
ATOM     24  O   LIG d   1       0.524  79.500 117.451  0.00  0.00    -0.241 OA
ENDBRANCH   3  22
TORSDOF 7
ENDMDL
