MODEL 1
REMARK VINA RESULT:      -5.2      0.000      0.000
REMARK  7 active torsions:
REMARK  status: ('A' for Active; 'I' for Inactive)
REMARK    1  A    between atoms: C_2  and  C_3 
REMARK    2  A    between atoms: C_3  and  O_6 
REMARK    3  A    between atoms: C_3  and  C_4 
REMARK    4  A    between atoms: C_7  and  O_6 
REMARK    5  A    between atoms: C_9  and  C_10 
REMARK    6  A    between atoms: N_15  and  C_14 
REMARK    7  A    between atoms: N_20  and  C_19 
REMARK       I    between atoms: C_22  and  N_20 
ROOT
ATOM      1  C   LIG d   1      -0.870  81.024 112.465  0.00  0.00     0.161 C 
ATOM      2  C   LIG d   1      -1.447  79.803 112.077  0.00  0.00     0.016 C 
ATOM      3  C   LIG d   1      -2.343  79.073 112.892  0.00  0.00     0.038 C 
ATOM      4  C   LIG d   1      -2.843  79.593 114.095  0.00  0.00     0.028 C 
ATOM      5  C   LIG d   1      -1.902  80.590 114.762  0.00  0.00    -0.047 C 
ATOM      6  C   LIG d   1      -1.489  81.661 113.726  0.00  0.00     0.091 C 
ENDROOT
BRANCH   1   7
ATOM      7  O   LIG d   1      -0.907  81.953 111.364  0.00  0.00    -0.368 OA
BRANCH   7   8
ATOM      8  C   LIG d   1       0.367  82.264 110.747  0.00  0.00     0.119 C 
BRANCH   8   9
ATOM      9  C   LIG d   1       0.342  83.755 110.359  0.00  0.00     0.028 C 
ATOM     10  C   LIG d   1       0.559  84.680 111.568  0.00  0.00     0.006 C 
ENDBRANCH   8   9
BRANCH   8  11
ATOM     11  C   LIG d   1       0.548  81.504 109.430  0.00  0.00     0.028 C 
ATOM     12  C   LIG d   1       1.335  80.195 109.601  0.00  0.00     0.006 C 
ENDBRANCH   8  11
ENDBRANCH   7   8
ENDBRANCH   1   7
BRANCH   6  13
ATOM     13  N   LIG d   1      -0.502  82.628 114.273  0.00  0.00    -0.311 N 
ATOM     14  C   LIG d   1      -0.844  83.778 114.852  0.00  0.00     0.210 C 
ATOM     15  C   LIG d   1       0.331  84.637 115.329  0.00  0.00     0.109 C 
ATOM     16  O   LIG d   1      -2.011  84.152 115.045  0.00  0.00    -0.276 OA
ATOM     17  H   LIG d   1       0.467  82.389 114.187  0.00  0.00     0.149 HD
ENDBRANCH   6  13
BRANCH   5  18
ATOM     18  N   LIG d   1      -2.605  81.155 115.929  0.00  0.00     0.381 N 
ATOM     19  H   LIG d   1      -3.588  81.185 115.750  0.00  0.00    -0.090 HD
ATOM     20  H   LIG d   1      -2.283  82.095 116.079  0.00  0.00    -0.090 HD
ATOM     21  H   LIG d   1      -2.423  80.602 116.737  0.00  0.00    -0.090 HD
ENDBRANCH   5  18
BRANCH   3  22
ATOM     22  C   LIG d   1      -2.718  77.790 112.523  0.00  0.00     0.382 C 
ATOM     23  O   LIG d   1      -2.072  77.179 111.638  0.00  0.00    -0.241 OA
ATOM     24  O   LIG d   1      -3.720  77.253 113.032  0.00  0.00    -0.241 OA
ENDBRANCH   3  22
TORSDOF 7
ENDMDL
MODEL 2
REMARK VINA RESULT:      -5.1      2.787      6.604
REMARK  7 active torsions:
REMARK  status: ('A' for Active; 'I' for Inactive)
REMARK    1  A    between atoms: C_2  and  C_3 
REMARK    2  A    between atoms: C_3  and  O_6 
REMARK    3  A    between atoms: C_3  and  C_4 
REMARK    4  A    between atoms: C_7  and  O_6 
REMARK    5  A    between atoms: C_9  and  C_10 
REMARK    6  A    between atoms: N_15  and  C_14 
REMARK    7  A    between atoms: N_20  and  C_19 
REMARK       I    between atoms: C_22  and  N_20 
ROOT
ATOM      1  C   LIG d   1      -2.651  80.204 114.661  0.00  0.00     0.161 C 
ATOM      2  C   LIG d   1      -2.179  81.313 113.938  0.00  0.00     0.016 C 
ATOM      3  C   LIG d   1      -1.637  81.219 112.636  0.00  0.00     0.038 C 
ATOM      4  C   LIG d   1      -1.670  80.023 111.903  0.00  0.00     0.028 C 
ATOM      5  C   LIG d   1      -1.676  78.776 112.780  0.00  0.00    -0.047 C 
ATOM      6  C   LIG d   1      -2.798  78.909 113.835  0.00  0.00     0.091 C 
ENDROOT
BRANCH   1   7
ATOM      7  O   LIG d   1      -3.900  80.534 115.301  0.00  0.00    -0.368 OA
BRANCH   7   8
ATOM      8  C   LIG d   1      -3.910  80.470 116.748  0.00  0.00     0.119 C 
BRANCH   8   9
ATOM      9  C   LIG d   1      -5.345  80.115 117.185  0.00  0.00     0.028 C 
ATOM     10  C   LIG d   1      -5.701  78.648 116.895  0.00  0.00     0.006 C 
ENDBRANCH   8   9
BRANCH   8  11
ATOM     11  C   LIG d   1      -3.624  81.840 117.369  0.00  0.00     0.028 C 
ATOM     12  C   LIG d   1      -2.224  81.929 117.996  0.00  0.00     0.006 C 
ENDBRANCH   8  11
ENDBRANCH   7   8
ENDBRANCH   1   7
BRANCH   6  13
ATOM     13  N   LIG d   1      -2.819  77.768 114.787  0.00  0.00    -0.311 N 
ATOM     14  C   LIG d   1      -3.572  76.684 114.616  0.00  0.00     0.210 C 
ATOM     15  C   LIG d   1      -3.459  75.635 115.727  0.00  0.00     0.109 C 
ATOM     16  O   LIG d   1      -4.300  76.476 113.633  0.00  0.00    -0.276 OA
ATOM     17  H   LIG d   1      -2.234  77.840 115.597  0.00  0.00     0.149 HD
ENDBRANCH   6  13
BRANCH   5  18
ATOM     18  N   LIG d   1      -1.851  77.609 111.894  0.00  0.00     0.381 N 
ATOM     19  H   LIG d   1      -2.179  77.910 110.998  0.00  0.00    -0.090 HD
ATOM     20  H   LIG d   1      -2.541  76.998 112.294  0.00  0.00    -0.090 HD
ATOM     21  H   LIG d   1      -0.986  77.125 111.793  0.00  0.00    -0.090 HD
ENDBRANCH   5  18
BRANCH   3  22
ATOM     22  C   LIG d   1      -1.017  82.322 112.068  0.00  0.00     0.382 C 
ATOM     23  O   LIG d   1      -0.891  83.380 112.731  0.00  0.00    -0.241 OA
ATOM     24  O   LIG d   1      -0.623  82.287 110.887  0.00  0.00    -0.241 OA
ENDBRANCH   3  22
TORSDOF 7
ENDMDL
MODEL 3
REMARK VINA RESULT:      -4.9      2.086      4.303
REMARK  7 active torsions:
REMARK  status: ('A' for Active; 'I' for Inactive)
REMARK    1  A    between atoms: C_2  and  C_3 
REMARK    2  A    between atoms: C_3  and  O_6 
REMARK    3  A    between atoms: C_3  and  C_4 
REMARK    4  A    between atoms: C_7  and  O_6 
REMARK    5  A    between atoms: C_9  and  C_10 
REMARK    6  A    between atoms: N_15  and  C_14 
REMARK    7  A    between atoms: N_20  and  C_19 
REMARK       I    between atoms: C_22  and  N_20 
ROOT
ATOM      1  C   LIG d   1      -2.076  80.662 113.734  0.00  0.00     0.161 C 
ATOM      2  C   LIG d   1      -2.741  79.607 114.383  0.00  0.00     0.016 C 
ATOM      3  C   LIG d   1      -2.846  78.305 113.843  0.00  0.00     0.038 C 
ATOM      4  C   LIG d   1      -2.160  77.926 112.680  0.00  0.00     0.028 C 
ATOM      5  C   LIG d   1      -1.893  79.088 111.729  0.00  0.00    -0.047 C 
ATOM      6  C   LIG d   1      -1.226  80.239 112.517  0.00  0.00     0.091 C 
ENDROOT
BRANCH   1   7
ATOM      7  O   LIG d   1      -1.268  81.386 114.682  0.00  0.00    -0.368 OA
BRANCH   7   8
ATOM      8  C   LIG d   1      -1.590  82.789 114.854  0.00  0.00     0.119 C 
BRANCH   8   9
ATOM      9  C   LIG d   1      -0.264  83.574 114.834  0.00  0.00     0.028 C 
ATOM     10  C   LIG d   1      -0.191  84.571 113.665  0.00  0.00     0.006 C 
ENDBRANCH   8   9
BRANCH   8  11
ATOM     11  C   LIG d   1      -2.199  83.055 116.233  0.00  0.00     0.028 C 
ATOM     12  C   LIG d   1      -1.241  82.708 117.384  0.00  0.00     0.006 C 
ENDBRANCH   8  11
ENDBRANCH   7   8
ENDBRANCH   1   7
BRANCH   6  13
ATOM     13  N   LIG d   1      -1.008  81.447 111.680  0.00  0.00    -0.311 N 
ATOM     14  C   LIG d   1       0.133  81.699 111.040  0.00  0.00     0.210 C 
ATOM     15  C   LIG d   1       0.154  83.011 110.249  0.00  0.00     0.109 C 
ATOM     16  O   LIG d   1       1.117  80.945 111.026  0.00  0.00    -0.276 OA
ATOM     17  H   LIG d   1      -1.766  82.098 111.611  0.00  0.00     0.149 HD
ENDBRANCH   6  13
BRANCH   5  18
ATOM     18  N   LIG d   1      -1.053  78.580 110.628  0.00  0.00     0.381 N 
ATOM     19  H   LIG d   1      -0.775  79.337 110.036  0.00  0.00    -0.090 HD
ATOM     20  H   LIG d   1      -1.592  77.932 110.080  0.00  0.00    -0.090 HD
ATOM     21  H   LIG d   1      -0.247  78.124 110.996  0.00  0.00    -0.090 HD
ENDBRANCH   5  18
BRANCH   3  22
ATOM     22  C   LIG d   1      -3.678  77.376 114.448  0.00  0.00     0.382 C 
ATOM     23  O   LIG d   1      -3.772  76.217 113.977  0.00  0.00    -0.241 OA
ATOM     24  O   LIG d   1      -4.371  77.695 115.433  0.00  0.00    -0.241 OA
ENDBRANCH   3  22
TORSDOF 7
ENDMDL
MODEL 4
REMARK VINA RESULT:      -4.8      2.166      4.436
REMARK  7 active torsions:
REMARK  status: ('A' for Active; 'I' for Inactive)
REMARK    1  A    between atoms: C_2  and  C_3 
REMARK    2  A    between atoms: C_3  and  O_6 
REMARK    3  A    between atoms: C_3  and  C_4 
REMARK    4  A    between atoms: C_7  and  O_6 
REMARK    5  A    between atoms: C_9  and  C_10 
REMARK    6  A    between atoms: N_15  and  C_14 
REMARK    7  A    between atoms: N_20  and  C_19 
REMARK       I    between atoms: C_22  and  N_20 
ROOT
ATOM      1  C   LIG d   1      -1.991  80.116 114.383  0.00  0.00     0.161 C 
ATOM      2  C   LIG d   1      -2.637  78.922 114.743  0.00  0.00     0.016 C 
ATOM      3  C   LIG d   1      -2.790  77.825 113.865  0.00  0.00     0.038 C 
ATOM      4  C   LIG d   1      -2.170  77.790 112.607  0.00  0.00     0.028 C 
ATOM      5  C   LIG d   1      -1.935  79.173 112.009  0.00  0.00    -0.047 C 
ATOM      6  C   LIG d   1      -1.211  80.054 113.052  0.00  0.00     0.091 C 
ENDROOT
BRANCH   1   7
ATOM      7  O   LIG d   1      -1.124  80.544 115.452  0.00  0.00    -0.368 OA
BRANCH   7   8
ATOM      8  C   LIG d   1      -1.583  81.677 116.230  0.00  0.00     0.119 C 
BRANCH   8   9
ATOM      9  C   LIG d   1      -2.917  82.148 115.619  0.00  0.00     0.028 C 
ATOM     10  C   LIG d   1      -4.112  81.894 116.553  0.00  0.00     0.006 C 
ENDBRANCH   8   9
BRANCH   8  11
ATOM     11  C   LIG d   1      -0.631  82.869 116.094  0.00  0.00     0.028 C 
ATOM     12  C   LIG d   1      -1.321  84.120 115.527  0.00  0.00     0.006 C 
ENDBRANCH   8  11
ENDBRANCH   7   8
ENDBRANCH   1   7
BRANCH   6  13
ATOM     13  N   LIG d   1      -1.017  81.449 112.579  0.00  0.00    -0.311 N 
ATOM     14  C   LIG d   1       0.173  82.045 112.522  0.00  0.00     0.210 C 
ATOM     15  C   LIG d   1       0.147  83.493 112.023  0.00  0.00     0.109 C 
ATOM     16  O   LIG d   1       1.250  81.502 112.806  0.00  0.00    -0.276 OA
ATOM     17  H   LIG d   1      -1.835  81.954 112.299  0.00  0.00     0.149 HD
ENDBRANCH   6  13
BRANCH   5  18
ATOM     18  N   LIG d   1      -1.160  78.995 110.766  0.00  0.00     0.381 N 
ATOM     19  H   LIG d   1      -0.996  79.884 110.339  0.00  0.00    -0.090 HD
ATOM     20  H   LIG d   1      -1.695  78.433 110.127  0.00  0.00    -0.090 HD
ATOM     21  H   LIG d   1      -0.293  78.548 110.966  0.00  0.00    -0.090 HD
ENDBRANCH   5  18
BRANCH   3  22
ATOM     22  C   LIG d   1      -3.604  76.763 114.228  0.00  0.00     0.382 C 
ATOM     23  O   LIG d   1      -4.567  76.431 113.494  0.00  0.00    -0.241 OA
ATOM     24  O   LIG d   1      -3.416  76.160 115.301  0.00  0.00    -0.241 OA
ENDBRANCH   3  22
TORSDOF 7
ENDMDL
MODEL 5
REMARK VINA RESULT:      -4.7      5.209      7.218
REMARK  7 active torsions:
REMARK  status: ('A' for Active; 'I' for Inactive)
REMARK    1  A    between atoms: C_2  and  C_3 
REMARK    2  A    between atoms: C_3  and  O_6 
REMARK    3  A    between atoms: C_3  and  C_4 
REMARK    4  A    between atoms: C_7  and  O_6 
REMARK    5  A    between atoms: C_9  and  C_10 
REMARK    6  A    between atoms: N_15  and  C_14 
REMARK    7  A    between atoms: N_20  and  C_19 
REMARK       I    between atoms: C_22  and  N_20 
ROOT
ATOM      1  C   LIG d   1      -5.350  78.430 116.676  0.00  0.00     0.161 C 
ATOM      2  C   LIG d   1      -4.754  77.494 115.815  0.00  0.00     0.016 C 
ATOM      3  C   LIG d   1      -5.403  76.319 115.372  0.00  0.00     0.038 C 
ATOM      4  C   LIG d   1      -6.758  76.074 115.642  0.00  0.00     0.028 C 
ATOM      5  C   LIG d   1      -7.250  76.738 116.924  0.00  0.00    -0.047 C 
ATOM      6  C   LIG d   1      -6.866  78.235 116.892  0.00  0.00     0.091 C 
ENDROOT
BRANCH   1   7
ATOM      7  O   LIG d   1      -5.078  79.766 116.211  0.00  0.00    -0.368 OA
BRANCH   7   8
ATOM      8  C   LIG d   1      -3.938  80.430 116.811  0.00  0.00     0.119 C 
BRANCH   8   9
ATOM      9  C   LIG d   1      -4.482  81.498 117.780  0.00  0.00     0.028 C 
ATOM     10  C   LIG d   1      -4.286  81.107 119.254  0.00  0.00     0.006 C 
ENDBRANCH   8   9
BRANCH   8  11
ATOM     11  C   LIG d   1      -3.131  81.205 115.765  0.00  0.00     0.028 C 
ATOM     12  C   LIG d   1      -3.548  82.681 115.664  0.00  0.00     0.006 C 
ENDBRANCH   8  11
ENDBRANCH   7   8
ENDBRANCH   1   7
BRANCH   6  13
ATOM     13  N   LIG d   1      -7.235  78.942 118.147  0.00  0.00    -0.311 N 
ATOM     14  C   LIG d   1      -7.912  80.089 118.170  0.00  0.00     0.210 C 
ATOM     15  C   LIG d   1      -8.172  80.658 119.568  0.00  0.00     0.109 C 
ATOM     16  O   LIG d   1      -8.350  80.672 117.167  0.00  0.00    -0.276 OA
ATOM     17  H   LIG d   1      -6.947  78.522 119.009  0.00  0.00     0.149 HD
ENDBRANCH   6  13
BRANCH   5  18
ATOM     18  N   LIG d   1      -8.705  76.516 117.011  0.00  0.00     0.381 N 
ATOM     19  H   LIG d   1      -9.162  76.958 116.237  0.00  0.00    -0.090 HD
ATOM     20  H   LIG d   1      -9.048  76.933 117.858  0.00  0.00    -0.090 HD
ATOM     21  H   LIG d   1      -8.902  75.540 117.009  0.00  0.00    -0.090 HD
ENDBRANCH   5  18
BRANCH   3  22
ATOM     22  C   LIG d   1      -4.684  75.354 114.682  0.00  0.00     0.382 C 
ATOM     23  O   LIG d   1      -3.439  75.288 114.814  0.00  0.00    -0.241 OA
ATOM     24  O   LIG d   1      -5.260  74.579 113.896  0.00  0.00    -0.241 OA
ENDBRANCH   3  22
TORSDOF 7
ENDMDL
MODEL 6
REMARK VINA RESULT:      -4.6      2.614      6.040
REMARK  7 active torsions:
REMARK  status: ('A' for Active; 'I' for Inactive)
REMARK    1  A    between atoms: C_2  and  C_3 
REMARK    2  A    between atoms: C_3  and  O_6 
REMARK    3  A    between atoms: C_3  and  C_4 
REMARK    4  A    between atoms: C_7  and  O_6 
REMARK    5  A    between atoms: C_9  and  C_10 
REMARK    6  A    between atoms: N_15  and  C_14 
REMARK    7  A    between atoms: N_20  and  C_19 
REMARK       I    between atoms: C_22  and  N_20 
ROOT
ATOM      1  C   LIG d   1      -0.690  80.040 114.685  0.00  0.00     0.161 C 
ATOM      2  C   LIG d   1      -0.647  81.256 113.983  0.00  0.00     0.016 C 
ATOM      3  C   LIG d   1      -1.044  81.390 112.633  0.00  0.00     0.038 C 
ATOM      4  C   LIG d   1      -1.658  80.340 111.933  0.00  0.00     0.028 C 
ATOM      5  C   LIG d   1      -1.259  78.959 112.441  0.00  0.00    -0.047 C 
ATOM      6  C   LIG d   1      -1.462  78.909 113.972  0.00  0.00     0.091 C 
ENDROOT
BRANCH   1   7
ATOM      7  O   LIG d   1      -1.226  80.257 116.005  0.00  0.00    -0.368 OA
BRANCH   7   8
ATOM      8  C   LIG d   1      -2.657  80.466 116.086  0.00  0.00     0.119 C 
BRANCH   8   9
ATOM      9  C   LIG d   1      -2.887  81.877 116.660  0.00  0.00     0.028 C 
ATOM     10  C   LIG d   1      -3.525  82.831 115.636  0.00  0.00     0.006 C 
ENDBRANCH   8   9
BRANCH   8  11
ATOM     11  C   LIG d   1      -3.304  79.509 117.092  0.00  0.00     0.028 C 
ATOM     12  C   LIG d   1      -4.496  78.740 116.500  0.00  0.00     0.006 C 
ENDBRANCH   8  11
ENDBRANCH   7   8
ENDBRANCH   1   7
BRANCH   6  13
ATOM     13  N   LIG d   1      -1.016  77.620 114.562  0.00  0.00    -0.311 N 
ATOM     14  C   LIG d   1      -1.804  76.552 114.670  0.00  0.00     0.210 C 
ATOM     15  C   LIG d   1      -1.151  75.331 115.326  0.00  0.00     0.109 C 
ATOM     16  O   LIG d   1      -2.971  76.489 114.256  0.00  0.00    -0.276 OA
ATOM     17  H   LIG d   1      -0.073  77.573 114.895  0.00  0.00     0.149 HD
ENDBRANCH   6  13
BRANCH   5  18
ATOM     18  N   LIG d   1      -2.076  77.966 111.717  0.00  0.00     0.381 N 
ATOM     19  H   LIG d   1      -2.451  78.376 110.886  0.00  0.00    -0.090 HD
ATOM     20  H   LIG d   1      -2.842  77.685 112.304  0.00  0.00    -0.090 HD
ATOM     21  H   LIG d   1      -1.520  77.173 111.483  0.00  0.00    -0.090 HD
ENDBRANCH   5  18
BRANCH   3  22
ATOM     22  C   LIG d   1      -0.791  82.573 111.956  0.00  0.00     0.382 C 
ATOM     23  O   LIG d   1      -0.761  83.660 112.583  0.00  0.00    -0.241 OA
ATOM     24  O   LIG d   1      -0.636  82.574 110.720  0.00  0.00    -0.241 OA
ENDBRANCH   3  22
TORSDOF 7
ENDMDL
MODEL 7
REMARK VINA RESULT:      -4.6      3.415      6.988
REMARK  7 active torsions:
REMARK  status: ('A' for Active; 'I' for Inactive)
REMARK    1  A    between atoms: C_2  and  C_3 
REMARK    2  A    between atoms: C_3  and  O_6 
REMARK    3  A    between atoms: C_3  and  C_4 
REMARK    4  A    between atoms: C_7  and  O_6 
REMARK    5  A    between atoms: C_9  and  C_10 
REMARK    6  A    between atoms: N_15  and  C_14 
REMARK    7  A    between atoms: N_20  and  C_19 
REMARK       I    between atoms: C_22  and  N_20 
ROOT
ATOM      1  C   LIG d   1      -3.247  79.697 115.543  0.00  0.00     0.161 C 
ATOM      2  C   LIG d   1      -2.940  80.792 114.719  0.00  0.00     0.016 C 
ATOM      3  C   LIG d   1      -2.168  80.686 113.539  0.00  0.00     0.038 C 
ATOM      4  C   LIG d   1      -1.773  79.444 113.021  0.00  0.00     0.028 C 
ATOM      5  C   LIG d   1      -1.629  78.362 114.085  0.00  0.00    -0.047 C 
ATOM      6  C   LIG d   1      -2.919  78.318 114.935  0.00  0.00     0.091 C 
ENDROOT
BRANCH   1   7
ATOM      7  O   LIG d   1      -4.632  79.755 115.937  0.00  0.00    -0.368 OA
BRANCH   7   8
ATOM      8  C   LIG d   1      -4.954  80.686 117.000  0.00  0.00     0.119 C 
BRANCH   8   9
ATOM      9  C   LIG d   1      -4.124  80.285 118.234  0.00  0.00     0.028 C 
ATOM     10  C   LIG d   1      -3.175  81.405 118.692  0.00  0.00     0.006 C 
ENDBRANCH   8   9
BRANCH   8  11
ATOM     11  C   LIG d   1      -6.417  80.552 117.433  0.00  0.00     0.028 C 
ATOM     12  C   LIG d   1      -6.785  81.495 118.590  0.00  0.00     0.006 C 
ENDBRANCH   8  11
ENDBRANCH   7   8
ENDBRANCH   1   7
BRANCH   6  13
ATOM     13  N   LIG d   1      -2.829  77.343 116.053  0.00  0.00    -0.311 N 
ATOM     14  C   LIG d   1      -3.158  76.058 115.933  0.00  0.00     0.210 C 
ATOM     15  C   LIG d   1      -3.010  75.231 117.214  0.00  0.00     0.109 C 
ATOM     16  O   LIG d   1      -3.529  75.517 114.880  0.00  0.00    -0.276 OA
ATOM     17  H   LIG d   1      -2.507  77.690 116.935  0.00  0.00     0.149 HD
ENDBRANCH   6  13
BRANCH   5  18
ATOM     18  N   LIG d   1      -1.349  77.090 113.392  0.00  0.00     0.381 N 
ATOM     19  H   LIG d   1      -0.520  77.180 112.840  0.00  0.00    -0.090 HD
ATOM     20  H   LIG d   1      -2.116  76.879 112.778  0.00  0.00    -0.090 HD
ATOM     21  H   LIG d   1      -1.235  76.357 114.057  0.00  0.00    -0.090 HD
ENDBRANCH   5  18
BRANCH   3  22
ATOM     22  C   LIG d   1      -1.748  81.836 112.887  0.00  0.00     0.382 C 
ATOM     23  O   LIG d   1      -1.558  81.819 111.647  0.00  0.00    -0.241 OA
ATOM     24  O   LIG d   1      -1.514  82.877 113.530  0.00  0.00    -0.241 OA
ENDBRANCH   3  22
TORSDOF 7
ENDMDL
MODEL 8
REMARK VINA RESULT:      -4.4      3.430      7.644
REMARK  7 active torsions:
REMARK  status: ('A' for Active; 'I' for Inactive)
REMARK    1  A    between atoms: C_2  and  C_3 
REMARK    2  A    between atoms: C_3  and  O_6 
REMARK    3  A    between atoms: C_3  and  C_4 
REMARK    4  A    between atoms: C_7  and  O_6 
REMARK    5  A    between atoms: C_9  and  C_10 
REMARK    6  A    between atoms: N_15  and  C_14 
REMARK    7  A    between atoms: N_20  and  C_19 
REMARK       I    between atoms: C_22  and  N_20 
ROOT
ATOM      1  C   LIG d   1      -3.797  80.104 116.232  0.00  0.00     0.161 C 
ATOM      2  C   LIG d   1      -3.475  81.471 116.275  0.00  0.00     0.016 C 
ATOM      3  C   LIG d   1      -2.385  82.036 115.574  0.00  0.00     0.038 C 
ATOM      4  C   LIG d   1      -1.628  81.293 114.656  0.00  0.00     0.028 C 
ATOM      5  C   LIG d   1      -1.600  79.799 114.963  0.00  0.00    -0.047 C 
ATOM      6  C   LIG d   1      -3.051  79.298 115.149  0.00  0.00     0.091 C 
ENDROOT
BRANCH   1   7
ATOM      7  O   LIG d   1      -5.221  79.942 116.086  0.00  0.00    -0.368 OA
BRANCH   7   8
ATOM      8  C   LIG d   1      -5.939  79.512 117.268  0.00  0.00     0.119 C 
BRANCH   8   9
ATOM      9  C   LIG d   1      -6.623  78.172 116.933  0.00  0.00     0.028 C 
ATOM     10  C   LIG d   1      -5.990  76.987 117.681  0.00  0.00     0.006 C 
ENDBRANCH   8   9
BRANCH   8  11
ATOM     11  C   LIG d   1      -7.080  80.475 117.609  0.00  0.00     0.028 C 
ATOM     12  C   LIG d   1      -6.689  81.507 118.678  0.00  0.00     0.006 C 
ENDBRANCH   8  11
ENDBRANCH   7   8
ENDBRANCH   1   7
BRANCH   6  13
ATOM     13  N   LIG d   1      -3.110  77.864 115.535  0.00  0.00    -0.311 N 
ATOM     14  C   LIG d   1      -3.472  76.893 114.698  0.00  0.00     0.210 C 
ATOM     15  C   LIG d   1      -3.484  75.487 115.305  0.00  0.00     0.109 C 
ATOM     16  O   LIG d   1      -3.753  77.060 113.502  0.00  0.00    -0.276 OA
ATOM     17  H   LIG d   1      -2.867  77.636 116.479  0.00  0.00     0.149 HD
ENDBRANCH   6  13
BRANCH   5  18
ATOM     18  N   LIG d   1      -0.895  79.129 113.854  0.00  0.00     0.381 N 
ATOM     19  H   LIG d   1      -0.539  78.247 114.163  0.00  0.00    -0.090 HD
ATOM     20  H   LIG d   1      -0.119  79.701 113.570  0.00  0.00    -0.090 HD
ATOM     21  H   LIG d   1      -1.516  78.995 113.086  0.00  0.00    -0.090 HD
ENDBRANCH   5  18
BRANCH   3  22
ATOM     22  C   LIG d   1      -2.017  83.350 115.819  0.00  0.00     0.382 C 
ATOM     23  O   LIG d   1      -2.684  84.291 115.324  0.00  0.00    -0.241 OA
ATOM     24  O   LIG d   1      -1.001  83.607 116.492  0.00  0.00    -0.241 OA
ENDBRANCH   3  22
TORSDOF 7
ENDMDL
MODEL 9
REMARK VINA RESULT:      -4.4      4.281      7.901
REMARK  7 active torsions:
REMARK  status: ('A' for Active; 'I' for Inactive)
REMARK    1  A    between atoms: C_2  and  C_3 
REMARK    2  A    between atoms: C_3  and  O_6 
REMARK    3  A    between atoms: C_3  and  C_4 
REMARK    4  A    between atoms: C_7  and  O_6 
REMARK    5  A    between atoms: C_9  and  C_10 
REMARK    6  A    between atoms: N_15  and  C_14 
REMARK    7  A    between atoms: N_20  and  C_19 
REMARK       I    between atoms: C_22  and  N_20 
ROOT
ATOM      1  C   LIG d   1      -3.930  78.701 116.418  0.00  0.00     0.161 C 
ATOM      2  C   LIG d   1      -4.042  80.072 116.132  0.00  0.00     0.016 C 
ATOM      3  C   LIG d   1      -2.935  80.895 115.822  0.00  0.00     0.038 C 
ATOM      4  C   LIG d   1      -1.650  80.367 115.626  0.00  0.00     0.028 C 
ATOM      5  C   LIG d   1      -1.402  79.075 116.397  0.00  0.00    -0.047 C 
ATOM      6  C   LIG d   1      -2.552  78.085 116.100  0.00  0.00     0.091 C 
ENDROOT
BRANCH   1   7
ATOM      7  O   LIG d   1      -4.973  77.974 115.738  0.00  0.00    -0.368 OA
BRANCH   7   8
ATOM      8  C   LIG d   1      -5.927  77.288 116.585  0.00  0.00     0.119 C 
BRANCH   8   9
ATOM      9  C   LIG d   1      -6.723  76.316 115.692  0.00  0.00     0.028 C 
ATOM     10  C   LIG d   1      -5.816  75.308 114.967  0.00  0.00     0.006 C 
ENDBRANCH   8   9
BRANCH   8  11
ATOM     11  C   LIG d   1      -6.966  78.258 117.155  0.00  0.00     0.028 C 
ATOM     12  C   LIG d   1      -8.292  77.569 117.512  0.00  0.00     0.006 C 
ENDBRANCH   8  11
ENDBRANCH   7   8
ENDBRANCH   1   7
BRANCH   6  13
ATOM     13  N   LIG d   1      -2.431  76.826 116.881  0.00  0.00    -0.311 N 
ATOM     14  C   LIG d   1      -2.316  75.623 116.320  0.00  0.00     0.210 C 
ATOM     15  C   LIG d   1      -2.225  74.455 117.307  0.00  0.00     0.109 C 
ATOM     16  O   LIG d   1      -2.248  75.416 115.099  0.00  0.00    -0.276 OA
ATOM     17  H   LIG d   1      -2.446  76.905 117.879  0.00  0.00     0.149 HD
ENDBRANCH   6  13
BRANCH   5  18
ATOM     18  N   LIG d   1      -0.079  78.562 115.995  0.00  0.00     0.381 N 
ATOM     19  H   LIG d   1       0.201  77.825 116.612  0.00  0.00    -0.090 HD
ATOM     20  H   LIG d   1       0.593  79.305 116.067  0.00  0.00    -0.090 HD
ATOM     21  H   LIG d   1      -0.114  78.225 115.058  0.00  0.00    -0.090 HD
ENDBRANCH   5  18
BRANCH   3  22
ATOM     22  C   LIG d   1      -3.100  82.269 115.743  0.00  0.00     0.382 C 
ATOM     23  O   LIG d   1      -3.902  82.757 114.910  0.00  0.00    -0.241 OA
ATOM     24  O   LIG d   1      -2.426  83.029 116.463  0.00  0.00    -0.241 OA
ENDBRANCH   3  22
TORSDOF 7
ENDMDL
