MODEL 1
REMARK VINA RESULT:      -5.1      0.000      0.000
REMARK  7 active torsions:
REMARK  status: ('A' for Active; 'I' for Inactive)
REMARK    1  A    between atoms: C_2  and  C_3 
REMARK    2  A    between atoms: C_3  and  O_6 
REMARK    3  A    between atoms: C_3  and  C_4 
REMARK    4  A    between atoms: C_7  and  O_6 
REMARK    5  A    between atoms: C_9  and  C_10 
REMARK    6  A    between atoms: N_15  and  C_14 
REMARK    7  A    between atoms: N_20  and  C_19 
REMARK       I    between atoms: C_22  and  N_20 
ROOT
ATOM      1  C   LIG d   1      -1.845  75.141 115.445  0.00  0.00     0.161 C 
ATOM      2  C   LIG d   1      -1.447  74.810 116.751  0.00  0.00     0.016 C 
ATOM      3  C   LIG d   1      -0.910  75.749 117.662  0.00  0.00     0.038 C 
ATOM      4  C   LIG d   1      -0.876  77.122 117.378  0.00  0.00     0.028 C 
ATOM      5  C   LIG d   1      -0.799  77.430 115.886  0.00  0.00    -0.047 C 
ATOM      6  C   LIG d   1      -1.919  76.655 115.155  0.00  0.00     0.091 C 
ENDROOT
BRANCH   1   7
ATOM      7  O   LIG d   1      -3.107  74.511 115.145  0.00  0.00    -0.368 OA
BRANCH   7   8
ATOM      8  C   LIG d   1      -4.288  75.329 115.334  0.00  0.00     0.119 C 
BRANCH   8   9
ATOM      9  C   LIG d   1      -4.913  74.934 116.686  0.00  0.00     0.028 C 
ATOM     10  C   LIG d   1      -4.857  76.076 117.714  0.00  0.00     0.006 C 
ENDBRANCH   8   9
BRANCH   8  11
ATOM     11  C   LIG d   1      -5.358  75.013 114.285  0.00  0.00     0.028 C 
ATOM     12  C   LIG d   1      -6.610  75.893 114.427  0.00  0.00     0.006 C 
ENDBRANCH   8  11
ENDBRANCH   7   8
ENDBRANCH   1   7
BRANCH   6  13
ATOM     13  N   LIG d   1      -1.863  76.833 113.681  0.00  0.00    -0.311 N 
ATOM     14  C   LIG d   1      -2.499  77.810 113.036  0.00  0.00     0.210 C 
ATOM     15  C   LIG d   1      -2.325  77.801 111.514  0.00  0.00     0.109 C 
ATOM     16  O   LIG d   1      -3.166  78.701 113.583  0.00  0.00    -0.276 OA
ATOM     17  H   LIG d   1      -1.319  76.172 113.162  0.00  0.00     0.149 HD
ENDBRANCH   6  13
BRANCH   5  18
ATOM     18  N   LIG d   1      -0.909  78.892 115.727  0.00  0.00     0.381 N 
ATOM     19  H   LIG d   1      -0.759  79.341 116.608  0.00  0.00    -0.090 HD
ATOM     20  H   LIG d   1      -1.837  79.116 115.413  0.00  0.00    -0.090 HD
ATOM     21  H   LIG d   1      -0.239  79.214 115.063  0.00  0.00    -0.090 HD
ENDBRANCH   5  18
BRANCH   3  22
ATOM     22  C   LIG d   1      -0.363  75.310 118.858  0.00  0.00     0.382 C 
ATOM     23  O   LIG d   1       0.242  74.212 118.906  0.00  0.00    -0.241 OA
ATOM     24  O   LIG d   1      -0.506  75.977 119.901  0.00  0.00    -0.241 OA
ENDBRANCH   3  22
TORSDOF 7
ENDMDL
MODEL 2
REMARK VINA RESULT:      -5.0      4.390      7.097
REMARK  7 active torsions:
REMARK  status: ('A' for Active; 'I' for Inactive)
REMARK    1  A    between atoms: C_2  and  C_3 
REMARK    2  A    between atoms: C_3  and  O_6 
REMARK    3  A    between atoms: C_3  and  C_4 
REMARK    4  A    between atoms: C_7  and  O_6 
REMARK    5  A    between atoms: C_9  and  C_10 
REMARK    6  A    between atoms: N_15  and  C_14 
REMARK    7  A    between atoms: N_20  and  C_19 
REMARK       I    between atoms: C_22  and  N_20 
ROOT
ATOM      1  C   LIG d   1      -1.323  80.621 112.432  0.00  0.00     0.161 C 
ATOM      2  C   LIG d   1      -2.358  79.673 112.366  0.00  0.00     0.016 C 
ATOM      3  C   LIG d   1      -2.354  78.578 111.473  0.00  0.00     0.038 C 
ATOM      4  C   LIG d   1      -1.236  78.268 110.684  0.00  0.00     0.028 C 
ATOM      5  C   LIG d   1      -0.375  79.482 110.351  0.00  0.00    -0.047 C 
ATOM      6  C   LIG d   1      -0.044  80.237 111.659  0.00  0.00     0.091 C 
ENDROOT
BRANCH   1   7
ATOM      7  O   LIG d   1      -1.009  80.905 113.810  0.00  0.00    -0.368 OA
BRANCH   7   8
ATOM      8  C   LIG d   1       0.016  80.078 114.414  0.00  0.00     0.119 C 
BRANCH   8   9
ATOM      9  C   LIG d   1      -0.635  79.314 115.583  0.00  0.00     0.028 C 
ATOM     10  C   LIG d   1      -0.889  77.835 115.248  0.00  0.00     0.006 C 
ENDBRANCH   8   9
BRANCH   8  11
ATOM     11  C   LIG d   1       1.117  80.931 115.050  0.00  0.00     0.028 C 
ATOM     12  C   LIG d   1       0.729  82.414 115.169  0.00  0.00     0.006 C 
ENDBRANCH   8  11
ENDBRANCH   7   8
ENDBRANCH   1   7
BRANCH   6  13
ATOM     13  N   LIG d   1       0.725  81.485 111.414  0.00  0.00    -0.311 N 
ATOM     14  C   LIG d   1       0.195  82.577 110.865  0.00  0.00     0.210 C 
ATOM     15  C   LIG d   1       1.167  83.746 110.683  0.00  0.00     0.109 C 
ATOM     16  O   LIG d   1      -0.996  82.699 110.541  0.00  0.00    -0.276 OA
ATOM     17  H   LIG d   1       1.691  81.484 111.675  0.00  0.00     0.149 HD
ENDBRANCH   6  13
BRANCH   5  18
ATOM     18  N   LIG d   1       0.826  78.996 109.645  0.00  0.00     0.381 N 
ATOM     19  H   LIG d   1       0.813  79.316 108.697  0.00  0.00    -0.090 HD
ATOM     20  H   LIG d   1       0.816  77.992 109.639  0.00  0.00    -0.090 HD
ATOM     21  H   LIG d   1       1.647  79.325 110.103  0.00  0.00    -0.090 HD
ENDBRANCH   5  18
BRANCH   3  22
ATOM     22  C   LIG d   1      -3.494  77.801 111.332  0.00  0.00     0.382 C 
ATOM     23  O   LIG d   1      -4.126  77.426 112.349  0.00  0.00    -0.241 OA
ATOM     24  O   LIG d   1      -3.873  77.433 110.204  0.00  0.00    -0.241 OA
ENDBRANCH   3  22
TORSDOF 7
ENDMDL
MODEL 3
REMARK VINA RESULT:      -5.0      3.867      6.541
REMARK  7 active torsions:
REMARK  status: ('A' for Active; 'I' for Inactive)
REMARK    1  A    between atoms: C_2  and  C_3 
REMARK    2  A    between atoms: C_3  and  O_6 
REMARK    3  A    between atoms: C_3  and  C_4 
REMARK    4  A    between atoms: C_7  and  O_6 
REMARK    5  A    between atoms: C_9  and  C_10 
REMARK    6  A    between atoms: N_15  and  C_14 
REMARK    7  A    between atoms: N_20  and  C_19 
REMARK       I    between atoms: C_22  and  N_20 
ROOT
ATOM      1  C   LIG d   1      -1.098  79.992 113.515  0.00  0.00     0.161 C 
ATOM      2  C   LIG d   1      -1.630  78.867 114.166  0.00  0.00     0.016 C 
ATOM      3  C   LIG d   1      -2.118  77.729 113.482  0.00  0.00     0.038 C 
ATOM      4  C   LIG d   1      -1.966  77.576 112.096  0.00  0.00     0.028 C 
ATOM      5  C   LIG d   1      -1.893  78.901 111.345  0.00  0.00    -0.047 C 
ATOM      6  C   LIG d   1      -0.822  79.797 112.009  0.00  0.00     0.091 C 
ENDROOT
BRANCH   1   7
ATOM      7  O   LIG d   1       0.098  80.428 114.191  0.00  0.00    -0.368 OA
BRANCH   7   8
ATOM      8  C   LIG d   1      -0.059  81.535 115.112  0.00  0.00     0.119 C 
BRANCH   8   9
ATOM      9  C   LIG d   1       0.481  82.798 114.414  0.00  0.00     0.028 C 
ATOM     10  C   LIG d   1      -0.642  83.763 113.997  0.00  0.00     0.006 C 
ENDBRANCH   8   9
BRANCH   8  11
ATOM     11  C   LIG d   1       0.817  81.354 116.355  0.00  0.00     0.028 C 
ATOM     12  C   LIG d   1       0.028  80.843 117.571  0.00  0.00     0.006 C 
ENDBRANCH   8  11
ENDBRANCH   7   8
ENDBRANCH   1   7
BRANCH   6  13
ATOM     13  N   LIG d   1      -0.746  81.145 111.388  0.00  0.00    -0.311 N 
ATOM     14  C   LIG d   1       0.363  81.637 110.838  0.00  0.00     0.210 C 
ATOM     15  C   LIG d   1       0.231  83.054 110.272  0.00  0.00     0.109 C 
ATOM     16  O   LIG d   1       1.435  81.021 110.737  0.00  0.00    -0.276 OA
ATOM     17  H   LIG d   1      -1.579  81.700 111.398  0.00  0.00     0.149 HD
ENDBRANCH   6  13
BRANCH   5  18
ATOM     18  N   LIG d   1      -1.597  78.597 109.932  0.00  0.00     0.381 N 
ATOM     19  H   LIG d   1      -0.752  79.056 109.657  0.00  0.00    -0.090 HD
ATOM     20  H   LIG d   1      -2.346  78.946 109.360  0.00  0.00    -0.090 HD
ATOM     21  H   LIG d   1      -1.505  77.613 109.807  0.00  0.00    -0.090 HD
ENDBRANCH   5  18
BRANCH   3  22
ATOM     22  C   LIG d   1      -2.801  76.747 114.182  0.00  0.00     0.382 C 
ATOM     23  O   LIG d   1      -2.271  75.624 114.366  0.00  0.00    -0.241 OA
ATOM     24  O   LIG d   1      -3.958  76.954 114.594  0.00  0.00    -0.241 OA
ENDBRANCH   3  22
TORSDOF 7
ENDMDL
MODEL 4
REMARK VINA RESULT:      -4.8      2.999      6.292
REMARK  7 active torsions:
REMARK  status: ('A' for Active; 'I' for Inactive)
REMARK    1  A    between atoms: C_2  and  C_3 
REMARK    2  A    between atoms: C_3  and  O_6 
REMARK    3  A    between atoms: C_3  and  C_4 
REMARK    4  A    between atoms: C_7  and  O_6 
REMARK    5  A    between atoms: C_9  and  C_10 
REMARK    6  A    between atoms: N_15  and  C_14 
REMARK    7  A    between atoms: N_20  and  C_19 
REMARK       I    between atoms: C_22  and  N_20 
ROOT
ATOM      1  C   LIG d   1      -0.691  79.105 114.619  0.00  0.00     0.161 C 
ATOM      2  C   LIG d   1      -0.844  80.421 114.151  0.00  0.00     0.016 C 
ATOM      3  C   LIG d   1      -1.303  80.736 112.852  0.00  0.00     0.038 C 
ATOM      4  C   LIG d   1      -1.788  79.752 111.978  0.00  0.00     0.028 C 
ATOM      5  C   LIG d   1      -1.181  78.374 112.220  0.00  0.00    -0.047 C 
ATOM      6  C   LIG d   1      -1.320  78.021 113.719  0.00  0.00     0.091 C 
ENDROOT
BRANCH   1   7
ATOM      7  O   LIG d   1      -1.205  79.001 115.962  0.00  0.00    -0.368 OA
BRANCH   7   8
ATOM      8  C   LIG d   1      -0.220  79.023 117.024  0.00  0.00     0.119 C 
BRANCH   8   9
ATOM      9  C   LIG d   1      -0.198  77.621 117.664  0.00  0.00     0.028 C 
ATOM     10  C   LIG d   1      -1.610  77.099 117.981  0.00  0.00     0.006 C 
ENDBRANCH   8   9
BRANCH   8  11
ATOM     11  C   LIG d   1      -0.635  79.975 118.149  0.00  0.00     0.028 C 
ATOM     12  C   LIG d   1      -0.091  81.399 117.956  0.00  0.00     0.006 C 
ENDBRANCH   8  11
ENDBRANCH   7   8
ENDBRANCH   1   7
BRANCH   6  13
ATOM     13  N   LIG d   1      -0.676  76.725 114.058  0.00  0.00    -0.311 N 
ATOM     14  C   LIG d   1      -1.344  75.679 114.540  0.00  0.00     0.210 C 
ATOM     15  C   LIG d   1      -0.486  74.447 114.841  0.00  0.00     0.109 C 
ATOM     16  O   LIG d   1      -2.571  75.643 114.717  0.00  0.00    -0.276 OA
ATOM     17  H   LIG d   1       0.313  76.656 113.916  0.00  0.00     0.149 HD
ENDBRANCH   6  13
BRANCH   5  18
ATOM     18  N   LIG d   1      -1.874  77.420 111.335  0.00  0.00     0.381 N 
ATOM     19  H   LIG d   1      -1.270  77.155 110.583  0.00  0.00    -0.090 HD
ATOM     20  H   LIG d   1      -2.685  77.867 110.945  0.00  0.00    -0.090 HD
ATOM     21  H   LIG d   1      -2.147  76.612 111.851  0.00  0.00    -0.090 HD
ENDBRANCH   5  18
BRANCH   3  22
ATOM     22  C   LIG d   1      -1.243  82.046 112.401  0.00  0.00     0.382 C 
ATOM     23  O   LIG d   1      -1.380  82.995 113.210  0.00  0.00    -0.241 OA
ATOM     24  O   LIG d   1      -1.098  82.290 111.188  0.00  0.00    -0.241 OA
ENDBRANCH   3  22
TORSDOF 7
ENDMDL
MODEL 5
REMARK VINA RESULT:      -4.8      2.469      5.653
REMARK  7 active torsions:
REMARK  status: ('A' for Active; 'I' for Inactive)
REMARK    1  A    between atoms: C_2  and  C_3 
REMARK    2  A    between atoms: C_3  and  O_6 
REMARK    3  A    between atoms: C_3  and  C_4 
REMARK    4  A    between atoms: C_7  and  O_6 
REMARK    5  A    between atoms: C_9  and  C_10 
REMARK    6  A    between atoms: N_15  and  C_14 
REMARK    7  A    between atoms: N_20  and  C_19 
REMARK       I    between atoms: C_22  and  N_20 
ROOT
ATOM      1  C   LIG d   1      -1.632  77.798 114.283  0.00  0.00     0.161 C 
ATOM      2  C   LIG d   1      -0.858  78.821 113.710  0.00  0.00     0.016 C 
ATOM      3  C   LIG d   1      -1.185  79.453 112.489  0.00  0.00     0.038 C 
ATOM      4  C   LIG d   1      -2.398  79.208 111.828  0.00  0.00     0.028 C 
ATOM      5  C   LIG d   1      -2.969  77.821 112.105  0.00  0.00    -0.047 C 
ATOM      6  C   LIG d   1      -3.017  77.594 113.633  0.00  0.00     0.091 C 
ENDROOT
BRANCH   1   7
ATOM      7  O   LIG d   1      -1.771  78.025 115.699  0.00  0.00    -0.368 OA
BRANCH   7   8
ATOM      8  C   LIG d   1      -0.952  77.197 116.561  0.00  0.00     0.119 C 
BRANCH   8   9
ATOM      9  C   LIG d   1      -1.898  76.269 117.348  0.00  0.00     0.028 C 
ATOM     10  C   LIG d   1      -1.712  74.789 116.976  0.00  0.00     0.006 C 
ENDBRANCH   8   9
BRANCH   8  11
ATOM     11  C   LIG d   1      -0.233  78.036 117.621  0.00  0.00     0.028 C 
ATOM     12  C   LIG d   1      -0.796  79.462 117.734  0.00  0.00     0.006 C 
ENDBRANCH   8  11
ENDBRANCH   7   8
ENDBRANCH   1   7
BRANCH   6  13
ATOM     13  N   LIG d   1      -3.484  76.229 113.989  0.00  0.00    -0.311 N 
ATOM     14  C   LIG d   1      -4.561  75.995 114.738  0.00  0.00     0.210 C 
ATOM     15  C   LIG d   1      -4.855  74.515 115.002  0.00  0.00     0.109 C 
ATOM     16  O   LIG d   1      -5.318  76.871 115.181  0.00  0.00    -0.276 OA
ATOM     17  H   LIG d   1      -2.946  75.458 113.645  0.00  0.00     0.149 HD
ENDBRANCH   6  13
BRANCH   5  18
ATOM     18  N   LIG d   1      -4.298  77.751 111.468  0.00  0.00     0.381 N 
ATOM     19  H   LIG d   1      -4.513  78.627 111.035  0.00  0.00    -0.090 HD
ATOM     20  H   LIG d   1      -4.988  77.571 112.175  0.00  0.00    -0.090 HD
ATOM     21  H   LIG d   1      -4.311  77.024 110.787  0.00  0.00    -0.090 HD
ENDBRANCH   5  18
BRANCH   3  22
ATOM     22  C   LIG d   1      -0.274  80.314 111.895  0.00  0.00     0.382 C 
ATOM     23  O   LIG d   1      -0.420  80.650 110.695  0.00  0.00    -0.241 OA
ATOM     24  O   LIG d   1       0.716  80.722 112.531  0.00  0.00    -0.241 OA
ENDBRANCH   3  22
TORSDOF 7
ENDMDL
MODEL 6
REMARK VINA RESULT:      -4.6      4.648      7.224
REMARK  7 active torsions:
REMARK  status: ('A' for Active; 'I' for Inactive)
REMARK    1  A    between atoms: C_2  and  C_3 
REMARK    2  A    between atoms: C_3  and  O_6 
REMARK    3  A    between atoms: C_3  and  C_4 
REMARK    4  A    between atoms: C_7  and  O_6 
REMARK    5  A    between atoms: C_9  and  C_10 
REMARK    6  A    between atoms: N_15  and  C_14 
REMARK    7  A    between atoms: N_20  and  C_19 
REMARK       I    between atoms: C_22  and  N_20 
ROOT
ATOM      1  C   LIG d   1      -0.483  80.676 112.817  0.00  0.00     0.161 C 
ATOM      2  C   LIG d   1      -1.486  79.779 113.223  0.00  0.00     0.016 C 
ATOM      3  C   LIG d   1      -1.896  78.668 112.450  0.00  0.00     0.038 C 
ATOM      4  C   LIG d   1      -1.221  78.289 111.281  0.00  0.00     0.028 C 
ATOM      5  C   LIG d   1      -0.533  79.452 110.574  0.00  0.00    -0.047 C 
ATOM      6  C   LIG d   1       0.341  80.215 111.596  0.00  0.00     0.091 C 
ENDROOT
BRANCH   1   7
ATOM      7  O   LIG d   1       0.387  80.970 113.927  0.00  0.00    -0.368 OA
BRANCH   7   8
ATOM      8  C   LIG d   1       0.483  82.364 114.310  0.00  0.00     0.119 C 
BRANCH   8   9
ATOM      9  C   LIG d   1       0.637  82.413 115.843  0.00  0.00     0.028 C 
ATOM     10  C   LIG d   1       0.352  81.055 116.505  0.00  0.00     0.006 C 
ENDBRANCH   8   9
BRANCH   8  11
ATOM     11  C   LIG d   1      -0.818  83.114 114.009  0.00  0.00     0.028 C 
ATOM     12  C   LIG d   1      -0.597  84.615 113.764  0.00  0.00     0.006 C 
ENDBRANCH   8  11
ENDBRANCH   7   8
ENDBRANCH   1   7
BRANCH   6  13
ATOM     13  N   LIG d   1       0.983  81.418 111.007  0.00  0.00    -0.311 N 
ATOM     14  C   LIG d   1       0.297  82.455 110.529  0.00  0.00     0.210 C 
ATOM     15  C   LIG d   1       1.154  83.584 109.948  0.00  0.00     0.109 C 
ATOM     16  O   LIG d   1      -0.938  82.562 110.561  0.00  0.00    -0.276 OA
ATOM     17  H   LIG d   1       1.984  81.429 110.970  0.00  0.00     0.149 HD
ENDBRANCH   6  13
BRANCH   5  18
ATOM     18  N   LIG d   1       0.245  78.895 109.451  0.00  0.00     0.381 N 
ATOM     19  H   LIG d   1      -0.320  78.251 108.935  0.00  0.00    -0.090 HD
ATOM     20  H   LIG d   1       1.035  78.396 109.819  0.00  0.00    -0.090 HD
ATOM     21  H   LIG d   1       0.555  79.629 108.853  0.00  0.00    -0.090 HD
ENDBRANCH   5  18
BRANCH   3  22
ATOM     22  C   LIG d   1      -3.018  77.946 112.826  0.00  0.00     0.382 C 
ATOM     23  O   LIG d   1      -3.745  77.417 111.952  0.00  0.00    -0.241 OA
ATOM     24  O   LIG d   1      -3.338  77.855 114.027  0.00  0.00    -0.241 OA
ENDBRANCH   3  22
TORSDOF 7
ENDMDL
MODEL 7
REMARK VINA RESULT:      -4.5      4.391      7.675
REMARK  7 active torsions:
REMARK  status: ('A' for Active; 'I' for Inactive)
REMARK    1  A    between atoms: C_2  and  C_3 
REMARK    2  A    between atoms: C_3  and  O_6 
REMARK    3  A    between atoms: C_3  and  C_4 
REMARK    4  A    between atoms: C_7  and  O_6 
REMARK    5  A    between atoms: C_9  and  C_10 
REMARK    6  A    between atoms: N_15  and  C_14 
REMARK    7  A    between atoms: N_20  and  C_19 
REMARK       I    between atoms: C_22  and  N_20 
ROOT
ATOM      1  C   LIG d   1       0.759  80.863 114.805  0.00  0.00     0.161 C 
ATOM      2  C   LIG d   1       0.484  81.864 113.859  0.00  0.00     0.016 C 
ATOM      3  C   LIG d   1      -0.647  81.843 113.011  0.00  0.00     0.038 C 
ATOM      4  C   LIG d   1      -1.666  80.890 113.156  0.00  0.00     0.028 C 
ATOM      5  C   LIG d   1      -1.183  79.575 113.757  0.00  0.00    -0.047 C 
ATOM      6  C   LIG d   1      -0.399  79.874 115.055  0.00  0.00     0.091 C 
ENDROOT
BRANCH   1   7
ATOM      7  O   LIG d   1       1.180  81.464 116.046  0.00  0.00    -0.368 OA
BRANCH   7   8
ATOM      8  C   LIG d   1       0.130  82.031 116.868  0.00  0.00     0.119 C 
BRANCH   8   9
ATOM      9  C   LIG d   1       0.483  83.510 117.115  0.00  0.00     0.028 C 
ATOM     10  C   LIG d   1      -0.432  84.470 116.336  0.00  0.00     0.006 C 
ENDBRANCH   8   9
BRANCH   8  11
ATOM     11  C   LIG d   1       0.100  81.384 118.256  0.00  0.00     0.028 C 
ATOM     12  C   LIG d   1      -1.040  81.919 119.138  0.00  0.00     0.006 C 
ENDBRANCH   8  11
ENDBRANCH   7   8
ENDBRANCH   1   7
BRANCH   6  13
ATOM     13  N   LIG d   1       0.180  78.647 115.663  0.00  0.00    -0.311 N 
ATOM     14  C   LIG d   1      -0.402  77.975 116.654  0.00  0.00     0.210 C 
ATOM     15  C   LIG d   1       0.374  76.749 117.147  0.00  0.00     0.109 C 
ATOM     16  O   LIG d   1      -1.504  78.258 117.149  0.00  0.00    -0.276 OA
ATOM     17  H   LIG d   1       1.057  78.329 115.300  0.00  0.00     0.149 HD
ENDBRANCH   6  13
BRANCH   5  18
ATOM     18  N   LIG d   1      -2.369  78.725 113.981  0.00  0.00     0.381 N 
ATOM     19  H   LIG d   1      -2.107  77.906 114.491  0.00  0.00    -0.090 HD
ATOM     20  H   LIG d   1      -2.736  78.439 113.090  0.00  0.00    -0.090 HD
ATOM     21  H   LIG d   1      -3.061  79.233 114.486  0.00  0.00    -0.090 HD
ENDBRANCH   5  18
BRANCH   3  22
ATOM     22  C   LIG d   1      -0.746  82.761 111.976  0.00  0.00     0.382 C 
ATOM     23  O   LIG d   1      -0.837  83.986 112.231  0.00  0.00    -0.241 OA
ATOM     24  O   LIG d   1      -0.791  82.376 110.792  0.00  0.00    -0.241 OA
ENDBRANCH   3  22
TORSDOF 7
ENDMDL
MODEL 8
REMARK VINA RESULT:      -4.4      3.713      7.301
REMARK  7 active torsions:
REMARK  status: ('A' for Active; 'I' for Inactive)
REMARK    1  A    between atoms: C_2  and  C_3 
REMARK    2  A    between atoms: C_3  and  O_6 
REMARK    3  A    between atoms: C_3  and  C_4 
REMARK    4  A    between atoms: C_7  and  O_6 
REMARK    5  A    between atoms: C_9  and  C_10 
REMARK    6  A    between atoms: N_15  and  C_14 
REMARK    7  A    between atoms: N_20  and  C_19 
REMARK       I    between atoms: C_22  and  N_20 
ROOT
ATOM      1  C   LIG d   1      -0.436  80.123 113.575  0.00  0.00     0.161 C 
ATOM      2  C   LIG d   1      -1.053  79.772 112.364  0.00  0.00     0.016 C 
ATOM      3  C   LIG d   1      -1.836  78.606 112.199  0.00  0.00     0.038 C 
ATOM      4  C   LIG d   1      -2.181  77.785 113.282  0.00  0.00     0.028 C 
ATOM      5  C   LIG d   1      -1.166  77.825 114.420  0.00  0.00    -0.047 C 
ATOM      6  C   LIG d   1      -0.892  79.299 114.797  0.00  0.00     0.091 C 
ENDROOT
BRANCH   1   7
ATOM      7  O   LIG d   1      -0.617  81.531 113.826  0.00  0.00    -0.368 OA
BRANCH   7   8
ATOM      8  C   LIG d   1       0.439  82.404 113.351  0.00  0.00     0.119 C 
BRANCH   8   9
ATOM      9  C   LIG d   1       1.025  83.130 114.577  0.00  0.00     0.028 C 
ATOM     10  C   LIG d   1       0.071  83.109 115.784  0.00  0.00     0.006 C 
ENDBRANCH   8   9
BRANCH   8  11
ATOM     11  C   LIG d   1      -0.117  83.511 112.451  0.00  0.00     0.028 C 
ATOM     12  C   LIG d   1      -0.083  83.140 110.960  0.00  0.00     0.006 C 
ENDBRANCH   8  11
ENDBRANCH   7   8
ENDBRANCH   1   7
BRANCH   6  13
ATOM     13  N   LIG d   1       0.153  79.431 115.845  0.00  0.00    -0.311 N 
ATOM     14  C   LIG d   1      -0.114  79.445 117.150  0.00  0.00     0.210 C 
ATOM     15  C   LIG d   1       1.108  79.610 118.059  0.00  0.00     0.109 C 
ATOM     16  O   LIG d   1      -1.244  79.304 117.642  0.00  0.00    -0.276 OA
ATOM     17  H   LIG d   1       1.101  79.519 115.535  0.00  0.00     0.149 HD
ENDBRANCH   6  13
BRANCH   5  18
ATOM     18  N   LIG d   1      -1.716  77.034 115.537  0.00  0.00     0.381 N 
ATOM     19  H   LIG d   1      -1.131  76.242 115.712  0.00  0.00    -0.090 HD
ATOM     20  H   LIG d   1      -2.629  76.702 115.281  0.00  0.00    -0.090 HD
ATOM     21  H   LIG d   1      -1.778  77.598 116.356  0.00  0.00    -0.090 HD
ENDBRANCH   5  18
BRANCH   3  22
ATOM     22  C   LIG d   1      -2.249  78.230 110.930  0.00  0.00     0.382 C 
ATOM     23  O   LIG d   1      -1.637  78.654 109.920  0.00  0.00    -0.241 OA
ATOM     24  O   LIG d   1      -3.253  77.507 110.780  0.00  0.00    -0.241 OA
ENDBRANCH   3  22
TORSDOF 7
ENDMDL
MODEL 9
REMARK VINA RESULT:      -4.4      4.307      7.240
REMARK  7 active torsions:
REMARK  status: ('A' for Active; 'I' for Inactive)
REMARK    1  A    between atoms: C_2  and  C_3 
REMARK    2  A    between atoms: C_3  and  O_6 
REMARK    3  A    between atoms: C_3  and  C_4 
REMARK    4  A    between atoms: C_7  and  O_6 
REMARK    5  A    between atoms: C_9  and  C_10 
REMARK    6  A    between atoms: N_15  and  C_14 
REMARK    7  A    between atoms: N_20  and  C_19 
REMARK       I    between atoms: C_22  and  N_20 
ROOT
ATOM      1  C   LIG d   1       0.590  80.634 114.168  0.00  0.00     0.161 C 
ATOM      2  C   LIG d   1       0.642  82.007 113.877  0.00  0.00     0.016 C 
ATOM      3  C   LIG d   1      -0.328  82.674 113.094  0.00  0.00     0.038 C 
ATOM      4  C   LIG d   1      -1.506  82.038 112.673  0.00  0.00     0.028 C 
ATOM      5  C   LIG d   1      -1.356  80.528 112.516  0.00  0.00    -0.047 C 
ATOM      6  C   LIG d   1      -0.745  79.947 113.811  0.00  0.00     0.091 C 
ENDROOT
BRANCH   1   7
ATOM      7  O   LIG d   1       0.909  80.417 115.557  0.00  0.00    -0.368 OA
BRANCH   7   8
ATOM      8  C   LIG d   1      -0.145  80.711 116.507  0.00  0.00     0.119 C 
BRANCH   8   9
ATOM      9  C   LIG d   1       0.420  81.716 117.529  0.00  0.00     0.028 C 
ATOM     10  C   LIG d   1      -0.067  83.152 117.270  0.00  0.00     0.006 C 
ENDBRANCH   8   9
BRANCH   8  11
ATOM     11  C   LIG d   1      -0.521  79.471 117.323  0.00  0.00     0.028 C 
ATOM     12  C   LIG d   1       0.550  78.370 117.262  0.00  0.00     0.006 C 
ENDBRANCH   8  11
ENDBRANCH   7   8
ENDBRANCH   1   7
BRANCH   6  13
ATOM     13  N   LIG d   1      -0.487  78.487 113.711  0.00  0.00    -0.311 N 
ATOM     14  C   LIG d   1      -1.336  77.560 114.152  0.00  0.00     0.210 C 
ATOM     15  C   LIG d   1      -0.866  76.114 113.968  0.00  0.00     0.109 C 
ATOM     16  O   LIG d   1      -2.447  77.798 114.648  0.00  0.00    -0.276 OA
ATOM     17  H   LIG d   1       0.378  78.204 113.293  0.00  0.00     0.149 HD
ENDBRANCH   6  13
BRANCH   5  18
ATOM     18  N   LIG d   1      -2.689  79.978 112.208  0.00  0.00     0.381 N 
ATOM     19  H   LIG d   1      -3.373  80.707 112.244  0.00  0.00    -0.090 HD
ATOM     20  H   LIG d   1      -2.925  79.290 112.902  0.00  0.00    -0.090 HD
ATOM     21  H   LIG d   1      -2.685  79.560 111.304  0.00  0.00    -0.090 HD
ENDBRANCH   5  18
BRANCH   3  22
ATOM     22  C   LIG d   1      -0.106  83.981 112.691  0.00  0.00     0.382 C 
ATOM     23  O   LIG d   1      -0.796  84.479 111.769  0.00  0.00    -0.241 OA
ATOM     24  O   LIG d   1       0.806  84.655 113.207  0.00  0.00    -0.241 OA
ENDBRANCH   3  22
TORSDOF 7
ENDMDL
