MODEL 1
REMARK VINA RESULT:      -5.7      0.000      0.000
REMARK  7 active torsions:
REMARK  status: ('A' for Active; 'I' for Inactive)
REMARK    1  A    between atoms: C_2  and  C_3 
REMARK    2  A    between atoms: C_3  and  O_6 
REMARK    3  A    between atoms: C_3  and  C_4 
REMARK    4  A    between atoms: C_7  and  O_6 
REMARK    5  A    between atoms: C_9  and  C_10 
REMARK    6  A    between atoms: N_15  and  C_14 
REMARK    7  A    between atoms: N_20  and  C_19 
REMARK       I    between atoms: C_22  and  N_20 
ROOT
ATOM      1  C   LIG d   1      -2.530  77.513 116.024  0.00  0.00     0.161 C 
ATOM      2  C   LIG d   1      -2.891  78.389 114.987  0.00  0.00     0.016 C 
ATOM      3  C   LIG d   1      -2.204  78.459 113.753  0.00  0.00     0.038 C 
ATOM      4  C   LIG d   1      -1.196  77.545 113.413  0.00  0.00     0.028 C 
ATOM      5  C   LIG d   1      -0.463  76.974 114.622  0.00  0.00    -0.047 C 
ATOM      6  C   LIG d   1      -1.502  76.432 115.629  0.00  0.00     0.091 C 
ENDROOT
BRANCH   1   7
ATOM      7  O   LIG d   1      -3.710  76.903 116.582  0.00  0.00    -0.368 OA
BRANCH   7   8
ATOM      8  C   LIG d   1      -4.864  76.831 115.708  0.00  0.00     0.119 C 
BRANCH   8   9
ATOM      9  C   LIG d   1      -6.107  77.167 116.555  0.00  0.00     0.028 C 
ATOM     10  C   LIG d   1      -5.960  78.499 117.310  0.00  0.00     0.006 C 
ENDBRANCH   8   9
BRANCH   8  11
ATOM     11  C   LIG d   1      -5.092  75.404 115.201  0.00  0.00     0.028 C 
ATOM     12  C   LIG d   1      -6.306  75.291 114.266  0.00  0.00     0.006 C 
ENDBRANCH   8  11
ENDBRANCH   7   8
ENDBRANCH   1   7
BRANCH   6  13
ATOM     13  N   LIG d   1      -0.873  75.931 116.879  0.00  0.00    -0.311 N 
ATOM     14  C   LIG d   1      -1.331  74.883 117.561  0.00  0.00     0.210 C 
ATOM     15  C   LIG d   1      -0.546  74.546 118.833  0.00  0.00     0.109 C 
ATOM     16  O   LIG d   1      -2.293  74.180 117.217  0.00  0.00    -0.276 OA
ATOM     17  H   LIG d   1      -0.068  76.424 117.214  0.00  0.00     0.149 HD
ENDBRANCH   6  13
BRANCH   5  18
ATOM     18  N   LIG d   1       0.464  75.936 114.132  0.00  0.00     0.381 N 
ATOM     19  H   LIG d   1      -0.053  75.129 113.844  0.00  0.00    -0.090 HD
ATOM     20  H   LIG d   1       1.077  75.667 114.882  0.00  0.00    -0.090 HD
ATOM     21  H   LIG d   1       0.997  76.288 113.368  0.00  0.00    -0.090 HD
ENDBRANCH   5  18
BRANCH   3  22
ATOM     22  C   LIG d   1      -2.498  79.478 112.860  0.00  0.00     0.382 C 
ATOM     23  O   LIG d   1      -2.031  79.446 111.696  0.00  0.00    -0.241 OA
ATOM     24  O   LIG d   1      -3.189  80.452 113.217  0.00  0.00    -0.241 OA
ENDBRANCH   3  22
TORSDOF 7
ENDMDL
MODEL 2
REMARK VINA RESULT:      -5.6      1.681      4.960
REMARK  7 active torsions:
REMARK  status: ('A' for Active; 'I' for Inactive)
REMARK    1  A    between atoms: C_2  and  C_3 
REMARK    2  A    between atoms: C_3  and  O_6 
REMARK    3  A    between atoms: C_3  and  C_4 
REMARK    4  A    between atoms: C_7  and  O_6 
REMARK    5  A    between atoms: C_9  and  C_10 
REMARK    6  A    between atoms: N_15  and  C_14 
REMARK    7  A    between atoms: N_20  and  C_19 
REMARK       I    between atoms: C_22  and  N_20 
ROOT
ATOM      1  C   LIG d   1      -2.014  75.954 114.879  0.00  0.00     0.161 C 
ATOM      2  C   LIG d   1      -1.920  75.278 116.107  0.00  0.00     0.016 C 
ATOM      3  C   LIG d   1      -1.139  75.740 117.191  0.00  0.00     0.038 C 
ATOM      4  C   LIG d   1      -0.515  76.996 117.173  0.00  0.00     0.028 C 
ATOM      5  C   LIG d   1      -0.170  77.481 115.769  0.00  0.00    -0.047 C 
ATOM      6  C   LIG d   1      -1.430  77.382 114.880  0.00  0.00     0.091 C 
ENDROOT
BRANCH   1   7
ATOM      7  O   LIG d   1      -3.386  75.974 114.437  0.00  0.00    -0.368 OA
BRANCH   7   8
ATOM      8  C   LIG d   1      -4.379  75.603 115.424  0.00  0.00     0.119 C 
BRANCH   8   9
ATOM      9  C   LIG d   1      -5.371  74.639 114.744  0.00  0.00     0.028 C 
ATOM     10  C   LIG d   1      -6.443  75.380 113.928  0.00  0.00     0.006 C 
ENDBRANCH   8   9
BRANCH   8  11
ATOM     11  C   LIG d   1      -5.218  76.811 115.853  0.00  0.00     0.028 C 
ATOM     12  C   LIG d   1      -4.523  77.670 116.921  0.00  0.00     0.006 C 
ENDBRANCH   8  11
ENDBRANCH   7   8
ENDBRANCH   1   7
BRANCH   6  13
ATOM     13  N   LIG d   1      -1.159  77.758 113.468  0.00  0.00    -0.311 N 
ATOM     14  C   LIG d   1      -1.972  78.526 112.745  0.00  0.00     0.210 C 
ATOM     15  C   LIG d   1      -1.514  78.775 111.304  0.00  0.00     0.109 C 
ATOM     16  O   LIG d   1      -3.012  79.051 113.169  0.00  0.00    -0.276 OA
ATOM     17  H   LIG d   1      -0.320  77.400 113.054  0.00  0.00     0.149 HD
ENDBRANCH   6  13
BRANCH   5  18
ATOM     18  N   LIG d   1       0.347  78.858 115.888  0.00  0.00     0.381 N 
ATOM     19  H   LIG d   1       1.337  78.861 115.746  0.00  0.00    -0.090 HD
ATOM     20  H   LIG d   1       0.161  79.196 116.815  0.00  0.00    -0.090 HD
ATOM     21  H   LIG d   1      -0.094  79.447 115.216  0.00  0.00    -0.090 HD
ENDBRANCH   5  18
BRANCH   3  22
ATOM     22  C   LIG d   1      -0.943  74.923 118.294  0.00  0.00     0.382 C 
ATOM     23  O   LIG d   1       0.175  74.896 118.864  0.00  0.00    -0.241 OA
ATOM     24  O   LIG d   1      -1.856  74.180 118.700  0.00  0.00    -0.241 OA
ENDBRANCH   3  22
TORSDOF 7
ENDMDL
MODEL 3
REMARK VINA RESULT:      -5.3      1.460      2.140
REMARK  7 active torsions:
REMARK  status: ('A' for Active; 'I' for Inactive)
REMARK    1  A    between atoms: C_2  and  C_3 
REMARK    2  A    between atoms: C_3  and  O_6 
REMARK    3  A    between atoms: C_3  and  C_4 
REMARK    4  A    between atoms: C_7  and  O_6 
REMARK    5  A    between atoms: C_9  and  C_10 
REMARK    6  A    between atoms: N_15  and  C_14 
REMARK    7  A    between atoms: N_20  and  C_19 
REMARK       I    between atoms: C_22  and  N_20 
ROOT
ATOM      1  C   LIG d   1      -2.878  77.781 115.926  0.00  0.00     0.161 C 
ATOM      2  C   LIG d   1      -3.096  78.709 114.894  0.00  0.00     0.016 C 
ATOM      3  C   LIG d   1      -2.315  78.761 113.717  0.00  0.00     0.038 C 
ATOM      4  C   LIG d   1      -1.351  77.785 113.423  0.00  0.00     0.028 C 
ATOM      5  C   LIG d   1      -0.754  77.130 114.664  0.00  0.00    -0.047 C 
ATOM      6  C   LIG d   1      -1.903  76.639 115.573  0.00  0.00     0.091 C 
ENDROOT
BRANCH   1   7
ATOM      7  O   LIG d   1      -4.138  77.244 116.375  0.00  0.00    -0.368 OA
BRANCH   7   8
ATOM      8  C   LIG d   1      -4.602  77.704 117.668  0.00  0.00     0.119 C 
BRANCH   8   9
ATOM      9  C   LIG d   1      -5.720  78.735 117.418  0.00  0.00     0.028 C 
ATOM     10  C   LIG d   1      -6.421  79.167 118.717  0.00  0.00     0.006 C 
ENDBRANCH   8   9
BRANCH   8  11
ATOM     11  C   LIG d   1      -3.505  78.468 118.415  0.00  0.00     0.028 C 
ATOM     12  C   LIG d   1      -3.066  77.765 119.710  0.00  0.00     0.006 C 
ENDBRANCH   8  11
ENDBRANCH   7   8
ENDBRANCH   1   7
BRANCH   6  13
ATOM     13  N   LIG d   1      -1.407  76.060 116.850  0.00  0.00    -0.311 N 
ATOM     14  C   LIG d   1      -1.857  74.915 117.359  0.00  0.00     0.210 C 
ATOM     15  C   LIG d   1      -1.226  74.509 118.695  0.00  0.00     0.109 C 
ATOM     16  O   LIG d   1      -2.696  74.180 116.816  0.00  0.00    -0.276 OA
ATOM     17  H   LIG d   1      -0.703  76.575 117.341  0.00  0.00     0.149 HD
ENDBRANCH   6  13
BRANCH   5  18
ATOM     18  N   LIG d   1       0.132  76.041 114.210  0.00  0.00     0.381 N 
ATOM     19  H   LIG d   1       0.940  76.425 113.764  0.00  0.00    -0.090 HD
ATOM     20  H   LIG d   1      -0.362  75.479 113.539  0.00  0.00    -0.090 HD
ATOM     21  H   LIG d   1       0.407  75.480 114.986  0.00  0.00    -0.090 HD
ENDBRANCH   5  18
BRANCH   3  22
ATOM     22  C   LIG d   1      -2.468  79.822 112.837  0.00  0.00     0.382 C 
ATOM     23  O   LIG d   1      -3.145  80.823 113.174  0.00  0.00    -0.241 OA
ATOM     24  O   LIG d   1      -1.974  79.772 111.695  0.00  0.00    -0.241 OA
ENDBRANCH   3  22
TORSDOF 7
ENDMDL
MODEL 4
REMARK VINA RESULT:      -5.0      3.120      5.055
REMARK  7 active torsions:
REMARK  status: ('A' for Active; 'I' for Inactive)
REMARK    1  A    between atoms: C_2  and  C_3 
REMARK    2  A    between atoms: C_3  and  O_6 
REMARK    3  A    between atoms: C_3  and  C_4 
REMARK    4  A    between atoms: C_7  and  O_6 
REMARK    5  A    between atoms: C_9  and  C_10 
REMARK    6  A    between atoms: N_15  and  C_14 
REMARK    7  A    between atoms: N_20  and  C_19 
REMARK       I    between atoms: C_22  and  N_20 
ROOT
ATOM      1  C   LIG d   1      -5.093  77.941 117.100  0.00  0.00     0.161 C 
ATOM      2  C   LIG d   1      -3.752  78.352 117.169  0.00  0.00     0.016 C 
ATOM      3  C   LIG d   1      -2.703  77.705 116.476  0.00  0.00     0.038 C 
ATOM      4  C   LIG d   1      -2.949  76.688 115.542  0.00  0.00     0.028 C 
ATOM      5  C   LIG d   1      -4.229  75.907 115.819  0.00  0.00    -0.047 C 
ATOM      6  C   LIG d   1      -5.396  76.904 115.999  0.00  0.00     0.091 C 
ENDROOT
BRANCH   1   7
ATOM      7  O   LIG d   1      -5.950  79.091 116.954  0.00  0.00    -0.368 OA
BRANCH   7   8
ATOM      8  C   LIG d   1      -6.416  79.699 118.184  0.00  0.00     0.119 C 
BRANCH   8   9
ATOM      9  C   LIG d   1      -7.163  78.613 118.983  0.00  0.00     0.028 C 
ATOM     10  C   LIG d   1      -8.583  78.363 118.448  0.00  0.00     0.006 C 
ENDBRANCH   8   9
BRANCH   8  11
ATOM     11  C   LIG d   1      -7.458  80.787 117.907  0.00  0.00     0.028 C 
ATOM     12  C   LIG d   1      -7.498  81.866 119.001  0.00  0.00     0.006 C 
ENDBRANCH   8  11
ENDBRANCH   7   8
ENDBRANCH   1   7
BRANCH   6  13
ATOM     13  N   LIG d   1      -6.670  76.226 116.358  0.00  0.00    -0.311 N 
ATOM     14  C   LIG d   1      -7.544  75.784 115.455  0.00  0.00     0.210 C 
ATOM     15  C   LIG d   1      -8.802  75.134 116.039  0.00  0.00     0.109 C 
ATOM     16  O   LIG d   1      -7.382  75.840 114.227  0.00  0.00    -0.276 OA
ATOM     17  H   LIG d   1      -6.867  76.111 117.333  0.00  0.00     0.149 HD
ENDBRANCH   6  13
BRANCH   5  18
ATOM     18  N   LIG d   1      -4.434  74.973 114.695  0.00  0.00     0.381 N 
ATOM     19  H   LIG d   1      -3.550  74.720 114.300  0.00  0.00    -0.090 HD
ATOM     20  H   LIG d   1      -4.976  75.433 113.986  0.00  0.00    -0.090 HD
ATOM     21  H   LIG d   1      -4.911  74.158 115.012  0.00  0.00    -0.090 HD
ENDBRANCH   5  18
BRANCH   3  22
ATOM     22  C   LIG d   1      -1.387  78.047 116.746  0.00  0.00     0.382 C 
ATOM     23  O   LIG d   1      -1.130  78.913 117.617  0.00  0.00    -0.241 OA
ATOM     24  O   LIG d   1      -0.455  77.534 116.098  0.00  0.00    -0.241 OA
ENDBRANCH   3  22
TORSDOF 7
ENDMDL
MODEL 5
REMARK VINA RESULT:      -5.0      2.703      4.631
REMARK  7 active torsions:
REMARK  status: ('A' for Active; 'I' for Inactive)
REMARK    1  A    between atoms: C_2  and  C_3 
REMARK    2  A    between atoms: C_3  and  O_6 
REMARK    3  A    between atoms: C_3  and  C_4 
REMARK    4  A    between atoms: C_7  and  O_6 
REMARK    5  A    between atoms: C_9  and  C_10 
REMARK    6  A    between atoms: N_15  and  C_14 
REMARK    7  A    between atoms: N_20  and  C_19 
REMARK       I    between atoms: C_22  and  N_20 
ROOT
ATOM      1  C   LIG d   1      -4.111  77.851 117.442  0.00  0.00     0.161 C 
ATOM      2  C   LIG d   1      -3.160  78.574 118.180  0.00  0.00     0.016 C 
ATOM      3  C   LIG d   1      -1.771  78.524 117.922  0.00  0.00     0.038 C 
ATOM      4  C   LIG d   1      -1.249  77.858 116.802  0.00  0.00     0.028 C 
ATOM      5  C   LIG d   1      -2.121  76.702 116.324  0.00  0.00    -0.047 C 
ATOM      6  C   LIG d   1      -3.571  77.207 116.147  0.00  0.00     0.091 C 
ENDROOT
BRANCH   1   7
ATOM      7  O   LIG d   1      -5.244  78.692 117.149  0.00  0.00    -0.368 OA
BRANCH   7   8
ATOM      8  C   LIG d   1      -6.344  78.630 118.090  0.00  0.00     0.119 C 
BRANCH   8   9
ATOM      9  C   LIG d   1      -7.284  77.499 117.629  0.00  0.00     0.028 C 
ATOM     10  C   LIG d   1      -8.578  77.438 118.458  0.00  0.00     0.006 C 
ENDBRANCH   8   9
BRANCH   8  11
ATOM     11  C   LIG d   1      -7.191  79.905 118.043  0.00  0.00     0.028 C 
ATOM     12  C   LIG d   1      -6.906  80.853 119.219  0.00  0.00     0.006 C 
ENDBRANCH   8  11
ENDBRANCH   7   8
ENDBRANCH   1   7
BRANCH   6  13
ATOM     13  N   LIG d   1      -4.508  76.119 115.762  0.00  0.00    -0.311 N 
ATOM     14  C   LIG d   1      -4.852  75.860 114.502  0.00  0.00     0.210 C 
ATOM     15  C   LIG d   1      -5.846  74.708 114.326  0.00  0.00     0.109 C 
ATOM     16  O   LIG d   1      -4.403  76.455 113.510  0.00  0.00    -0.276 OA
ATOM     17  H   LIG d   1      -4.894  75.567 116.502  0.00  0.00     0.149 HD
ENDBRANCH   6  13
BRANCH   5  18
ATOM     18  N   LIG d   1      -1.532  76.188 115.073  0.00  0.00     0.381 N 
ATOM     19  H   LIG d   1      -1.222  76.951 114.505  0.00  0.00    -0.090 HD
ATOM     20  H   LIG d   1      -2.237  75.683 114.565  0.00  0.00    -0.090 HD
ATOM     21  H   LIG d   1      -0.766  75.586 115.279  0.00  0.00    -0.090 HD
ENDBRANCH   5  18
BRANCH   3  22
ATOM     22  C   LIG d   1      -0.884  79.111 118.811  0.00  0.00     0.382 C 
ATOM     23  O   LIG d   1      -0.245  80.137 118.475  0.00  0.00    -0.241 OA
ATOM     24  O   LIG d   1      -0.681  78.601 119.930  0.00  0.00    -0.241 OA
ENDBRANCH   3  22
TORSDOF 7
ENDMDL
MODEL 6
REMARK VINA RESULT:      -4.9      2.424      4.972
REMARK  7 active torsions:
REMARK  status: ('A' for Active; 'I' for Inactive)
REMARK    1  A    between atoms: C_2  and  C_3 
REMARK    2  A    between atoms: C_3  and  O_6 
REMARK    3  A    between atoms: C_3  and  C_4 
REMARK    4  A    between atoms: C_7  and  O_6 
REMARK    5  A    between atoms: C_9  and  C_10 
REMARK    6  A    between atoms: N_15  and  C_14 
REMARK    7  A    between atoms: N_20  and  C_19 
REMARK       I    between atoms: C_22  and  N_20 
ROOT
ATOM      1  C   LIG d   1      -1.802  77.798 114.780  0.00  0.00     0.161 C 
ATOM      2  C   LIG d   1      -2.953  77.208 114.231  0.00  0.00     0.016 C 
ATOM      3  C   LIG d   1      -3.951  76.578 115.009  0.00  0.00     0.038 C 
ATOM      4  C   LIG d   1      -3.941  76.630 116.411  0.00  0.00     0.028 C 
ATOM      5  C   LIG d   1      -2.543  76.776 117.002  0.00  0.00    -0.047 C 
ATOM      6  C   LIG d   1      -1.829  77.962 116.314  0.00  0.00     0.091 C 
ENDROOT
BRANCH   1   7
ATOM      7  O   LIG d   1      -1.554  79.068 114.145  0.00  0.00    -0.368 OA
BRANCH   7   8
ATOM      8  C   LIG d   1      -2.314  79.338 112.941  0.00  0.00     0.119 C 
BRANCH   8   9
ATOM      9  C   LIG d   1      -1.356  79.180 111.744  0.00  0.00     0.028 C 
ATOM     10  C   LIG d   1      -1.910  78.227 110.671  0.00  0.00     0.006 C 
ENDBRANCH   8   9
BRANCH   8  11
ATOM     11  C   LIG d   1      -2.785  80.794 112.894  0.00  0.00     0.028 C 
ATOM     12  C   LIG d   1      -1.658  81.774 112.532  0.00  0.00     0.006 C 
ENDBRANCH   8  11
ENDBRANCH   7   8
ENDBRANCH   1   7
BRANCH   6  13
ATOM     13  N   LIG d   1      -0.425  78.122 116.774  0.00  0.00    -0.311 N 
ATOM     14  C   LIG d   1      -0.072  78.904 117.793  0.00  0.00     0.210 C 
ATOM     15  C   LIG d   1       1.431  78.941 118.089  0.00  0.00     0.109 C 
ATOM     16  O   LIG d   1      -0.864  79.544 118.501  0.00  0.00    -0.276 OA
ATOM     17  H   LIG d   1       0.279  77.614 116.276  0.00  0.00     0.149 HD
ENDBRANCH   6  13
BRANCH   5  18
ATOM     18  N   LIG d   1      -2.691  76.956 118.458  0.00  0.00     0.381 N 
ATOM     19  H   LIG d   1      -2.692  76.065 118.912  0.00  0.00    -0.090 HD
ATOM     20  H   LIG d   1      -3.572  77.404 118.643  0.00  0.00    -0.090 HD
ATOM     21  H   LIG d   1      -1.946  77.516 118.810  0.00  0.00    -0.090 HD
ENDBRANCH   5  18
BRANCH   3  22
ATOM     22  C   LIG d   1      -4.954  75.853 114.384  0.00  0.00     0.382 C 
ATOM     23  O   LIG d   1      -6.122  76.310 114.336  0.00  0.00    -0.241 OA
ATOM     24  O   LIG d   1      -4.716  74.728 113.906  0.00  0.00    -0.241 OA
ENDBRANCH   3  22
TORSDOF 7
ENDMDL
MODEL 7
REMARK VINA RESULT:      -4.9      3.145      4.698
REMARK  7 active torsions:
REMARK  status: ('A' for Active; 'I' for Inactive)
REMARK    1  A    between atoms: C_2  and  C_3 
REMARK    2  A    between atoms: C_3  and  O_6 
REMARK    3  A    between atoms: C_3  and  C_4 
REMARK    4  A    between atoms: C_7  and  O_6 
REMARK    5  A    between atoms: C_9  and  C_10 
REMARK    6  A    between atoms: N_15  and  C_14 
REMARK    7  A    between atoms: N_20  and  C_19 
REMARK       I    between atoms: C_22  and  N_20 
ROOT
ATOM      1  C   LIG d   1      -5.618  77.901 117.251  0.00  0.00     0.161 C 
ATOM      2  C   LIG d   1      -6.056  77.019 116.249  0.00  0.00     0.016 C 
ATOM      3  C   LIG d   1      -5.182  76.211 115.487  0.00  0.00     0.038 C 
ATOM      4  C   LIG d   1      -3.813  76.118 115.779  0.00  0.00     0.028 C 
ATOM      5  C   LIG d   1      -3.251  77.368 116.448  0.00  0.00    -0.047 C 
ATOM      6  C   LIG d   1      -4.140  77.731 117.660  0.00  0.00     0.091 C 
ENDROOT
BRANCH   1   7
ATOM      7  O   LIG d   1      -6.473  77.792 118.406  0.00  0.00    -0.368 OA
BRANCH   7   8
ATOM      8  C   LIG d   1      -7.239  78.975 118.745  0.00  0.00     0.119 C 
BRANCH   8   9
ATOM      9  C   LIG d   1      -8.726  78.645 118.513  0.00  0.00     0.028 C 
ATOM     10  C   LIG d   1      -9.001  77.132 118.530  0.00  0.00     0.006 C 
ENDBRANCH   8   9
BRANCH   8  11
ATOM     11  C   LIG d   1      -6.927  80.133 117.793  0.00  0.00     0.028 C 
ATOM     12  C   LIG d   1      -7.972  81.258 117.861  0.00  0.00     0.006 C 
ENDBRANCH   8  11
ENDBRANCH   7   8
ENDBRANCH   1   7
BRANCH   6  13
ATOM     13  N   LIG d   1      -3.709  78.991 118.321  0.00  0.00    -0.311 N 
ATOM     14  C   LIG d   1      -2.879  79.025 119.362  0.00  0.00     0.210 C 
ATOM     15  C   LIG d   1      -2.580  80.426 119.905  0.00  0.00     0.109 C 
ATOM     16  O   LIG d   1      -2.336  78.031 119.867  0.00  0.00    -0.276 OA
ATOM     17  H   LIG d   1      -4.077  79.847 117.956  0.00  0.00     0.149 HD
ENDBRANCH   6  13
BRANCH   5  18
ATOM     18  N   LIG d   1      -1.853  77.083 116.822  0.00  0.00     0.381 N 
ATOM     19  H   LIG d   1      -1.827  76.613 117.705  0.00  0.00    -0.090 HD
ATOM     20  H   LIG d   1      -1.357  77.952 116.912  0.00  0.00    -0.090 HD
ATOM     21  H   LIG d   1      -1.422  76.518 116.124  0.00  0.00    -0.090 HD
ENDBRANCH   5  18
BRANCH   3  22
ATOM     22  C   LIG d   1      -5.670  75.514 114.391  0.00  0.00     0.382 C 
ATOM     23  O   LIG d   1      -5.729  76.072 113.269  0.00  0.00    -0.241 OA
ATOM     24  O   LIG d   1      -6.093  74.350 114.520  0.00  0.00    -0.241 OA
ENDBRANCH   3  22
TORSDOF 7
ENDMDL
MODEL 8
REMARK VINA RESULT:      -4.9      2.743      3.895
REMARK  7 active torsions:
REMARK  status: ('A' for Active; 'I' for Inactive)
REMARK    1  A    between atoms: C_2  and  C_3 
REMARK    2  A    between atoms: C_3  and  O_6 
REMARK    3  A    between atoms: C_3  and  C_4 
REMARK    4  A    between atoms: C_7  and  O_6 
REMARK    5  A    between atoms: C_9  and  C_10 
REMARK    6  A    between atoms: N_15  and  C_14 
REMARK    7  A    between atoms: N_20  and  C_19 
REMARK       I    between atoms: C_22  and  N_20 
ROOT
ATOM      1  C   LIG d   1      -3.487  77.147 116.952  0.00  0.00     0.161 C 
ATOM      2  C   LIG d   1      -4.664  76.874 116.236  0.00  0.00     0.016 C 
ATOM      3  C   LIG d   1      -4.793  75.794 115.333  0.00  0.00     0.038 C 
ATOM      4  C   LIG d   1      -3.795  74.817 115.197  0.00  0.00     0.028 C 
ATOM      5  C   LIG d   1      -2.397  75.332 115.521  0.00  0.00    -0.047 C 
ATOM      6  C   LIG d   1      -2.425  76.028 116.901  0.00  0.00     0.091 C 
ENDROOT
BRANCH   1   7
ATOM      7  O   LIG d   1      -3.809  77.469 118.319  0.00  0.00    -0.368 OA
BRANCH   7   8
ATOM      8  C   LIG d   1      -4.169  78.848 118.581  0.00  0.00     0.119 C 
BRANCH   8   9
ATOM      9  C   LIG d   1      -3.281  79.347 119.737  0.00  0.00     0.028 C 
ATOM     10  C   LIG d   1      -1.868  79.732 119.268  0.00  0.00     0.006 C 
ENDBRANCH   8   9
BRANCH   8  11
ATOM     11  C   LIG d   1      -5.607  78.959 119.097  0.00  0.00     0.028 C 
ATOM     12  C   LIG d   1      -6.529  79.723 118.132  0.00  0.00     0.006 C 
ENDBRANCH   8  11
ENDBRANCH   7   8
ENDBRANCH   1   7
BRANCH   6  13
ATOM     13  N   LIG d   1      -1.115  76.635 117.256  0.00  0.00    -0.311 N 
ATOM     14  C   LIG d   1      -0.197  76.015 117.995  0.00  0.00     0.210 C 
ATOM     15  C   LIG d   1       1.075  76.826 118.261  0.00  0.00     0.109 C 
ATOM     16  O   LIG d   1      -0.301  74.857 118.429  0.00  0.00    -0.276 OA
ATOM     17  H   LIG d   1      -0.935  77.560 116.919  0.00  0.00     0.149 HD
ENDBRANCH   6  13
BRANCH   5  18
ATOM     18  N   LIG d   1      -1.476  74.180 115.473  0.00  0.00     0.381 N 
ATOM     19  H   LIG d   1      -1.504  73.688 116.343  0.00  0.00    -0.090 HD
ATOM     20  H   LIG d   1      -0.540  74.518 115.331  0.00  0.00    -0.090 HD
ATOM     21  H   LIG d   1      -1.733  73.569 114.729  0.00  0.00    -0.090 HD
ENDBRANCH   5  18
BRANCH   3  22
ATOM     22  C   LIG d   1      -5.916  75.705 114.524  0.00  0.00     0.382 C 
ATOM     23  O   LIG d   1      -5.818  75.912 113.291  0.00  0.00    -0.241 OA
ATOM     24  O   LIG d   1      -7.034  75.463 115.019  0.00  0.00    -0.241 OA
ENDBRANCH   3  22
TORSDOF 7
ENDMDL
MODEL 9
REMARK VINA RESULT:      -4.9      2.758      4.998
REMARK  7 active torsions:
REMARK  status: ('A' for Active; 'I' for Inactive)
REMARK    1  A    between atoms: C_2  and  C_3 
REMARK    2  A    between atoms: C_3  and  O_6 
REMARK    3  A    between atoms: C_3  and  C_4 
REMARK    4  A    between atoms: C_7  and  O_6 
REMARK    5  A    between atoms: C_9  and  C_10 
REMARK    6  A    between atoms: N_15  and  C_14 
REMARK    7  A    between atoms: N_20  and  C_19 
REMARK       I    between atoms: C_22  and  N_20 
ROOT
ATOM      1  C   LIG d   1      -4.572  77.354 116.653  0.00  0.00     0.161 C 
ATOM      2  C   LIG d   1      -5.928  77.660 116.857  0.00  0.00     0.016 C 
ATOM      3  C   LIG d   1      -6.385  78.540 117.864  0.00  0.00     0.038 C 
ATOM      4  C   LIG d   1      -5.499  79.298 118.645  0.00  0.00     0.028 C 
ATOM      5  C   LIG d   1      -4.131  78.644 118.815  0.00  0.00    -0.047 C 
ATOM      6  C   LIG d   1      -3.584  78.256 117.422  0.00  0.00     0.091 C 
ENDROOT
BRANCH   1   7
ATOM      7  O   LIG d   1      -4.274  77.372 115.243  0.00  0.00    -0.368 OA
BRANCH   7   8
ATOM      8  C   LIG d   1      -4.145  76.079 114.603  0.00  0.00     0.119 C 
BRANCH   8   9
ATOM      9  C   LIG d   1      -5.543  75.671 114.098  0.00  0.00     0.028 C 
ATOM     10  C   LIG d   1      -6.065  74.395 114.780  0.00  0.00     0.006 C 
ENDBRANCH   8   9
BRANCH   8  11
ATOM     11  C   LIG d   1      -3.746  74.996 115.610  0.00  0.00     0.028 C 
ATOM     12  C   LIG d   1      -2.286  74.542 115.450  0.00  0.00     0.006 C 
ENDBRANCH   8  11
ENDBRANCH   7   8
ENDBRANCH   1   7
BRANCH   6  13
ATOM     13  N   LIG d   1      -2.287  77.535 117.504  0.00  0.00    -0.311 N 
ATOM     14  C   LIG d   1      -1.267  77.766 116.679  0.00  0.00     0.210 C 
ATOM     15  C   LIG d   1      -0.028  76.898 116.924  0.00  0.00     0.109 C 
ATOM     16  O   LIG d   1      -1.258  78.629 115.789  0.00  0.00    -0.276 OA
ATOM     17  H   LIG d   1      -2.196  76.839 118.217  0.00  0.00     0.149 HD
ENDBRANCH   6  13
BRANCH   5  18
ATOM     18  N   LIG d   1      -3.266  79.601 119.530  0.00  0.00     0.381 N 
ATOM     19  H   LIG d   1      -2.693  79.113 120.189  0.00  0.00    -0.090 HD
ATOM     20  H   LIG d   1      -3.845  80.249 120.035  0.00  0.00    -0.090 HD
ATOM     21  H   LIG d   1      -2.692  80.093 118.881  0.00  0.00    -0.090 HD
ENDBRANCH   5  18
BRANCH   3  22
ATOM     22  C   LIG d   1      -7.743  78.640 118.126  0.00  0.00     0.382 C 
ATOM     23  O   LIG d   1      -8.465  77.615 118.091  0.00  0.00    -0.241 OA
ATOM     24  O   LIG d   1      -8.263  79.749 118.353  0.00  0.00    -0.241 OA
ENDBRANCH   3  22
TORSDOF 7
ENDMDL
