MODEL 1
REMARK VINA RESULT:      -5.5      0.000      0.000
REMARK  7 active torsions:
REMARK  status: ('A' for Active; 'I' for Inactive)
REMARK    1  A    between atoms: C_2  and  C_3 
REMARK    2  A    between atoms: C_3  and  O_6 
REMARK    3  A    between atoms: C_3  and  C_4 
REMARK    4  A    between atoms: C_7  and  O_6 
REMARK    5  A    between atoms: C_9  and  C_10 
REMARK    6  A    between atoms: N_15  and  C_14 
REMARK    7  A    between atoms: N_20  and  C_19 
REMARK       I    between atoms: C_22  and  N_20 
ROOT
ATOM      1  C   LIG d   1      -2.927  75.637 115.821  0.00  0.00     0.161 C 
ATOM      2  C   LIG d   1      -3.091  76.568 114.782  0.00  0.00     0.016 C 
ATOM      3  C   LIG d   1      -2.041  76.967 113.923  0.00  0.00     0.038 C 
ATOM      4  C   LIG d   1      -0.784  76.345 113.949  0.00  0.00     0.028 C 
ATOM      5  C   LIG d   1      -0.426  75.759 115.310  0.00  0.00    -0.047 C 
ATOM      6  C   LIG d   1      -1.591  74.865 115.793  0.00  0.00     0.091 C 
ENDROOT
BRANCH   1   7
ATOM      7  O   LIG d   1      -4.037  74.717 115.832  0.00  0.00    -0.368 OA
BRANCH   7   8
ATOM      8  C   LIG d   1      -5.336  75.282 115.525  0.00  0.00     0.119 C 
BRANCH   8   9
ATOM      9  C   LIG d   1      -5.947  75.782 116.848  0.00  0.00     0.028 C 
ATOM     10  C   LIG d   1      -6.064  77.315 116.898  0.00  0.00     0.006 C 
ENDBRANCH   8   9
BRANCH   8  11
ATOM     11  C   LIG d   1      -6.302  74.210 115.012  0.00  0.00     0.028 C 
ATOM     12  C   LIG d   1      -7.627  74.181 115.790  0.00  0.00     0.006 C 
ENDBRANCH   8  11
ENDBRANCH   7   8
ENDBRANCH   1   7
BRANCH   6  13
ATOM     13  N   LIG d   1      -1.359  74.319 117.156  0.00  0.00    -0.311 N 
ATOM     14  C   LIG d   1      -1.076  75.079 118.212  0.00  0.00     0.210 C 
ATOM     15  C   LIG d   1      -0.854  74.313 119.520  0.00  0.00     0.109 C 
ATOM     16  O   LIG d   1      -1.021  76.318 118.197  0.00  0.00    -0.276 OA
ATOM     17  H   LIG d   1      -1.416  73.325 117.265  0.00  0.00     0.149 HD
ENDBRANCH   6  13
BRANCH   5  18
ATOM     18  N   LIG d   1       0.843  75.023 115.159  0.00  0.00     0.381 N 
ATOM     19  H   LIG d   1       0.702  74.056 115.375  0.00  0.00    -0.090 HD
ATOM     20  H   LIG d   1       1.514  75.396 115.807  0.00  0.00    -0.090 HD
ATOM     21  H   LIG d   1       1.183  75.117 114.227  0.00  0.00    -0.090 HD
ENDBRANCH   5  18
BRANCH   3  22
ATOM     22  C   LIG d   1      -2.233  78.029 113.051  0.00  0.00     0.382 C 
ATOM     23  O   LIG d   1      -1.700  79.139 113.289  0.00  0.00    -0.241 OA
ATOM     24  O   LIG d   1      -2.968  77.902 112.054  0.00  0.00    -0.241 OA
ENDBRANCH   3  22
TORSDOF 7
ENDMDL
MODEL 2
REMARK VINA RESULT:      -5.3      1.916      4.821
REMARK  7 active torsions:
REMARK  status: ('A' for Active; 'I' for Inactive)
REMARK    1  A    between atoms: C_2  and  C_3 
REMARK    2  A    between atoms: C_3  and  O_6 
REMARK    3  A    between atoms: C_3  and  C_4 
REMARK    4  A    between atoms: C_7  and  O_6 
REMARK    5  A    between atoms: C_9  and  C_10 
REMARK    6  A    between atoms: N_15  and  C_14 
REMARK    7  A    between atoms: N_20  and  C_19 
REMARK       I    between atoms: C_22  and  N_20 
ROOT
ATOM      1  C   LIG d   1      -1.611  75.651 115.066  0.00  0.00     0.161 C 
ATOM      2  C   LIG d   1      -1.399  75.003 116.294  0.00  0.00     0.016 C 
ATOM      3  C   LIG d   1      -0.816  75.635 117.417  0.00  0.00     0.038 C 
ATOM      4  C   LIG d   1      -0.542  77.010 117.435  0.00  0.00     0.028 C 
ATOM      5  C   LIG d   1      -0.272  77.592 116.051  0.00  0.00    -0.047 C 
ATOM      6  C   LIG d   1      -1.421  77.182 115.102  0.00  0.00     0.091 C 
ENDROOT
BRANCH   1   7
ATOM      7  O   LIG d   1      -2.919  75.321 114.559  0.00  0.00    -0.368 OA
BRANCH   7   8
ATOM      8  C   LIG d   1      -3.954  75.114 115.551  0.00  0.00     0.119 C 
BRANCH   8   9
ATOM      9  C   LIG d   1      -5.015  74.186 114.927  0.00  0.00     0.028 C 
ATOM     10  C   LIG d   1      -6.393  74.859 114.819  0.00  0.00     0.006 C 
ENDBRANCH   8   9
BRANCH   8  11
ATOM     11  C   LIG d   1      -4.692  76.418 115.867  0.00  0.00     0.028 C 
ATOM     12  C   LIG d   1      -4.608  76.806 117.352  0.00  0.00     0.006 C 
ENDBRANCH   8  11
ENDBRANCH   7   8
ENDBRANCH   1   7
BRANCH   6  13
ATOM     13  N   LIG d   1      -1.194  77.640 113.706  0.00  0.00    -0.311 N 
ATOM     14  C   LIG d   1      -2.019  78.461 113.060  0.00  0.00     0.210 C 
ATOM     15  C   LIG d   1      -1.608  78.791 111.621  0.00  0.00     0.109 C 
ATOM     16  O   LIG d   1      -3.035  78.974 113.552  0.00  0.00    -0.276 OA
ATOM     17  H   LIG d   1      -0.376  77.297 113.241  0.00  0.00     0.149 HD
ENDBRANCH   6  13
BRANCH   5  18
ATOM     18  N   LIG d   1      -0.139  79.054 116.200  0.00  0.00     0.381 N 
ATOM     19  H   LIG d   1       0.819  79.320 116.089  0.00  0.00    -0.090 HD
ATOM     20  H   LIG d   1      -0.433  79.314 117.125  0.00  0.00    -0.090 HD
ATOM     21  H   LIG d   1      -0.702  79.518 115.522  0.00  0.00    -0.090 HD
ENDBRANCH   5  18
BRANCH   3  22
ATOM     22  C   LIG d   1      -0.464  74.879 118.525  0.00  0.00     0.382 C 
ATOM     23  O   LIG d   1      -1.328  74.180 119.107  0.00  0.00    -0.241 OA
ATOM     24  O   LIG d   1       0.696  74.921 118.976  0.00  0.00    -0.241 OA
ENDBRANCH   3  22
TORSDOF 7
ENDMDL
MODEL 3
REMARK VINA RESULT:      -5.1      2.170      4.508
REMARK  7 active torsions:
REMARK  status: ('A' for Active; 'I' for Inactive)
REMARK    1  A    between atoms: C_2  and  C_3 
REMARK    2  A    between atoms: C_3  and  O_6 
REMARK    3  A    between atoms: C_3  and  C_4 
REMARK    4  A    between atoms: C_7  and  O_6 
REMARK    5  A    between atoms: C_9  and  C_10 
REMARK    6  A    between atoms: N_15  and  C_14 
REMARK    7  A    between atoms: N_20  and  C_19 
REMARK       I    between atoms: C_22  and  N_20 
ROOT
ATOM      1  C   LIG d   1      -3.278  76.433 117.450  0.00  0.00     0.161 C 
ATOM      2  C   LIG d   1      -2.309  76.966 118.317  0.00  0.00     0.016 C 
ATOM      3  C   LIG d   1      -0.921  76.926 118.051  0.00  0.00     0.038 C 
ATOM      4  C   LIG d   1      -0.414  76.482 116.821  0.00  0.00     0.028 C 
ATOM      5  C   LIG d   1      -1.318  75.471 116.123  0.00  0.00    -0.047 C 
ATOM      6  C   LIG d   1      -2.752  76.044 116.053  0.00  0.00     0.091 C 
ENDROOT
BRANCH   1   7
ATOM      7  O   LIG d   1      -4.385  77.349 117.332  0.00  0.00    -0.368 OA
BRANCH   7   8
ATOM      8  C   LIG d   1      -5.629  76.928 117.941  0.00  0.00     0.119 C 
BRANCH   8   9
ATOM      9  C   LIG d   1      -6.680  76.815 116.819  0.00  0.00     0.028 C 
ATOM     10  C   LIG d   1      -7.280  75.402 116.717  0.00  0.00     0.006 C 
ENDBRANCH   8   9
BRANCH   8  11
ATOM     11  C   LIG d   1      -6.171  77.994 118.898  0.00  0.00     0.028 C 
ATOM     12  C   LIG d   1      -7.481  78.628 118.403  0.00  0.00     0.006 C 
ENDBRANCH   8  11
ENDBRANCH   7   8
ENDBRANCH   1   7
BRANCH   6  13
ATOM     13  N   LIG d   1      -3.718  75.083 115.460  0.00  0.00    -0.311 N 
ATOM     14  C   LIG d   1      -4.336  75.287 114.298  0.00  0.00     0.210 C 
ATOM     15  C   LIG d   1      -5.308  74.180 113.878  0.00  0.00     0.109 C 
ATOM     16  O   LIG d   1      -4.146  76.265 113.558  0.00  0.00    -0.276 OA
ATOM     17  H   LIG d   1      -3.907  74.248 115.978  0.00  0.00     0.149 HD
ENDBRANCH   6  13
BRANCH   5  18
ATOM     18  N   LIG d   1      -0.739  75.198 114.794  0.00  0.00     0.381 N 
ATOM     19  H   LIG d   1      -0.296  76.023 114.442  0.00  0.00    -0.090 HD
ATOM     20  H   LIG d   1      -1.478  74.943 114.163  0.00  0.00    -0.090 HD
ATOM     21  H   LIG d   1      -0.076  74.457 114.857  0.00  0.00    -0.090 HD
ENDBRANCH   5  18
BRANCH   3  22
ATOM     22  C   LIG d   1      -0.022  77.298 119.038  0.00  0.00     0.382 C 
ATOM     23  O   LIG d   1       1.041  76.648 119.195  0.00  0.00    -0.241 OA
ATOM     24  O   LIG d   1      -0.279  78.246 119.804  0.00  0.00    -0.241 OA
ENDBRANCH   3  22
TORSDOF 7
ENDMDL
MODEL 4
REMARK VINA RESULT:      -4.8      2.704      4.659
REMARK  7 active torsions:
REMARK  status: ('A' for Active; 'I' for Inactive)
REMARK    1  A    between atoms: C_2  and  C_3 
REMARK    2  A    between atoms: C_3  and  O_6 
REMARK    3  A    between atoms: C_3  and  C_4 
REMARK    4  A    between atoms: C_7  and  O_6 
REMARK    5  A    between atoms: C_9  and  C_10 
REMARK    6  A    between atoms: N_15  and  C_14 
REMARK    7  A    between atoms: N_20  and  C_19 
REMARK       I    between atoms: C_22  and  N_20 
ROOT
ATOM      1  C   LIG d   1      -2.241  75.213 116.962  0.00  0.00     0.161 C 
ATOM      2  C   LIG d   1      -1.020  75.077 116.280  0.00  0.00     0.016 C 
ATOM      3  C   LIG d   1      -0.834  75.461 114.932  0.00  0.00     0.038 C 
ATOM      4  C   LIG d   1      -1.823  76.152 114.215  0.00  0.00     0.028 C 
ATOM      5  C   LIG d   1      -3.239  75.859 114.699  0.00  0.00    -0.047 C 
ATOM      6  C   LIG d   1      -3.299  76.066 116.230  0.00  0.00     0.091 C 
ENDROOT
BRANCH   1   7
ATOM      7  O   LIG d   1      -2.007  75.733 118.285  0.00  0.00    -0.368 OA
BRANCH   7   8
ATOM      8  C   LIG d   1      -1.936  77.176 118.400  0.00  0.00     0.119 C 
BRANCH   8   9
ATOM      9  C   LIG d   1      -0.446  77.562 118.469  0.00  0.00     0.028 C 
ATOM     10  C   LIG d   1      -0.013  78.444 117.286  0.00  0.00     0.006 C 
ENDBRANCH   8   9
BRANCH   8  11
ATOM     11  C   LIG d   1      -2.542  77.660 119.721  0.00  0.00     0.028 C 
ATOM     12  C   LIG d   1      -3.885  78.382 119.531  0.00  0.00     0.006 C 
ENDBRANCH   8  11
ENDBRANCH   7   8
ENDBRANCH   1   7
BRANCH   6  13
ATOM     13  N   LIG d   1      -4.628  75.719 116.798  0.00  0.00    -0.311 N 
ATOM     14  C   LIG d   1      -5.626  76.593 116.912  0.00  0.00     0.210 C 
ATOM     15  C   LIG d   1      -6.905  76.034 117.543  0.00  0.00     0.109 C 
ATOM     16  O   LIG d   1      -5.585  77.770 116.523  0.00  0.00    -0.276 OA
ATOM     17  H   LIG d   1      -4.758  74.777 117.110  0.00  0.00     0.149 HD
ENDBRANCH   6  13
BRANCH   5  18
ATOM     18  N   LIG d   1      -4.156  76.746 113.959  0.00  0.00     0.381 N 
ATOM     19  H   LIG d   1      -5.094  76.408 114.041  0.00  0.00    -0.090 HD
ATOM     20  H   LIG d   1      -3.901  76.738 112.987  0.00  0.00    -0.090 HD
ATOM     21  H   LIG d   1      -4.096  77.673 114.318  0.00  0.00    -0.090 HD
ENDBRANCH   5  18
BRANCH   3  22
ATOM     22  C   LIG d   1       0.338  75.119 114.276  0.00  0.00     0.382 C 
ATOM     23  O   LIG d   1       1.439  75.216 114.868  0.00  0.00    -0.241 OA
ATOM     24  O   LIG d   1       0.312  74.756 113.084  0.00  0.00    -0.241 OA
ENDBRANCH   3  22
TORSDOF 7
ENDMDL
MODEL 5
REMARK VINA RESULT:      -4.8      2.229      4.729
REMARK  7 active torsions:
REMARK  status: ('A' for Active; 'I' for Inactive)
REMARK    1  A    between atoms: C_2  and  C_3 
REMARK    2  A    between atoms: C_3  and  O_6 
REMARK    3  A    between atoms: C_3  and  C_4 
REMARK    4  A    between atoms: C_7  and  O_6 
REMARK    5  A    between atoms: C_9  and  C_10 
REMARK    6  A    between atoms: N_15  and  C_14 
REMARK    7  A    between atoms: N_20  and  C_19 
REMARK       I    between atoms: C_22  and  N_20 
ROOT
ATOM      1  C   LIG d   1      -2.970  75.053 116.241  0.00  0.00     0.161 C 
ATOM      2  C   LIG d   1      -4.103  74.949 115.417  0.00  0.00     0.016 C 
ATOM      3  C   LIG d   1      -5.252  75.760 115.567  0.00  0.00     0.038 C 
ATOM      4  C   LIG d   1      -5.286  76.839 116.462  0.00  0.00     0.028 C 
ATOM      5  C   LIG d   1      -4.359  76.662 117.660  0.00  0.00    -0.047 C 
ATOM      6  C   LIG d   1      -2.945  76.299 117.151  0.00  0.00     0.091 C 
ENDROOT
BRANCH   1   7
ATOM      7  O   LIG d   1      -1.775  74.995 115.438  0.00  0.00    -0.368 OA
BRANCH   7   8
ATOM      8  C   LIG d   1      -1.025  76.230 115.321  0.00  0.00     0.119 C 
BRANCH   8   9
ATOM      9  C   LIG d   1      -1.124  76.694 113.855  0.00  0.00     0.028 C 
ATOM     10  C   LIG d   1      -2.325  77.624 113.615  0.00  0.00     0.006 C 
ENDBRANCH   8   9
BRANCH   8  11
ATOM     11  C   LIG d   1       0.468  76.001 115.574  0.00  0.00     0.028 C 
ATOM     12  C   LIG d   1       1.089  74.988 114.599  0.00  0.00     0.006 C 
ENDBRANCH   8  11
ENDBRANCH   7   8
ENDBRANCH   1   7
BRANCH   6  13
ATOM     13  N   LIG d   1      -1.996  76.026 118.262  0.00  0.00    -0.311 N 
ATOM     14  C   LIG d   1      -1.223  76.960 118.812  0.00  0.00     0.210 C 
ATOM     15  C   LIG d   1      -0.302  76.462 119.930  0.00  0.00     0.109 C 
ATOM     16  O   LIG d   1      -1.235  78.161 118.502  0.00  0.00    -0.276 OA
ATOM     17  H   LIG d   1      -1.945  75.084 118.596  0.00  0.00     0.149 HD
ENDBRANCH   6  13
BRANCH   5  18
ATOM     18  N   LIG d   1      -4.390  77.916 118.437  0.00  0.00     0.381 N 
ATOM     19  H   LIG d   1      -4.221  77.720 119.403  0.00  0.00    -0.090 HD
ATOM     20  H   LIG d   1      -5.303  78.327 118.354  0.00  0.00    -0.090 HD
ATOM     21  H   LIG d   1      -3.701  78.547 118.093  0.00  0.00    -0.090 HD
ENDBRANCH   5  18
BRANCH   3  22
ATOM     22  C   LIG d   1      -6.398  75.468 114.843  0.00  0.00     0.382 C 
ATOM     23  O   LIG d   1      -6.698  76.157 113.839  0.00  0.00    -0.241 OA
ATOM     24  O   LIG d   1      -7.160  74.552 115.208  0.00  0.00    -0.241 OA
ENDBRANCH   3  22
TORSDOF 7
ENDMDL
MODEL 6
REMARK VINA RESULT:      -4.7      2.896      4.419
REMARK  7 active torsions:
REMARK  status: ('A' for Active; 'I' for Inactive)
REMARK    1  A    between atoms: C_2  and  C_3 
REMARK    2  A    between atoms: C_3  and  O_6 
REMARK    3  A    between atoms: C_3  and  C_4 
REMARK    4  A    between atoms: C_7  and  O_6 
REMARK    5  A    between atoms: C_9  and  C_10 
REMARK    6  A    between atoms: N_15  and  C_14 
REMARK    7  A    between atoms: N_20  and  C_19 
REMARK       I    between atoms: C_22  and  N_20 
ROOT
ATOM      1  C   LIG d   1      -4.852  75.618 116.260  0.00  0.00     0.161 C 
ATOM      2  C   LIG d   1      -3.633  75.035 115.876  0.00  0.00     0.016 C 
ATOM      3  C   LIG d   1      -2.391  75.370 116.464  0.00  0.00     0.038 C 
ATOM      4  C   LIG d   1      -2.305  76.205 117.588  0.00  0.00     0.028 C 
ATOM      5  C   LIG d   1      -3.451  77.206 117.688  0.00  0.00    -0.047 C 
ATOM      6  C   LIG d   1      -4.792  76.448 117.558  0.00  0.00     0.091 C 
ENDROOT
BRANCH   1   7
ATOM      7  O   LIG d   1      -5.868  74.601 116.362  0.00  0.00    -0.368 OA
BRANCH   7   8
ATOM      8  C   LIG d   1      -6.860  74.582 115.306  0.00  0.00     0.119 C 
BRANCH   8   9
ATOM      9  C   LIG d   1      -6.714  75.893 114.510  0.00  0.00     0.028 C 
ATOM     10  C   LIG d   1      -6.081  75.672 113.126  0.00  0.00     0.006 C 
ENDBRANCH   8   9
BRANCH   8  11
ATOM     11  C   LIG d   1      -8.282  74.611 115.876  0.00  0.00     0.028 C 
ATOM     12  C   LIG d   1      -8.311  74.509 117.410  0.00  0.00     0.006 C 
ENDBRANCH   8  11
ENDBRANCH   7   8
ENDBRANCH   1   7
BRANCH   6  13
ATOM     13  N   LIG d   1      -5.963  77.364 117.562  0.00  0.00    -0.311 N 
ATOM     14  C   LIG d   1      -6.672  77.642 118.654  0.00  0.00     0.210 C 
ATOM     15  C   LIG d   1      -7.852  78.594 118.433  0.00  0.00     0.109 C 
ATOM     16  O   LIG d   1      -6.418  77.216 119.790  0.00  0.00    -0.276 OA
ATOM     17  H   LIG d   1      -6.220  77.778 116.688  0.00  0.00     0.149 HD
ENDBRANCH   6  13
BRANCH   5  18
ATOM     18  N   LIG d   1      -3.310  77.917 118.973  0.00  0.00     0.381 N 
ATOM     19  H   LIG d   1      -2.501  77.584 119.458  0.00  0.00    -0.090 HD
ATOM     20  H   LIG d   1      -4.118  77.726 119.540  0.00  0.00    -0.090 HD
ATOM     21  H   LIG d   1      -3.231  78.897 118.814  0.00  0.00    -0.090 HD
ENDBRANCH   5  18
BRANCH   3  22
ATOM     22  C   LIG d   1      -1.215  74.897 115.902  0.00  0.00     0.382 C 
ATOM     23  O   LIG d   1      -0.945  75.154 114.704  0.00  0.00    -0.241 OA
ATOM     24  O   LIG d   1      -0.441  74.181 116.565  0.00  0.00    -0.241 OA
ENDBRANCH   3  22
TORSDOF 7
ENDMDL
MODEL 7
REMARK VINA RESULT:      -4.5      2.481      5.580
REMARK  7 active torsions:
REMARK  status: ('A' for Active; 'I' for Inactive)
REMARK    1  A    between atoms: C_2  and  C_3 
REMARK    2  A    between atoms: C_3  and  O_6 
REMARK    3  A    between atoms: C_3  and  C_4 
REMARK    4  A    between atoms: C_7  and  O_6 
REMARK    5  A    between atoms: C_9  and  C_10 
REMARK    6  A    between atoms: N_15  and  C_14 
REMARK    7  A    between atoms: N_20  and  C_19 
REMARK       I    between atoms: C_22  and  N_20 
ROOT
ATOM      1  C   LIG d   1      -1.637  77.195 114.745  0.00  0.00     0.161 C 
ATOM      2  C   LIG d   1      -2.721  76.431 115.209  0.00  0.00     0.016 C 
ATOM      3  C   LIG d   1      -3.923  76.264 114.483  0.00  0.00     0.038 C 
ATOM      4  C   LIG d   1      -4.065  76.730 113.168  0.00  0.00     0.028 C 
ATOM      5  C   LIG d   1      -3.187  77.936 112.854  0.00  0.00    -0.047 C 
ATOM      6  C   LIG d   1      -1.731  77.618 113.264  0.00  0.00     0.091 C 
ENDROOT
BRANCH   1   7
ATOM      7  O   LIG d   1      -0.404  76.490 114.987  0.00  0.00    -0.368 OA
BRANCH   7   8
ATOM      8  C   LIG d   1      -0.531  75.134 115.480  0.00  0.00     0.119 C 
BRANCH   8   9
ATOM      9  C   LIG d   1      -0.046  75.125 116.943  0.00  0.00     0.028 C 
ATOM     10  C   LIG d   1      -1.006  74.368 117.875  0.00  0.00     0.006 C 
ENDBRANCH   8   9
BRANCH   8  11
ATOM     11  C   LIG d   1       0.409  74.180 114.736  0.00  0.00     0.028 C 
ATOM     12  C   LIG d   1       0.884  74.744 113.387  0.00  0.00     0.006 C 
ENDBRANCH   8  11
ENDBRANCH   7   8
ENDBRANCH   1   7
BRANCH   6  13
ATOM     13  N   LIG d   1      -0.821  78.776 113.069  0.00  0.00    -0.311 N 
ATOM     14  C   LIG d   1      -1.211  80.044 113.190  0.00  0.00     0.210 C 
ATOM     15  C   LIG d   1      -0.119  81.085 112.927  0.00  0.00     0.109 C 
ATOM     16  O   LIG d   1      -2.351  80.405 113.522  0.00  0.00    -0.276 OA
ATOM     17  H   LIG d   1       0.129  78.574 112.828  0.00  0.00     0.149 HD
ENDBRANCH   6  13
BRANCH   5  18
ATOM     18  N   LIG d   1      -3.331  78.230 111.415  0.00  0.00     0.381 N 
ATOM     19  H   LIG d   1      -4.297  78.372 111.194  0.00  0.00    -0.090 HD
ATOM     20  H   LIG d   1      -2.999  77.442 110.888  0.00  0.00    -0.090 HD
ATOM     21  H   LIG d   1      -2.806  79.043 111.179  0.00  0.00    -0.090 HD
ENDBRANCH   5  18
BRANCH   3  22
ATOM     22  C   LIG d   1      -5.014  75.660 115.090  0.00  0.00     0.382 C 
ATOM     23  O   LIG d   1      -4.864  74.587 115.722  0.00  0.00    -0.241 OA
ATOM     24  O   LIG d   1      -6.153  76.151 114.975  0.00  0.00    -0.241 OA
ENDBRANCH   3  22
TORSDOF 7
ENDMDL
MODEL 8
REMARK VINA RESULT:      -4.4      4.276      6.574
REMARK  7 active torsions:
REMARK  status: ('A' for Active; 'I' for Inactive)
REMARK    1  A    between atoms: C_2  and  C_3 
REMARK    2  A    between atoms: C_3  and  O_6 
REMARK    3  A    between atoms: C_3  and  C_4 
REMARK    4  A    between atoms: C_7  and  O_6 
REMARK    5  A    between atoms: C_9  and  C_10 
REMARK    6  A    between atoms: N_15  and  C_14 
REMARK    7  A    between atoms: N_20  and  C_19 
REMARK       I    between atoms: C_22  and  N_20 
ROOT
ATOM      1  C   LIG d   1      -0.307  80.330 114.262  0.00  0.00     0.161 C 
ATOM      2  C   LIG d   1      -0.379  81.620 113.711  0.00  0.00     0.016 C 
ATOM      3  C   LIG d   1      -1.215  81.955 112.621  0.00  0.00     0.038 C 
ATOM      4  C   LIG d   1      -2.154  81.051 112.101  0.00  0.00     0.028 C 
ATOM      5  C   LIG d   1      -1.760  79.591 112.294  0.00  0.00    -0.047 C 
ATOM      6  C   LIG d   1      -1.405  79.359 113.781  0.00  0.00     0.091 C 
ENDROOT
BRANCH   1   7
ATOM      7  O   LIG d   1      -0.307  80.412 115.701  0.00  0.00    -0.368 OA
BRANCH   7   8
ATOM      8  C   LIG d   1       0.981  80.632 116.327  0.00  0.00     0.119 C 
BRANCH   8   9
ATOM      9  C   LIG d   1       1.067  79.699 117.550  0.00  0.00     0.028 C 
ATOM     10  C   LIG d   1       0.062  78.537 117.474  0.00  0.00     0.006 C 
ENDBRANCH   8   9
BRANCH   8  11
ATOM     11  C   LIG d   1       1.091  82.052 116.892  0.00  0.00     0.028 C 
ATOM     12  C   LIG d   1       0.894  82.104 118.415  0.00  0.00     0.006 C 
ENDBRANCH   8  11
ENDBRANCH   7   8
ENDBRANCH   1   7
BRANCH   6  13
ATOM     13  N   LIG d   1      -0.928  77.975 114.040  0.00  0.00    -0.311 N 
ATOM     14  C   LIG d   1      -1.720  76.995 114.470  0.00  0.00     0.210 C 
ATOM     15  C   LIG d   1      -1.022  75.650 114.693  0.00  0.00     0.109 C 
ATOM     16  O   LIG d   1      -2.941  77.103 114.657  0.00  0.00    -0.276 OA
ATOM     17  H   LIG d   1       0.044  77.792 113.884  0.00  0.00     0.149 HD
ENDBRANCH   6  13
BRANCH   5  18
ATOM     18  N   LIG d   1      -2.888  78.760 111.832  0.00  0.00     0.381 N 
ATOM     19  H   LIG d   1      -3.716  79.318 111.772  0.00  0.00    -0.090 HD
ATOM     20  H   LIG d   1      -3.048  78.028 112.502  0.00  0.00    -0.090 HD
ATOM     21  H   LIG d   1      -2.678  78.366 110.942  0.00  0.00    -0.090 HD
ENDBRANCH   5  18
BRANCH   3  22
ATOM     22  C   LIG d   1      -1.088  83.195 112.013  0.00  0.00     0.382 C 
ATOM     23  O   LIG d   1      -1.172  84.241 112.700  0.00  0.00    -0.241 OA
ATOM     24  O   LIG d   1      -0.934  83.281 110.780  0.00  0.00    -0.241 OA
ENDBRANCH   3  22
TORSDOF 7
ENDMDL
MODEL 9
REMARK VINA RESULT:      -4.4      3.015      5.156
REMARK  7 active torsions:
REMARK  status: ('A' for Active; 'I' for Inactive)
REMARK    1  A    between atoms: C_2  and  C_3 
REMARK    2  A    between atoms: C_3  and  O_6 
REMARK    3  A    between atoms: C_3  and  C_4 
REMARK    4  A    between atoms: C_7  and  O_6 
REMARK    5  A    between atoms: C_9  and  C_10 
REMARK    6  A    between atoms: N_15  and  C_14 
REMARK    7  A    between atoms: N_20  and  C_19 
REMARK       I    between atoms: C_22  and  N_20 
ROOT
ATOM      1  C   LIG d   1      -3.625  76.336 117.227  0.00  0.00     0.161 C 
ATOM      2  C   LIG d   1      -2.463  76.462 116.449  0.00  0.00     0.016 C 
ATOM      3  C   LIG d   1      -2.454  76.354 115.039  0.00  0.00     0.038 C 
ATOM      4  C   LIG d   1      -3.641  76.264 114.295  0.00  0.00     0.028 C 
ATOM      5  C   LIG d   1      -4.792  75.627 115.067  0.00  0.00    -0.047 C 
ATOM      6  C   LIG d   1      -4.944  76.348 116.426  0.00  0.00     0.091 C 
ENDROOT
BRANCH   1   7
ATOM      7  O   LIG d   1      -3.647  77.359 118.242  0.00  0.00    -0.368 OA
BRANCH   7   8
ATOM      8  C   LIG d   1      -2.372  77.678 118.852  0.00  0.00     0.119 C 
BRANCH   8   9
ATOM      9  C   LIG d   1      -2.095  76.612 119.930  0.00  0.00     0.028 C 
ATOM     10  C   LIG d   1      -0.722  75.942 119.753  0.00  0.00     0.006 C 
ENDBRANCH   8   9
BRANCH   8  11
ATOM     11  C   LIG d   1      -2.433  79.010 119.606  0.00  0.00     0.028 C 
ATOM     12  C   LIG d   1      -1.076  79.730 119.654  0.00  0.00     0.006 C 
ENDBRANCH   8  11
ENDBRANCH   7   8
ENDBRANCH   1   7
BRANCH   6  13
ATOM     13  N   LIG d   1      -5.994  75.732 117.279  0.00  0.00    -0.311 N 
ATOM     14  C   LIG d   1      -6.991  76.424 117.828  0.00  0.00     0.210 C 
ATOM     15  C   LIG d   1      -7.953  75.600 118.689  0.00  0.00     0.109 C 
ATOM     16  O   LIG d   1      -7.188  77.637 117.659  0.00  0.00    -0.276 OA
ATOM     17  H   LIG d   1      -5.929  74.747 117.443  0.00  0.00     0.149 HD
ENDBRANCH   6  13
BRANCH   5  18
ATOM     18  N   LIG d   1      -5.999  75.721 114.224  0.00  0.00     0.381 N 
ATOM     19  H   LIG d   1      -6.450  74.829 114.178  0.00  0.00    -0.090 HD
ATOM     20  H   LIG d   1      -5.726  75.985 113.294  0.00  0.00    -0.090 HD
ATOM     21  H   LIG d   1      -6.625  76.399 114.599  0.00  0.00    -0.090 HD
ENDBRANCH   5  18
BRANCH   3  22
ATOM     22  C   LIG d   1      -1.246  76.297 114.361  0.00  0.00     0.382 C 
ATOM     23  O   LIG d   1      -1.131  76.843 113.237  0.00  0.00    -0.241 OA
ATOM     24  O   LIG d   1      -0.283  75.669 114.839  0.00  0.00    -0.241 OA
ENDBRANCH   3  22
TORSDOF 7
ENDMDL
