MODEL 1
REMARK VINA RESULT:      -5.0      0.000      0.000
REMARK  7 active torsions:
REMARK  status: ('A' for Active; 'I' for Inactive)
REMARK    1  A    between atoms: C_2  and  C_3 
REMARK    2  A    between atoms: C_3  and  O_6 
REMARK    3  A    between atoms: C_3  and  C_4 
REMARK    4  A    between atoms: C_7  and  O_6 
REMARK    5  A    between atoms: C_9  and  C_10 
REMARK    6  A    between atoms: N_15  and  C_14 
REMARK    7  A    between atoms: N_20  and  C_19 
REMARK       I    between atoms: C_22  and  N_20 
ROOT
ATOM      1  C   LIG d   1      -2.788  78.468 115.179  0.00  0.00     0.161 C 
ATOM      2  C   LIG d   1      -3.084  79.699 114.570  0.00  0.00     0.016 C 
ATOM      3  C   LIG d   1      -2.909  79.946 113.189  0.00  0.00     0.038 C 
ATOM      4  C   LIG d   1      -2.565  78.925 112.291  0.00  0.00     0.028 C 
ATOM      5  C   LIG d   1      -1.769  77.794 112.935  0.00  0.00    -0.047 C 
ATOM      6  C   LIG d   1      -2.518  77.309 114.197  0.00  0.00     0.091 C 
ENDROOT
BRANCH   1   7
ATOM      7  O   LIG d   1      -3.840  78.111 116.098  0.00  0.00    -0.368 OA
BRANCH   7   8
ATOM      8  C   LIG d   1      -3.637  78.497 117.480  0.00  0.00     0.119 C 
BRANCH   8   9
ATOM      9  C   LIG d   1      -3.651  77.209 118.326  0.00  0.00     0.028 C 
ATOM     10  C   LIG d   1      -2.234  76.706 118.651  0.00  0.00     0.006 C 
ENDBRANCH   8   9
BRANCH   8  11
ATOM     11  C   LIG d   1      -4.807  79.337 118.001  0.00  0.00     0.028 C 
ATOM     12  C   LIG d   1      -4.527  79.960 119.377  0.00  0.00     0.006 C 
ENDBRANCH   8  11
ENDBRANCH   7   8
ENDBRANCH   1   7
BRANCH   6  13
ATOM     13  N   LIG d   1      -1.765  76.261 114.934  0.00  0.00    -0.311 N 
ATOM     14  C   LIG d   1      -2.309  75.113 115.335  0.00  0.00     0.210 C 
ATOM     15  C   LIG d   1      -1.362  74.180 116.097  0.00  0.00     0.109 C 
ATOM     16  O   LIG d   1      -3.477  74.765 115.104  0.00  0.00    -0.276 OA
ATOM     17  H   LIG d   1      -0.803  76.447 115.137  0.00  0.00     0.149 HD
ENDBRANCH   6  13
BRANCH   5  18
ATOM     18  N   LIG d   1      -1.598  76.736 111.921  0.00  0.00     0.381 N 
ATOM     19  H   LIG d   1      -0.727  76.861 111.446  0.00  0.00    -0.090 HD
ATOM     20  H   LIG d   1      -2.339  76.810 111.246  0.00  0.00    -0.090 HD
ATOM     21  H   LIG d   1      -1.623  75.840 112.356  0.00  0.00    -0.090 HD
ENDBRANCH   5  18
BRANCH   3  22
ATOM     22  C   LIG d   1      -3.039  81.237 112.701  0.00  0.00     0.382 C 
ATOM     23  O   LIG d   1      -4.149  81.818 112.753  0.00  0.00    -0.241 OA
ATOM     24  O   LIG d   1      -2.071  81.811 112.167  0.00  0.00    -0.241 OA
ENDBRANCH   3  22
TORSDOF 7
ENDMDL
MODEL 2
REMARK VINA RESULT:      -4.9      1.035      1.733
REMARK  7 active torsions:
REMARK  status: ('A' for Active; 'I' for Inactive)
REMARK    1  A    between atoms: C_2  and  C_3 
REMARK    2  A    between atoms: C_3  and  O_6 
REMARK    3  A    between atoms: C_3  and  C_4 
REMARK    4  A    between atoms: C_7  and  O_6 
REMARK    5  A    between atoms: C_9  and  C_10 
REMARK    6  A    between atoms: N_15  and  C_14 
REMARK    7  A    between atoms: N_20  and  C_19 
REMARK       I    between atoms: C_22  and  N_20 
ROOT
ATOM      1  C   LIG d   1      -2.330  78.407 115.095  0.00  0.00     0.161 C 
ATOM      2  C   LIG d   1      -2.775  79.626 114.559  0.00  0.00     0.016 C 
ATOM      3  C   LIG d   1      -2.833  79.891 113.171  0.00  0.00     0.038 C 
ATOM      4  C   LIG d   1      -2.591  78.893 112.215  0.00  0.00     0.028 C 
ATOM      5  C   LIG d   1      -1.652  77.797 112.708  0.00  0.00    -0.047 C 
ATOM      6  C   LIG d   1      -2.167  77.268 114.067  0.00  0.00     0.091 C 
ENDROOT
BRANCH   1   7
ATOM      7  O   LIG d   1      -3.204  77.995 116.164  0.00  0.00    -0.368 OA
BRANCH   7   8
ATOM      8  C   LIG d   1      -2.701  78.185 117.509  0.00  0.00     0.119 C 
BRANCH   8   9
ATOM      9  C   LIG d   1      -1.220  78.598 117.395  0.00  0.00     0.028 C 
ATOM     10  C   LIG d   1      -0.952  79.992 117.987  0.00  0.00     0.006 C 
ENDBRANCH   8   9
BRANCH   8  11
ATOM     11  C   LIG d   1      -2.696  76.870 118.294  0.00  0.00     0.028 C 
ATOM     12  C   LIG d   1      -1.278  76.389 118.642  0.00  0.00     0.006 C 
ENDBRANCH   8  11
ENDBRANCH   7   8
ENDBRANCH   1   7
BRANCH   6  13
ATOM     13  N   LIG d   1      -1.259  76.252 114.660  0.00  0.00    -0.311 N 
ATOM     14  C   LIG d   1      -1.677  75.071 115.112  0.00  0.00     0.210 C 
ATOM     15  C   LIG d   1      -0.580  74.180 115.704  0.00  0.00     0.109 C 
ATOM     16  O   LIG d   1      -2.847  74.663 115.050  0.00  0.00    -0.276 OA
ATOM     17  H   LIG d   1      -0.288  76.488 114.721  0.00  0.00     0.149 HD
ENDBRANCH   6  13
BRANCH   5  18
ATOM     18  N   LIG d   1      -1.596  76.755 111.666  0.00  0.00     0.381 N 
ATOM     19  H   LIG d   1      -1.696  75.852 112.084  0.00  0.00    -0.090 HD
ATOM     20  H   LIG d   1      -0.700  76.796 111.213  0.00  0.00    -0.090 HD
ATOM     21  H   LIG d   1      -2.321  76.902 110.998  0.00  0.00    -0.090 HD
ENDBRANCH   5  18
BRANCH   3  22
ATOM     22  C   LIG d   1      -3.099  81.177 112.727  0.00  0.00     0.382 C 
ATOM     23  O   LIG d   1      -4.261  81.642 112.810  0.00  0.00    -0.241 OA
ATOM     24  O   LIG d   1      -2.200  81.863 112.204  0.00  0.00    -0.241 OA
ENDBRANCH   3  22
TORSDOF 7
ENDMDL
MODEL 3
REMARK VINA RESULT:      -4.7      2.673      4.073
REMARK  7 active torsions:
REMARK  status: ('A' for Active; 'I' for Inactive)
REMARK    1  A    between atoms: C_2  and  C_3 
REMARK    2  A    between atoms: C_3  and  O_6 
REMARK    3  A    between atoms: C_3  and  C_4 
REMARK    4  A    between atoms: C_7  and  O_6 
REMARK    5  A    between atoms: C_9  and  C_10 
REMARK    6  A    between atoms: N_15  and  C_14 
REMARK    7  A    between atoms: N_20  and  C_19 
REMARK       I    between atoms: C_22  and  N_20 
ROOT
ATOM      1  C   LIG d   1      -2.984  76.277 116.955  0.00  0.00     0.161 C 
ATOM      2  C   LIG d   1      -3.837  77.301 117.400  0.00  0.00     0.016 C 
ATOM      3  C   LIG d   1      -3.815  78.614 116.875  0.00  0.00     0.038 C 
ATOM      4  C   LIG d   1      -3.038  78.953 115.758  0.00  0.00     0.028 C 
ATOM      5  C   LIG d   1      -1.793  78.086 115.600  0.00  0.00    -0.047 C 
ATOM      6  C   LIG d   1      -2.207  76.598 115.661  0.00  0.00     0.091 C 
ENDROOT
BRANCH   1   7
ATOM      7  O   LIG d   1      -3.730  75.053 116.800  0.00  0.00    -0.368 OA
BRANCH   7   8
ATOM      8  C   LIG d   1      -5.086  75.191 116.307  0.00  0.00     0.119 C 
BRANCH   8   9
ATOM      9  C   LIG d   1      -5.997  74.341 117.214  0.00  0.00     0.028 C 
ATOM     10  C   LIG d   1      -6.430  75.095 118.482  0.00  0.00     0.006 C 
ENDBRANCH   8   9
BRANCH   8  11
ATOM     11  C   LIG d   1      -5.233  74.590 114.906  0.00  0.00     0.028 C 
ATOM     12  C   LIG d   1      -5.843  75.575 113.896  0.00  0.00     0.006 C 
ENDBRANCH   8  11
ENDBRANCH   7   8
ENDBRANCH   1   7
BRANCH   6  13
ATOM     13  N   LIG d   1      -1.039  75.682 115.599  0.00  0.00    -0.311 N 
ATOM     14  C   LIG d   1      -0.597  75.133 114.468  0.00  0.00     0.210 C 
ATOM     15  C   LIG d   1       0.609  74.203 114.629  0.00  0.00     0.109 C 
ATOM     16  O   LIG d   1      -1.069  75.354 113.343  0.00  0.00    -0.276 OA
ATOM     17  H   LIG d   1      -0.576  75.473 116.462  0.00  0.00     0.149 HD
ENDBRANCH   6  13
BRANCH   5  18
ATOM     18  N   LIG d   1      -1.152  78.456 114.324  0.00  0.00     0.381 N 
ATOM     19  H   LIG d   1      -1.825  78.425 113.585  0.00  0.00    -0.090 HD
ATOM     20  H   LIG d   1      -0.428  77.790 114.119  0.00  0.00    -0.090 HD
ATOM     21  H   LIG d   1      -0.762  79.371 114.391  0.00  0.00    -0.090 HD
ENDBRANCH   5  18
BRANCH   3  22
ATOM     22  C   LIG d   1      -4.548  79.614 117.496  0.00  0.00     0.382 C 
ATOM     23  O   LIG d   1      -5.540  80.116 116.915  0.00  0.00    -0.241 OA
ATOM     24  O   LIG d   1      -4.204  80.050 118.610  0.00  0.00    -0.241 OA
ENDBRANCH   3  22
TORSDOF 7
ENDMDL
MODEL 4
REMARK VINA RESULT:      -4.6      2.780      3.813
REMARK  7 active torsions:
REMARK  status: ('A' for Active; 'I' for Inactive)
REMARK    1  A    between atoms: C_2  and  C_3 
REMARK    2  A    between atoms: C_3  and  O_6 
REMARK    3  A    between atoms: C_3  and  C_4 
REMARK    4  A    between atoms: C_7  and  O_6 
REMARK    5  A    between atoms: C_9  and  C_10 
REMARK    6  A    between atoms: N_15  and  C_14 
REMARK    7  A    between atoms: N_20  and  C_19 
REMARK       I    between atoms: C_22  and  N_20 
ROOT
ATOM      1  C   LIG d   1      -3.779  75.958 115.968  0.00  0.00     0.161 C 
ATOM      2  C   LIG d   1      -4.068  76.429 114.676  0.00  0.00     0.016 C 
ATOM      3  C   LIG d   1      -3.089  76.956 113.803  0.00  0.00     0.038 C 
ATOM      4  C   LIG d   1      -1.720  76.909 114.109  0.00  0.00     0.028 C 
ATOM      5  C   LIG d   1      -1.434  76.905 115.607  0.00  0.00    -0.047 C 
ATOM      6  C   LIG d   1      -2.276  75.796 116.276  0.00  0.00     0.091 C 
ENDROOT
BRANCH   1   7
ATOM      7  O   LIG d   1      -4.476  74.719 116.203  0.00  0.00    -0.368 OA
BRANCH   7   8
ATOM      8  C   LIG d   1      -5.547  74.764 117.178  0.00  0.00     0.119 C 
BRANCH   8   9
ATOM      9  C   LIG d   1      -6.858  74.424 116.442  0.00  0.00     0.028 C 
ATOM     10  C   LIG d   1      -7.538  75.670 115.850  0.00  0.00     0.006 C 
ENDBRANCH   8   9
BRANCH   8  11
ATOM     11  C   LIG d   1      -5.744  76.182 117.724  0.00  0.00     0.028 C 
ATOM     12  C   LIG d   1      -6.008  76.206 119.237  0.00  0.00     0.006 C 
ENDBRANCH   8  11
ENDBRANCH   7   8
ENDBRANCH   1   7
BRANCH   6  13
ATOM     13  N   LIG d   1      -2.120  75.779 117.754  0.00  0.00    -0.311 N 
ATOM     14  C   LIG d   1      -1.197  75.055 118.385  0.00  0.00     0.210 C 
ATOM     15  C   LIG d   1      -1.221  75.166 119.913  0.00  0.00     0.109 C 
ATOM     16  O   LIG d   1      -0.341  74.355 117.823  0.00  0.00    -0.276 OA
ATOM     17  H   LIG d   1      -2.753  76.342 118.286  0.00  0.00     0.149 HD
ENDBRANCH   6  13
BRANCH   5  18
ATOM     18  N   LIG d   1       0.018  76.715 115.782  0.00  0.00     0.381 N 
ATOM     19  H   LIG d   1       0.514  77.461 115.338  0.00  0.00    -0.090 HD
ATOM     20  H   LIG d   1       0.288  75.852 115.344  0.00  0.00    -0.090 HD
ATOM     21  H   LIG d   1       0.244  76.687 116.752  0.00  0.00    -0.090 HD
ENDBRANCH   5  18
BRANCH   3  22
ATOM     22  C   LIG d   1      -3.479  77.576 112.626  0.00  0.00     0.382 C 
ATOM     23  O   LIG d   1      -2.688  78.346 112.030  0.00  0.00    -0.241 OA
ATOM     24  O   LIG d   1      -4.629  77.409 112.176  0.00  0.00    -0.241 OA
ENDBRANCH   3  22
TORSDOF 7
ENDMDL
MODEL 5
REMARK VINA RESULT:      -4.5      2.830      5.733
REMARK  7 active torsions:
REMARK  status: ('A' for Active; 'I' for Inactive)
REMARK    1  A    between atoms: C_2  and  C_3 
REMARK    2  A    between atoms: C_3  and  O_6 
REMARK    3  A    between atoms: C_3  and  C_4 
REMARK    4  A    between atoms: C_7  and  O_6 
REMARK    5  A    between atoms: C_9  and  C_10 
REMARK    6  A    between atoms: N_15  and  C_14 
REMARK    7  A    between atoms: N_20  and  C_19 
REMARK       I    between atoms: C_22  and  N_20 
ROOT
ATOM      1  C   LIG d   1      -2.410  75.151 115.329  0.00  0.00     0.161 C 
ATOM      2  C   LIG d   1      -1.978  74.651 116.569  0.00  0.00     0.016 C 
ATOM      3  C   LIG d   1      -1.241  75.415 117.503  0.00  0.00     0.038 C 
ATOM      4  C   LIG d   1      -1.015  76.788 117.323  0.00  0.00     0.028 C 
ATOM      5  C   LIG d   1      -0.994  77.211 115.858  0.00  0.00    -0.047 C 
ATOM      6  C   LIG d   1      -2.268  76.678 115.164  0.00  0.00     0.091 C 
ENDROOT
BRANCH   1   7
ATOM      7  O   LIG d   1      -3.771  74.745 115.086  0.00  0.00    -0.368 OA
BRANCH   7   8
ATOM      8  C   LIG d   1      -4.777  75.340 115.942  0.00  0.00     0.119 C 
BRANCH   8   9
ATOM      9  C   LIG d   1      -5.439  74.200 116.740  0.00  0.00     0.028 C 
ATOM     10  C   LIG d   1      -6.966  74.359 116.834  0.00  0.00     0.006 C 
ENDBRANCH   8   9
BRANCH   8  11
ATOM     11  C   LIG d   1      -5.907  75.969 115.121  0.00  0.00     0.028 C 
ATOM     12  C   LIG d   1      -5.847  75.586 113.634  0.00  0.00     0.006 C 
ENDBRANCH   8  11
ENDBRANCH   7   8
ENDBRANCH   1   7
BRANCH   6  13
ATOM     13  N   LIG d   1      -2.287  76.977 113.708  0.00  0.00    -0.311 N 
ATOM     14  C   LIG d   1      -2.862  78.060 113.189  0.00  0.00     0.210 C 
ATOM     15  C   LIG d   1      -2.785  78.165 111.662  0.00  0.00     0.109 C 
ATOM     16  O   LIG d   1      -3.400  78.961 113.850  0.00  0.00    -0.276 OA
ATOM     17  H   LIG d   1      -1.846  76.314 113.101  0.00  0.00     0.149 HD
ENDBRANCH   6  13
BRANCH   5  18
ATOM     18  N   LIG d   1      -0.888  78.682 115.821  0.00  0.00     0.381 N 
ATOM     19  H   LIG d   1      -0.316  78.999 116.578  0.00  0.00    -0.090 HD
ATOM     20  H   LIG d   1      -1.805  79.077 115.931  0.00  0.00    -0.090 HD
ATOM     21  H   LIG d   1      -0.494  78.974 114.953  0.00  0.00    -0.090 HD
ENDBRANCH   5  18
BRANCH   3  22
ATOM     22  C   LIG d   1      -0.688  74.796 118.613  0.00  0.00     0.382 C 
ATOM     23  O   LIG d   1      -1.252  74.891 119.730  0.00  0.00    -0.241 OA
ATOM     24  O   LIG d   1       0.391  74.181 118.521  0.00  0.00    -0.241 OA
ENDBRANCH   3  22
TORSDOF 7
ENDMDL
MODEL 6
REMARK VINA RESULT:      -4.4      2.496      3.468
REMARK  7 active torsions:
REMARK  status: ('A' for Active; 'I' for Inactive)
REMARK    1  A    between atoms: C_2  and  C_3 
REMARK    2  A    between atoms: C_3  and  O_6 
REMARK    3  A    between atoms: C_3  and  C_4 
REMARK    4  A    between atoms: C_7  and  O_6 
REMARK    5  A    between atoms: C_9  and  C_10 
REMARK    6  A    between atoms: N_15  and  C_14 
REMARK    7  A    between atoms: N_20  and  C_19 
REMARK       I    between atoms: C_22  and  N_20 
ROOT
ATOM      1  C   LIG d   1      -2.956  76.952 115.329  0.00  0.00     0.161 C 
ATOM      2  C   LIG d   1      -3.215  77.807 114.245  0.00  0.00     0.016 C 
ATOM      3  C   LIG d   1      -2.376  78.887 113.889  0.00  0.00     0.038 C 
ATOM      4  C   LIG d   1      -1.133  79.096 114.505  0.00  0.00     0.028 C 
ATOM      5  C   LIG d   1      -1.069  78.565 115.933  0.00  0.00    -0.047 C 
ATOM      6  C   LIG d   1      -1.548  77.095 115.944  0.00  0.00     0.091 C 
ENDROOT
BRANCH   1   7
ATOM      7  O   LIG d   1      -3.197  75.585 114.941  0.00  0.00    -0.368 OA
BRANCH   7   8
ATOM      8  C   LIG d   1      -4.236  74.888 115.672  0.00  0.00     0.119 C 
BRANCH   8   9
ATOM      9  C   LIG d   1      -5.245  74.348 114.640  0.00  0.00     0.028 C 
ATOM     10  C   LIG d   1      -5.976  75.473 113.889  0.00  0.00     0.006 C 
ENDBRANCH   8   9
BRANCH   8  11
ATOM     11  C   LIG d   1      -5.037  75.850 116.555  0.00  0.00     0.028 C 
ATOM     12  C   LIG d   1      -5.826  75.129 117.659  0.00  0.00     0.006 C 
ENDBRANCH   8  11
ENDBRANCH   7   8
ENDBRANCH   1   7
BRANCH   6  13
ATOM     13  N   LIG d   1      -1.597  76.525 117.316  0.00  0.00    -0.311 N 
ATOM     14  C   LIG d   1      -0.895  75.458 117.691  0.00  0.00     0.210 C 
ATOM     15  C   LIG d   1      -1.106  75.023 119.145  0.00  0.00     0.109 C 
ATOM     16  O   LIG d   1      -0.092  74.849 116.968  0.00  0.00    -0.276 OA
ATOM     17  H   LIG d   1      -2.199  76.977 117.977  0.00  0.00     0.149 HD
ENDBRANCH   6  13
BRANCH   5  18
ATOM     18  N   LIG d   1       0.320  78.723 116.406  0.00  0.00     0.381 N 
ATOM     19  H   LIG d   1       0.767  77.829 116.448  0.00  0.00    -0.090 HD
ATOM     20  H   LIG d   1       0.306  79.113 117.332  0.00  0.00    -0.090 HD
ATOM     21  H   LIG d   1       0.822  79.326 115.792  0.00  0.00    -0.090 HD
ENDBRANCH   5  18
BRANCH   3  22
ATOM     22  C   LIG d   1      -2.797  79.798 112.931  0.00  0.00     0.382 C 
ATOM     23  O   LIG d   1      -2.276  79.794 111.790  0.00  0.00    -0.241 OA
ATOM     24  O   LIG d   1      -3.660  80.652 113.208  0.00  0.00    -0.241 OA
ENDBRANCH   3  22
TORSDOF 7
ENDMDL
MODEL 7
REMARK VINA RESULT:      -4.3      4.239      5.663
REMARK  7 active torsions:
REMARK  status: ('A' for Active; 'I' for Inactive)
REMARK    1  A    between atoms: C_2  and  C_3 
REMARK    2  A    between atoms: C_3  and  O_6 
REMARK    3  A    between atoms: C_3  and  C_4 
REMARK    4  A    between atoms: C_7  and  O_6 
REMARK    5  A    between atoms: C_9  and  C_10 
REMARK    6  A    between atoms: N_15  and  C_14 
REMARK    7  A    between atoms: N_20  and  C_19 
REMARK       I    between atoms: C_22  and  N_20 
ROOT
ATOM      1  C   LIG d   1      -3.262  75.217 115.904  0.00  0.00     0.161 C 
ATOM      2  C   LIG d   1      -2.268  74.668 115.077  0.00  0.00     0.016 C 
ATOM      3  C   LIG d   1      -0.887  74.915 115.251  0.00  0.00     0.038 C 
ATOM      4  C   LIG d   1      -0.393  75.611 116.365  0.00  0.00     0.028 C 
ATOM      5  C   LIG d   1      -1.390  76.607 116.947  0.00  0.00    -0.047 C 
ATOM      6  C   LIG d   1      -2.736  75.887 117.190  0.00  0.00     0.091 C 
ENDROOT
BRANCH   1   7
ATOM      7  O   LIG d   1      -4.239  74.208 116.228  0.00  0.00    -0.368 OA
BRANCH   7   8
ATOM      8  C   LIG d   1      -5.490  74.274 115.501  0.00  0.00     0.119 C 
BRANCH   8   9
ATOM      9  C   LIG d   1      -5.573  75.668 114.849  0.00  0.00     0.028 C 
ATOM     10  C   LIG d   1      -6.039  75.604 113.385  0.00  0.00     0.006 C 
ENDBRANCH   8   9
BRANCH   8  11
ATOM     11  C   LIG d   1      -6.690  74.198 116.449  0.00  0.00     0.028 C 
ATOM     12  C   LIG d   1      -7.178  75.583 116.905  0.00  0.00     0.006 C 
ENDBRANCH   8  11
ENDBRANCH   7   8
ENDBRANCH   1   7
BRANCH   6  13
ATOM     13  N   LIG d   1      -3.792  76.811 117.680  0.00  0.00    -0.311 N 
ATOM     14  C   LIG d   1      -4.054  77.005 118.971  0.00  0.00     0.210 C 
ATOM     15  C   LIG d   1      -5.197  77.984 119.258  0.00  0.00     0.109 C 
ATOM     16  O   LIG d   1      -3.428  76.485 119.906  0.00  0.00    -0.276 OA
ATOM     17  H   LIG d   1      -4.328  77.298 116.989  0.00  0.00     0.149 HD
ENDBRANCH   6  13
BRANCH   5  18
ATOM     18  N   LIG d   1      -0.799  77.160 118.181  0.00  0.00     0.381 N 
ATOM     19  H   LIG d   1      -1.241  78.027 118.409  0.00  0.00    -0.090 HD
ATOM     20  H   LIG d   1       0.178  77.336 118.023  0.00  0.00    -0.090 HD
ATOM     21  H   LIG d   1      -0.910  76.514 118.931  0.00  0.00    -0.090 HD
ENDBRANCH   5  18
BRANCH   3  22
ATOM     22  C   LIG d   1       0.014  74.497 114.284  0.00  0.00     0.382 C 
ATOM     23  O   LIG d   1       1.243  74.479 114.537  0.00  0.00    -0.241 OA
ATOM     24  O   LIG d   1      -0.383  74.180 113.146  0.00  0.00    -0.241 OA
ENDBRANCH   3  22
TORSDOF 7
ENDMDL
MODEL 8
REMARK VINA RESULT:      -4.3      2.547      3.479
REMARK  7 active torsions:
REMARK  status: ('A' for Active; 'I' for Inactive)
REMARK    1  A    between atoms: C_2  and  C_3 
REMARK    2  A    between atoms: C_3  and  O_6 
REMARK    3  A    between atoms: C_3  and  C_4 
REMARK    4  A    between atoms: C_7  and  O_6 
REMARK    5  A    between atoms: C_9  and  C_10 
REMARK    6  A    between atoms: N_15  and  C_14 
REMARK    7  A    between atoms: N_20  and  C_19 
REMARK       I    between atoms: C_22  and  N_20 
ROOT
ATOM      1  C   LIG d   1      -3.128  76.397 116.123  0.00  0.00     0.161 C 
ATOM      2  C   LIG d   1      -3.425  77.476 115.273  0.00  0.00     0.016 C 
ATOM      3  C   LIG d   1      -2.710  77.750 114.085  0.00  0.00     0.038 C 
ATOM      4  C   LIG d   1      -1.739  76.871 113.584  0.00  0.00     0.028 C 
ATOM      5  C   LIG d   1      -1.059  76.039 114.667  0.00  0.00    -0.047 C 
ATOM      6  C   LIG d   1      -2.144  75.363 115.536  0.00  0.00     0.091 C 
ENDROOT
BRANCH   1   7
ATOM      7  O   LIG d   1      -4.348  75.750 116.536  0.00  0.00    -0.368 OA
BRANCH   7   8
ATOM      8  C   LIG d   1      -5.531  76.068 115.763  0.00  0.00     0.119 C 
BRANCH   8   9
ATOM      9  C   LIG d   1      -6.750  75.889 116.689  0.00  0.00     0.028 C 
ATOM     10  C   LIG d   1      -6.350  75.460 118.110  0.00  0.00     0.006 C 
ENDBRANCH   8   9
BRANCH   8  11
ATOM     11  C   LIG d   1      -5.737  75.067 114.622  0.00  0.00     0.028 C 
ATOM     12  C   LIG d   1      -6.047  75.749 113.280  0.00  0.00     0.006 C 
ENDBRANCH   8  11
ENDBRANCH   7   8
ENDBRANCH   1   7
BRANCH   6  13
ATOM     13  N   LIG d   1      -1.566  74.598 116.671  0.00  0.00    -0.311 N 
ATOM     14  C   LIG d   1      -0.830  75.154 117.631  0.00  0.00     0.210 C 
ATOM     15  C   LIG d   1      -0.315  74.181 118.697  0.00  0.00     0.109 C 
ATOM     16  O   LIG d   1      -0.582  76.366 117.720  0.00  0.00    -0.276 OA
ATOM     17  H   LIG d   1      -1.745  73.613 116.695  0.00  0.00     0.149 HD
ENDBRANCH   6  13
BRANCH   5  18
ATOM     18  N   LIG d   1      -0.172  75.071 113.994  0.00  0.00     0.381 N 
ATOM     19  H   LIG d   1      -0.605  74.742 113.155  0.00  0.00    -0.090 HD
ATOM     20  H   LIG d   1      -0.027  74.285 114.603  0.00  0.00    -0.090 HD
ATOM     21  H   LIG d   1       0.701  75.500 113.780  0.00  0.00    -0.090 HD
ENDBRANCH   5  18
BRANCH   3  22
ATOM     22  C   LIG d   1      -2.936  78.937 113.405  0.00  0.00     0.382 C 
ATOM     23  O   LIG d   1      -3.811  78.988 112.507  0.00  0.00    -0.241 OA
ATOM     24  O   LIG d   1      -2.247  79.946 113.648  0.00  0.00    -0.241 OA
ENDBRANCH   3  22
TORSDOF 7
ENDMDL
MODEL 9
REMARK VINA RESULT:      -4.3      1.595      2.266
REMARK  7 active torsions:
REMARK  status: ('A' for Active; 'I' for Inactive)
REMARK    1  A    between atoms: C_2  and  C_3 
REMARK    2  A    between atoms: C_3  and  O_6 
REMARK    3  A    between atoms: C_3  and  C_4 
REMARK    4  A    between atoms: C_7  and  O_6 
REMARK    5  A    between atoms: C_9  and  C_10 
REMARK    6  A    between atoms: N_15  and  C_14 
REMARK    7  A    between atoms: N_20  and  C_19 
REMARK       I    between atoms: C_22  and  N_20 
ROOT
ATOM      1  C   LIG d   1      -2.318  78.403 116.284  0.00  0.00     0.161 C 
ATOM      2  C   LIG d   1      -2.726  79.280 115.265  0.00  0.00     0.016 C 
ATOM      3  C   LIG d   1      -2.567  79.001 113.888  0.00  0.00     0.038 C 
ATOM      4  C   LIG d   1      -2.123  77.751 113.431  0.00  0.00     0.028 C 
ATOM      5  C   LIG d   1      -1.227  77.025 114.429  0.00  0.00    -0.047 C 
ATOM      6  C   LIG d   1      -1.934  76.988 115.803  0.00  0.00     0.091 C 
ENDROOT
BRANCH   1   7
ATOM      7  O   LIG d   1      -3.337  78.327 117.301  0.00  0.00    -0.368 OA
BRANCH   7   8
ATOM      8  C   LIG d   1      -4.511  77.545 116.969  0.00  0.00     0.119 C 
BRANCH   8   9
ATOM      9  C   LIG d   1      -5.747  78.413 117.276  0.00  0.00     0.028 C 
ATOM     10  C   LIG d   1      -7.051  77.598 117.280  0.00  0.00     0.006 C 
ENDBRANCH   8   9
BRANCH   8  11
ATOM     11  C   LIG d   1      -4.640  76.320 117.879  0.00  0.00     0.028 C 
ATOM     12  C   LIG d   1      -3.951  76.513 119.239  0.00  0.00     0.006 C 
ENDBRANCH   8  11
ENDBRANCH   7   8
ENDBRANCH   1   7
BRANCH   6  13
ATOM     13  N   LIG d   1      -1.090  76.368 116.858  0.00  0.00    -0.311 N 
ATOM     14  C   LIG d   1      -1.167  75.083 117.198  0.00  0.00     0.210 C 
ATOM     15  C   LIG d   1      -0.222  74.653 118.324  0.00  0.00     0.109 C 
ATOM     16  O   LIG d   1      -1.907  74.250 116.652  0.00  0.00    -0.276 OA
ATOM     17  H   LIG d   1      -0.440  76.965 117.331  0.00  0.00     0.149 HD
ENDBRANCH   6  13
BRANCH   5  18
ATOM     18  N   LIG d   1      -0.951  75.682 113.885  0.00  0.00     0.381 N 
ATOM     19  H   LIG d   1      -1.325  75.608 112.960  0.00  0.00    -0.090 HD
ATOM     20  H   LIG d   1      -1.404  74.997 114.464  0.00  0.00    -0.090 HD
ATOM     21  H   LIG d   1       0.031  75.516 113.868  0.00  0.00    -0.090 HD
ENDBRANCH   5  18
BRANCH   3  22
ATOM     22  C   LIG d   1      -2.815  79.994 112.953  0.00  0.00     0.382 C 
ATOM     23  O   LIG d   1      -3.754  80.806 113.135  0.00  0.00    -0.241 OA
ATOM     24  O   LIG d   1      -2.141  80.061 111.908  0.00  0.00    -0.241 OA
ENDBRANCH   3  22
TORSDOF 7
ENDMDL
