MODEL 1
REMARK VINA RESULT:      -5.2      0.000      0.000
REMARK  7 active torsions:
REMARK  status: ('A' for Active; 'I' for Inactive)
REMARK    1  A    between atoms: C_2  and  C_3 
REMARK    2  A    between atoms: C_3  and  O_6 
REMARK    3  A    between atoms: C_3  and  C_4 
REMARK    4  A    between atoms: C_7  and  O_6 
REMARK    5  A    between atoms: C_9  and  C_10 
REMARK    6  A    between atoms: N_15  and  C_14 
REMARK    7  A    between atoms: N_20  and  C_19 
REMARK       I    between atoms: C_22  and  N_20 
ROOT
ATOM      1  C   LIG d   1      -2.509  80.578 114.771  0.00  0.00     0.161 C 
ATOM      2  C   LIG d   1      -2.082  81.761 114.145  0.00  0.00     0.016 C 
ATOM      3  C   LIG d   1      -1.498  81.792 112.858  0.00  0.00     0.038 C 
ATOM      4  C   LIG d   1      -1.439  80.653 112.042  0.00  0.00     0.028 C 
ATOM      5  C   LIG d   1      -1.398  79.346 112.828  0.00  0.00    -0.047 C 
ATOM      6  C   LIG d   1      -2.556  79.340 113.852  0.00  0.00     0.091 C 
ENDROOT
BRANCH   1   7
ATOM      7  O   LIG d   1      -3.793  80.790 115.391  0.00  0.00    -0.368 OA
BRANCH   7   8
ATOM      8  C   LIG d   1      -3.810  80.784 116.840  0.00  0.00     0.119 C 
BRANCH   8   9
ATOM      9  C   LIG d   1      -4.951  79.849 117.286  0.00  0.00     0.028 C 
ATOM     10  C   LIG d   1      -6.145  80.619 117.875  0.00  0.00     0.006 C 
ENDBRANCH   8   9
BRANCH   8  11
ATOM     11  C   LIG d   1      -4.174  82.163 117.398  0.00  0.00     0.028 C 
ATOM     12  C   LIG d   1      -3.025  82.808 118.188  0.00  0.00     0.006 C 
ENDBRANCH   8  11
ENDBRANCH   7   8
ENDBRANCH   1   7
BRANCH   6  13
ATOM     13  N   LIG d   1      -2.537  78.134 114.720  0.00  0.00    -0.311 N 
ATOM     14  C   LIG d   1      -3.309  77.068 114.512  0.00  0.00     0.210 C 
ATOM     15  C   LIG d   1      -3.147  75.942 115.537  0.00  0.00     0.109 C 
ATOM     16  O   LIG d   1      -4.089  76.936 113.556  0.00  0.00    -0.276 OA
ATOM     17  H   LIG d   1      -1.911  78.143 115.501  0.00  0.00     0.149 HD
ENDBRANCH   6  13
BRANCH   5  18
ATOM     18  N   LIG d   1      -1.478  78.239 111.856  0.00  0.00     0.381 N 
ATOM     19  H   LIG d   1      -2.146  77.563 112.168  0.00  0.00    -0.090 HD
ATOM     20  H   LIG d   1      -0.580  77.792 111.798  0.00  0.00    -0.090 HD
ATOM     21  H   LIG d   1      -1.742  78.589 110.962  0.00  0.00    -0.090 HD
ENDBRANCH   5  18
BRANCH   3  22
ATOM     22  C   LIG d   1      -0.928  82.967 112.390  0.00  0.00     0.382 C 
ATOM     23  O   LIG d   1      -1.343  83.485 111.326  0.00  0.00    -0.241 OA
ATOM     24  O   LIG d   1       0.026  83.491 112.996  0.00  0.00    -0.241 OA
ENDBRANCH   3  22
TORSDOF 7
ENDMDL
MODEL 2
REMARK VINA RESULT:      -5.1      1.934      5.119
REMARK  7 active torsions:
REMARK  status: ('A' for Active; 'I' for Inactive)
REMARK    1  A    between atoms: C_2  and  C_3 
REMARK    2  A    between atoms: C_3  and  O_6 
REMARK    3  A    between atoms: C_3  and  C_4 
REMARK    4  A    between atoms: C_7  and  O_6 
REMARK    5  A    between atoms: C_9  and  C_10 
REMARK    6  A    between atoms: N_15  and  C_14 
REMARK    7  A    between atoms: N_20  and  C_19 
REMARK       I    between atoms: C_22  and  N_20 
ROOT
ATOM      1  C   LIG d   1      -2.109  80.456 114.167  0.00  0.00     0.161 C 
ATOM      2  C   LIG d   1      -2.642  79.226 114.589  0.00  0.00     0.016 C 
ATOM      3  C   LIG d   1      -2.713  78.083 113.760  0.00  0.00     0.038 C 
ATOM      4  C   LIG d   1      -2.115  78.049 112.492  0.00  0.00     0.028 C 
ATOM      5  C   LIG d   1      -2.012  79.421 111.833  0.00  0.00    -0.047 C 
ATOM      6  C   LIG d   1      -1.351  80.405 112.825  0.00  0.00     0.091 C 
ENDROOT
BRANCH   1   7
ATOM      7  O   LIG d   1      -1.265  81.002 115.200  0.00  0.00    -0.368 OA
BRANCH   7   8
ATOM      8  C   LIG d   1      -1.744  82.209 115.842  0.00  0.00     0.119 C 
BRANCH   8   9
ATOM      9  C   LIG d   1      -0.510  83.011 116.300  0.00  0.00     0.028 C 
ATOM     10  C   LIG d   1       0.528  83.182 115.179  0.00  0.00     0.006 C 
ENDBRANCH   8   9
BRANCH   8  11
ATOM     11  C   LIG d   1      -2.518  81.888 117.124  0.00  0.00     0.028 C 
ATOM     12  C   LIG d   1      -4.008  82.252 117.027  0.00  0.00     0.006 C 
ENDBRANCH   8  11
ENDBRANCH   7   8
ENDBRANCH   1   7
BRANCH   6  13
ATOM     13  N   LIG d   1      -1.289  81.791 112.291  0.00  0.00    -0.311 N 
ATOM     14  C   LIG d   1      -0.234  82.279 111.640  0.00  0.00     0.210 C 
ATOM     15  C   LIG d   1      -0.369  83.738 111.192  0.00  0.00     0.109 C 
ATOM     16  O   LIG d   1       0.787  81.632 111.362  0.00  0.00    -0.276 OA
ATOM     17  H   LIG d   1      -2.087  82.375 112.444  0.00  0.00     0.149 HD
ENDBRANCH   6  13
BRANCH   5  18
ATOM     18  N   LIG d   1      -1.247  79.259 110.582  0.00  0.00     0.381 N 
ATOM     19  H   LIG d   1      -0.348  78.869 110.784  0.00  0.00    -0.090 HD
ATOM     20  H   LIG d   1      -1.113  80.162 110.164  0.00  0.00    -0.090 HD
ATOM     21  H   LIG d   1      -1.742  78.664 109.955  0.00  0.00    -0.090 HD
ENDBRANCH   5  18
BRANCH   3  22
ATOM     22  C   LIG d   1      -3.424  76.970 114.183  0.00  0.00     0.382 C 
ATOM     23  O   LIG d   1      -4.634  76.845 113.874  0.00  0.00    -0.241 OA
ATOM     24  O   LIG d   1      -2.884  76.112 114.905  0.00  0.00    -0.241 OA
ENDBRANCH   3  22
TORSDOF 7
ENDMDL
MODEL 3
REMARK VINA RESULT:      -5.1      2.141      4.906
REMARK  7 active torsions:
REMARK  status: ('A' for Active; 'I' for Inactive)
REMARK    1  A    between atoms: C_2  and  C_3 
REMARK    2  A    between atoms: C_3  and  O_6 
REMARK    3  A    between atoms: C_3  and  C_4 
REMARK    4  A    between atoms: C_7  and  O_6 
REMARK    5  A    between atoms: C_9  and  C_10 
REMARK    6  A    between atoms: N_15  and  C_14 
REMARK    7  A    between atoms: N_20  and  C_19 
REMARK       I    between atoms: C_22  and  N_20 
ROOT
ATOM      1  C   LIG d   1      -1.312  80.262 114.312  0.00  0.00     0.161 C 
ATOM      2  C   LIG d   1      -2.085  79.128 114.612  0.00  0.00     0.016 C 
ATOM      3  C   LIG d   1      -2.448  78.157 113.650  0.00  0.00     0.038 C 
ATOM      4  C   LIG d   1      -1.932  78.176 112.346  0.00  0.00     0.028 C 
ATOM      5  C   LIG d   1      -1.557  79.573 111.864  0.00  0.00    -0.047 C 
ATOM      6  C   LIG d   1      -0.647  80.241 112.920  0.00  0.00     0.091 C 
ENDROOT
BRANCH   1   7
ATOM      7  O   LIG d   1      -0.320  80.462 115.338  0.00  0.00    -0.368 OA
BRANCH   7   8
ATOM      8  C   LIG d   1      -0.523  81.603 116.207  0.00  0.00     0.119 C 
BRANCH   8   9
ATOM      9  C   LIG d   1      -1.937  82.150 115.931  0.00  0.00     0.028 C 
ATOM     10  C   LIG d   1      -2.828  82.132 117.185  0.00  0.00     0.006 C 
ENDBRANCH   8   9
BRANCH   8  11
ATOM     11  C   LIG d   1       0.431  82.749 115.853  0.00  0.00     0.028 C 
ATOM     12  C   LIG d   1       0.466  83.847 116.928  0.00  0.00     0.006 C 
ENDBRANCH   8  11
ENDBRANCH   7   8
ENDBRANCH   1   7
BRANCH   6  13
ATOM     13  N   LIG d   1      -0.302  81.643 112.566  0.00  0.00    -0.311 N 
ATOM     14  C   LIG d   1      -1.214  82.588 112.341  0.00  0.00     0.210 C 
ATOM     15  C   LIG d   1      -0.644  83.961 111.970  0.00  0.00     0.109 C 
ATOM     16  O   LIG d   1      -2.439  82.427 112.445  0.00  0.00    -0.276 OA
ATOM     17  H   LIG d   1       0.670  81.868 112.491  0.00  0.00     0.149 HD
ENDBRANCH   6  13
BRANCH   5  18
ATOM     18  N   LIG d   1      -0.906  79.430 110.548  0.00  0.00     0.381 N 
ATOM     19  H   LIG d   1      -0.592  80.324 110.226  0.00  0.00    -0.090 HD
ATOM     20  H   LIG d   1      -1.578  79.077 109.889  0.00  0.00    -0.090 HD
ATOM     21  H   LIG d   1      -0.135  78.803 110.615  0.00  0.00    -0.090 HD
ENDBRANCH   5  18
BRANCH   3  22
ATOM     22  C   LIG d   1      -3.369  77.174 113.980  0.00  0.00     0.382 C 
ATOM     23  O   LIG d   1      -3.053  76.261 114.780  0.00  0.00    -0.241 OA
ATOM     24  O   LIG d   1      -4.498  77.164 113.453  0.00  0.00    -0.241 OA
ENDBRANCH   3  22
TORSDOF 7
ENDMDL
MODEL 4
REMARK VINA RESULT:      -4.7      2.578      3.351
REMARK  7 active torsions:
REMARK  status: ('A' for Active; 'I' for Inactive)
REMARK    1  A    between atoms: C_2  and  C_3 
REMARK    2  A    between atoms: C_3  and  O_6 
REMARK    3  A    between atoms: C_3  and  C_4 
REMARK    4  A    between atoms: C_7  and  O_6 
REMARK    5  A    between atoms: C_9  and  C_10 
REMARK    6  A    between atoms: N_15  and  C_14 
REMARK    7  A    between atoms: N_20  and  C_19 
REMARK       I    between atoms: C_22  and  N_20 
ROOT
ATOM      1  C   LIG d   1      -0.785  80.543 115.824  0.00  0.00     0.161 C 
ATOM      2  C   LIG d   1      -1.518  81.370 114.956  0.00  0.00     0.016 C 
ATOM      3  C   LIG d   1      -2.190  80.892 113.808  0.00  0.00     0.038 C 
ATOM      4  C   LIG d   1      -2.301  79.521 113.531  0.00  0.00     0.028 C 
ATOM      5  C   LIG d   1      -1.154  78.693 114.100  0.00  0.00    -0.047 C 
ATOM      6  C   LIG d   1      -0.988  79.030 115.600  0.00  0.00     0.091 C 
ENDROOT
BRANCH   1   7
ATOM      7  O   LIG d   1      -1.077  80.891 117.192  0.00  0.00    -0.368 OA
BRANCH   7   8
ATOM      8  C   LIG d   1      -1.994  81.995 117.388  0.00  0.00     0.119 C 
BRANCH   8   9
ATOM      9  C   LIG d   1      -1.280  83.039 118.267  0.00  0.00     0.028 C 
ATOM     10  C   LIG d   1      -0.260  83.875 117.476  0.00  0.00     0.006 C 
ENDBRANCH   8   9
BRANCH   8  11
ATOM     11  C   LIG d   1      -3.224  81.562 118.190  0.00  0.00     0.028 C 
ATOM     12  C   LIG d   1      -4.179  80.669 117.382  0.00  0.00     0.006 C 
ENDBRANCH   8  11
ENDBRANCH   7   8
ENDBRANCH   1   7
BRANCH   6  13
ATOM     13  N   LIG d   1       0.168  78.326 116.214  0.00  0.00    -0.311 N 
ATOM     14  C   LIG d   1       0.045  77.434 117.196  0.00  0.00     0.210 C 
ATOM     15  C   LIG d   1       1.365  76.841 117.699  0.00  0.00     0.109 C 
ATOM     16  O   LIG d   1      -1.033  77.055 117.676  0.00  0.00    -0.276 OA
ATOM     17  H   LIG d   1       1.078  78.551 115.863  0.00  0.00     0.149 HD
ENDBRANCH   6  13
BRANCH   5  18
ATOM     18  N   LIG d   1      -1.467  77.272 113.858  0.00  0.00     0.381 N 
ATOM     19  H   LIG d   1      -0.882  76.916 113.129  0.00  0.00    -0.090 HD
ATOM     20  H   LIG d   1      -2.423  77.196 113.560  0.00  0.00    -0.090 HD
ATOM     21  H   LIG d   1      -1.328  76.746 114.692  0.00  0.00    -0.090 HD
ENDBRANCH   5  18
BRANCH   3  22
ATOM     22  C   LIG d   1      -2.726  81.793 112.900  0.00  0.00     0.382 C 
ATOM     23  O   LIG d   1      -1.984  82.633 112.337  0.00  0.00    -0.241 OA
ATOM     24  O   LIG d   1      -3.950  81.805 112.671  0.00  0.00    -0.241 OA
ENDBRANCH   3  22
TORSDOF 7
ENDMDL
MODEL 5
REMARK VINA RESULT:      -4.7      2.004      2.753
REMARK  7 active torsions:
REMARK  status: ('A' for Active; 'I' for Inactive)
REMARK    1  A    between atoms: C_2  and  C_3 
REMARK    2  A    between atoms: C_3  and  O_6 
REMARK    3  A    between atoms: C_3  and  C_4 
REMARK    4  A    between atoms: C_7  and  O_6 
REMARK    5  A    between atoms: C_9  and  C_10 
REMARK    6  A    between atoms: N_15  and  C_14 
REMARK    7  A    between atoms: N_20  and  C_19 
REMARK       I    between atoms: C_22  and  N_20 
ROOT
ATOM      1  C   LIG d   1      -2.731  78.860 115.726  0.00  0.00     0.161 C 
ATOM      2  C   LIG d   1      -3.006  80.125 115.179  0.00  0.00     0.016 C 
ATOM      3  C   LIG d   1      -2.767  80.457 113.826  0.00  0.00     0.038 C 
ATOM      4  C   LIG d   1      -2.376  79.493 112.885  0.00  0.00     0.028 C 
ATOM      5  C   LIG d   1      -1.604  78.328 113.495  0.00  0.00    -0.047 C 
ATOM      6  C   LIG d   1      -2.408  77.764 114.689  0.00  0.00     0.091 C 
ENDROOT
BRANCH   1   7
ATOM      7  O   LIG d   1      -3.823  78.445 116.570  0.00  0.00    -0.368 OA
BRANCH   7   8
ATOM      8  C   LIG d   1      -3.696  78.761 117.978  0.00  0.00     0.119 C 
BRANCH   8   9
ATOM      9  C   LIG d   1      -3.099  77.525 118.678  0.00  0.00     0.028 C 
ATOM     10  C   LIG d   1      -4.089  76.350 118.740  0.00  0.00     0.006 C 
ENDBRANCH   8   9
BRANCH   8  11
ATOM     11  C   LIG d   1      -5.067  78.972 118.628  0.00  0.00     0.028 C 
ATOM     12  C   LIG d   1      -6.151  79.375 117.615  0.00  0.00     0.006 C 
ENDBRANCH   8  11
ENDBRANCH   7   8
ENDBRANCH   1   7
BRANCH   6  13
ATOM     13  N   LIG d   1      -1.685  76.675 115.396  0.00  0.00    -0.311 N 
ATOM     14  C   LIG d   1      -2.224  75.485 115.655  0.00  0.00     0.210 C 
ATOM     15  C   LIG d   1      -1.312  74.514 116.412  0.00  0.00     0.109 C 
ATOM     16  O   LIG d   1      -3.358  75.130 115.302  0.00  0.00    -0.276 OA
ATOM     17  H   LIG d   1      -0.747  76.867 115.690  0.00  0.00     0.149 HD
ENDBRANCH   6  13
BRANCH   5  18
ATOM     18  N   LIG d   1      -1.379  77.335 112.428  0.00  0.00     0.381 N 
ATOM     19  H   LIG d   1      -1.139  76.452 112.833  0.00  0.00    -0.090 HD
ATOM     20  H   LIG d   1      -0.611  77.639 111.857  0.00  0.00    -0.090 HD
ATOM     21  H   LIG d   1      -2.200  77.241 111.871  0.00  0.00    -0.090 HD
ENDBRANCH   5  18
BRANCH   3  22
ATOM     22  C   LIG d   1      -2.882  81.775 113.411  0.00  0.00     0.382 C 
ATOM     23  O   LIG d   1      -3.463  82.613 114.141  0.00  0.00    -0.241 OA
ATOM     24  O   LIG d   1      -2.451  82.126 112.296  0.00  0.00    -0.241 OA
ENDBRANCH   3  22
TORSDOF 7
ENDMDL
MODEL 6
REMARK VINA RESULT:      -4.6      2.304      4.213
REMARK  7 active torsions:
REMARK  status: ('A' for Active; 'I' for Inactive)
REMARK    1  A    between atoms: C_2  and  C_3 
REMARK    2  A    between atoms: C_3  and  O_6 
REMARK    3  A    between atoms: C_3  and  C_4 
REMARK    4  A    between atoms: C_7  and  O_6 
REMARK    5  A    between atoms: C_9  and  C_10 
REMARK    6  A    between atoms: N_15  and  C_14 
REMARK    7  A    between atoms: N_20  and  C_19 
REMARK       I    between atoms: C_22  and  N_20 
ROOT
ATOM      1  C   LIG d   1      -2.674  81.057 114.217  0.00  0.00     0.161 C 
ATOM      2  C   LIG d   1      -2.187  81.882 113.190  0.00  0.00     0.016 C 
ATOM      3  C   LIG d   1      -1.051  82.712 113.331  0.00  0.00     0.038 C 
ATOM      4  C   LIG d   1      -0.230  82.658 114.468  0.00  0.00     0.028 C 
ATOM      5  C   LIG d   1      -0.967  82.214 115.727  0.00  0.00    -0.047 C 
ATOM      6  C   LIG d   1      -1.727  80.902 115.426  0.00  0.00     0.091 C 
ENDROOT
BRANCH   1   7
ATOM      7  O   LIG d   1      -3.019  79.764 113.683  0.00  0.00    -0.368 OA
BRANCH   7   8
ATOM      8  C   LIG d   1      -1.913  78.863 113.427  0.00  0.00     0.119 C 
BRANCH   8   9
ATOM      9  C   LIG d   1      -1.800  78.691 111.899  0.00  0.00     0.028 C 
ATOM     10  C   LIG d   1      -3.090  78.132 111.275  0.00  0.00     0.006 C 
ENDBRANCH   8   9
BRANCH   8  11
ATOM     11  C   LIG d   1      -2.198  77.461 113.973  0.00  0.00     0.028 C 
ATOM     12  C   LIG d   1      -3.481  77.400 114.817  0.00  0.00     0.006 C 
ENDBRANCH   8  11
ENDBRANCH   7   8
ENDBRANCH   1   7
BRANCH   6  13
ATOM     13  N   LIG d   1      -2.543  80.442 116.580  0.00  0.00    -0.311 N 
ATOM     14  C   LIG d   1      -2.121  79.537 117.462  0.00  0.00     0.210 C 
ATOM     15  C   LIG d   1      -3.127  79.191 118.564  0.00  0.00     0.109 C 
ATOM     16  O   LIG d   1      -0.997  79.013 117.455  0.00  0.00    -0.276 OA
ATOM     17  H   LIG d   1      -3.456  80.839 116.680  0.00  0.00     0.149 HD
ENDBRANCH   6  13
BRANCH   5  18
ATOM     18  N   LIG d   1       0.034  82.069 116.801  0.00  0.00     0.381 N 
ATOM     19  H   LIG d   1       0.236  82.965 117.198  0.00  0.00    -0.090 HD
ATOM     20  H   LIG d   1       0.881  81.699 116.408  0.00  0.00    -0.090 HD
ATOM     21  H   LIG d   1      -0.310  81.455 117.507  0.00  0.00    -0.090 HD
ENDBRANCH   5  18
BRANCH   3  22
ATOM     22  C   LIG d   1      -0.748  83.637 112.344  0.00  0.00     0.382 C 
ATOM     23  O   LIG d   1      -1.319  83.572 111.228  0.00  0.00    -0.241 OA
ATOM     24  O   LIG d   1       0.120  84.508 112.539  0.00  0.00    -0.241 OA
ENDBRANCH   3  22
TORSDOF 7
ENDMDL
MODEL 7
REMARK VINA RESULT:      -4.5      1.287      2.035
REMARK  7 active torsions:
REMARK  status: ('A' for Active; 'I' for Inactive)
REMARK    1  A    between atoms: C_2  and  C_3 
REMARK    2  A    between atoms: C_3  and  O_6 
REMARK    3  A    between atoms: C_3  and  C_4 
REMARK    4  A    between atoms: C_7  and  O_6 
REMARK    5  A    between atoms: C_9  and  C_10 
REMARK    6  A    between atoms: N_15  and  C_14 
REMARK    7  A    between atoms: N_20  and  C_19 
REMARK       I    between atoms: C_22  and  N_20 
ROOT
ATOM      1  C   LIG d   1      -1.221  80.587 115.261  0.00  0.00     0.161 C 
ATOM      2  C   LIG d   1      -0.945  81.783 114.577  0.00  0.00     0.016 C 
ATOM      3  C   LIG d   1      -1.323  82.017 113.235  0.00  0.00     0.038 C 
ATOM      4  C   LIG d   1      -2.142  81.123 112.529  0.00  0.00     0.028 C 
ATOM      5  C   LIG d   1      -2.020  79.681 113.009  0.00  0.00    -0.047 C 
ATOM      6  C   LIG d   1      -2.210  79.645 114.543  0.00  0.00     0.091 C 
ENDROOT
BRANCH   1   7
ATOM      7  O   LIG d   1      -1.687  80.882 116.592  0.00  0.00    -0.368 OA
BRANCH   7   8
ATOM      8  C   LIG d   1      -2.432  82.115 116.748  0.00  0.00     0.119 C 
BRANCH   8   9
ATOM      9  C   LIG d   1      -1.923  82.805 118.029  0.00  0.00     0.028 C 
ATOM     10  C   LIG d   1      -0.723  83.728 117.761  0.00  0.00     0.006 C 
ENDBRANCH   8   9
BRANCH   8  11
ATOM     11  C   LIG d   1      -3.918  81.841 116.998  0.00  0.00     0.028 C 
ATOM     12  C   LIG d   1      -4.505  82.715 118.118  0.00  0.00     0.006 C 
ENDBRANCH   8  11
ENDBRANCH   7   8
ENDBRANCH   1   7
BRANCH   6  13
ATOM     13  N   LIG d   1      -2.022  78.282 115.105  0.00  0.00    -0.311 N 
ATOM     14  C   LIG d   1      -3.021  77.422 115.292  0.00  0.00     0.210 C 
ATOM     15  C   LIG d   1      -2.612  76.078 115.903  0.00  0.00     0.109 C 
ATOM     16  O   LIG d   1      -4.203  77.632 114.980  0.00  0.00    -0.276 OA
ATOM     17  H   LIG d   1      -1.090  78.017 115.357  0.00  0.00     0.149 HD
ENDBRANCH   6  13
BRANCH   5  18
ATOM     18  N   LIG d   1      -3.025  78.883 112.283  0.00  0.00     0.381 N 
ATOM     19  H   LIG d   1      -2.612  78.031 111.959  0.00  0.00    -0.090 HD
ATOM     20  H   LIG d   1      -3.340  79.405 111.484  0.00  0.00    -0.090 HD
ATOM     21  H   LIG d   1      -3.796  78.680 112.881  0.00  0.00    -0.090 HD
ENDBRANCH   5  18
BRANCH   3  22
ATOM     22  C   LIG d   1      -0.848  83.139 112.573  0.00  0.00     0.382 C 
ATOM     23  O   LIG d   1      -1.374  83.498 111.492  0.00  0.00    -0.241 OA
ATOM     24  O   LIG d   1       0.128  83.770 113.020  0.00  0.00    -0.241 OA
ENDBRANCH   3  22
TORSDOF 7
ENDMDL
MODEL 8
REMARK VINA RESULT:      -4.4      2.552      6.104
REMARK  7 active torsions:
REMARK  status: ('A' for Active; 'I' for Inactive)
REMARK    1  A    between atoms: C_2  and  C_3 
REMARK    2  A    between atoms: C_3  and  O_6 
REMARK    3  A    between atoms: C_3  and  C_4 
REMARK    4  A    between atoms: C_7  and  O_6 
REMARK    5  A    between atoms: C_9  and  C_10 
REMARK    6  A    between atoms: N_15  and  C_14 
REMARK    7  A    between atoms: N_20  and  C_19 
REMARK       I    between atoms: C_22  and  N_20 
ROOT
ATOM      1  C   LIG d   1      -2.529  78.942 115.772  0.00  0.00     0.161 C 
ATOM      2  C   LIG d   1      -2.865  77.658 115.313  0.00  0.00     0.016 C 
ATOM      3  C   LIG d   1      -4.096  77.025 115.602  0.00  0.00     0.038 C 
ATOM      4  C   LIG d   1      -5.142  77.700 116.248  0.00  0.00     0.028 C 
ATOM      5  C   LIG d   1      -4.665  78.817 117.169  0.00  0.00    -0.047 C 
ATOM      6  C   LIG d   1      -3.701  79.737 116.385  0.00  0.00     0.091 C 
ENDROOT
BRANCH   1   7
ATOM      7  O   LIG d   1      -1.914  79.696 114.709  0.00  0.00    -0.368 OA
BRANCH   7   8
ATOM      8  C   LIG d   1      -2.711  79.877 113.513  0.00  0.00     0.119 C 
BRANCH   8   9
ATOM      9  C   LIG d   1      -1.915  79.289 112.332  0.00  0.00     0.028 C 
ATOM     10  C   LIG d   1      -2.749  78.306 111.493  0.00  0.00     0.006 C 
ENDBRANCH   8   9
BRANCH   8  11
ATOM     11  C   LIG d   1      -2.889  81.362 113.181  0.00  0.00     0.028 C 
ATOM     12  C   LIG d   1      -1.882  82.261 113.915  0.00  0.00     0.006 C 
ENDBRANCH   8  11
ENDBRANCH   7   8
ENDBRANCH   1   7
BRANCH   6  13
ATOM     13  N   LIG d   1      -3.122  80.808 117.236  0.00  0.00    -0.311 N 
ATOM     14  C   LIG d   1      -3.616  82.043 117.298  0.00  0.00     0.210 C 
ATOM     15  C   LIG d   1      -2.855  82.999 118.222  0.00  0.00     0.109 C 
ATOM     16  O   LIG d   1      -4.631  82.430 116.699  0.00  0.00    -0.276 OA
ATOM     17  H   LIG d   1      -2.314  80.573 117.779  0.00  0.00     0.149 HD
ENDBRANCH   6  13
BRANCH   5  18
ATOM     18  N   LIG d   1      -5.859  79.523 117.670  0.00  0.00     0.381 N 
ATOM     19  H   LIG d   1      -6.263  80.068 116.934  0.00  0.00    -0.090 HD
ATOM     20  H   LIG d   1      -5.583  80.146 118.408  0.00  0.00    -0.090 HD
ATOM     21  H   LIG d   1      -6.526  78.867 118.011  0.00  0.00    -0.090 HD
ENDBRANCH   5  18
BRANCH   3  22
ATOM     22  C   LIG d   1      -4.275  75.689 115.277  0.00  0.00     0.382 C 
ATOM     23  O   LIG d   1      -4.931  75.374 114.255  0.00  0.00    -0.241 OA
ATOM     24  O   LIG d   1      -3.826  74.793 116.018  0.00  0.00    -0.241 OA
ENDBRANCH   3  22
TORSDOF 7
ENDMDL
MODEL 9
REMARK VINA RESULT:      -4.3      2.556      3.850
REMARK  7 active torsions:
REMARK  status: ('A' for Active; 'I' for Inactive)
REMARK    1  A    between atoms: C_2  and  C_3 
REMARK    2  A    between atoms: C_3  and  O_6 
REMARK    3  A    between atoms: C_3  and  C_4 
REMARK    4  A    between atoms: C_7  and  O_6 
REMARK    5  A    between atoms: C_9  and  C_10 
REMARK    6  A    between atoms: N_15  and  C_14 
REMARK    7  A    between atoms: N_20  and  C_19 
REMARK       I    between atoms: C_22  and  N_20 
ROOT
ATOM      1  C   LIG d   1      -2.699  78.508 115.302  0.00  0.00     0.161 C 
ATOM      2  C   LIG d   1      -3.107  79.626 114.557  0.00  0.00     0.016 C 
ATOM      3  C   LIG d   1      -2.218  80.634 114.117  0.00  0.00     0.038 C 
ATOM      4  C   LIG d   1      -0.828  80.513 114.264  0.00  0.00     0.028 C 
ATOM      5  C   LIG d   1      -0.418  79.650 115.452  0.00  0.00    -0.047 C 
ATOM      6  C   LIG d   1      -1.171  78.302 115.377  0.00  0.00     0.091 C 
ENDROOT
BRANCH   1   7
ATOM      7  O   LIG d   1      -3.340  77.321 114.793  0.00  0.00    -0.368 OA
BRANCH   7   8
ATOM      8  C   LIG d   1      -4.034  76.504 115.768  0.00  0.00     0.119 C 
BRANCH   8   9
ATOM      9  C   LIG d   1      -5.205  75.813 115.043  0.00  0.00     0.028 C 
ATOM     10  C   LIG d   1      -5.167  74.283 115.191  0.00  0.00     0.006 C 
ENDBRANCH   8   9
BRANCH   8  11
ATOM     11  C   LIG d   1      -4.682  77.364 116.857  0.00  0.00     0.028 C 
ATOM     12  C   LIG d   1      -6.193  77.550 116.648  0.00  0.00     0.006 C 
ENDBRANCH   8  11
ENDBRANCH   7   8
ENDBRANCH   1   7
BRANCH   6  13
ATOM     13  N   LIG d   1      -0.892  77.430 116.547  0.00  0.00    -0.311 N 
ATOM     14  C   LIG d   1      -0.604  76.134 116.444  0.00  0.00     0.210 C 
ATOM     15  C   LIG d   1      -0.368  75.415 117.776  0.00  0.00     0.109 C 
ATOM     16  O   LIG d   1      -0.489  75.518 115.373  0.00  0.00    -0.276 OA
ATOM     17  H   LIG d   1      -0.933  77.855 117.453  0.00  0.00     0.149 HD
ENDBRANCH   6  13
BRANCH   5  18
ATOM     18  N   LIG d   1       1.048  79.496 115.406  0.00  0.00     0.381 N 
ATOM     19  H   LIG d   1       1.466  80.006 116.158  0.00  0.00    -0.090 HD
ATOM     20  H   LIG d   1       1.388  79.875 114.540  0.00  0.00    -0.090 HD
ATOM     21  H   LIG d   1       1.292  78.532 115.473  0.00  0.00    -0.090 HD
ENDBRANCH   5  18
BRANCH   3  22
ATOM     22  C   LIG d   1      -2.722  81.798 113.557  0.00  0.00     0.382 C 
ATOM     23  O   LIG d   1      -3.506  82.523 114.216  0.00  0.00    -0.241 OA
ATOM     24  O   LIG d   1      -2.438  82.110 112.385  0.00  0.00    -0.241 OA
ENDBRANCH   3  22
TORSDOF 7
ENDMDL
