MODEL 1
REMARK VINA RESULT:      -5.1      0.000      0.000
REMARK  7 active torsions:
REMARK  status: ('A' for Active; 'I' for Inactive)
REMARK    1  A    between atoms: C_2  and  C_3 
REMARK    2  A    between atoms: C_3  and  O_6 
REMARK    3  A    between atoms: C_3  and  C_4 
REMARK    4  A    between atoms: C_7  and  O_6 
REMARK    5  A    between atoms: C_9  and  C_10 
REMARK    6  A    between atoms: N_15  and  C_14 
REMARK    7  A    between atoms: N_20  and  C_19 
REMARK       I    between atoms: C_22  and  N_20 
ROOT
ATOM      1  C   LIG d   1      -3.019  78.319 115.610  0.00  0.00     0.161 C 
ATOM      2  C   LIG d   1      -3.164  79.339 114.654  0.00  0.00     0.016 C 
ATOM      3  C   LIG d   1      -2.552  79.304 113.380  0.00  0.00     0.038 C 
ATOM      4  C   LIG d   1      -1.872  78.168 112.915  0.00  0.00     0.028 C 
ATOM      5  C   LIG d   1      -1.273  77.321 114.033  0.00  0.00    -0.047 C 
ATOM      6  C   LIG d   1      -2.372  77.023 115.079  0.00  0.00     0.091 C 
ENDROOT
BRANCH   1   7
ATOM      7  O   LIG d   1      -4.295  78.031 116.214  0.00  0.00    -0.368 OA
BRANCH   7   8
ATOM      8  C   LIG d   1      -4.563  78.686 117.479  0.00  0.00     0.119 C 
BRANCH   8   9
ATOM      9  C   LIG d   1      -4.381  77.635 118.592  0.00  0.00     0.028 C 
ATOM     10  C   LIG d   1      -5.003  76.278 118.225  0.00  0.00     0.006 C 
ENDBRANCH   8   9
BRANCH   8  11
ATOM     11  C   LIG d   1      -6.025  79.131 117.577  0.00  0.00     0.028 C 
ATOM     12  C   LIG d   1      -6.178  80.655 117.695  0.00  0.00     0.006 C 
ENDBRANCH   8  11
ENDBRANCH   7   8
ENDBRANCH   1   7
BRANCH   6  13
ATOM     13  N   LIG d   1      -1.850  76.269 116.249  0.00  0.00    -0.311 N 
ATOM     14  C   LIG d   1      -1.887  74.941 116.341  0.00  0.00     0.210 C 
ATOM     15  C   LIG d   1      -1.314  74.366 117.640  0.00  0.00     0.109 C 
ATOM     16  O   LIG d   1      -2.309  74.182 115.455  0.00  0.00    -0.276 OA
ATOM     17  H   LIG d   1      -1.461  76.805 117.000  0.00  0.00     0.149 HD
ENDBRANCH   6  13
BRANCH   5  18
ATOM     18  N   LIG d   1      -0.715  76.102 113.418  0.00  0.00     0.381 N 
ATOM     19  H   LIG d   1      -1.139  75.948 112.524  0.00  0.00    -0.090 HD
ATOM     20  H   LIG d   1      -0.926  75.315 114.006  0.00  0.00    -0.090 HD
ATOM     21  H   LIG d   1       0.272  76.193 113.314  0.00  0.00    -0.090 HD
ENDBRANCH   5  18
BRANCH   3  22
ATOM     22  C   LIG d   1      -2.584  80.429 112.571  0.00  0.00     0.382 C 
ATOM     23  O   LIG d   1      -3.566  81.208 112.619  0.00  0.00    -0.241 OA
ATOM     24  O   LIG d   1      -1.664  80.652 111.761  0.00  0.00    -0.241 OA
ENDBRANCH   3  22
TORSDOF 7
ENDMDL
MODEL 2
REMARK VINA RESULT:      -4.8      1.358      1.791
REMARK  7 active torsions:
REMARK  status: ('A' for Active; 'I' for Inactive)
REMARK    1  A    between atoms: C_2  and  C_3 
REMARK    2  A    between atoms: C_3  and  O_6 
REMARK    3  A    between atoms: C_3  and  C_4 
REMARK    4  A    between atoms: C_7  and  O_6 
REMARK    5  A    between atoms: C_9  and  C_10 
REMARK    6  A    between atoms: N_15  and  C_14 
REMARK    7  A    between atoms: N_20  and  C_19 
REMARK       I    between atoms: C_22  and  N_20 
ROOT
ATOM      1  C   LIG d   1      -2.892  78.316 115.798  0.00  0.00     0.161 C 
ATOM      2  C   LIG d   1      -3.083  79.360 114.878  0.00  0.00     0.016 C 
ATOM      3  C   LIG d   1      -2.541  79.355 113.572  0.00  0.00     0.038 C 
ATOM      4  C   LIG d   1      -1.892  78.230 113.042  0.00  0.00     0.028 C 
ATOM      5  C   LIG d   1      -1.239  77.351 114.104  0.00  0.00    -0.047 C 
ATOM      6  C   LIG d   1      -2.281  77.031 115.200  0.00  0.00     0.091 C 
ENDROOT
BRANCH   1   7
ATOM      7  O   LIG d   1      -4.135  78.017 116.463  0.00  0.00    -0.368 OA
BRANCH   7   8
ATOM      8  C   LIG d   1      -4.612  76.654 116.341  0.00  0.00     0.119 C 
BRANCH   8   9
ATOM      9  C   LIG d   1      -5.851  76.677 115.426  0.00  0.00     0.028 C 
ATOM     10  C   LIG d   1      -6.361  75.265 115.093  0.00  0.00     0.006 C 
ENDBRANCH   8   9
BRANCH   8  11
ATOM     11  C   LIG d   1      -5.110  76.116 117.686  0.00  0.00     0.028 C 
ATOM     12  C   LIG d   1      -4.230  76.556 118.867  0.00  0.00     0.006 C 
ENDBRANCH   8  11
ENDBRANCH   7   8
ENDBRANCH   1   7
BRANCH   6  13
ATOM     13  N   LIG d   1      -1.701  76.245 116.321  0.00  0.00    -0.311 N 
ATOM     14  C   LIG d   1      -1.719  74.914 116.369  0.00  0.00     0.210 C 
ATOM     15  C   LIG d   1      -1.084  74.304 117.623  0.00  0.00     0.109 C 
ATOM     16  O   LIG d   1      -2.170  74.180 115.477  0.00  0.00    -0.276 OA
ATOM     17  H   LIG d   1      -1.286  76.760 117.072  0.00  0.00     0.149 HD
ENDBRANCH   6  13
BRANCH   5  18
ATOM     18  N   LIG d   1      -0.721  76.147 113.429  0.00  0.00     0.381 N 
ATOM     19  H   LIG d   1      -0.104  75.653 114.043  0.00  0.00    -0.090 HD
ATOM     20  H   LIG d   1      -0.199  76.428 112.617  0.00  0.00    -0.090 HD
ATOM     21  H   LIG d   1      -1.476  75.555 113.159  0.00  0.00    -0.090 HD
ENDBRANCH   5  18
BRANCH   3  22
ATOM     22  C   LIG d   1      -2.611  80.502 112.795  0.00  0.00     0.382 C 
ATOM     23  O   LIG d   1      -3.727  80.996 112.506  0.00  0.00    -0.241 OA
ATOM     24  O   LIG d   1      -1.573  81.022 112.342  0.00  0.00    -0.241 OA
ENDBRANCH   3  22
TORSDOF 7
ENDMDL
MODEL 3
REMARK VINA RESULT:      -4.7      2.480      5.264
REMARK  7 active torsions:
REMARK  status: ('A' for Active; 'I' for Inactive)
REMARK    1  A    between atoms: C_2  and  C_3 
REMARK    2  A    between atoms: C_3  and  O_6 
REMARK    3  A    between atoms: C_3  and  C_4 
REMARK    4  A    between atoms: C_7  and  O_6 
REMARK    5  A    between atoms: C_9  and  C_10 
REMARK    6  A    between atoms: N_15  and  C_14 
REMARK    7  A    between atoms: N_20  and  C_19 
REMARK       I    between atoms: C_22  and  N_20 
ROOT
ATOM      1  C   LIG d   1      -2.172  76.137 115.152  0.00  0.00     0.161 C 
ATOM      2  C   LIG d   1      -2.084  75.485 116.393  0.00  0.00     0.016 C 
ATOM      3  C   LIG d   1      -1.491  76.068 117.537  0.00  0.00     0.038 C 
ATOM      4  C   LIG d   1      -1.080  77.408 117.558  0.00  0.00     0.028 C 
ATOM      5  C   LIG d   1      -0.688  77.943 116.185  0.00  0.00    -0.047 C 
ATOM      6  C   LIG d   1      -1.828  77.641 115.185  0.00  0.00     0.091 C 
ENDROOT
BRANCH   1   7
ATOM      7  O   LIG d   1      -3.482  75.935 114.586  0.00  0.00    -0.368 OA
BRANCH   7   8
ATOM      8  C   LIG d   1      -4.553  75.692 115.530  0.00  0.00     0.119 C 
BRANCH   8   9
ATOM      9  C   LIG d   1      -5.421  74.552 114.962  0.00  0.00     0.028 C 
ATOM     10  C   LIG d   1      -6.586  74.181 115.894  0.00  0.00     0.006 C 
ENDBRANCH   8   9
BRANCH   8  11
ATOM     11  C   LIG d   1      -5.489  76.900 115.634  0.00  0.00     0.028 C 
ATOM     12  C   LIG d   1      -5.183  77.788 116.850  0.00  0.00     0.006 C 
ENDBRANCH   8  11
ENDBRANCH   7   8
ENDBRANCH   1   7
BRANCH   6  13
ATOM     13  N   LIG d   1      -1.491  78.056 113.798  0.00  0.00    -0.311 N 
ATOM     14  C   LIG d   1      -2.191  78.959 113.113  0.00  0.00     0.210 C 
ATOM     15  C   LIG d   1      -1.684  79.227 111.692  0.00  0.00     0.109 C 
ATOM     16  O   LIG d   1      -3.164  79.587 113.558  0.00  0.00    -0.276 OA
ATOM     17  H   LIG d   1      -0.698  77.620 113.372  0.00  0.00     0.149 HD
ENDBRANCH   6  13
BRANCH   5  18
ATOM     18  N   LIG d   1      -0.414  79.385 116.330  0.00  0.00     0.381 N 
ATOM     19  H   LIG d   1       0.060  79.723 115.516  0.00  0.00    -0.090 HD
ATOM     20  H   LIG d   1       0.186  79.524 117.124  0.00  0.00    -0.090 HD
ATOM     21  H   LIG d   1      -1.267  79.884 116.457  0.00  0.00    -0.090 HD
ENDBRANCH   5  18
BRANCH   3  22
ATOM     22  C   LIG d   1      -1.270  75.293 118.666  0.00  0.00     0.382 C 
ATOM     23  O   LIG d   1      -0.289  74.512 118.707  0.00  0.00    -0.241 OA
ATOM     24  O   LIG d   1      -2.063  75.332 119.625  0.00  0.00    -0.241 OA
ENDBRANCH   3  22
TORSDOF 7
ENDMDL
MODEL 4
REMARK VINA RESULT:      -4.7      1.232      2.042
REMARK  7 active torsions:
REMARK  status: ('A' for Active; 'I' for Inactive)
REMARK    1  A    between atoms: C_2  and  C_3 
REMARK    2  A    between atoms: C_3  and  O_6 
REMARK    3  A    between atoms: C_3  and  C_4 
REMARK    4  A    between atoms: C_7  and  O_6 
REMARK    5  A    between atoms: C_9  and  C_10 
REMARK    6  A    between atoms: N_15  and  C_14 
REMARK    7  A    between atoms: N_20  and  C_19 
REMARK       I    between atoms: C_22  and  N_20 
ROOT
ATOM      1  C   LIG d   1      -2.467  78.144 116.116  0.00  0.00     0.161 C 
ATOM      2  C   LIG d   1      -2.826  79.003 115.064  0.00  0.00     0.016 C 
ATOM      3  C   LIG d   1      -2.433  78.796 113.721  0.00  0.00     0.038 C 
ATOM      4  C   LIG d   1      -1.777  77.626 113.313  0.00  0.00     0.028 C 
ATOM      5  C   LIG d   1      -0.955  76.974 114.419  0.00  0.00    -0.047 C 
ATOM      6  C   LIG d   1      -1.845  76.803 115.671  0.00  0.00     0.091 C 
ENDROOT
BRANCH   1   7
ATOM      7  O   LIG d   1      -3.606  77.910 116.966  0.00  0.00    -0.368 OA
BRANCH   7   8
ATOM      8  C   LIG d   1      -4.895  77.859 116.306  0.00  0.00     0.119 C 
BRANCH   8   9
ATOM      9  C   LIG d   1      -5.920  78.535 117.237  0.00  0.00     0.028 C 
ATOM     10  C   LIG d   1      -5.473  79.938 117.681  0.00  0.00     0.006 C 
ENDBRANCH   8   9
BRANCH   8  11
ATOM     11  C   LIG d   1      -5.382  76.415 116.147  0.00  0.00     0.028 C 
ATOM     12  C   LIG d   1      -5.456  75.970 114.678  0.00  0.00     0.006 C 
ENDBRANCH   8  11
ENDBRANCH   7   8
ENDBRANCH   1   7
BRANCH   6  13
ATOM     13  N   LIG d   1      -1.095  76.250 116.829  0.00  0.00    -0.311 N 
ATOM     14  C   LIG d   1      -1.325  75.042 117.342  0.00  0.00     0.210 C 
ATOM     15  C   LIG d   1      -0.453  74.675 118.547  0.00  0.00     0.109 C 
ATOM     16  O   LIG d   1      -2.146  74.228 116.894  0.00  0.00    -0.276 OA
ATOM     17  H   LIG d   1      -0.388  76.831 117.235  0.00  0.00     0.149 HD
ENDBRANCH   6  13
BRANCH   5  18
ATOM     18  N   LIG d   1      -0.439  75.695 113.897  0.00  0.00     0.381 N 
ATOM     19  H   LIG d   1       0.326  75.867 113.276  0.00  0.00    -0.090 HD
ATOM     20  H   LIG d   1      -1.169  75.237 113.380  0.00  0.00    -0.090 HD
ATOM     21  H   LIG d   1      -0.141  75.115 114.650  0.00  0.00    -0.090 HD
ENDBRANCH   5  18
BRANCH   3  22
ATOM     22  C   LIG d   1      -2.663  79.786 112.778  0.00  0.00     0.382 C 
ATOM     23  O   LIG d   1      -2.056  79.759 111.680  0.00  0.00    -0.241 OA
ATOM     24  O   LIG d   1      -3.435  80.731 113.029  0.00  0.00    -0.241 OA
ENDBRANCH   3  22
TORSDOF 7
ENDMDL
MODEL 5
REMARK VINA RESULT:      -4.7      2.456      3.566
REMARK  7 active torsions:
REMARK  status: ('A' for Active; 'I' for Inactive)
REMARK    1  A    between atoms: C_2  and  C_3 
REMARK    2  A    between atoms: C_3  and  O_6 
REMARK    3  A    between atoms: C_3  and  C_4 
REMARK    4  A    between atoms: C_7  and  O_6 
REMARK    5  A    between atoms: C_9  and  C_10 
REMARK    6  A    between atoms: N_15  and  C_14 
REMARK    7  A    between atoms: N_20  and  C_19 
REMARK       I    between atoms: C_22  and  N_20 
ROOT
ATOM      1  C   LIG d   1      -3.806  77.020 115.597  0.00  0.00     0.161 C 
ATOM      2  C   LIG d   1      -3.739  76.798 114.212  0.00  0.00     0.016 C 
ATOM      3  C   LIG d   1      -2.759  77.381 113.376  0.00  0.00     0.038 C 
ATOM      4  C   LIG d   1      -1.681  78.113 113.897  0.00  0.00     0.028 C 
ATOM      5  C   LIG d   1      -1.992  78.782 115.231  0.00  0.00    -0.047 C 
ATOM      6  C   LIG d   1      -2.573  77.726 116.199  0.00  0.00     0.091 C 
ENDROOT
BRANCH   1   7
ATOM      7  O   LIG d   1      -4.054  75.776 116.281  0.00  0.00    -0.368 OA
BRANCH   7   8
ATOM      8  C   LIG d   1      -5.368  75.625 116.873  0.00  0.00     0.119 C 
BRANCH   8   9
ATOM      9  C   LIG d   1      -5.948  74.285 116.379  0.00  0.00     0.028 C 
ATOM     10  C   LIG d   1      -6.238  74.292 114.869  0.00  0.00     0.006 C 
ENDBRANCH   8   9
BRANCH   8  11
ATOM     11  C   LIG d   1      -6.336  76.698 116.363  0.00  0.00     0.028 C 
ATOM     12  C   LIG d   1      -7.155  77.346 117.490  0.00  0.00     0.006 C 
ENDBRANCH   8  11
ENDBRANCH   7   8
ENDBRANCH   1   7
BRANCH   6  13
ATOM     13  N   LIG d   1      -2.982  78.314 117.501  0.00  0.00    -0.311 N 
ATOM     14  C   LIG d   1      -3.905  79.267 117.617  0.00  0.00     0.210 C 
ATOM     15  C   LIG d   1      -4.163  79.748 119.048  0.00  0.00     0.109 C 
ATOM     16  O   LIG d   1      -4.559  79.738 116.673  0.00  0.00    -0.276 OA
ATOM     17  H   LIG d   1      -2.525  77.969 118.322  0.00  0.00     0.149 HD
ENDBRANCH   6  13
BRANCH   5  18
ATOM     18  N   LIG d   1      -0.743  79.393 115.725  0.00  0.00     0.381 N 
ATOM     19  H   LIG d   1      -0.080  79.459 114.978  0.00  0.00    -0.090 HD
ATOM     20  H   LIG d   1      -0.354  78.805 116.440  0.00  0.00    -0.090 HD
ATOM     21  H   LIG d   1      -0.929  80.299 116.094  0.00  0.00    -0.090 HD
ENDBRANCH   5  18
BRANCH   3  22
ATOM     22  C   LIG d   1      -2.875  77.269 111.999  0.00  0.00     0.382 C 
ATOM     23  O   LIG d   1      -3.975  77.500 111.441  0.00  0.00    -0.241 OA
ATOM     24  O   LIG d   1      -1.905  76.896 111.312  0.00  0.00    -0.241 OA
ENDBRANCH   3  22
TORSDOF 7
ENDMDL
MODEL 6
REMARK VINA RESULT:      -4.7      1.857      4.531
REMARK  7 active torsions:
REMARK  status: ('A' for Active; 'I' for Inactive)
REMARK    1  A    between atoms: C_2  and  C_3 
REMARK    2  A    between atoms: C_3  and  O_6 
REMARK    3  A    between atoms: C_3  and  C_4 
REMARK    4  A    between atoms: C_7  and  O_6 
REMARK    5  A    between atoms: C_9  and  C_10 
REMARK    6  A    between atoms: N_15  and  C_14 
REMARK    7  A    between atoms: N_20  and  C_19 
REMARK       I    between atoms: C_22  and  N_20 
ROOT
ATOM      1  C   LIG d   1      -3.397  78.257 114.900  0.00  0.00     0.161 C 
ATOM      2  C   LIG d   1      -4.200  77.155 115.236  0.00  0.00     0.016 C 
ATOM      3  C   LIG d   1      -3.709  75.832 115.324  0.00  0.00     0.038 C 
ATOM      4  C   LIG d   1      -2.339  75.542 115.229  0.00  0.00     0.028 C 
ATOM      5  C   LIG d   1      -1.563  76.553 114.392  0.00  0.00    -0.047 C 
ATOM      6  C   LIG d   1      -1.880  77.977 114.902  0.00  0.00     0.091 C 
ENDROOT
BRANCH   1   7
ATOM      7  O   LIG d   1      -3.703  79.367 115.768  0.00  0.00    -0.368 OA
BRANCH   7   8
ATOM      8  C   LIG d   1      -4.200  79.027 117.086  0.00  0.00     0.119 C 
BRANCH   8   9
ATOM      9  C   LIG d   1      -5.257  80.081 117.468  0.00  0.00     0.028 C 
ATOM     10  C   LIG d   1      -5.170  80.490 118.948  0.00  0.00     0.006 C 
ENDBRANCH   8   9
BRANCH   8  11
ATOM     11  C   LIG d   1      -3.101  79.153 118.145  0.00  0.00     0.028 C 
ATOM     12  C   LIG d   1      -2.565  77.790 118.613  0.00  0.00     0.006 C 
ENDBRANCH   8  11
ENDBRANCH   7   8
ENDBRANCH   1   7
BRANCH   6  13
ATOM     13  N   LIG d   1      -1.227  79.031 114.083  0.00  0.00    -0.311 N 
ATOM     14  C   LIG d   1      -1.459  79.198 112.783  0.00  0.00     0.210 C 
ATOM     15  C   LIG d   1      -0.666  80.332 112.125  0.00  0.00     0.109 C 
ATOM     16  O   LIG d   1      -2.271  78.537 112.118  0.00  0.00    -0.276 OA
ATOM     17  H   LIG d   1      -0.577  79.633 114.550  0.00  0.00     0.149 HD
ENDBRANCH   6  13
BRANCH   5  18
ATOM     18  N   LIG d   1      -0.132  76.208 114.491  0.00  0.00     0.381 N 
ATOM     19  H   LIG d   1       0.040  75.719 115.346  0.00  0.00    -0.090 HD
ATOM     20  H   LIG d   1       0.407  77.056 114.498  0.00  0.00    -0.090 HD
ATOM     21  H   LIG d   1       0.137  75.642 113.716  0.00  0.00    -0.090 HD
ENDBRANCH   5  18
BRANCH   3  22
ATOM     22  C   LIG d   1      -4.596  74.777 115.470  0.00  0.00     0.382 C 
ATOM     23  O   LIG d   1      -4.690  74.184 116.572  0.00  0.00    -0.241 OA
ATOM     24  O   LIG d   1      -5.273  74.382 114.501  0.00  0.00    -0.241 OA
ENDBRANCH   3  22
TORSDOF 7
ENDMDL
MODEL 7
REMARK VINA RESULT:      -4.6      2.491      5.421
REMARK  7 active torsions:
REMARK  status: ('A' for Active; 'I' for Inactive)
REMARK    1  A    between atoms: C_2  and  C_3 
REMARK    2  A    between atoms: C_3  and  O_6 
REMARK    3  A    between atoms: C_3  and  C_4 
REMARK    4  A    between atoms: C_7  and  O_6 
REMARK    5  A    between atoms: C_9  and  C_10 
REMARK    6  A    between atoms: N_15  and  C_14 
REMARK    7  A    between atoms: N_20  and  C_19 
REMARK       I    between atoms: C_22  and  N_20 
ROOT
ATOM      1  C   LIG d   1      -1.675  75.138 115.459  0.00  0.00     0.161 C 
ATOM      2  C   LIG d   1      -1.087  74.764 116.679  0.00  0.00     0.016 C 
ATOM      3  C   LIG d   1      -0.440  75.677 117.544  0.00  0.00     0.038 C 
ATOM      4  C   LIG d   1      -0.469  77.061 117.317  0.00  0.00     0.028 C 
ATOM      5  C   LIG d   1      -0.613  77.430 115.844  0.00  0.00    -0.047 C 
ATOM      6  C   LIG d   1      -1.813  76.660 115.248  0.00  0.00     0.091 C 
ENDROOT
BRANCH   1   7
ATOM      7  O   LIG d   1      -2.956  74.494 115.316  0.00  0.00    -0.368 OA
BRANCH   7   8
ATOM      8  C   LIG d   1      -4.111  75.279 115.701  0.00  0.00     0.119 C 
BRANCH   8   9
ATOM      9  C   LIG d   1      -4.479  74.884 117.144  0.00  0.00     0.028 C 
ATOM     10  C   LIG d   1      -4.233  76.025 118.145  0.00  0.00     0.006 C 
ENDBRANCH   8   9
BRANCH   8  11
ATOM     11  C   LIG d   1      -5.337  74.918 114.856  0.00  0.00     0.028 C 
ATOM     12  C   LIG d   1      -6.419  74.182 115.662  0.00  0.00     0.006 C 
ENDBRANCH   8  11
ENDBRANCH   7   8
ENDBRANCH   1   7
BRANCH   6  13
ATOM     13  N   LIG d   1      -1.973  76.900 113.790  0.00  0.00    -0.311 N 
ATOM     14  C   LIG d   1      -2.793  77.819 113.283  0.00  0.00     0.210 C 
ATOM     15  C   LIG d   1      -2.821  77.887 111.753  0.00  0.00     0.109 C 
ATOM     16  O   LIG d   1      -3.475  78.606 113.956  0.00  0.00    -0.276 OA
ATOM     17  H   LIG d   1      -1.433  76.326 113.172  0.00  0.00     0.149 HD
ENDBRANCH   6  13
BRANCH   5  18
ATOM     18  N   LIG d   1      -0.768  78.895 115.765  0.00  0.00     0.381 N 
ATOM     19  H   LIG d   1      -0.599  79.203 114.828  0.00  0.00    -0.090 HD
ATOM     20  H   LIG d   1      -0.088  79.327 116.366  0.00  0.00    -0.090 HD
ATOM     21  H   LIG d   1      -1.687  79.156 116.048  0.00  0.00    -0.090 HD
ENDBRANCH   5  18
BRANCH   3  22
ATOM     22  C   LIG d   1       0.280  75.202 118.629  0.00  0.00     0.382 C 
ATOM     23  O   LIG d   1      -0.186  74.274 119.334  0.00  0.00    -0.241 OA
ATOM     24  O   LIG d   1       1.369  75.720 118.940  0.00  0.00    -0.241 OA
ENDBRANCH   3  22
TORSDOF 7
ENDMDL
MODEL 8
REMARK VINA RESULT:      -4.6      2.978      4.445
REMARK  7 active torsions:
REMARK  status: ('A' for Active; 'I' for Inactive)
REMARK    1  A    between atoms: C_2  and  C_3 
REMARK    2  A    between atoms: C_3  and  O_6 
REMARK    3  A    between atoms: C_3  and  C_4 
REMARK    4  A    between atoms: C_7  and  O_6 
REMARK    5  A    between atoms: C_9  and  C_10 
REMARK    6  A    between atoms: N_15  and  C_14 
REMARK    7  A    between atoms: N_20  and  C_19 
REMARK       I    between atoms: C_22  and  N_20 
ROOT
ATOM      1  C   LIG d   1      -4.934  77.050 118.162  0.00  0.00     0.161 C 
ATOM      2  C   LIG d   1      -5.664  78.238 118.329  0.00  0.00     0.016 C 
ATOM      3  C   LIG d   1      -5.365  79.439 117.646  0.00  0.00     0.038 C 
ATOM      4  C   LIG d   1      -4.401  79.492 116.628  0.00  0.00     0.028 C 
ATOM      5  C   LIG d   1      -3.300  78.448 116.781  0.00  0.00    -0.047 C 
ATOM      6  C   LIG d   1      -3.949  77.058 116.974  0.00  0.00     0.091 C 
ENDROOT
BRANCH   1   7
ATOM      7  O   LIG d   1      -5.837  75.932 118.056  0.00  0.00    -0.368 OA
BRANCH   7   8
ATOM      8  C   LIG d   1      -6.430  75.713 116.752  0.00  0.00     0.119 C 
BRANCH   8   9
ATOM      9  C   LIG d   1      -7.959  75.806 116.918  0.00  0.00     0.028 C 
ATOM     10  C   LIG d   1      -8.448  75.165 118.228  0.00  0.00     0.006 C 
ENDBRANCH   8   9
BRANCH   8  11
ATOM     11  C   LIG d   1      -6.163  74.291 116.250  0.00  0.00     0.028 C 
ATOM     12  C   LIG d   1      -6.039  74.213 114.720  0.00  0.00     0.006 C 
ENDBRANCH   8  11
ENDBRANCH   7   8
ENDBRANCH   1   7
BRANCH   6  13
ATOM     13  N   LIG d   1      -2.943  75.991 117.216  0.00  0.00    -0.311 N 
ATOM     14  C   LIG d   1      -2.429  75.235 116.247  0.00  0.00     0.210 C 
ATOM     15  C   LIG d   1      -1.423  74.180 116.716  0.00  0.00     0.109 C 
ATOM     16  O   LIG d   1      -2.688  75.359 115.040  0.00  0.00    -0.276 OA
ATOM     17  H   LIG d   1      -2.654  75.844 118.163  0.00  0.00     0.149 HD
ENDBRANCH   6  13
BRANCH   5  18
ATOM     18  N   LIG d   1      -2.442  78.525 115.584  0.00  0.00     0.381 N 
ATOM     19  H   LIG d   1      -1.886  79.356 115.618  0.00  0.00    -0.090 HD
ATOM     20  H   LIG d   1      -3.027  78.571 114.768  0.00  0.00    -0.090 HD
ATOM     21  H   LIG d   1      -1.853  77.723 115.534  0.00  0.00    -0.090 HD
ENDBRANCH   5  18
BRANCH   3  22
ATOM     22  C   LIG d   1      -6.006  80.614 118.007  0.00  0.00     0.382 C 
ATOM     23  O   LIG d   1      -5.730  81.169 119.097  0.00  0.00    -0.241 OA
ATOM     24  O   LIG d   1      -6.890  81.102 117.277  0.00  0.00    -0.241 OA
ENDBRANCH   3  22
TORSDOF 7
ENDMDL
MODEL 9
REMARK VINA RESULT:      -4.2      2.719      3.664
REMARK  7 active torsions:
REMARK  status: ('A' for Active; 'I' for Inactive)
REMARK    1  A    between atoms: C_2  and  C_3 
REMARK    2  A    between atoms: C_3  and  O_6 
REMARK    3  A    between atoms: C_3  and  C_4 
REMARK    4  A    between atoms: C_7  and  O_6 
REMARK    5  A    between atoms: C_9  and  C_10 
REMARK    6  A    between atoms: N_15  and  C_14 
REMARK    7  A    between atoms: N_20  and  C_19 
REMARK       I    between atoms: C_22  and  N_20 
ROOT
ATOM      1  C   LIG d   1      -2.802  76.430 115.368  0.00  0.00     0.161 C 
ATOM      2  C   LIG d   1      -3.116  76.529 114.002  0.00  0.00     0.016 C 
ATOM      3  C   LIG d   1      -2.605  77.540 113.157  0.00  0.00     0.038 C 
ATOM      4  C   LIG d   1      -1.618  78.438 113.589  0.00  0.00     0.028 C 
ATOM      5  C   LIG d   1      -1.646  78.692 115.092  0.00  0.00    -0.047 C 
ATOM      6  C   LIG d   1      -1.640  77.334 115.831  0.00  0.00     0.091 C 
ENDROOT
BRANCH   1   7
ATOM      7  O   LIG d   1      -2.534  75.056 115.709  0.00  0.00    -0.368 OA
BRANCH   7   8
ATOM      8  C   LIG d   1      -3.467  74.433 116.626  0.00  0.00     0.119 C 
BRANCH   8   9
ATOM      9  C   LIG d   1      -4.799  75.201 116.523  0.00  0.00     0.028 C 
ATOM     10  C   LIG d   1      -5.912  74.360 115.874  0.00  0.00     0.006 C 
ENDBRANCH   8   9
BRANCH   8  11
ATOM     11  C   LIG d   1      -3.015  74.599 118.080  0.00  0.00     0.028 C 
ATOM     12  C   LIG d   1      -1.553  74.180 118.300  0.00  0.00     0.006 C 
ENDBRANCH   8  11
ENDBRANCH   7   8
ENDBRANCH   1   7
BRANCH   6  13
ATOM     13  N   LIG d   1      -1.752  77.490 117.304  0.00  0.00    -0.311 N 
ATOM     14  C   LIG d   1      -0.698  77.577 118.114  0.00  0.00     0.210 C 
ATOM     15  C   LIG d   1      -1.035  77.714 119.602  0.00  0.00     0.109 C 
ATOM     16  O   LIG d   1       0.484  77.587 117.738  0.00  0.00    -0.276 OA
ATOM     17  H   LIG d   1      -2.675  77.523 117.691  0.00  0.00     0.149 HD
ENDBRANCH   6  13
BRANCH   5  18
ATOM     18  N   LIG d   1      -0.482  79.535 115.424  0.00  0.00     0.381 N 
ATOM     19  H   LIG d   1      -0.541  80.403 114.929  0.00  0.00    -0.090 HD
ATOM     20  H   LIG d   1       0.356  79.063 115.132  0.00  0.00    -0.090 HD
ATOM     21  H   LIG d   1      -0.452  79.705 116.405  0.00  0.00    -0.090 HD
ENDBRANCH   5  18
BRANCH   3  22
ATOM     22  C   LIG d   1      -3.111  77.684 111.874  0.00  0.00     0.382 C 
ATOM     23  O   LIG d   1      -4.279  77.308 111.615  0.00  0.00    -0.241 OA
ATOM     24  O   LIG d   1      -2.399  78.146 110.962  0.00  0.00    -0.241 OA
ENDBRANCH   3  22
TORSDOF 7
ENDMDL
