MODEL 1
REMARK VINA RESULT:      -5.3      0.000      0.000
REMARK  7 active torsions:
REMARK  status: ('A' for Active; 'I' for Inactive)
REMARK    1  A    between atoms: C_2  and  C_3 
REMARK    2  A    between atoms: C_3  and  O_6 
REMARK    3  A    between atoms: C_3  and  C_4 
REMARK    4  A    between atoms: C_7  and  O_6 
REMARK    5  A    between atoms: C_9  and  C_10 
REMARK    6  A    between atoms: N_15  and  C_14 
REMARK    7  A    between atoms: N_20  and  C_19 
REMARK       I    between atoms: C_22  and  N_20 
ROOT
ATOM      1  C   LIG d   1      -2.555  77.697 115.951  0.00  0.00     0.161 C 
ATOM      2  C   LIG d   1      -2.925  78.437 114.815  0.00  0.00     0.016 C 
ATOM      3  C   LIG d   1      -2.275  78.323 113.565  0.00  0.00     0.038 C 
ATOM      4  C   LIG d   1      -1.300  77.343 113.324  0.00  0.00     0.028 C 
ATOM      5  C   LIG d   1      -0.546  76.916 114.578  0.00  0.00    -0.047 C 
ATOM      6  C   LIG d   1      -1.568  76.543 115.676  0.00  0.00     0.091 C 
ENDROOT
BRANCH   1   7
ATOM      7  O   LIG d   1      -3.733  77.201 116.616  0.00  0.00    -0.368 OA
BRANCH   7   8
ATOM      8  C   LIG d   1      -4.983  77.359 115.901  0.00  0.00     0.119 C 
BRANCH   8   9
ATOM      9  C   LIG d   1      -6.008  77.953 116.886  0.00  0.00     0.028 C 
ATOM     10  C   LIG d   1      -5.695  79.414 117.250  0.00  0.00     0.006 C 
ENDBRANCH   8   9
BRANCH   8  11
ATOM     11  C   LIG d   1      -5.562  76.004 115.482  0.00  0.00     0.028 C 
ATOM     12  C   LIG d   1      -5.302  75.677 114.003  0.00  0.00     0.006 C 
ENDBRANCH   8  11
ENDBRANCH   7   8
ENDBRANCH   1   7
BRANCH   6  13
ATOM     13  N   LIG d   1      -0.914  76.195 116.965  0.00  0.00    -0.311 N 
ATOM     14  C   LIG d   1      -1.171  75.076 117.639  0.00  0.00     0.210 C 
ATOM     15  C   LIG d   1      -0.402  74.922 118.955  0.00  0.00     0.109 C 
ATOM     16  O   LIG d   1      -1.939  74.180 117.256  0.00  0.00    -0.276 OA
ATOM     17  H   LIG d   1      -0.253  76.851 117.333  0.00  0.00     0.149 HD
ENDBRANCH   6  13
BRANCH   5  18
ATOM     18  N   LIG d   1       0.339  75.796 114.207  0.00  0.00     0.381 N 
ATOM     19  H   LIG d   1       0.881  76.044 113.404  0.00  0.00    -0.090 HD
ATOM     20  H   LIG d   1      -0.226  74.999 113.972  0.00  0.00    -0.090 HD
ATOM     21  H   LIG d   1       0.943  75.572 114.968  0.00  0.00    -0.090 HD
ENDBRANCH   5  18
BRANCH   3  22
ATOM     22  C   LIG d   1      -2.570  79.222 112.552  0.00  0.00     0.382 C 
ATOM     23  O   LIG d   1      -3.325  80.198 112.780  0.00  0.00    -0.241 OA
ATOM     24  O   LIG d   1      -2.127  79.045 111.401  0.00  0.00    -0.241 OA
ENDBRANCH   3  22
TORSDOF 7
ENDMDL
MODEL 2
REMARK VINA RESULT:      -5.3      1.914      4.935
REMARK  7 active torsions:
REMARK  status: ('A' for Active; 'I' for Inactive)
REMARK    1  A    between atoms: C_2  and  C_3 
REMARK    2  A    between atoms: C_3  and  O_6 
REMARK    3  A    between atoms: C_3  and  C_4 
REMARK    4  A    between atoms: C_7  and  O_6 
REMARK    5  A    between atoms: C_9  and  C_10 
REMARK    6  A    between atoms: N_15  and  C_14 
REMARK    7  A    between atoms: N_20  and  C_19 
REMARK       I    between atoms: C_22  and  N_20 
ROOT
ATOM      1  C   LIG d   1      -2.264  75.138 115.401  0.00  0.00     0.161 C 
ATOM      2  C   LIG d   1      -1.649  74.646 116.564  0.00  0.00     0.016 C 
ATOM      3  C   LIG d   1      -0.615  75.328 117.245  0.00  0.00     0.038 C 
ATOM      4  C   LIG d   1      -0.228  76.630 116.893  0.00  0.00     0.028 C 
ATOM      5  C   LIG d   1      -0.470  76.957 115.423  0.00  0.00    -0.047 C 
ATOM      6  C   LIG d   1      -1.932  76.607 115.066  0.00  0.00     0.091 C 
ENDROOT
BRANCH   1   7
ATOM      7  O   LIG d   1      -3.691  74.954 115.488  0.00  0.00    -0.368 OA
BRANCH   7   8
ATOM      8  C   LIG d   1      -4.446  76.068 116.023  0.00  0.00     0.119 C 
BRANCH   8   9
ATOM      9  C   LIG d   1      -5.037  75.621 117.374  0.00  0.00     0.028 C 
ATOM     10  C   LIG d   1      -6.075  74.497 117.217  0.00  0.00     0.006 C 
ENDBRANCH   8   9
BRANCH   8  11
ATOM     11  C   LIG d   1      -5.654  76.398 115.141  0.00  0.00     0.028 C 
ATOM     12  C   LIG d   1      -5.641  75.638 113.805  0.00  0.00     0.006 C 
ENDBRANCH   8  11
ENDBRANCH   7   8
ENDBRANCH   1   7
BRANCH   6  13
ATOM     13  N   LIG d   1      -2.229  76.818 113.625  0.00  0.00    -0.311 N 
ATOM     14  C   LIG d   1      -2.786  77.929 113.146  0.00  0.00     0.210 C 
ATOM     15  C   LIG d   1      -3.025  77.932 111.633  0.00  0.00     0.109 C 
ATOM     16  O   LIG d   1      -3.076  78.925 113.826  0.00  0.00    -0.276 OA
ATOM     17  H   LIG d   1      -1.998  76.072 112.997  0.00  0.00     0.149 HD
ENDBRANCH   6  13
BRANCH   5  18
ATOM     18  N   LIG d   1      -0.152  78.384 115.226  0.00  0.00     0.381 N 
ATOM     19  H   LIG d   1       0.343  78.734 116.022  0.00  0.00    -0.090 HD
ATOM     20  H   LIG d   1      -1.010  78.899 115.137  0.00  0.00    -0.090 HD
ATOM     21  H   LIG d   1       0.400  78.500 114.405  0.00  0.00    -0.090 HD
ENDBRANCH   5  18
BRANCH   3  22
ATOM     22  C   LIG d   1       0.071  74.691 118.268  0.00  0.00     0.382 C 
ATOM     23  O   LIG d   1      -0.530  74.370 119.321  0.00  0.00    -0.241 OA
ATOM     24  O   LIG d   1       1.294  74.473 118.168  0.00  0.00    -0.241 OA
ENDBRANCH   3  22
TORSDOF 7
ENDMDL
MODEL 3
REMARK VINA RESULT:      -5.2      2.742      4.125
REMARK  7 active torsions:
REMARK  status: ('A' for Active; 'I' for Inactive)
REMARK    1  A    between atoms: C_2  and  C_3 
REMARK    2  A    between atoms: C_3  and  O_6 
REMARK    3  A    between atoms: C_3  and  C_4 
REMARK    4  A    between atoms: C_7  and  O_6 
REMARK    5  A    between atoms: C_9  and  C_10 
REMARK    6  A    between atoms: N_15  and  C_14 
REMARK    7  A    between atoms: N_20  and  C_19 
REMARK       I    between atoms: C_22  and  N_20 
ROOT
ATOM      1  C   LIG d   1      -4.591  76.120 117.447  0.00  0.00     0.161 C 
ATOM      2  C   LIG d   1      -5.571  77.096 117.695  0.00  0.00     0.016 C 
ATOM      3  C   LIG d   1      -5.447  78.444 117.287  0.00  0.00     0.038 C 
ATOM      4  C   LIG d   1      -4.395  78.876 116.466  0.00  0.00     0.028 C 
ATOM      5  C   LIG d   1      -3.128  78.042 116.615  0.00  0.00    -0.047 C 
ATOM      6  C   LIG d   1      -3.489  76.547 116.456  0.00  0.00     0.091 C 
ENDROOT
BRANCH   1   7
ATOM      7  O   LIG d   1      -5.218  74.900 117.004  0.00  0.00    -0.368 OA
BRANCH   7   8
ATOM      8  C   LIG d   1      -6.366  75.053 116.133  0.00  0.00     0.119 C 
BRANCH   8   9
ATOM      9  C   LIG d   1      -7.500  74.181 116.705  0.00  0.00     0.028 C 
ATOM     10  C   LIG d   1      -8.781  74.989 116.976  0.00  0.00     0.006 C 
ENDBRANCH   8   9
BRANCH   8  11
ATOM     11  C   LIG d   1      -6.085  74.488 114.737  0.00  0.00     0.028 C 
ATOM     12  C   LIG d   1      -5.611  75.562 113.745  0.00  0.00     0.006 C 
ENDBRANCH   8  11
ENDBRANCH   7   8
ENDBRANCH   1   7
BRANCH   6  13
ATOM     13  N   LIG d   1      -2.320  75.655 116.672  0.00  0.00    -0.311 N 
ATOM     14  C   LIG d   1      -1.541  75.216 115.685  0.00  0.00     0.210 C 
ATOM     15  C   LIG d   1      -0.402  74.290 116.123  0.00  0.00     0.109 C 
ATOM     16  O   LIG d   1      -1.666  75.530 114.492  0.00  0.00    -0.276 OA
ATOM     17  H   LIG d   1      -2.127  75.376 117.614  0.00  0.00     0.149 HD
ENDBRANCH   6  13
BRANCH   5  18
ATOM     18  N   LIG d   1      -2.162  78.514 115.605  0.00  0.00     0.381 N 
ATOM     19  H   LIG d   1      -2.358  78.085 114.723  0.00  0.00    -0.090 HD
ATOM     20  H   LIG d   1      -1.236  78.243 115.889  0.00  0.00    -0.090 HD
ATOM     21  H   LIG d   1      -2.214  79.505 115.520  0.00  0.00    -0.090 HD
ENDBRANCH   5  18
BRANCH   3  22
ATOM     22  C   LIG d   1      -6.362  79.384 117.736  0.00  0.00     0.382 C 
ATOM     23  O   LIG d   1      -6.414  80.515 117.195  0.00  0.00    -0.241 OA
ATOM     24  O   LIG d   1      -7.105  79.131 118.703  0.00  0.00    -0.241 OA
ENDBRANCH   3  22
TORSDOF 7
ENDMDL
MODEL 4
REMARK VINA RESULT:      -5.2      1.600      2.138
REMARK  7 active torsions:
REMARK  status: ('A' for Active; 'I' for Inactive)
REMARK    1  A    between atoms: C_2  and  C_3 
REMARK    2  A    between atoms: C_3  and  O_6 
REMARK    3  A    between atoms: C_3  and  C_4 
REMARK    4  A    between atoms: C_7  and  O_6 
REMARK    5  A    between atoms: C_9  and  C_10 
REMARK    6  A    between atoms: N_15  and  C_14 
REMARK    7  A    between atoms: N_20  and  C_19 
REMARK       I    between atoms: C_22  and  N_20 
ROOT
ATOM      1  C   LIG d   1      -2.855  76.551 115.023  0.00  0.00     0.161 C 
ATOM      2  C   LIG d   1      -3.019  77.435 113.944  0.00  0.00     0.016 C 
ATOM      3  C   LIG d   1      -2.014  78.330 113.511  0.00  0.00     0.038 C 
ATOM      4  C   LIG d   1      -0.713  78.294 114.036  0.00  0.00     0.028 C 
ATOM      5  C   LIG d   1      -0.651  77.767 115.465  0.00  0.00    -0.047 C 
ATOM      6  C   LIG d   1      -1.406  76.419 115.536  0.00  0.00     0.091 C 
ENDROOT
BRANCH   1   7
ATOM      7  O   LIG d   1      -3.383  75.255 114.677  0.00  0.00    -0.368 OA
BRANCH   7   8
ATOM      8  C   LIG d   1      -4.541  74.818 115.431  0.00  0.00     0.119 C 
BRANCH   8   9
ATOM      9  C   LIG d   1      -5.689  74.595 114.427  0.00  0.00     0.028 C 
ATOM     10  C   LIG d   1      -6.111  75.894 113.721  0.00  0.00     0.006 C 
ENDBRANCH   8   9
BRANCH   8  11
ATOM     11  C   LIG d   1      -5.037  75.914 116.378  0.00  0.00     0.028 C 
ATOM     12  C   LIG d   1      -5.974  75.379 117.471  0.00  0.00     0.006 C 
ENDBRANCH   8  11
ENDBRANCH   7   8
ENDBRANCH   1   7
BRANCH   6  13
ATOM     13  N   LIG d   1      -1.465  75.875 116.918  0.00  0.00    -0.311 N 
ATOM     14  C   LIG d   1      -0.611  74.967 117.386  0.00  0.00     0.210 C 
ATOM     15  C   LIG d   1      -0.863  74.527 118.831  0.00  0.00     0.109 C 
ATOM     16  O   LIG d   1       0.351  74.509 116.751  0.00  0.00    -0.276 OA
ATOM     17  H   LIG d   1      -2.196  76.216 117.511  0.00  0.00     0.149 HD
ENDBRANCH   6  13
BRANCH   5  18
ATOM     18  N   LIG d   1       0.772  77.653 115.837  0.00  0.00     0.381 N 
ATOM     19  H   LIG d   1       0.904  77.982 116.773  0.00  0.00    -0.090 HD
ATOM     20  H   LIG d   1       1.316  78.231 115.220  0.00  0.00    -0.090 HD
ATOM     21  H   LIG d   1       1.068  76.705 115.764  0.00  0.00    -0.090 HD
ENDBRANCH   5  18
BRANCH   3  22
ATOM     22  C   LIG d   1      -2.318  79.301 112.569  0.00  0.00     0.382 C 
ATOM     23  O   LIG d   1      -3.061  80.263 112.878  0.00  0.00    -0.241 OA
ATOM     24  O   LIG d   1      -1.893  79.204 111.402  0.00  0.00    -0.241 OA
ENDBRANCH   3  22
TORSDOF 7
ENDMDL
MODEL 5
REMARK VINA RESULT:      -4.6      1.753      2.065
REMARK  7 active torsions:
REMARK  status: ('A' for Active; 'I' for Inactive)
REMARK    1  A    between atoms: C_2  and  C_3 
REMARK    2  A    between atoms: C_3  and  O_6 
REMARK    3  A    between atoms: C_3  and  C_4 
REMARK    4  A    between atoms: C_7  and  O_6 
REMARK    5  A    between atoms: C_9  and  C_10 
REMARK    6  A    between atoms: N_15  and  C_14 
REMARK    7  A    between atoms: N_20  and  C_19 
REMARK       I    between atoms: C_22  and  N_20 
ROOT
ATOM      1  C   LIG d   1      -3.292  76.205 115.675  0.00  0.00     0.161 C 
ATOM      2  C   LIG d   1      -3.489  76.722 114.384  0.00  0.00     0.016 C 
ATOM      3  C   LIG d   1      -2.431  77.013 113.493  0.00  0.00     0.038 C 
ATOM      4  C   LIG d   1      -1.103  76.662 113.779  0.00  0.00     0.028 C 
ATOM      5  C   LIG d   1      -0.801  76.602 115.273  0.00  0.00    -0.047 C 
ATOM      6  C   LIG d   1      -1.859  75.712 115.963  0.00  0.00     0.091 C 
ENDROOT
BRANCH   1   7
ATOM      7  O   LIG d   1      -4.245  75.153 115.931  0.00  0.00    -0.368 OA
BRANCH   7   8
ATOM      8  C   LIG d   1      -5.565  75.577 116.349  0.00  0.00     0.119 C 
BRANCH   8   9
ATOM      9  C   LIG d   1      -5.393  76.838 117.219  0.00  0.00     0.028 C 
ATOM     10  C   LIG d   1      -5.557  76.542 118.719  0.00  0.00     0.006 C 
ENDBRANCH   8   9
BRANCH   8  11
ATOM     11  C   LIG d   1      -6.220  74.539 117.265  0.00  0.00     0.028 C 
ATOM     12  C   LIG d   1      -7.650  74.180 116.832  0.00  0.00     0.006 C 
ENDBRANCH   8  11
ENDBRANCH   7   8
ENDBRANCH   1   7
BRANCH   6  13
ATOM     13  N   LIG d   1      -1.686  75.667 117.439  0.00  0.00    -0.311 N 
ATOM     14  C   LIG d   1      -1.773  76.742 118.220  0.00  0.00     0.210 C 
ATOM     15  C   LIG d   1      -1.543  76.478 119.711  0.00  0.00     0.109 C 
ATOM     16  O   LIG d   1      -2.052  77.884 117.823  0.00  0.00    -0.276 OA
ATOM     17  H   LIG d   1      -1.489  74.775 117.848  0.00  0.00     0.149 HD
ENDBRANCH   6  13
BRANCH   5  18
ATOM     18  N   LIG d   1       0.575  76.092 115.429  0.00  0.00     0.381 N 
ATOM     19  H   LIG d   1       1.028  76.566 116.184  0.00  0.00    -0.090 HD
ATOM     20  H   LIG d   1       1.088  76.278 114.585  0.00  0.00    -0.090 HD
ATOM     21  H   LIG d   1       0.557  75.112 115.606  0.00  0.00    -0.090 HD
ENDBRANCH   5  18
BRANCH   3  22
ATOM     22  C   LIG d   1      -2.692  77.699 112.316  0.00  0.00     0.382 C 
ATOM     23  O   LIG d   1      -3.164  78.860 112.359  0.00  0.00    -0.241 OA
ATOM     24  O   LIG d   1      -2.502  77.154 111.212  0.00  0.00    -0.241 OA
ENDBRANCH   3  22
TORSDOF 7
ENDMDL
MODEL 6
REMARK VINA RESULT:      -4.6      3.023      5.253
REMARK  7 active torsions:
REMARK  status: ('A' for Active; 'I' for Inactive)
REMARK    1  A    between atoms: C_2  and  C_3 
REMARK    2  A    between atoms: C_3  and  O_6 
REMARK    3  A    between atoms: C_3  and  C_4 
REMARK    4  A    between atoms: C_7  and  O_6 
REMARK    5  A    between atoms: C_9  and  C_10 
REMARK    6  A    between atoms: N_15  and  C_14 
REMARK    7  A    between atoms: N_20  and  C_19 
REMARK       I    between atoms: C_22  and  N_20 
ROOT
ATOM      1  C   LIG d   1      -4.375  76.739 117.366  0.00  0.00     0.161 C 
ATOM      2  C   LIG d   1      -5.692  76.842 117.844  0.00  0.00     0.016 C 
ATOM      3  C   LIG d   1      -6.812  76.317 117.159  0.00  0.00     0.038 C 
ATOM      4  C   LIG d   1      -6.673  75.515 116.016  0.00  0.00     0.028 C 
ATOM      5  C   LIG d   1      -5.406  75.809 115.221  0.00  0.00    -0.047 C 
ATOM      6  C   LIG d   1      -4.192  75.772 116.178  0.00  0.00     0.091 C 
ENDROOT
BRANCH   1   7
ATOM      7  O   LIG d   1      -3.490  76.379 118.446  0.00  0.00    -0.368 OA
BRANCH   7   8
ATOM      8  C   LIG d   1      -2.669  77.447 118.979  0.00  0.00     0.119 C 
BRANCH   8   9
ATOM      9  C   LIG d   1      -2.644  78.578 117.934  0.00  0.00     0.028 C 
ATOM     10  C   LIG d   1      -1.243  78.796 117.338  0.00  0.00     0.006 C 
ENDBRANCH   8   9
BRANCH   8  11
ATOM     11  C   LIG d   1      -1.210  77.004 119.132  0.00  0.00     0.028 C 
ATOM     12  C   LIG d   1      -1.049  75.476 119.136  0.00  0.00     0.006 C 
ENDBRANCH   8  11
ENDBRANCH   7   8
ENDBRANCH   1   7
BRANCH   6  13
ATOM     13  N   LIG d   1      -2.921  76.131 115.496  0.00  0.00    -0.311 N 
ATOM     14  C   LIG d   1      -1.860  75.327 115.452  0.00  0.00     0.210 C 
ATOM     15  C   LIG d   1      -0.645  75.900 114.716  0.00  0.00     0.109 C 
ATOM     16  O   LIG d   1      -1.821  74.182 115.925  0.00  0.00    -0.276 OA
ATOM     17  H   LIG d   1      -2.877  77.031 115.059  0.00  0.00     0.149 HD
ENDBRANCH   6  13
BRANCH   5  18
ATOM     18  N   LIG d   1      -5.318  74.812 114.137  0.00  0.00     0.381 N 
ATOM     19  H   LIG d   1      -4.360  74.657 113.896  0.00  0.00    -0.090 HD
ATOM     20  H   LIG d   1      -5.794  75.169 113.328  0.00  0.00    -0.090 HD
ATOM     21  H   LIG d   1      -5.738  73.956 114.427  0.00  0.00    -0.090 HD
ENDBRANCH   5  18
BRANCH   3  22
ATOM     22  C   LIG d   1      -8.091  76.627 117.595  0.00  0.00     0.382 C 
ATOM     23  O   LIG d   1      -9.054  75.882 117.292  0.00  0.00    -0.241 OA
ATOM     24  O   LIG d   1      -8.301  77.665 118.250  0.00  0.00    -0.241 OA
ENDBRANCH   3  22
TORSDOF 7
ENDMDL
MODEL 7
REMARK VINA RESULT:      -4.6      2.336      4.054
REMARK  7 active torsions:
REMARK  status: ('A' for Active; 'I' for Inactive)
REMARK    1  A    between atoms: C_2  and  C_3 
REMARK    2  A    between atoms: C_3  and  O_6 
REMARK    3  A    between atoms: C_3  and  C_4 
REMARK    4  A    between atoms: C_7  and  O_6 
REMARK    5  A    between atoms: C_9  and  C_10 
REMARK    6  A    between atoms: N_15  and  C_14 
REMARK    7  A    between atoms: N_20  and  C_19 
REMARK       I    between atoms: C_22  and  N_20 
ROOT
ATOM      1  C   LIG d   1      -1.905  77.562 114.602  0.00  0.00     0.161 C 
ATOM      2  C   LIG d   1      -1.042  78.480 113.981  0.00  0.00     0.016 C 
ATOM      3  C   LIG d   1      -1.269  79.012 112.691  0.00  0.00     0.038 C 
ATOM      4  C   LIG d   1      -2.462  78.776 111.991  0.00  0.00     0.028 C 
ATOM      5  C   LIG d   1      -3.131  77.456 112.362  0.00  0.00    -0.047 C 
ATOM      6  C   LIG d   1      -3.267  77.378 113.900  0.00  0.00     0.091 C 
ENDROOT
BRANCH   1   7
ATOM      7  O   LIG d   1      -2.098  77.929 115.982  0.00  0.00    -0.368 OA
BRANCH   7   8
ATOM      8  C   LIG d   1      -1.491  77.056 116.965  0.00  0.00     0.119 C 
BRANCH   8   9
ATOM      9  C   LIG d   1      -0.889  75.855 116.209  0.00  0.00     0.028 C 
ATOM     10  C   LIG d   1      -1.466  74.512 116.687  0.00  0.00     0.006 C 
ENDBRANCH   8   9
BRANCH   8  11
ATOM     11  C   LIG d   1      -2.542  76.458 117.905  0.00  0.00     0.028 C 
ATOM     12  C   LIG d   1      -3.882  77.209 117.855  0.00  0.00     0.006 C 
ENDBRANCH   8  11
ENDBRANCH   7   8
ENDBRANCH   1   7
BRANCH   6  13
ATOM     13  N   LIG d   1      -3.835  76.082 114.353  0.00  0.00    -0.311 N 
ATOM     14  C   LIG d   1      -5.133  75.893 114.589  0.00  0.00     0.210 C 
ATOM     15  C   LIG d   1      -5.504  74.486 115.069  0.00  0.00     0.109 C 
ATOM     16  O   LIG d   1      -6.015  76.747 114.416  0.00  0.00    -0.276 OA
ATOM     17  H   LIG d   1      -3.194  75.325 114.490  0.00  0.00     0.149 HD
ENDBRANCH   6  13
BRANCH   5  18
ATOM     18  N   LIG d   1      -4.429  77.403 111.663  0.00  0.00     0.381 N 
ATOM     19  H   LIG d   1      -4.512  76.537 111.169  0.00  0.00    -0.090 HD
ATOM     20  H   LIG d   1      -4.469  78.153 110.995  0.00  0.00    -0.090 HD
ATOM     21  H   LIG d   1      -5.173  77.492 112.319  0.00  0.00    -0.090 HD
ENDBRANCH   5  18
BRANCH   3  22
ATOM     22  C   LIG d   1      -0.278  79.758 112.071  0.00  0.00     0.382 C 
ATOM     23  O   LIG d   1       0.644  80.266 112.754  0.00  0.00    -0.241 OA
ATOM     24  O   LIG d   1      -0.320  79.968 110.844  0.00  0.00    -0.241 OA
ENDBRANCH   3  22
TORSDOF 7
ENDMDL
MODEL 8
REMARK VINA RESULT:      -4.3      2.612      4.270
REMARK  7 active torsions:
REMARK  status: ('A' for Active; 'I' for Inactive)
REMARK    1  A    between atoms: C_2  and  C_3 
REMARK    2  A    between atoms: C_3  and  O_6 
REMARK    3  A    between atoms: C_3  and  C_4 
REMARK    4  A    between atoms: C_7  and  O_6 
REMARK    5  A    between atoms: C_9  and  C_10 
REMARK    6  A    between atoms: N_15  and  C_14 
REMARK    7  A    between atoms: N_20  and  C_19 
REMARK       I    between atoms: C_22  and  N_20 
ROOT
ATOM      1  C   LIG d   1      -3.362  77.723 117.128  0.00  0.00     0.161 C 
ATOM      2  C   LIG d   1      -2.325  78.491 117.684  0.00  0.00     0.016 C 
ATOM      3  C   LIG d   1      -1.074  78.682 117.053  0.00  0.00     0.038 C 
ATOM      4  C   LIG d   1      -0.828  78.238 115.745  0.00  0.00     0.028 C 
ATOM      5  C   LIG d   1      -1.666  77.027 115.349  0.00  0.00    -0.047 C 
ATOM      6  C   LIG d   1      -3.152  77.323 115.653  0.00  0.00     0.091 C 
ENDROOT
BRANCH   1   7
ATOM      7  O   LIG d   1      -4.619  78.411 117.287  0.00  0.00    -0.368 OA
BRANCH   7   8
ATOM      8  C   LIG d   1      -5.346  78.135 118.509  0.00  0.00     0.119 C 
BRANCH   8   9
ATOM      9  C   LIG d   1      -5.881  76.693 118.415  0.00  0.00     0.028 C 
ATOM     10  C   LIG d   1      -7.069  76.570 117.447  0.00  0.00     0.006 C 
ENDBRANCH   8   9
BRANCH   8  11
ATOM     11  C   LIG d   1      -6.589  79.022 118.630  0.00  0.00     0.028 C 
ATOM     12  C   LIG d   1      -6.499  80.294 117.773  0.00  0.00     0.006 C 
ENDBRANCH   8  11
ENDBRANCH   7   8
ENDBRANCH   1   7
BRANCH   6  13
ATOM     13  N   LIG d   1      -4.031  76.158 115.373  0.00  0.00    -0.311 N 
ATOM     14  C   LIG d   1      -4.642  75.965 114.205  0.00  0.00     0.210 C 
ATOM     15  C   LIG d   1      -5.519  74.710 114.134  0.00  0.00     0.109 C 
ATOM     16  O   LIG d   1      -4.515  76.695 113.211  0.00  0.00    -0.276 OA
ATOM     17  H   LIG d   1      -4.165  75.499 116.114  0.00  0.00     0.149 HD
ENDBRANCH   6  13
BRANCH   5  18
ATOM     18  N   LIG d   1      -1.410  76.756 113.921  0.00  0.00     0.381 N 
ATOM     19  H   LIG d   1      -2.275  76.746 113.419  0.00  0.00    -0.090 HD
ATOM     20  H   LIG d   1      -0.983  75.851 113.833  0.00  0.00    -0.090 HD
ATOM     21  H   LIG d   1      -0.807  77.454 113.545  0.00  0.00    -0.090 HD
ENDBRANCH   5  18
BRANCH   3  22
ATOM     22  C   LIG d   1      -0.040  79.289 117.748  0.00  0.00     0.382 C 
ATOM     23  O   LIG d   1       0.189  80.512 117.590  0.00  0.00    -0.241 OA
ATOM     24  O   LIG d   1       0.696  78.619 118.498  0.00  0.00    -0.241 OA
ENDBRANCH   3  22
TORSDOF 7
ENDMDL
MODEL 9
REMARK VINA RESULT:      -4.3      2.568      5.024
REMARK  7 active torsions:
REMARK  status: ('A' for Active; 'I' for Inactive)
REMARK    1  A    between atoms: C_2  and  C_3 
REMARK    2  A    between atoms: C_3  and  O_6 
REMARK    3  A    between atoms: C_3  and  C_4 
REMARK    4  A    between atoms: C_7  and  O_6 
REMARK    5  A    between atoms: C_9  and  C_10 
REMARK    6  A    between atoms: N_15  and  C_14 
REMARK    7  A    between atoms: N_20  and  C_19 
REMARK       I    between atoms: C_22  and  N_20 
ROOT
ATOM      1  C   LIG d   1      -3.362  75.265 116.268  0.00  0.00     0.161 C 
ATOM      2  C   LIG d   1      -4.750  75.081 116.156  0.00  0.00     0.016 C 
ATOM      3  C   LIG d   1      -5.691  75.733 116.986  0.00  0.00     0.038 C 
ATOM      4  C   LIG d   1      -5.312  76.735 117.891  0.00  0.00     0.028 C 
ATOM      5  C   LIG d   1      -3.878  76.590 118.391  0.00  0.00    -0.047 C 
ATOM      6  C   LIG d   1      -2.936  76.438 117.175  0.00  0.00     0.091 C 
ENDROOT
BRANCH   1   7
ATOM      7  O   LIG d   1      -2.781  75.409 114.957  0.00  0.00    -0.368 OA
BRANCH   7   8
ATOM      8  C   LIG d   1      -2.551  76.767 114.507  0.00  0.00     0.119 C 
BRANCH   8   9
ATOM      9  C   LIG d   1      -3.528  77.042 113.347  0.00  0.00     0.028 C 
ATOM     10  C   LIG d   1      -2.834  77.686 112.135  0.00  0.00     0.006 C 
ENDBRANCH   8   9
BRANCH   8  11
ATOM     11  C   LIG d   1      -1.152  76.925 113.904  0.00  0.00     0.028 C 
ATOM     12  C   LIG d   1      -0.196  75.793 114.311  0.00  0.00     0.006 C 
ENDBRANCH   8  11
ENDBRANCH   7   8
ENDBRANCH   1   7
BRANCH   6  13
ATOM     13  N   LIG d   1      -1.524  76.206 117.577  0.00  0.00    -0.311 N 
ATOM     14  C   LIG d   1      -0.623  77.181 117.684  0.00  0.00     0.210 C 
ATOM     15  C   LIG d   1       0.781  76.721 118.093  0.00  0.00     0.109 C 
ATOM     16  O   LIG d   1      -0.859  78.385 117.510  0.00  0.00    -0.276 OA
ATOM     17  H   LIG d   1      -1.254  75.261 117.768  0.00  0.00     0.149 HD
ENDBRANCH   6  13
BRANCH   5  18
ATOM     18  N   LIG d   1      -3.572  77.773 119.216  0.00  0.00     0.381 N 
ATOM     19  H   LIG d   1      -3.708  77.556 120.183  0.00  0.00    -0.090 HD
ATOM     20  H   LIG d   1      -4.202  78.515 118.967  0.00  0.00    -0.090 HD
ATOM     21  H   LIG d   1      -2.630  78.061 119.063  0.00  0.00    -0.090 HD
ENDBRANCH   5  18
BRANCH   3  22
ATOM     22  C   LIG d   1      -7.024  75.354 116.943  0.00  0.00     0.382 C 
ATOM     23  O   LIG d   1      -7.920  76.181 117.237  0.00  0.00    -0.241 OA
ATOM     24  O   LIG d   1      -7.339  74.184 116.656  0.00  0.00    -0.241 OA
ENDBRANCH   3  22
TORSDOF 7
ENDMDL
