MODEL 1
REMARK VINA RESULT:      -5.0      0.000      0.000
REMARK  7 active torsions:
REMARK  status: ('A' for Active; 'I' for Inactive)
REMARK    1  A    between atoms: C_2  and  C_3 
REMARK    2  A    between atoms: C_3  and  O_6 
REMARK    3  A    between atoms: C_3  and  C_4 
REMARK    4  A    between atoms: C_7  and  O_6 
REMARK    5  A    between atoms: C_9  and  C_10 
REMARK    6  A    between atoms: N_15  and  C_14 
REMARK    7  A    between atoms: N_20  and  C_19 
REMARK       I    between atoms: C_22  and  N_20 
ROOT
ATOM      1  C   LIG d   1      -2.126  82.093 112.768  0.00  0.00     0.161 C 
ATOM      2  C   LIG d   1      -2.697  81.077 113.553  0.00  0.00     0.016 C 
ATOM      3  C   LIG d   1      -2.333  79.715 113.447  0.00  0.00     0.038 C 
ATOM      4  C   LIG d   1      -1.258  79.295 112.649  0.00  0.00     0.028 C 
ATOM      5  C   LIG d   1      -0.988  80.214 111.463  0.00  0.00    -0.047 C 
ATOM      6  C   LIG d   1      -0.874  81.669 111.972  0.00  0.00     0.091 C 
ENDROOT
BRANCH   1   7
ATOM      7  O   LIG d   1      -1.832  83.239 113.592  0.00  0.00    -0.368 OA
BRANCH   7   8
ATOM      8  C   LIG d   1      -0.989  82.996 114.745  0.00  0.00     0.119 C 
BRANCH   8   9
ATOM      9  C   LIG d   1      -1.715  83.570 115.977  0.00  0.00     0.028 C 
ATOM     10  C   LIG d   1      -2.326  82.471 116.863  0.00  0.00     0.006 C 
ENDBRANCH   8   9
BRANCH   8  11
ATOM     11  C   LIG d   1       0.325  83.776 114.649  0.00  0.00     0.028 C 
ATOM     12  C   LIG d   1       0.730  84.429 115.980  0.00  0.00     0.006 C 
ENDBRANCH   8  11
ENDBRANCH   7   8
ENDBRANCH   1   7
BRANCH   6  13
ATOM     13  N   LIG d   1      -0.693  82.645 110.865  0.00  0.00    -0.311 N 
ATOM     14  C   LIG d   1       0.419  83.355 110.689  0.00  0.00     0.210 C 
ATOM     15  C   LIG d   1       0.389  84.318 109.497  0.00  0.00     0.109 C 
ATOM     16  O   LIG d   1       1.440  83.257 111.386  0.00  0.00    -0.276 OA
ATOM     17  H   LIG d   1      -1.461  82.765 110.233  0.00  0.00     0.149 HD
ENDBRANCH   6  13
BRANCH   5  18
ATOM     18  N   LIG d   1       0.240  79.736 110.799  0.00  0.00     0.381 N 
ATOM     19  H   LIG d   1       0.256  78.736 110.798  0.00  0.00    -0.090 HD
ATOM     20  H   LIG d   1       1.037  80.064 111.315  0.00  0.00    -0.090 HD
ATOM     21  H   LIG d   1       0.277  80.078 109.864  0.00  0.00    -0.090 HD
ENDBRANCH   5  18
BRANCH   3  22
ATOM     22  C   LIG d   1      -3.074  78.752 114.114  0.00  0.00     0.382 C 
ATOM     23  O   LIG d   1      -3.508  78.983 115.268  0.00  0.00    -0.241 OA
ATOM     24  O   LIG d   1      -3.277  77.638 113.594  0.00  0.00    -0.241 OA
ENDBRANCH   3  22
TORSDOF 7
ENDMDL
MODEL 2
REMARK VINA RESULT:      -5.0      1.992      5.024
REMARK  7 active torsions:
REMARK  status: ('A' for Active; 'I' for Inactive)
REMARK    1  A    between atoms: C_2  and  C_3 
REMARK    2  A    between atoms: C_3  and  O_6 
REMARK    3  A    between atoms: C_3  and  C_4 
REMARK    4  A    between atoms: C_7  and  O_6 
REMARK    5  A    between atoms: C_9  and  C_10 
REMARK    6  A    between atoms: N_15  and  C_14 
REMARK    7  A    between atoms: N_20  and  C_19 
REMARK       I    between atoms: C_22  and  N_20 
ROOT
ATOM      1  C   LIG d   1      -1.786  80.951 114.299  0.00  0.00     0.161 C 
ATOM      2  C   LIG d   1      -1.635  82.290 113.904  0.00  0.00     0.016 C 
ATOM      3  C   LIG d   1      -1.119  82.677 112.645  0.00  0.00     0.038 C 
ATOM      4  C   LIG d   1      -0.859  81.743 111.632  0.00  0.00     0.028 C 
ATOM      5  C   LIG d   1      -0.519  80.354 112.161  0.00  0.00    -0.047 C 
ATOM      6  C   LIG d   1      -1.611  79.919 113.165  0.00  0.00     0.091 C 
ENDROOT
BRANCH   1   7
ATOM      7  O   LIG d   1      -3.061  80.773 114.946  0.00  0.00    -0.368 OA
BRANCH   7   8
ATOM      8  C   LIG d   1      -3.026  80.587 116.383  0.00  0.00     0.119 C 
BRANCH   8   9
ATOM      9  C   LIG d   1      -4.064  79.504 116.735  0.00  0.00     0.028 C 
ATOM     10  C   LIG d   1      -5.182  80.037 117.648  0.00  0.00     0.006 C 
ENDBRANCH   8   9
BRANCH   8  11
ATOM     11  C   LIG d   1      -3.489  81.848 117.119  0.00  0.00     0.028 C 
ATOM     12  C   LIG d   1      -2.320  82.688 117.656  0.00  0.00     0.006 C 
ENDBRANCH   8  11
ENDBRANCH   7   8
ENDBRANCH   1   7
BRANCH   6  13
ATOM     13  N   LIG d   1      -1.312  78.606 113.794  0.00  0.00    -0.311 N 
ATOM     14  C   LIG d   1      -2.219  77.643 113.947  0.00  0.00     0.210 C 
ATOM     15  C   LIG d   1      -1.707  76.376 114.639  0.00  0.00     0.109 C 
ATOM     16  O   LIG d   1      -3.392  77.705 113.547  0.00  0.00    -0.276 OA
ATOM     17  H   LIG d   1      -0.377  78.458 114.119  0.00  0.00     0.149 HD
ENDBRANCH   6  13
BRANCH   5  18
ATOM     18  N   LIG d   1      -0.407  79.450 111.001  0.00  0.00     0.381 N 
ATOM     19  H   LIG d   1      -0.187  78.525 111.312  0.00  0.00    -0.090 HD
ATOM     20  H   LIG d   1       0.340  79.770 110.411  0.00  0.00    -0.090 HD
ATOM     21  H   LIG d   1      -1.263  79.442 110.491  0.00  0.00    -0.090 HD
ENDBRANCH   5  18
BRANCH   3  22
ATOM     22  C   LIG d   1      -0.821  84.010 112.405  0.00  0.00     0.382 C 
ATOM     23  O   LIG d   1      -1.203  84.556 111.341  0.00  0.00    -0.241 OA
ATOM     24  O   LIG d   1      -0.138  84.661 113.217  0.00  0.00    -0.241 OA
ENDBRANCH   3  22
TORSDOF 7
ENDMDL
MODEL 3
REMARK VINA RESULT:      -4.9      5.396      8.124
REMARK  7 active torsions:
REMARK  status: ('A' for Active; 'I' for Inactive)
REMARK    1  A    between atoms: C_2  and  C_3 
REMARK    2  A    between atoms: C_3  and  O_6 
REMARK    3  A    between atoms: C_3  and  C_4 
REMARK    4  A    between atoms: C_7  and  O_6 
REMARK    5  A    between atoms: C_9  and  C_10 
REMARK    6  A    between atoms: N_15  and  C_14 
REMARK    7  A    between atoms: N_20  and  C_19 
REMARK       I    between atoms: C_22  and  N_20 
ROOT
ATOM      1  C   LIG d   1      -5.345  77.656 116.896  0.00  0.00     0.161 C 
ATOM      2  C   LIG d   1      -6.204  78.441 117.683  0.00  0.00     0.016 C 
ATOM      3  C   LIG d   1      -5.916  79.773 118.058  0.00  0.00     0.038 C 
ATOM      4  C   LIG d   1      -4.810  80.466 117.542  0.00  0.00     0.028 C 
ATOM      5  C   LIG d   1      -3.653  79.553 117.150  0.00  0.00    -0.047 C 
ATOM      6  C   LIG d   1      -4.188  78.431 116.232  0.00  0.00     0.091 C 
ENDROOT
BRANCH   1   7
ATOM      7  O   LIG d   1      -6.108  76.945 115.900  0.00  0.00    -0.368 OA
BRANCH   7   8
ATOM      8  C   LIG d   1      -6.402  75.557 116.194  0.00  0.00     0.119 C 
BRANCH   8   9
ATOM      9  C   LIG d   1      -5.666  74.697 115.148  0.00  0.00     0.028 C 
ATOM     10  C   LIG d   1      -5.712  75.317 113.742  0.00  0.00     0.006 C 
ENDBRANCH   8   9
BRANCH   8  11
ATOM     11  C   LIG d   1      -7.889  75.248 115.999  0.00  0.00     0.028 C 
ATOM     12  C   LIG d   1      -8.637  75.059 117.328  0.00  0.00     0.006 C 
ENDBRANCH   8  11
ENDBRANCH   7   8
ENDBRANCH   1   7
BRANCH   6  13
ATOM     13  N   LIG d   1      -3.136  77.445 115.869  0.00  0.00    -0.311 N 
ATOM     14  C   LIG d   1      -2.760  77.202 114.615  0.00  0.00     0.210 C 
ATOM     15  C   LIG d   1      -1.673  76.134 114.461  0.00  0.00     0.109 C 
ATOM     16  O   LIG d   1      -3.201  77.793 113.617  0.00  0.00    -0.276 OA
ATOM     17  H   LIG d   1      -2.704  76.943 116.620  0.00  0.00     0.149 HD
ENDBRANCH   6  13
BRANCH   5  18
ATOM     18  N   LIG d   1      -2.626  80.390 116.502  0.00  0.00     0.381 N 
ATOM     19  H   LIG d   1      -2.895  81.353 116.547  0.00  0.00    -0.090 HD
ATOM     20  H   LIG d   1      -2.555  80.128 115.534  0.00  0.00    -0.090 HD
ATOM     21  H   LIG d   1      -1.747  80.262 116.953  0.00  0.00    -0.090 HD
ENDBRANCH   5  18
BRANCH   3  22
ATOM     22  C   LIG d   1      -6.717  80.413 118.991  0.00  0.00     0.382 C 
ATOM     23  O   LIG d   1      -7.236  79.757 119.927  0.00  0.00    -0.241 OA
ATOM     24  O   LIG d   1      -6.963  81.629 118.884  0.00  0.00    -0.241 OA
ENDBRANCH   3  22
TORSDOF 7
ENDMDL
MODEL 4
REMARK VINA RESULT:      -4.8      3.201      5.284
REMARK  7 active torsions:
REMARK  status: ('A' for Active; 'I' for Inactive)
REMARK    1  A    between atoms: C_2  and  C_3 
REMARK    2  A    between atoms: C_3  and  O_6 
REMARK    3  A    between atoms: C_3  and  C_4 
REMARK    4  A    between atoms: C_7  and  O_6 
REMARK    5  A    between atoms: C_9  and  C_10 
REMARK    6  A    between atoms: N_15  and  C_14 
REMARK    7  A    between atoms: N_20  and  C_19 
REMARK       I    between atoms: C_22  and  N_20 
ROOT
ATOM      1  C   LIG d   1      -0.865  80.513 115.765  0.00  0.00     0.161 C 
ATOM      2  C   LIG d   1      -1.608  81.211 114.798  0.00  0.00     0.016 C 
ATOM      3  C   LIG d   1      -2.290  80.576 113.734  0.00  0.00     0.038 C 
ATOM      4  C   LIG d   1      -2.401  79.180 113.652  0.00  0.00     0.028 C 
ATOM      5  C   LIG d   1      -1.247  78.441 114.320  0.00  0.00    -0.047 C 
ATOM      6  C   LIG d   1      -1.067  78.983 115.756  0.00  0.00     0.091 C 
ENDROOT
BRANCH   1   7
ATOM      7  O   LIG d   1      -1.144  81.048 117.074  0.00  0.00    -0.368 OA
BRANCH   7   8
ATOM      8  C   LIG d   1      -1.900  82.284 117.110  0.00  0.00     0.119 C 
BRANCH   8   9
ATOM      9  C   LIG d   1      -0.991  83.364 117.727  0.00  0.00     0.028 C 
ATOM     10  C   LIG d   1      -0.907  83.255 119.259  0.00  0.00     0.006 C 
ENDBRANCH   8   9
BRANCH   8  11
ATOM     11  C   LIG d   1      -3.101  82.175 118.055  0.00  0.00     0.028 C 
ATOM     12  C   LIG d   1      -4.446  82.184 117.312  0.00  0.00     0.006 C 
ENDBRANCH   8  11
ENDBRANCH   7   8
ENDBRANCH   1   7
BRANCH   6  13
ATOM     13  N   LIG d   1       0.095  78.372 116.452  0.00  0.00    -0.311 N 
ATOM     14  C   LIG d   1      -0.006  77.325 117.267  0.00  0.00     0.210 C 
ATOM     15  C   LIG d   1       1.313  76.865 117.897  0.00  0.00     0.109 C 
ATOM     16  O   LIG d   1      -1.058  76.712 117.504  0.00  0.00    -0.276 OA
ATOM     17  H   LIG d   1       0.992  78.787 116.291  0.00  0.00     0.149 HD
ENDBRANCH   6  13
BRANCH   5  18
ATOM     18  N   LIG d   1      -1.560  76.999 114.282  0.00  0.00     0.381 N 
ATOM     19  H   LIG d   1      -2.551  76.868 114.270  0.00  0.00    -0.090 HD
ATOM     20  H   LIG d   1      -1.194  76.565 115.111  0.00  0.00    -0.090 HD
ATOM     21  H   LIG d   1      -1.153  76.584 113.473  0.00  0.00    -0.090 HD
ENDBRANCH   5  18
BRANCH   3  22
ATOM     22  C   LIG d   1      -2.837  81.341 112.715  0.00  0.00     0.382 C 
ATOM     23  O   LIG d   1      -4.081  81.483 112.635  0.00  0.00    -0.241 OA
ATOM     24  O   LIG d   1      -2.104  81.855 111.848  0.00  0.00    -0.241 OA
ENDBRANCH   3  22
TORSDOF 7
ENDMDL
MODEL 5
REMARK VINA RESULT:      -4.6      4.837      8.097
REMARK  7 active torsions:
REMARK  status: ('A' for Active; 'I' for Inactive)
REMARK    1  A    between atoms: C_2  and  C_3 
REMARK    2  A    between atoms: C_3  and  O_6 
REMARK    3  A    between atoms: C_3  and  C_4 
REMARK    4  A    between atoms: C_7  and  O_6 
REMARK    5  A    between atoms: C_9  and  C_10 
REMARK    6  A    between atoms: N_15  and  C_14 
REMARK    7  A    between atoms: N_20  and  C_19 
REMARK       I    between atoms: C_22  and  N_20 
ROOT
ATOM      1  C   LIG d   1      -3.385  76.515 116.672  0.00  0.00     0.161 C 
ATOM      2  C   LIG d   1      -3.603  77.592 115.797  0.00  0.00     0.016 C 
ATOM      3  C   LIG d   1      -2.851  77.801 114.618  0.00  0.00     0.038 C 
ATOM      4  C   LIG d   1      -1.925  76.856 114.152  0.00  0.00     0.028 C 
ATOM      5  C   LIG d   1      -1.315  76.007 115.263  0.00  0.00    -0.047 C 
ATOM      6  C   LIG d   1      -2.454  75.414 116.123  0.00  0.00     0.091 C 
ENDROOT
BRANCH   1   7
ATOM      7  O   LIG d   1      -4.648  75.949 117.074  0.00  0.00    -0.368 OA
BRANCH   7   8
ATOM      8  C   LIG d   1      -5.746  76.116 116.144  0.00  0.00     0.119 C 
BRANCH   8   9
ATOM      9  C   LIG d   1      -7.029  76.321 116.973  0.00  0.00     0.028 C 
ATOM     10  C   LIG d   1      -8.179  75.412 116.509  0.00  0.00     0.006 C 
ENDBRANCH   8   9
BRANCH   8  11
ATOM     11  C   LIG d   1      -5.987  74.840 115.332  0.00  0.00     0.028 C 
ATOM     12  C   LIG d   1      -5.397  74.914 113.915  0.00  0.00     0.006 C 
ENDBRANCH   8  11
ENDBRANCH   7   8
ENDBRANCH   1   7
BRANCH   6  13
ATOM     13  N   LIG d   1      -1.943  74.638 117.283  0.00  0.00    -0.311 N 
ATOM     14  C   LIG d   1      -1.159  75.159 118.226  0.00  0.00     0.210 C 
ATOM     15  C   LIG d   1      -0.729  74.180 119.323  0.00  0.00     0.109 C 
ATOM     16  O   LIG d   1      -0.807  76.347 118.275  0.00  0.00    -0.276 OA
ATOM     17  H   LIG d   1      -2.206  73.674 117.339  0.00  0.00     0.149 HD
ENDBRANCH   6  13
BRANCH   5  18
ATOM     18  N   LIG d   1      -0.475  74.975 114.625  0.00  0.00     0.381 N 
ATOM     19  H   LIG d   1      -1.006  74.487 113.932  0.00  0.00    -0.090 HD
ATOM     20  H   LIG d   1      -0.186  74.314 115.324  0.00  0.00    -0.090 HD
ATOM     21  H   LIG d   1       0.324  75.398 114.206  0.00  0.00    -0.090 HD
ENDBRANCH   5  18
BRANCH   3  22
ATOM     22  C   LIG d   1      -2.995  78.985 113.912  0.00  0.00     0.382 C 
ATOM     23  O   LIG d   1      -3.356  80.030 114.506  0.00  0.00    -0.241 OA
ATOM     24  O   LIG d   1      -2.812  79.013 112.680  0.00  0.00    -0.241 OA
ENDBRANCH   3  22
TORSDOF 7
ENDMDL
MODEL 6
REMARK VINA RESULT:      -4.6      6.021      8.263
REMARK  7 active torsions:
REMARK  status: ('A' for Active; 'I' for Inactive)
REMARK    1  A    between atoms: C_2  and  C_3 
REMARK    2  A    between atoms: C_3  and  O_6 
REMARK    3  A    between atoms: C_3  and  C_4 
REMARK    4  A    between atoms: C_7  and  O_6 
REMARK    5  A    between atoms: C_9  and  C_10 
REMARK    6  A    between atoms: N_15  and  C_14 
REMARK    7  A    between atoms: N_20  and  C_19 
REMARK       I    between atoms: C_22  and  N_20 
ROOT
ATOM      1  C   LIG d   1      -4.921  76.670 117.368  0.00  0.00     0.161 C 
ATOM      2  C   LIG d   1      -5.836  77.692 117.670  0.00  0.00     0.016 C 
ATOM      3  C   LIG d   1      -5.548  79.067 117.510  0.00  0.00     0.038 C 
ATOM      4  C   LIG d   1      -4.370  79.510 116.889  0.00  0.00     0.028 C 
ATOM      5  C   LIG d   1      -3.207  78.535 117.031  0.00  0.00    -0.047 C 
ATOM      6  C   LIG d   1      -3.673  77.130 116.585  0.00  0.00     0.091 C 
ENDROOT
BRANCH   1   7
ATOM      7  O   LIG d   1      -5.591  75.607 116.662  0.00  0.00    -0.368 OA
BRANCH   7   8
ATOM      8  C   LIG d   1      -6.544  76.016 115.649  0.00  0.00     0.119 C 
BRANCH   8   9
ATOM      9  C   LIG d   1      -7.878  75.311 115.958  0.00  0.00     0.028 C 
ATOM     10  C   LIG d   1      -7.721  74.183 116.992  0.00  0.00     0.006 C 
ENDBRANCH   8   9
BRANCH   8  11
ATOM     11  C   LIG d   1      -6.132  75.515 114.262  0.00  0.00     0.028 C 
ATOM     12  C   LIG d   1      -5.055  74.420 114.319  0.00  0.00     0.006 C 
ENDBRANCH   8  11
ENDBRANCH   7   8
ENDBRANCH   1   7
BRANCH   6  13
ATOM     13  N   LIG d   1      -2.620  76.098 116.772  0.00  0.00    -0.311 N 
ATOM     14  C   LIG d   1      -1.769  75.737 115.812  0.00  0.00     0.210 C 
ATOM     15  C   LIG d   1      -0.775  74.640 116.208  0.00  0.00     0.109 C 
ATOM     16  O   LIG d   1      -1.723  76.243 114.681  0.00  0.00    -0.276 OA
ATOM     17  H   LIG d   1      -2.566  75.658 117.669  0.00  0.00     0.149 HD
ENDBRANCH   6  13
BRANCH   5  18
ATOM     18  N   LIG d   1      -2.088  79.056 116.223  0.00  0.00     0.381 N 
ATOM     19  H   LIG d   1      -1.971  80.034 116.398  0.00  0.00    -0.090 HD
ATOM     20  H   LIG d   1      -2.305  78.933 115.250  0.00  0.00    -0.090 HD
ATOM     21  H   LIG d   1      -1.249  78.568 116.448  0.00  0.00    -0.090 HD
ENDBRANCH   5  18
BRANCH   3  22
ATOM     22  C   LIG d   1      -6.427  80.016 118.010  0.00  0.00     0.382 C 
ATOM     23  O   LIG d   1      -7.625  80.017 117.639  0.00  0.00    -0.241 OA
ATOM     24  O   LIG d   1      -6.026  80.898 118.792  0.00  0.00    -0.241 OA
ENDBRANCH   3  22
TORSDOF 7
ENDMDL
MODEL 7
REMARK VINA RESULT:      -4.5      3.311      6.708
REMARK  7 active torsions:
REMARK  status: ('A' for Active; 'I' for Inactive)
REMARK    1  A    between atoms: C_2  and  C_3 
REMARK    2  A    between atoms: C_3  and  O_6 
REMARK    3  A    between atoms: C_3  and  C_4 
REMARK    4  A    between atoms: C_7  and  O_6 
REMARK    5  A    between atoms: C_9  and  C_10 
REMARK    6  A    between atoms: N_15  and  C_14 
REMARK    7  A    between atoms: N_20  and  C_19 
REMARK       I    between atoms: C_22  and  N_20 
ROOT
ATOM      1  C   LIG d   1      -2.323  78.373 114.900  0.00  0.00     0.161 C 
ATOM      2  C   LIG d   1      -2.813  79.280 113.946  0.00  0.00     0.016 C 
ATOM      3  C   LIG d   1      -2.045  80.342 113.415  0.00  0.00     0.038 C 
ATOM      4  C   LIG d   1      -0.677  80.478 113.693  0.00  0.00     0.028 C 
ATOM      5  C   LIG d   1      -0.270  79.888 115.039  0.00  0.00    -0.047 C 
ATOM      6  C   LIG d   1      -0.799  78.439 115.131  0.00  0.00     0.091 C 
ENDROOT
BRANCH   1   7
ATOM      7  O   LIG d   1      -2.719  77.033 114.548  0.00  0.00    -0.368 OA
BRANCH   7   8
ATOM      8  C   LIG d   1      -4.018  76.606 115.028  0.00  0.00     0.119 C 
BRANCH   8   9
ATOM      9  C   LIG d   1      -3.809  75.947 116.405  0.00  0.00     0.028 C 
ATOM     10  C   LIG d   1      -2.684  74.898 116.389  0.00  0.00     0.006 C 
ENDBRANCH   8   9
BRANCH   8  11
ATOM     11  C   LIG d   1      -4.607  75.507 114.138  0.00  0.00     0.028 C 
ATOM     12  C   LIG d   1      -6.024  75.092 114.563  0.00  0.00     0.006 C 
ENDBRANCH   8  11
ENDBRANCH   7   8
ENDBRANCH   1   7
BRANCH   6  13
ATOM     13  N   LIG d   1      -0.517  77.816 116.451  0.00  0.00    -0.311 N 
ATOM     14  C   LIG d   1      -1.073  78.227 117.589  0.00  0.00     0.210 C 
ATOM     15  C   LIG d   1      -0.631  77.459 118.839  0.00  0.00     0.109 C 
ATOM     16  O   LIG d   1      -1.916  79.133 117.678  0.00  0.00    -0.276 OA
ATOM     17  H   LIG d   1       0.131  77.053 116.466  0.00  0.00     0.149 HD
ENDBRANCH   6  13
BRANCH   5  18
ATOM     18  N   LIG d   1       1.199  79.975 115.138  0.00  0.00     0.381 N 
ATOM     19  H   LIG d   1       1.560  80.504 114.370  0.00  0.00    -0.090 HD
ATOM     20  H   LIG d   1       1.584  79.048 115.090  0.00  0.00    -0.090 HD
ATOM     21  H   LIG d   1       1.458  80.406 115.998  0.00  0.00    -0.090 HD
ENDBRANCH   5  18
BRANCH   3  22
ATOM     22  C   LIG d   1      -2.656  81.306 112.628  0.00  0.00     0.382 C 
ATOM     23  O   LIG d   1      -1.988  81.930 111.768  0.00  0.00    -0.241 OA
ATOM     24  O   LIG d   1      -3.857  81.591 112.796  0.00  0.00    -0.241 OA
ENDBRANCH   3  22
TORSDOF 7
ENDMDL
MODEL 8
REMARK VINA RESULT:      -4.5      2.604      5.808
REMARK  7 active torsions:
REMARK  status: ('A' for Active; 'I' for Inactive)
REMARK    1  A    between atoms: C_2  and  C_3 
REMARK    2  A    between atoms: C_3  and  O_6 
REMARK    3  A    between atoms: C_3  and  C_4 
REMARK    4  A    between atoms: C_7  and  O_6 
REMARK    5  A    between atoms: C_9  and  C_10 
REMARK    6  A    between atoms: N_15  and  C_14 
REMARK    7  A    between atoms: N_20  and  C_19 
REMARK       I    between atoms: C_22  and  N_20 
ROOT
ATOM      1  C   LIG d   1      -2.769  80.157 115.581  0.00  0.00     0.161 C 
ATOM      2  C   LIG d   1      -2.606  81.552 115.546  0.00  0.00     0.016 C 
ATOM      3  C   LIG d   1      -1.879  82.226 114.537  0.00  0.00     0.038 C 
ATOM      4  C   LIG d   1      -1.391  81.558 113.404  0.00  0.00     0.028 C 
ATOM      5  C   LIG d   1      -1.097  80.083 113.650  0.00  0.00    -0.047 C 
ATOM      6  C   LIG d   1      -2.338  79.424 114.294  0.00  0.00     0.091 C 
ENDROOT
BRANCH   1   7
ATOM      7  O   LIG d   1      -4.135  79.834 115.909  0.00  0.00    -0.368 OA
BRANCH   7   8
ATOM      8  C   LIG d   1      -4.398  79.515 117.298  0.00  0.00     0.119 C 
BRANCH   8   9
ATOM      9  C   LIG d   1      -4.666  78.000 117.382  0.00  0.00     0.028 C 
ATOM     10  C   LIG d   1      -3.489  77.230 118.006  0.00  0.00     0.006 C 
ENDBRANCH   8   9
BRANCH   8  11
ATOM     11  C   LIG d   1      -5.686  80.182 117.788  0.00  0.00     0.028 C 
ATOM     12  C   LIG d   1      -5.601  81.717 117.785  0.00  0.00     0.006 C 
ENDBRANCH   8  11
ENDBRANCH   7   8
ENDBRANCH   1   7
BRANCH   6  13
ATOM     13  N   LIG d   1      -2.106  77.998 114.645  0.00  0.00    -0.311 N 
ATOM     14  C   LIG d   1      -2.909  77.008 114.261  0.00  0.00     0.210 C 
ATOM     15  C   LIG d   1      -2.498  75.615 114.748  0.00  0.00     0.109 C 
ATOM     16  O   LIG d   1      -3.906  77.147 113.536  0.00  0.00    -0.276 OA
ATOM     17  H   LIG d   1      -1.302  77.792 115.205  0.00  0.00     0.149 HD
ENDBRANCH   6  13
BRANCH   5  18
ATOM     18  N   LIG d   1      -0.728  79.480 112.356  0.00  0.00     0.381 N 
ATOM     19  H   LIG d   1      -0.800  78.483 112.413  0.00  0.00    -0.090 HD
ATOM     20  H   LIG d   1       0.227  79.715 112.147  0.00  0.00    -0.090 HD
ATOM     21  H   LIG d   1      -1.326  79.822 111.637  0.00  0.00    -0.090 HD
ENDBRANCH   5  18
BRANCH   3  22
ATOM     22  C   LIG d   1      -1.600  83.577 114.677  0.00  0.00     0.382 C 
ATOM     23  O   LIG d   1      -2.537  84.411 114.700  0.00  0.00    -0.241 OA
ATOM     24  O   LIG d   1      -0.422  83.976 114.735  0.00  0.00    -0.241 OA
ENDBRANCH   3  22
TORSDOF 7
ENDMDL
MODEL 9
REMARK VINA RESULT:      -4.4      3.724      6.789
REMARK  7 active torsions:
REMARK  status: ('A' for Active; 'I' for Inactive)
REMARK    1  A    between atoms: C_2  and  C_3 
REMARK    2  A    between atoms: C_3  and  O_6 
REMARK    3  A    between atoms: C_3  and  C_4 
REMARK    4  A    between atoms: C_7  and  O_6 
REMARK    5  A    between atoms: C_9  and  C_10 
REMARK    6  A    between atoms: N_15  and  C_14 
REMARK    7  A    between atoms: N_20  and  C_19 
REMARK       I    between atoms: C_22  and  N_20 
ROOT
ATOM      1  C   LIG d   1      -2.246  78.145 114.648  0.00  0.00     0.161 C 
ATOM      2  C   LIG d   1      -2.555  79.021 113.595  0.00  0.00     0.016 C 
ATOM      3  C   LIG d   1      -2.369  80.421 113.666  0.00  0.00     0.038 C 
ATOM      4  C   LIG d   1      -1.715  81.027 114.750  0.00  0.00     0.028 C 
ATOM      5  C   LIG d   1      -1.844  80.243 116.051  0.00  0.00    -0.047 C 
ATOM      6  C   LIG d   1      -1.429  78.776 115.796  0.00  0.00     0.091 C 
ENDROOT
BRANCH   1   7
ATOM      7  O   LIG d   1      -1.570  76.980 114.134  0.00  0.00    -0.368 OA
BRANCH   7   8
ATOM      8  C   LIG d   1      -2.252  75.715 114.315  0.00  0.00     0.119 C 
BRANCH   8   9
ATOM      9  C   LIG d   1      -3.746  76.023 114.537  0.00  0.00     0.028 C 
ATOM     10  C   LIG d   1      -4.318  75.296 115.766  0.00  0.00     0.006 C 
ENDBRANCH   8   9
BRANCH   8  11
ATOM     11  C   LIG d   1      -1.789  75.010 115.593  0.00  0.00     0.028 C 
ATOM     12  C   LIG d   1      -0.286  74.687 115.584  0.00  0.00     0.006 C 
ENDBRANCH   8  11
ENDBRANCH   7   8
ENDBRANCH   1   7
BRANCH   6  13
ATOM     13  N   LIG d   1      -1.606  77.919 116.997  0.00  0.00    -0.311 N 
ATOM     14  C   LIG d   1      -0.631  77.671 117.870  0.00  0.00     0.210 C 
ATOM     15  C   LIG d   1      -1.020  76.746 119.028  0.00  0.00     0.109 C 
ATOM     16  O   LIG d   1       0.510  78.155 117.813  0.00  0.00    -0.276 OA
ATOM     17  H   LIG d   1      -2.509  77.511 117.138  0.00  0.00     0.149 HD
ENDBRANCH   6  13
BRANCH   5  18
ATOM     18  N   LIG d   1      -1.004  80.914 117.061  0.00  0.00     0.381 N 
ATOM     19  H   LIG d   1      -0.419  80.241 117.516  0.00  0.00    -0.090 HD
ATOM     20  H   LIG d   1      -1.600  81.333 117.753  0.00  0.00    -0.090 HD
ATOM     21  H   LIG d   1      -0.443  81.613 116.627  0.00  0.00    -0.090 HD
ENDBRANCH   5  18
BRANCH   3  22
ATOM     22  C   LIG d   1      -2.875  81.234 112.664  0.00  0.00     0.382 C 
ATOM     23  O   LIG d   1      -2.109  81.693 111.782  0.00  0.00    -0.241 OA
ATOM     24  O   LIG d   1      -4.080  81.550 112.655  0.00  0.00    -0.241 OA
ENDBRANCH   3  22
TORSDOF 7
ENDMDL
