MODEL 1
REMARK VINA RESULT:      -5.0      0.000      0.000
REMARK  7 active torsions:
REMARK  status: ('A' for Active; 'I' for Inactive)
REMARK    1  A    between atoms: C_2  and  C_3 
REMARK    2  A    between atoms: C_3  and  O_6 
REMARK    3  A    between atoms: C_3  and  C_4 
REMARK    4  A    between atoms: C_7  and  O_6 
REMARK    5  A    between atoms: C_9  and  C_10 
REMARK    6  A    between atoms: N_15  and  C_14 
REMARK    7  A    between atoms: N_20  and  C_19 
REMARK       I    between atoms: C_22  and  N_20 
ROOT
ATOM      1  C   LIG d   1      -2.731  79.937 114.915  0.00  0.00     0.161 C 
ATOM      2  C   LIG d   1      -2.394  81.136 114.265  0.00  0.00     0.016 C 
ATOM      3  C   LIG d   1      -1.806  81.186 112.980  0.00  0.00     0.038 C 
ATOM      4  C   LIG d   1      -1.653  80.038 112.189  0.00  0.00     0.028 C 
ATOM      5  C   LIG d   1      -1.513  78.756 113.003  0.00  0.00    -0.047 C 
ATOM      6  C   LIG d   1      -2.674  78.679 114.022  0.00  0.00     0.091 C 
ENDROOT
BRANCH   1   7
ATOM      7  O   LIG d   1      -4.031  80.059 115.524  0.00  0.00    -0.368 OA
BRANCH   7   8
ATOM      8  C   LIG d   1      -4.054  80.109 116.972  0.00  0.00     0.119 C 
BRANCH   8   9
ATOM      9  C   LIG d   1      -5.368  79.452 117.437  0.00  0.00     0.028 C 
ATOM     10  C   LIG d   1      -5.680  78.157 116.668  0.00  0.00     0.006 C 
ENDBRANCH   8   9
BRANCH   8  11
ATOM     11  C   LIG d   1      -4.122  81.553 117.479  0.00  0.00     0.028 C 
ATOM     12  C   LIG d   1      -2.797  82.030 118.096  0.00  0.00     0.006 C 
ENDBRANCH   8  11
ENDBRANCH   7   8
ENDBRANCH   1   7
BRANCH   6  13
ATOM     13  N   LIG d   1      -2.565  77.497 114.916  0.00  0.00    -0.311 N 
ATOM     14  C   LIG d   1      -3.087  76.307 114.624  0.00  0.00     0.210 C 
ATOM     15  C   LIG d   1      -2.878  75.230 115.693  0.00  0.00     0.109 C 
ATOM     16  O   LIG d   1      -3.674  76.032 113.566  0.00  0.00    -0.276 OA
ATOM     17  H   LIG d   1      -2.078  77.623 115.781  0.00  0.00     0.149 HD
ENDBRANCH   6  13
BRANCH   5  18
ATOM     18  N   LIG d   1      -1.500  77.626 112.055  0.00  0.00     0.381 N 
ATOM     19  H   LIG d   1      -1.679  77.958 111.129  0.00  0.00    -0.090 HD
ATOM     20  H   LIG d   1      -2.231  76.983 112.306  0.00  0.00    -0.090 HD
ATOM     21  H   LIG d   1      -0.617  77.165 112.086  0.00  0.00    -0.090 HD
ENDBRANCH   5  18
BRANCH   3  22
ATOM     22  C   LIG d   1      -1.328  82.392 112.490  0.00  0.00     0.382 C 
ATOM     23  O   LIG d   1      -1.124  83.350 113.274  0.00  0.00    -0.241 OA
ATOM     24  O   LIG d   1      -1.141  82.548 111.269  0.00  0.00    -0.241 OA
ENDBRANCH   3  22
TORSDOF 7
ENDMDL
MODEL 2
REMARK VINA RESULT:      -5.0      3.448      4.859
REMARK  7 active torsions:
REMARK  status: ('A' for Active; 'I' for Inactive)
REMARK    1  A    between atoms: C_2  and  C_3 
REMARK    2  A    between atoms: C_3  and  O_6 
REMARK    3  A    between atoms: C_3  and  C_4 
REMARK    4  A    between atoms: C_7  and  O_6 
REMARK    5  A    between atoms: C_9  and  C_10 
REMARK    6  A    between atoms: N_15  and  C_14 
REMARK    7  A    between atoms: N_20  and  C_19 
REMARK       I    between atoms: C_22  and  N_20 
ROOT
ATOM      1  C   LIG d   1      -3.313  76.930 116.283  0.00  0.00     0.161 C 
ATOM      2  C   LIG d   1      -3.634  77.342 114.980  0.00  0.00     0.016 C 
ATOM      3  C   LIG d   1      -2.733  77.261 113.893  0.00  0.00     0.038 C 
ATOM      4  C   LIG d   1      -1.492  76.617 114.006  0.00  0.00     0.028 C 
ATOM      5  C   LIG d   1      -0.925  76.639 115.422  0.00  0.00    -0.047 C 
ATOM      6  C   LIG d   1      -2.003  76.123 116.402  0.00  0.00     0.091 C 
ENDROOT
BRANCH   1   7
ATOM      7  O   LIG d   1      -4.412  76.186 116.846  0.00  0.00    -0.368 OA
BRANCH   7   8
ATOM      8  C   LIG d   1      -5.522  75.918 115.955  0.00  0.00     0.119 C 
BRANCH   8   9
ATOM      9  C   LIG d   1      -6.821  76.183 116.741  0.00  0.00     0.028 C 
ATOM     10  C   LIG d   1      -7.830  75.030 116.612  0.00  0.00     0.006 C 
ENDBRANCH   8   9
BRANCH   8  11
ATOM     11  C   LIG d   1      -5.579  74.437 115.565  0.00  0.00     0.028 C 
ATOM     12  C   LIG d   1      -5.093  74.180 114.130  0.00  0.00     0.006 C 
ENDBRANCH   8  11
ENDBRANCH   7   8
ENDBRANCH   1   7
BRANCH   6  13
ATOM     13  N   LIG d   1      -1.559  76.191 117.819  0.00  0.00    -0.311 N 
ATOM     14  C   LIG d   1      -0.872  75.222 118.420  0.00  0.00     0.210 C 
ATOM     15  C   LIG d   1      -0.532  75.485 119.890  0.00  0.00     0.109 C 
ATOM     16  O   LIG d   1      -0.483  74.183 117.865  0.00  0.00    -0.276 OA
ATOM     17  H   LIG d   1      -1.805  77.014 118.335  0.00  0.00     0.149 HD
ENDBRANCH   6  13
BRANCH   5  18
ATOM     18  N   LIG d   1       0.300  75.817 115.424  0.00  0.00     0.381 N 
ATOM     19  H   LIG d   1       0.991  76.237 114.835  0.00  0.00    -0.090 HD
ATOM     20  H   LIG d   1       0.082  74.908 115.056  0.00  0.00    -0.090 HD
ATOM     21  H   LIG d   1       0.652  75.733 116.352  0.00  0.00    -0.090 HD
ENDBRANCH   5  18
BRANCH   3  22
ATOM     22  C   LIG d   1      -3.055  77.863 112.686  0.00  0.00     0.382 C 
ATOM     23  O   LIG d   1      -2.955  79.107 112.560  0.00  0.00    -0.241 OA
ATOM     24  O   LIG d   1      -3.488  77.183 111.737  0.00  0.00    -0.241 OA
ENDBRANCH   3  22
TORSDOF 7
ENDMDL
MODEL 3
REMARK VINA RESULT:      -4.9      2.458      3.470
REMARK  7 active torsions:
REMARK  status: ('A' for Active; 'I' for Inactive)
REMARK    1  A    between atoms: C_2  and  C_3 
REMARK    2  A    between atoms: C_3  and  O_6 
REMARK    3  A    between atoms: C_3  and  C_4 
REMARK    4  A    between atoms: C_7  and  O_6 
REMARK    5  A    between atoms: C_9  and  C_10 
REMARK    6  A    between atoms: N_15  and  C_14 
REMARK    7  A    between atoms: N_20  and  C_19 
REMARK       I    between atoms: C_22  and  N_20 
ROOT
ATOM      1  C   LIG d   1      -2.416  78.207 114.618  0.00  0.00     0.161 C 
ATOM      2  C   LIG d   1      -2.736  79.177 113.653  0.00  0.00     0.016 C 
ATOM      3  C   LIG d   1      -1.906  80.282 113.356  0.00  0.00     0.038 C 
ATOM      4  C   LIG d   1      -0.620  80.411 113.901  0.00  0.00     0.028 C 
ATOM      5  C   LIG d   1      -0.465  79.728 115.256  0.00  0.00    -0.047 C 
ATOM      6  C   LIG d   1      -0.967  78.270 115.143  0.00  0.00     0.091 C 
ENDROOT
BRANCH   1   7
ATOM      7  O   LIG d   1      -2.706  76.892 114.103  0.00  0.00    -0.368 OA
BRANCH   7   8
ATOM      8  C   LIG d   1      -3.675  76.115 114.849  0.00  0.00     0.119 C 
BRANCH   8   9
ATOM      9  C   LIG d   1      -4.665  75.513 113.833  0.00  0.00     0.028 C 
ATOM     10  C   LIG d   1      -6.081  76.096 113.977  0.00  0.00     0.006 C 
ENDBRANCH   8   9
BRANCH   8  11
ATOM     11  C   LIG d   1      -4.522  77.007 115.761  0.00  0.00     0.028 C 
ATOM     12  C   LIG d   1      -4.338  76.681 117.251  0.00  0.00     0.006 C 
ENDBRANCH   8  11
ENDBRANCH   7   8
ENDBRANCH   1   7
BRANCH   6  13
ATOM     13  N   LIG d   1      -0.928  77.555 116.445  0.00  0.00    -0.311 N 
ATOM     14  C   LIG d   1      -0.399  76.343 116.600  0.00  0.00     0.210 C 
ATOM     15  C   LIG d   1      -0.481  75.779 118.022  0.00  0.00     0.109 C 
ATOM     16  O   LIG d   1       0.160  75.695 115.702  0.00  0.00    -0.276 OA
ATOM     17  H   LIG d   1      -1.332  78.021 117.234  0.00  0.00     0.149 HD
ENDBRANCH   6  13
BRANCH   5  18
ATOM     18  N   LIG d   1       0.956  79.822 115.642  0.00  0.00     0.381 N 
ATOM     19  H   LIG d   1       1.525  79.897 114.823  0.00  0.00    -0.090 HD
ATOM     20  H   LIG d   1       1.216  78.983 116.131  0.00  0.00    -0.090 HD
ATOM     21  H   LIG d   1       1.098  80.615 116.228  0.00  0.00    -0.090 HD
ENDBRANCH   5  18
BRANCH   3  22
ATOM     22  C   LIG d   1      -2.378  81.295 112.535  0.00  0.00     0.382 C 
ATOM     23  O   LIG d   1      -1.596  81.877 111.745  0.00  0.00    -0.241 OA
ATOM     24  O   LIG d   1      -3.565  81.665 112.607  0.00  0.00    -0.241 OA
ENDBRANCH   3  22
TORSDOF 7
ENDMDL
MODEL 4
REMARK VINA RESULT:      -4.8      3.371      5.135
REMARK  7 active torsions:
REMARK  status: ('A' for Active; 'I' for Inactive)
REMARK    1  A    between atoms: C_2  and  C_3 
REMARK    2  A    between atoms: C_3  and  O_6 
REMARK    3  A    between atoms: C_3  and  C_4 
REMARK    4  A    between atoms: C_7  and  O_6 
REMARK    5  A    between atoms: C_9  and  C_10 
REMARK    6  A    between atoms: N_15  and  C_14 
REMARK    7  A    between atoms: N_20  and  C_19 
REMARK       I    between atoms: C_22  and  N_20 
ROOT
ATOM      1  C   LIG d   1      -4.143  76.887 116.858  0.00  0.00     0.161 C 
ATOM      2  C   LIG d   1      -5.049  77.850 117.331  0.00  0.00     0.016 C 
ATOM      3  C   LIG d   1      -4.926  79.233 117.064  0.00  0.00     0.038 C 
ATOM      4  C   LIG d   1      -3.964  79.733 116.174  0.00  0.00     0.028 C 
ATOM      5  C   LIG d   1      -2.719  78.858 116.073  0.00  0.00    -0.047 C 
ATOM      6  C   LIG d   1      -3.151  77.401 115.794  0.00  0.00     0.091 C 
ENDROOT
BRANCH   1   7
ATOM      7  O   LIG d   1      -4.862  75.741 116.361  0.00  0.00    -0.368 OA
BRANCH   7   8
ATOM      8  C   LIG d   1      -6.083  76.021 115.634  0.00  0.00     0.119 C 
BRANCH   8   9
ATOM      9  C   LIG d   1      -7.194  75.140 116.238  0.00  0.00     0.028 C 
ATOM     10  C   LIG d   1      -8.312  75.969 116.892  0.00  0.00     0.006 C 
ENDBRANCH   8   9
BRANCH   8  11
ATOM     11  C   LIG d   1      -5.972  75.588 114.170  0.00  0.00     0.028 C 
ATOM     12  C   LIG d   1      -4.932  74.477 113.955  0.00  0.00     0.006 C 
ENDBRANCH   8  11
ENDBRANCH   7   8
ENDBRANCH   1   7
BRANCH   6  13
ATOM     13  N   LIG d   1      -1.998  76.464 115.764  0.00  0.00    -0.311 N 
ATOM     14  C   LIG d   1      -1.368  76.111 114.644  0.00  0.00     0.210 C 
ATOM     15  C   LIG d   1      -0.217  75.118 114.835  0.00  0.00     0.109 C 
ATOM     16  O   LIG d   1      -1.632  76.552 113.516  0.00  0.00    -0.276 OA
ATOM     17  H   LIG d   1      -1.697  76.083 116.640  0.00  0.00     0.149 HD
ENDBRANCH   6  13
BRANCH   5  18
ATOM     18  N   LIG d   1      -1.863  79.422 115.012  0.00  0.00     0.381 N 
ATOM     19  H   LIG d   1      -1.765  80.408 115.144  0.00  0.00    -0.090 HD
ATOM     20  H   LIG d   1      -2.302  79.264 114.122  0.00  0.00    -0.090 HD
ATOM     21  H   LIG d   1      -0.967  78.987 115.030  0.00  0.00    -0.090 HD
ENDBRANCH   5  18
BRANCH   3  22
ATOM     22  C   LIG d   1      -5.746  80.136 117.723  0.00  0.00     0.382 C 
ATOM     23  O   LIG d   1      -5.315  80.760 118.723  0.00  0.00    -0.241 OA
ATOM     24  O   LIG d   1      -6.925  80.301 117.358  0.00  0.00    -0.241 OA
ENDBRANCH   3  22
TORSDOF 7
ENDMDL
MODEL 5
REMARK VINA RESULT:      -4.7      1.848      2.950
REMARK  7 active torsions:
REMARK  status: ('A' for Active; 'I' for Inactive)
REMARK    1  A    between atoms: C_2  and  C_3 
REMARK    2  A    between atoms: C_3  and  O_6 
REMARK    3  A    between atoms: C_3  and  C_4 
REMARK    4  A    between atoms: C_7  and  O_6 
REMARK    5  A    between atoms: C_9  and  C_10 
REMARK    6  A    between atoms: N_15  and  C_14 
REMARK    7  A    between atoms: N_20  and  C_19 
REMARK       I    between atoms: C_22  and  N_20 
ROOT
ATOM      1  C   LIG d   1      -0.507  80.951 114.803  0.00  0.00     0.161 C 
ATOM      2  C   LIG d   1      -0.410  82.271 114.330  0.00  0.00     0.016 C 
ATOM      3  C   LIG d   1      -0.676  82.638 112.991  0.00  0.00     0.038 C 
ATOM      4  C   LIG d   1      -1.206  81.729 112.064  0.00  0.00     0.028 C 
ATOM      5  C   LIG d   1      -0.842  80.279 112.361  0.00  0.00    -0.047 C 
ATOM      6  C   LIG d   1      -1.191  79.965 113.834  0.00  0.00     0.091 C 
ENDROOT
BRANCH   1   7
ATOM      7  O   LIG d   1      -1.171  80.939 116.083  0.00  0.00    -0.368 OA
BRANCH   7   8
ATOM      8  C   LIG d   1      -1.951  82.115 116.407  0.00  0.00     0.119 C 
BRANCH   8   9
ATOM      9  C   LIG d   1      -1.518  82.586 117.809  0.00  0.00     0.028 C 
ATOM     10  C   LIG d   1      -0.328  83.560 117.760  0.00  0.00     0.006 C 
ENDBRANCH   8   9
BRANCH   8  11
ATOM     11  C   LIG d   1      -3.440  81.779 116.535  0.00  0.00     0.028 C 
ATOM     12  C   LIG d   1      -3.718  80.269 116.467  0.00  0.00     0.006 C 
ENDBRANCH   8  11
ENDBRANCH   7   8
ENDBRANCH   1   7
BRANCH   6  13
ATOM     13  N   LIG d   1      -0.788  78.591 114.232  0.00  0.00    -0.311 N 
ATOM     14  C   LIG d   1      -1.613  77.546 114.196  0.00  0.00     0.210 C 
ATOM     15  C   LIG d   1      -1.002  76.223 114.668  0.00  0.00     0.109 C 
ATOM     16  O   LIG d   1      -2.784  77.583 113.788  0.00  0.00    -0.276 OA
ATOM     17  H   LIG d   1       0.154  78.465 114.546  0.00  0.00     0.149 HD
ENDBRANCH   6  13
BRANCH   5  18
ATOM     18  N   LIG d   1      -1.571  79.430 111.400  0.00  0.00     0.381 N 
ATOM     19  H   LIG d   1      -1.969  79.998 110.680  0.00  0.00    -0.090 HD
ATOM     20  H   LIG d   1      -2.319  78.962 111.882  0.00  0.00    -0.090 HD
ATOM     21  H   LIG d   1      -0.953  78.758 111.001  0.00  0.00    -0.090 HD
ENDBRANCH   5  18
BRANCH   3  22
ATOM     22  C   LIG d   1      -0.373  83.920 112.557  0.00  0.00     0.382 C 
ATOM     23  O   LIG d   1      -0.809  84.328 111.454  0.00  0.00    -0.241 OA
ATOM     24  O   LIG d   1       0.368  84.658 113.235  0.00  0.00    -0.241 OA
ENDBRANCH   3  22
TORSDOF 7
ENDMDL
MODEL 6
REMARK VINA RESULT:      -4.6      1.763      2.553
REMARK  7 active torsions:
REMARK  status: ('A' for Active; 'I' for Inactive)
REMARK    1  A    between atoms: C_2  and  C_3 
REMARK    2  A    between atoms: C_3  and  O_6 
REMARK    3  A    between atoms: C_3  and  C_4 
REMARK    4  A    between atoms: C_7  and  O_6 
REMARK    5  A    between atoms: C_9  and  C_10 
REMARK    6  A    between atoms: N_15  and  C_14 
REMARK    7  A    between atoms: N_20  and  C_19 
REMARK       I    between atoms: C_22  and  N_20 
ROOT
ATOM      1  C   LIG d   1      -2.625  79.083 116.323  0.00  0.00     0.161 C 
ATOM      2  C   LIG d   1      -2.901  80.238 115.572  0.00  0.00     0.016 C 
ATOM      3  C   LIG d   1      -2.656  80.341 114.183  0.00  0.00     0.038 C 
ATOM      4  C   LIG d   1      -2.257  79.235 113.417  0.00  0.00     0.028 C 
ATOM      5  C   LIG d   1      -1.485  78.191 114.217  0.00  0.00    -0.047 C 
ATOM      6  C   LIG d   1      -2.294  77.831 115.484  0.00  0.00     0.091 C 
ENDROOT
BRANCH   1   7
ATOM      7  O   LIG d   1      -3.720  78.811 117.219  0.00  0.00    -0.368 OA
BRANCH   7   8
ATOM      8  C   LIG d   1      -5.042  78.797 116.625  0.00  0.00     0.119 C 
BRANCH   8   9
ATOM      9  C   LIG d   1      -5.936  79.729 117.465  0.00  0.00     0.028 C 
ATOM     10  C   LIG d   1      -7.289  79.086 117.816  0.00  0.00     0.006 C 
ENDBRANCH   8   9
BRANCH   8  11
ATOM     11  C   LIG d   1      -5.686  77.412 116.732  0.00  0.00     0.028 C 
ATOM     12  C   LIG d   1      -5.819  76.710 115.372  0.00  0.00     0.006 C 
ENDBRANCH   8  11
ENDBRANCH   7   8
ENDBRANCH   1   7
BRANCH   6  13
ATOM     13  N   LIG d   1      -1.571  76.878 116.366  0.00  0.00    -0.311 N 
ATOM     14  C   LIG d   1      -1.802  75.566 116.374  0.00  0.00     0.210 C 
ATOM     15  C   LIG d   1      -0.961  74.767 117.374  0.00  0.00     0.109 C 
ATOM     16  O   LIG d   1      -2.602  74.985 115.625  0.00  0.00    -0.276 OA
ATOM     17  H   LIG d   1      -0.882  77.261 116.984  0.00  0.00     0.149 HD
ENDBRANCH   6  13
BRANCH   5  18
ATOM     18  N   LIG d   1      -1.251  77.035 113.332  0.00  0.00     0.381 N 
ATOM     19  H   LIG d   1      -0.936  77.351 112.437  0.00  0.00    -0.090 HD
ATOM     20  H   LIG d   1      -2.118  76.543 113.205  0.00  0.00    -0.090 HD
ATOM     21  H   LIG d   1      -0.573  76.428 113.736  0.00  0.00    -0.090 HD
ENDBRANCH   5  18
BRANCH   3  22
ATOM     22  C   LIG d   1      -2.772  81.571 113.554  0.00  0.00     0.382 C 
ATOM     23  O   LIG d   1      -3.029  82.598 114.227  0.00  0.00    -0.241 OA
ATOM     24  O   LIG d   1      -2.668  81.659 112.316  0.00  0.00    -0.241 OA
ENDBRANCH   3  22
TORSDOF 7
ENDMDL
MODEL 7
REMARK VINA RESULT:      -4.6      1.987      5.146
REMARK  7 active torsions:
REMARK  status: ('A' for Active; 'I' for Inactive)
REMARK    1  A    between atoms: C_2  and  C_3 
REMARK    2  A    between atoms: C_3  and  O_6 
REMARK    3  A    between atoms: C_3  and  C_4 
REMARK    4  A    between atoms: C_7  and  O_6 
REMARK    5  A    between atoms: C_9  and  C_10 
REMARK    6  A    between atoms: N_15  and  C_14 
REMARK    7  A    between atoms: N_20  and  C_19 
REMARK       I    between atoms: C_22  and  N_20 
ROOT
ATOM      1  C   LIG d   1      -2.290  80.525 114.554  0.00  0.00     0.161 C 
ATOM      2  C   LIG d   1      -2.791  79.243 114.834  0.00  0.00     0.016 C 
ATOM      3  C   LIG d   1      -2.657  78.145 113.954  0.00  0.00     0.038 C 
ATOM      4  C   LIG d   1      -1.874  78.218 112.792  0.00  0.00     0.028 C 
ATOM      5  C   LIG d   1      -1.771  79.628 112.218  0.00  0.00    -0.047 C 
ATOM      6  C   LIG d   1      -1.337  80.596 113.342  0.00  0.00     0.091 C 
ENDROOT
BRANCH   1   7
ATOM      7  O   LIG d   1      -1.650  81.067 115.727  0.00  0.00    -0.368 OA
BRANCH   7   8
ATOM      8  C   LIG d   1      -2.324  82.179 116.364  0.00  0.00     0.119 C 
BRANCH   8   9
ATOM      9  C   LIG d   1      -1.242  83.076 116.995  0.00  0.00     0.028 C 
ATOM     10  C   LIG d   1      -0.443  83.862 115.942  0.00  0.00     0.006 C 
ENDBRANCH   8   9
BRANCH   8  11
ATOM     11  C   LIG d   1      -3.193  81.707 117.534  0.00  0.00     0.028 C 
ATOM     12  C   LIG d   1      -4.694  81.716 117.204  0.00  0.00     0.006 C 
ENDBRANCH   8  11
ENDBRANCH   7   8
ENDBRANCH   1   7
BRANCH   6  13
ATOM     13  N   LIG d   1      -1.293  82.010 112.887  0.00  0.00    -0.311 N 
ATOM     14  C   LIG d   1      -0.193  82.595 112.417  0.00  0.00     0.210 C 
ATOM     15  C   LIG d   1      -0.361  84.065 112.021  0.00  0.00     0.109 C 
ATOM     16  O   LIG d   1       0.898  82.027 112.260  0.00  0.00    -0.276 OA
ATOM     17  H   LIG d   1      -2.143  82.536 112.949  0.00  0.00     0.149 HD
ENDBRANCH   6  13
BRANCH   5  18
ATOM     18  N   LIG d   1      -0.818  79.583 111.093  0.00  0.00     0.381 N 
ATOM     19  H   LIG d   1      -0.542  78.637 110.921  0.00  0.00    -0.090 HD
ATOM     20  H   LIG d   1       0.001  80.110 111.340  0.00  0.00    -0.090 HD
ATOM     21  H   LIG d   1      -1.237  79.968 110.276  0.00  0.00    -0.090 HD
ENDBRANCH   5  18
BRANCH   3  22
ATOM     22  C   LIG d   1      -3.343  76.969 114.212  0.00  0.00     0.382 C 
ATOM     23  O   LIG d   1      -3.683  76.219 113.265  0.00  0.00    -0.241 OA
ATOM     24  O   LIG d   1      -3.666  76.669 115.378  0.00  0.00    -0.241 OA
ENDBRANCH   3  22
TORSDOF 7
ENDMDL
MODEL 8
REMARK VINA RESULT:      -4.6      2.446      5.165
REMARK  7 active torsions:
REMARK  status: ('A' for Active; 'I' for Inactive)
REMARK    1  A    between atoms: C_2  and  C_3 
REMARK    2  A    between atoms: C_3  and  O_6 
REMARK    3  A    between atoms: C_3  and  C_4 
REMARK    4  A    between atoms: C_7  and  O_6 
REMARK    5  A    between atoms: C_9  and  C_10 
REMARK    6  A    between atoms: N_15  and  C_14 
REMARK    7  A    between atoms: N_20  and  C_19 
REMARK       I    between atoms: C_22  and  N_20 
ROOT
ATOM      1  C   LIG d   1      -2.600  78.707 115.150  0.00  0.00     0.161 C 
ATOM      2  C   LIG d   1      -3.421  77.613 114.830  0.00  0.00     0.016 C 
ATOM      3  C   LIG d   1      -3.631  77.157 113.508  0.00  0.00     0.038 C 
ATOM      4  C   LIG d   1      -2.909  77.675 112.423  0.00  0.00     0.028 C 
ATOM      5  C   LIG d   1      -2.448  79.114 112.632  0.00  0.00    -0.047 C 
ATOM      6  C   LIG d   1      -1.717  79.214 113.991  0.00  0.00     0.091 C 
ENDROOT
BRANCH   1   7
ATOM      7  O   LIG d   1      -1.787  78.388 116.297  0.00  0.00    -0.368 OA
BRANCH   7   8
ATOM      8  C   LIG d   1      -1.633  76.979 116.597  0.00  0.00     0.119 C 
BRANCH   8   9
ATOM      9  C   LIG d   1      -1.669  76.826 118.130  0.00  0.00     0.028 C 
ATOM     10  C   LIG d   1      -2.856  77.567 118.766  0.00  0.00     0.006 C 
ENDBRANCH   8   9
BRANCH   8  11
ATOM     11  C   LIG d   1      -0.254  76.466 116.171  0.00  0.00     0.028 C 
ATOM     12  C   LIG d   1      -0.310  75.576 114.919  0.00  0.00     0.006 C 
ENDBRANCH   8  11
ENDBRANCH   7   8
ENDBRANCH   1   7
BRANCH   6  13
ATOM     13  N   LIG d   1      -1.308  80.606 114.313  0.00  0.00    -0.311 N 
ATOM     14  C   LIG d   1      -2.057  81.672 114.040  0.00  0.00     0.210 C 
ATOM     15  C   LIG d   1      -1.438  83.016 114.438  0.00  0.00     0.109 C 
ATOM     16  O   LIG d   1      -3.189  81.631 113.536  0.00  0.00    -0.276 OA
ATOM     17  H   LIG d   1      -0.416  80.729 114.752  0.00  0.00     0.149 HD
ENDBRANCH   6  13
BRANCH   5  18
ATOM     18  N   LIG d   1      -1.593  79.480 111.488  0.00  0.00     0.381 N 
ATOM     19  H   LIG d   1      -0.765  79.936 111.815  0.00  0.00    -0.090 HD
ATOM     20  H   LIG d   1      -2.095  80.120 110.899  0.00  0.00    -0.090 HD
ATOM     21  H   LIG d   1      -1.348  78.664 110.971  0.00  0.00    -0.090 HD
ENDBRANCH   5  18
BRANCH   3  22
ATOM     22  C   LIG d   1      -4.601  76.200 113.257  0.00  0.00     0.382 C 
ATOM     23  O   LIG d   1      -4.421  75.013 113.622  0.00  0.00    -0.241 OA
ATOM     24  O   LIG d   1      -5.636  76.498 112.630  0.00  0.00    -0.241 OA
ENDBRANCH   3  22
TORSDOF 7
ENDMDL
MODEL 9
REMARK VINA RESULT:      -4.6      2.716      3.483
REMARK  7 active torsions:
REMARK  status: ('A' for Active; 'I' for Inactive)
REMARK    1  A    between atoms: C_2  and  C_3 
REMARK    2  A    between atoms: C_3  and  O_6 
REMARK    3  A    between atoms: C_3  and  C_4 
REMARK    4  A    between atoms: C_7  and  O_6 
REMARK    5  A    between atoms: C_9  and  C_10 
REMARK    6  A    between atoms: N_15  and  C_14 
REMARK    7  A    between atoms: N_20  and  C_19 
REMARK       I    between atoms: C_22  and  N_20 
ROOT
ATOM      1  C   LIG d   1      -0.234  80.413 115.578  0.00  0.00     0.161 C 
ATOM      2  C   LIG d   1      -0.931  81.238 114.680  0.00  0.00     0.016 C 
ATOM      3  C   LIG d   1      -1.863  80.749 113.736  0.00  0.00     0.038 C 
ATOM      4  C   LIG d   1      -2.277  79.408 113.729  0.00  0.00     0.028 C 
ATOM      5  C   LIG d   1      -1.228  78.448 114.282  0.00  0.00    -0.047 C 
ATOM      6  C   LIG d   1      -0.754  78.963 115.660  0.00  0.00     0.091 C 
ENDROOT
BRANCH   1   7
ATOM      7  O   LIG d   1      -0.222  81.016 116.887  0.00  0.00    -0.368 OA
BRANCH   7   8
ATOM      8  C   LIG d   1      -1.504  81.113 117.556  0.00  0.00     0.119 C 
BRANCH   8   9
ATOM      9  C   LIG d   1      -1.669  82.569 118.032  0.00  0.00     0.028 C 
ATOM     10  C   LIG d   1      -0.415  83.419 117.766  0.00  0.00     0.006 C 
ENDBRANCH   8   9
BRANCH   8  11
ATOM     11  C   LIG d   1      -1.532  80.264 118.830  0.00  0.00     0.028 C 
ATOM     12  C   LIG d   1      -0.132  80.020 119.415  0.00  0.00     0.006 C 
ENDBRANCH   8  11
ENDBRANCH   7   8
ENDBRANCH   1   7
BRANCH   6  13
ATOM     13  N   LIG d   1       0.333  78.127 116.234  0.00  0.00    -0.311 N 
ATOM     14  C   LIG d   1       0.118  77.134 117.095  0.00  0.00     0.210 C 
ATOM     15  C   LIG d   1       1.380  76.413 117.578  0.00  0.00     0.109 C 
ATOM     16  O   LIG d   1      -1.001  76.762 117.480  0.00  0.00    -0.276 OA
ATOM     17  H   LIG d   1       1.270  78.340 115.951  0.00  0.00     0.149 HD
ENDBRANCH   6  13
BRANCH   5  18
ATOM     18  N   LIG d   1      -1.841  77.108 114.345  0.00  0.00     0.381 N 
ATOM     19  H   LIG d   1      -1.210  76.467 114.783  0.00  0.00    -0.090 HD
ATOM     20  H   LIG d   1      -2.017  76.787 113.409  0.00  0.00    -0.090 HD
ATOM     21  H   LIG d   1      -2.695  77.147 114.857  0.00  0.00    -0.090 HD
ENDBRANCH   5  18
BRANCH   3  22
ATOM     22  C   LIG d   1      -2.363  81.597 112.760  0.00  0.00     0.382 C 
ATOM     23  O   LIG d   1      -3.535  81.447 112.339  0.00  0.00    -0.241 OA
ATOM     24  O   LIG d   1      -1.641  82.482 112.263  0.00  0.00    -0.241 OA
ENDBRANCH   3  22
TORSDOF 7
ENDMDL
