MODEL 1
REMARK VINA RESULT:      -5.4      0.000      0.000
REMARK  7 active torsions:
REMARK  status: ('A' for Active; 'I' for Inactive)
REMARK    1  A    between atoms: C_2  and  C_3 
REMARK    2  A    between atoms: C_3  and  O_6 
REMARK    3  A    between atoms: C_3  and  C_4 
REMARK    4  A    between atoms: C_7  and  O_6 
REMARK    5  A    between atoms: C_9  and  C_10 
REMARK    6  A    between atoms: N_15  and  C_14 
REMARK    7  A    between atoms: N_20  and  C_19 
REMARK       I    between atoms: C_22  and  N_20 
ROOT
ATOM      1  C   LIG d   1      -3.191  76.894 114.068  0.00  0.00     0.161 C 
ATOM      2  C   LIG d   1      -2.944  77.525 112.838  0.00  0.00     0.016 C 
ATOM      3  C   LIG d   1      -1.645  77.786 112.343  0.00  0.00     0.038 C 
ATOM      4  C   LIG d   1      -0.497  77.294 112.981  0.00  0.00     0.028 C 
ATOM      5  C   LIG d   1      -0.677  77.091 114.482  0.00  0.00    -0.047 C 
ATOM      6  C   LIG d   1      -1.951  76.251 114.725  0.00  0.00     0.091 C 
ENDROOT
BRANCH   1   7
ATOM      7  O   LIG d   1      -4.240  75.917 113.915  0.00  0.00    -0.368 OA
BRANCH   7   8
ATOM      8  C   LIG d   1      -5.588  76.387 114.160  0.00  0.00     0.119 C 
BRANCH   8   9
ATOM      9  C   LIG d   1      -6.156  75.571 115.338  0.00  0.00     0.028 C 
ATOM     10  C   LIG d   1      -6.991  76.433 116.300  0.00  0.00     0.006 C 
ENDBRANCH   8   9
BRANCH   8  11
ATOM     11  C   LIG d   1      -6.509  76.081 112.975  0.00  0.00     0.028 C 
ATOM     12  C   LIG d   1      -6.505  77.195 111.915  0.00  0.00     0.006 C 
ENDBRANCH   8  11
ENDBRANCH   7   8
ENDBRANCH   1   7
BRANCH   6  13
ATOM     13  N   LIG d   1      -2.248  76.077 116.171  0.00  0.00    -0.311 N 
ATOM     14  C   LIG d   1      -1.782  75.063 116.898  0.00  0.00     0.210 C 
ATOM     15  C   LIG d   1      -2.224  75.062 118.365  0.00  0.00     0.109 C 
ATOM     16  O   LIG d   1      -1.018  74.182 116.476  0.00  0.00    -0.276 OA
ATOM     17  H   LIG d   1      -2.835  76.764 116.602  0.00  0.00     0.149 HD
ENDBRANCH   6  13
BRANCH   5  18
ATOM     18  N   LIG d   1       0.547  76.447 114.994  0.00  0.00     0.381 N 
ATOM     19  H   LIG d   1       0.532  75.470 114.778  0.00  0.00    -0.090 HD
ATOM     20  H   LIG d   1       0.574  76.548 115.994  0.00  0.00    -0.090 HD
ATOM     21  H   LIG d   1       1.352  76.872 114.589  0.00  0.00    -0.090 HD
ENDBRANCH   5  18
BRANCH   3  22
ATOM     22  C   LIG d   1      -1.485  78.581 111.219  0.00  0.00     0.382 C 
ATOM     23  O   LIG d   1      -0.878  79.676 111.307  0.00  0.00    -0.241 OA
ATOM     24  O   LIG d   1      -1.978  78.239 110.127  0.00  0.00    -0.241 OA
ENDBRANCH   3  22
TORSDOF 7
ENDMDL
MODEL 2
REMARK VINA RESULT:      -5.3      1.573      2.218
REMARK  7 active torsions:
REMARK  status: ('A' for Active; 'I' for Inactive)
REMARK    1  A    between atoms: C_2  and  C_3 
REMARK    2  A    between atoms: C_3  and  O_6 
REMARK    3  A    between atoms: C_3  and  C_4 
REMARK    4  A    between atoms: C_7  and  O_6 
REMARK    5  A    between atoms: C_9  and  C_10 
REMARK    6  A    between atoms: N_15  and  C_14 
REMARK    7  A    between atoms: N_20  and  C_19 
REMARK       I    between atoms: C_22  and  N_20 
ROOT
ATOM      1  C   LIG d   1      -3.017  77.501 114.742  0.00  0.00     0.161 C 
ATOM      2  C   LIG d   1      -3.135  78.585 113.858  0.00  0.00     0.016 C 
ATOM      3  C   LIG d   1      -2.061  79.447 113.535  0.00  0.00     0.038 C 
ATOM      4  C   LIG d   1      -0.749  79.188 113.962  0.00  0.00     0.028 C 
ATOM      5  C   LIG d   1      -0.681  78.396 115.263  0.00  0.00    -0.047 C 
ATOM      6  C   LIG d   1      -1.569  77.137 115.131  0.00  0.00     0.091 C 
ENDROOT
BRANCH   1   7
ATOM      7  O   LIG d   1      -3.693  76.350 114.197  0.00  0.00    -0.368 OA
BRANCH   7   8
ATOM      8  C   LIG d   1      -4.734  75.772 115.023  0.00  0.00     0.119 C 
BRANCH   8   9
ATOM      9  C   LIG d   1      -5.949  75.501 114.115  0.00  0.00     0.028 C 
ATOM     10  C   LIG d   1      -6.035  76.489 112.940  0.00  0.00     0.006 C 
ENDBRANCH   8   9
BRANCH   8  11
ATOM     11  C   LIG d   1      -5.229  76.769 116.075  0.00  0.00     0.028 C 
ATOM     12  C   LIG d   1      -6.731  76.631 116.367  0.00  0.00     0.006 C 
ENDBRANCH   8  11
ENDBRANCH   7   8
ENDBRANCH   1   7
BRANCH   6  13
ATOM     13  N   LIG d   1      -1.625  76.349 116.389  0.00  0.00    -0.311 N 
ATOM     14  C   LIG d   1      -1.371  75.042 116.448  0.00  0.00     0.210 C 
ATOM     15  C   LIG d   1      -1.505  74.420 117.841  0.00  0.00     0.109 C 
ATOM     16  O   LIG d   1      -1.016  74.347 115.485  0.00  0.00    -0.276 OA
ATOM     17  H   LIG d   1      -1.875  76.840 117.225  0.00  0.00     0.149 HD
ENDBRANCH   6  13
BRANCH   5  18
ATOM     18  N   LIG d   1       0.737  78.079 115.518  0.00  0.00     0.381 N 
ATOM     19  H   LIG d   1       0.948  77.164 115.171  0.00  0.00    -0.090 HD
ATOM     20  H   LIG d   1       0.898  78.085 116.510  0.00  0.00    -0.090 HD
ATOM     21  H   LIG d   1       1.322  78.753 115.075  0.00  0.00    -0.090 HD
ENDBRANCH   5  18
BRANCH   3  22
ATOM     22  C   LIG d   1      -2.301  80.603 112.810  0.00  0.00     0.382 C 
ATOM     23  O   LIG d   1      -1.418  81.058 112.044  0.00  0.00    -0.241 OA
ATOM     24  O   LIG d   1      -3.374  81.222 112.945  0.00  0.00    -0.241 OA
ENDBRANCH   3  22
TORSDOF 7
ENDMDL
MODEL 3
REMARK VINA RESULT:      -5.3      2.884      3.694
REMARK  7 active torsions:
REMARK  status: ('A' for Active; 'I' for Inactive)
REMARK    1  A    between atoms: C_2  and  C_3 
REMARK    2  A    between atoms: C_3  and  O_6 
REMARK    3  A    between atoms: C_3  and  C_4 
REMARK    4  A    between atoms: C_7  and  O_6 
REMARK    5  A    between atoms: C_9  and  C_10 
REMARK    6  A    between atoms: N_15  and  C_14 
REMARK    7  A    between atoms: N_20  and  C_19 
REMARK       I    between atoms: C_22  and  N_20 
ROOT
ATOM      1  C   LIG d   1      -1.946  78.412 114.935  0.00  0.00     0.161 C 
ATOM      2  C   LIG d   1      -2.458  79.605 114.400  0.00  0.00     0.016 C 
ATOM      3  C   LIG d   1      -2.339  79.961 113.036  0.00  0.00     0.038 C 
ATOM      4  C   LIG d   1      -1.830  79.071 112.080  0.00  0.00     0.028 C 
ATOM      5  C   LIG d   1      -0.843  78.061 112.657  0.00  0.00    -0.047 C 
ATOM      6  C   LIG d   1      -1.485  77.378 113.886  0.00  0.00     0.091 C 
ENDROOT
BRANCH   1   7
ATOM      7  O   LIG d   1      -2.913  77.823 115.827  0.00  0.00    -0.368 OA
BRANCH   7   8
ATOM      8  C   LIG d   1      -2.541  77.775 117.227  0.00  0.00     0.119 C 
BRANCH   8   9
ATOM      9  C   LIG d   1      -3.175  76.507 117.831  0.00  0.00     0.028 C 
ATOM     10  C   LIG d   1      -2.433  76.021 119.087  0.00  0.00     0.006 C 
ENDBRANCH   8   9
BRANCH   8  11
ATOM     11  C   LIG d   1      -3.151  78.944 118.006  0.00  0.00     0.028 C 
ATOM     12  C   LIG d   1      -4.566  79.306 117.527  0.00  0.00     0.006 C 
ENDBRANCH   8  11
ENDBRANCH   7   8
ENDBRANCH   1   7
BRANCH   6  13
ATOM     13  N   LIG d   1      -0.556  76.436 114.561  0.00  0.00    -0.311 N 
ATOM     14  C   LIG d   1      -0.926  75.240 115.017  0.00  0.00     0.210 C 
ATOM     15  C   LIG d   1       0.185  74.435 115.699  0.00  0.00     0.109 C 
ATOM     16  O   LIG d   1      -2.061  74.757 114.892  0.00  0.00    -0.276 OA
ATOM     17  H   LIG d   1       0.393  76.735 114.676  0.00  0.00     0.149 HD
ENDBRANCH   6  13
BRANCH   5  18
ATOM     18  N   LIG d   1      -0.498  77.111 111.582  0.00  0.00     0.381 N 
ATOM     19  H   LIG d   1      -0.030  76.316 111.970  0.00  0.00    -0.090 HD
ATOM     20  H   LIG d   1       0.128  77.562 110.938  0.00  0.00    -0.090 HD
ATOM     21  H   LIG d   1      -1.323  76.820 111.106  0.00  0.00    -0.090 HD
ENDBRANCH   5  18
BRANCH   3  22
ATOM     22  C   LIG d   1      -2.697  81.236 112.625  0.00  0.00     0.382 C 
ATOM     23  O   LIG d   1      -3.907  81.531 112.477  0.00  0.00    -0.241 OA
ATOM     24  O   LIG d   1      -1.823  82.082 112.357  0.00  0.00    -0.241 OA
ENDBRANCH   3  22
TORSDOF 7
ENDMDL
MODEL 4
REMARK VINA RESULT:      -5.2      1.958      4.868
REMARK  7 active torsions:
REMARK  status: ('A' for Active; 'I' for Inactive)
REMARK    1  A    between atoms: C_2  and  C_3 
REMARK    2  A    between atoms: C_3  and  O_6 
REMARK    3  A    between atoms: C_3  and  C_4 
REMARK    4  A    between atoms: C_7  and  O_6 
REMARK    5  A    between atoms: C_9  and  C_10 
REMARK    6  A    between atoms: N_15  and  C_14 
REMARK    7  A    between atoms: N_20  and  C_19 
REMARK       I    between atoms: C_22  and  N_20 
ROOT
ATOM      1  C   LIG d   1      -3.118  75.734 114.834  0.00  0.00     0.161 C 
ATOM      2  C   LIG d   1      -3.169  75.425 116.203  0.00  0.00     0.016 C 
ATOM      3  C   LIG d   1      -2.745  76.314 117.218  0.00  0.00     0.038 C 
ATOM      4  C   LIG d   1      -2.380  77.639 116.938  0.00  0.00     0.028 C 
ATOM      5  C   LIG d   1      -1.834  77.832 115.527  0.00  0.00    -0.047 C 
ATOM      6  C   LIG d   1      -2.828  77.216 114.516  0.00  0.00     0.091 C 
ENDROOT
BRANCH   1   7
ATOM      7  O   LIG d   1      -4.339  75.314 114.192  0.00  0.00    -0.368 OA
BRANCH   7   8
ATOM      8  C   LIG d   1      -5.441  76.253 114.244  0.00  0.00     0.119 C 
BRANCH   8   9
ATOM      9  C   LIG d   1      -6.318  75.872 115.453  0.00  0.00     0.028 C 
ATOM     10  C   LIG d   1      -6.456  77.023 116.463  0.00  0.00     0.006 C 
ENDBRANCH   8   9
BRANCH   8  11
ATOM     11  C   LIG d   1      -6.353  76.110 113.021  0.00  0.00     0.028 C 
ATOM     12  C   LIG d   1      -6.187  77.261 112.016  0.00  0.00     0.006 C 
ENDBRANCH   8  11
ENDBRANCH   7   8
ENDBRANCH   1   7
BRANCH   6  13
ATOM     13  N   LIG d   1      -2.330  77.287 113.117  0.00  0.00    -0.311 N 
ATOM     14  C   LIG d   1      -2.637  78.275 112.279  0.00  0.00     0.210 C 
ATOM     15  C   LIG d   1      -2.034  78.144 110.877  0.00  0.00     0.109 C 
ATOM     16  O   LIG d   1      -3.325  79.264 112.573  0.00  0.00    -0.276 OA
ATOM     17  H   LIG d   1      -1.739  76.541 112.805  0.00  0.00     0.149 HD
ENDBRANCH   6  13
BRANCH   5  18
ATOM     18  N   LIG d   1      -1.624  79.278 115.324  0.00  0.00     0.381 N 
ATOM     19  H   LIG d   1      -1.039  79.426 114.527  0.00  0.00    -0.090 HD
ATOM     20  H   LIG d   1      -1.159  79.655 116.131  0.00  0.00    -0.090 HD
ATOM     21  H   LIG d   1      -2.500  79.734 115.193  0.00  0.00    -0.090 HD
ENDBRANCH   5  18
BRANCH   3  22
ATOM     22  C   LIG d   1      -2.645  75.866 118.526  0.00  0.00     0.382 C 
ATOM     23  O   LIG d   1      -2.339  74.671 118.758  0.00  0.00    -0.241 OA
ATOM     24  O   LIG d   1      -2.902  76.629 119.477  0.00  0.00    -0.241 OA
ENDBRANCH   3  22
TORSDOF 7
ENDMDL
MODEL 5
REMARK VINA RESULT:      -5.2      2.056      4.587
REMARK  7 active torsions:
REMARK  status: ('A' for Active; 'I' for Inactive)
REMARK    1  A    between atoms: C_2  and  C_3 
REMARK    2  A    between atoms: C_3  and  O_6 
REMARK    3  A    between atoms: C_3  and  C_4 
REMARK    4  A    between atoms: C_7  and  O_6 
REMARK    5  A    between atoms: C_9  and  C_10 
REMARK    6  A    between atoms: N_15  and  C_14 
REMARK    7  A    between atoms: N_20  and  C_19 
REMARK       I    between atoms: C_22  and  N_20 
ROOT
ATOM      1  C   LIG d   1      -3.134  77.101 113.404  0.00  0.00     0.161 C 
ATOM      2  C   LIG d   1      -4.212  77.488 112.591  0.00  0.00     0.016 C 
ATOM      3  C   LIG d   1      -5.522  76.977 112.740  0.00  0.00     0.038 C 
ATOM      4  C   LIG d   1      -5.878  76.152 113.817  0.00  0.00     0.028 C 
ATOM      5  C   LIG d   1      -4.712  75.336 114.366  0.00  0.00    -0.047 C 
ATOM      6  C   LIG d   1      -3.527  76.286 114.654  0.00  0.00     0.091 C 
ENDROOT
BRANCH   1   7
ATOM      7  O   LIG d   1      -2.367  78.260 113.783  0.00  0.00    -0.368 OA
BRANCH   7   8
ATOM      8  C   LIG d   1      -1.176  78.520 113.000  0.00  0.00     0.119 C 
BRANCH   8   9
ATOM      9  C   LIG d   1      -1.339  79.910 112.356  0.00  0.00     0.028 C 
ATOM     10  C   LIG d   1      -2.554  80.674 112.908  0.00  0.00     0.006 C 
ENDBRANCH   8   9
BRANCH   8  11
ATOM     11  C   LIG d   1      -1.055  77.541 111.828  0.00  0.00     0.028 C 
ATOM     12  C   LIG d   1      -1.115  78.240 110.460  0.00  0.00     0.006 C 
ENDBRANCH   8  11
ENDBRANCH   7   8
ENDBRANCH   1   7
BRANCH   6  13
ATOM     13  N   LIG d   1      -2.316  75.558 115.115  0.00  0.00    -0.311 N 
ATOM     14  C   LIG d   1      -2.051  75.314 116.398  0.00  0.00     0.210 C 
ATOM     15  C   LIG d   1      -0.740  74.566 116.656  0.00  0.00     0.109 C 
ATOM     16  O   LIG d   1      -2.794  75.618 117.344  0.00  0.00    -0.276 OA
ATOM     17  H   LIG d   1      -1.675  75.247 114.412  0.00  0.00     0.149 HD
ENDBRANCH   6  13
BRANCH   5  18
ATOM     18  N   LIG d   1      -5.191  74.628 115.568  0.00  0.00     0.381 N 
ATOM     19  H   LIG d   1      -4.612  74.859 116.351  0.00  0.00    -0.090 HD
ATOM     20  H   LIG d   1      -5.127  73.638 115.410  0.00  0.00    -0.090 HD
ATOM     21  H   LIG d   1      -6.136  74.880 115.759  0.00  0.00    -0.090 HD
ENDBRANCH   5  18
BRANCH   3  22
ATOM     22  C   LIG d   1      -6.483  77.260 111.781  0.00  0.00     0.382 C 
ATOM     23  O   LIG d   1      -6.595  76.526 110.770  0.00  0.00    -0.241 OA
ATOM     24  O   LIG d   1      -7.210  78.266 111.893  0.00  0.00    -0.241 OA
ENDBRANCH   3  22
TORSDOF 7
ENDMDL
MODEL 6
REMARK VINA RESULT:      -5.0      1.759      5.050
REMARK  7 active torsions:
REMARK  status: ('A' for Active; 'I' for Inactive)
REMARK    1  A    between atoms: C_2  and  C_3 
REMARK    2  A    between atoms: C_3  and  O_6 
REMARK    3  A    between atoms: C_3  and  C_4 
REMARK    4  A    between atoms: C_7  and  O_6 
REMARK    5  A    between atoms: C_9  and  C_10 
REMARK    6  A    between atoms: N_15  and  C_14 
REMARK    7  A    between atoms: N_20  and  C_19 
REMARK       I    between atoms: C_22  and  N_20 
ROOT
ATOM      1  C   LIG d   1      -3.085  76.146 115.542  0.00  0.00     0.161 C 
ATOM      2  C   LIG d   1      -2.887  75.704 116.860  0.00  0.00     0.016 C 
ATOM      3  C   LIG d   1      -1.691  75.922 117.583  0.00  0.00     0.038 C 
ATOM      4  C   LIG d   1      -0.662  76.734 117.085  0.00  0.00     0.028 C 
ATOM      5  C   LIG d   1      -0.610  76.780 115.561  0.00  0.00    -0.047 C 
ATOM      6  C   LIG d   1      -2.015  77.129 115.022  0.00  0.00     0.091 C 
ENDROOT
BRANCH   1   7
ATOM      7  O   LIG d   1      -4.400  76.721 115.411  0.00  0.00    -0.368 OA
BRANCH   7   8
ATOM      8  C   LIG d   1      -5.513  75.804 115.552  0.00  0.00     0.119 C 
BRANCH   8   9
ATOM      9  C   LIG d   1      -5.883  75.305 114.141  0.00  0.00     0.028 C 
ATOM     10  C   LIG d   1      -6.007  76.454 113.126  0.00  0.00     0.006 C 
ENDBRANCH   8   9
BRANCH   8  11
ATOM     11  C   LIG d   1      -6.764  76.521 116.069  0.00  0.00     0.028 C 
ATOM     12  C   LIG d   1      -6.444  77.585 117.131  0.00  0.00     0.006 C 
ENDBRANCH   8  11
ENDBRANCH   7   8
ENDBRANCH   1   7
BRANCH   6  13
ATOM     13  N   LIG d   1      -2.073  77.112 113.537  0.00  0.00    -0.311 N 
ATOM     14  C   LIG d   1      -2.607  78.094 112.813  0.00  0.00     0.210 C 
ATOM     15  C   LIG d   1      -2.582  77.868 111.298  0.00  0.00     0.109 C 
ATOM     16  O   LIG d   1      -3.071  79.146 113.279  0.00  0.00    -0.276 OA
ATOM     17  H   LIG d   1      -1.691  76.311 113.075  0.00  0.00     0.149 HD
ENDBRANCH   6  13
BRANCH   5  18
ATOM     18  N   LIG d   1       0.418  77.768 115.180  0.00  0.00     0.381 N 
ATOM     19  H   LIG d   1       1.278  77.300 114.974  0.00  0.00    -0.090 HD
ATOM     20  H   LIG d   1       0.575  78.389 115.954  0.00  0.00    -0.090 HD
ATOM     21  H   LIG d   1       0.114  78.286 114.385  0.00  0.00    -0.090 HD
ENDBRANCH   5  18
BRANCH   3  22
ATOM     22  C   LIG d   1      -1.501  75.291 118.803  0.00  0.00     0.382 C 
ATOM     23  O   LIG d   1      -0.554  75.640 119.548  0.00  0.00    -0.241 OA
ATOM     24  O   LIG d   1      -2.237  74.347 119.147  0.00  0.00    -0.241 OA
ENDBRANCH   3  22
TORSDOF 7
ENDMDL
MODEL 7
REMARK VINA RESULT:      -5.0      2.449      4.585
REMARK  7 active torsions:
REMARK  status: ('A' for Active; 'I' for Inactive)
REMARK    1  A    between atoms: C_2  and  C_3 
REMARK    2  A    between atoms: C_3  and  O_6 
REMARK    3  A    between atoms: C_3  and  C_4 
REMARK    4  A    between atoms: C_7  and  O_6 
REMARK    5  A    between atoms: C_9  and  C_10 
REMARK    6  A    between atoms: N_15  and  C_14 
REMARK    7  A    between atoms: N_20  and  C_19 
REMARK       I    between atoms: C_22  and  N_20 
ROOT
ATOM      1  C   LIG d   1      -2.281  76.599 114.444  0.00  0.00     0.161 C 
ATOM      2  C   LIG d   1      -2.775  76.888 115.727  0.00  0.00     0.016 C 
ATOM      3  C   LIG d   1      -2.525  78.105 116.401  0.00  0.00     0.038 C 
ATOM      4  C   LIG d   1      -1.886  79.184 115.772  0.00  0.00     0.028 C 
ATOM      5  C   LIG d   1      -0.931  78.758 114.662  0.00  0.00    -0.047 C 
ATOM      6  C   LIG d   1      -1.676  77.807 113.697  0.00  0.00     0.091 C 
ENDROOT
BRANCH   1   7
ATOM      7  O   LIG d   1      -3.315  75.986 113.649  0.00  0.00    -0.368 OA
BRANCH   7   8
ATOM      8  C   LIG d   1      -4.633  76.579 113.750  0.00  0.00     0.119 C 
BRANCH   8   9
ATOM      9  C   LIG d   1      -5.643  75.432 113.943  0.00  0.00     0.028 C 
ATOM     10  C   LIG d   1      -6.079  75.275 115.410  0.00  0.00     0.006 C 
ENDBRANCH   8   9
BRANCH   8  11
ATOM     11  C   LIG d   1      -5.039  77.260 112.439  0.00  0.00     0.028 C 
ATOM     12  C   LIG d   1      -6.494  76.966 112.041  0.00  0.00     0.006 C 
ENDBRANCH   8  11
ENDBRANCH   7   8
ENDBRANCH   1   7
BRANCH   6  13
ATOM     13  N   LIG d   1      -0.790  77.276 112.628  0.00  0.00    -0.311 N 
ATOM     14  C   LIG d   1      -1.031  77.440 111.329  0.00  0.00     0.210 C 
ATOM     15  C   LIG d   1      -0.001  76.796 110.394  0.00  0.00     0.109 C 
ATOM     16  O   LIG d   1      -1.982  78.084 110.861  0.00  0.00    -0.276 OA
ATOM     17  H   LIG d   1       0.022  76.767 112.919  0.00  0.00     0.149 HD
ENDBRANCH   6  13
BRANCH   5  18
ATOM     18  N   LIG d   1      -0.441  79.983 114.002  0.00  0.00     0.381 N 
ATOM     19  H   LIG d   1       0.113  80.515 114.643  0.00  0.00    -0.090 HD
ATOM     20  H   LIG d   1      -1.229  80.542 113.727  0.00  0.00    -0.090 HD
ATOM     21  H   LIG d   1       0.102  79.745 113.201  0.00  0.00    -0.090 HD
ENDBRANCH   5  18
BRANCH   3  22
ATOM     22  C   LIG d   1      -2.882  78.238 117.735  0.00  0.00     0.382 C 
ATOM     23  O   LIG d   1      -3.552  77.338 118.297  0.00  0.00    -0.241 OA
ATOM     24  O   LIG d   1      -2.580  79.265 118.370  0.00  0.00    -0.241 OA
ENDBRANCH   3  22
TORSDOF 7
ENDMDL
MODEL 8
REMARK VINA RESULT:      -5.0      3.129      5.916
REMARK  7 active torsions:
REMARK  status: ('A' for Active; 'I' for Inactive)
REMARK    1  A    between atoms: C_2  and  C_3 
REMARK    2  A    between atoms: C_3  and  O_6 
REMARK    3  A    between atoms: C_3  and  C_4 
REMARK    4  A    between atoms: C_7  and  O_6 
REMARK    5  A    between atoms: C_9  and  C_10 
REMARK    6  A    between atoms: N_15  and  C_14 
REMARK    7  A    between atoms: N_20  and  C_19 
REMARK       I    between atoms: C_22  and  N_20 
ROOT
ATOM      1  C   LIG d   1      -1.712  79.569 114.121  0.00  0.00     0.161 C 
ATOM      2  C   LIG d   1      -2.599  78.492 114.290  0.00  0.00     0.016 C 
ATOM      3  C   LIG d   1      -2.922  77.581 113.258  0.00  0.00     0.038 C 
ATOM      4  C   LIG d   1      -2.260  77.596 112.022  0.00  0.00     0.028 C 
ATOM      5  C   LIG d   1      -1.727  78.972 111.637  0.00  0.00    -0.047 C 
ATOM      6  C   LIG d   1      -0.896  79.535 112.812  0.00  0.00     0.091 C 
ENDROOT
BRANCH   1   7
ATOM      7  O   LIG d   1      -0.832  79.660 115.259  0.00  0.00    -0.368 OA
BRANCH   7   8
ATOM      8  C   LIG d   1      -0.821  78.517 116.149  0.00  0.00     0.119 C 
BRANCH   8   9
ATOM      9  C   LIG d   1      -0.831  79.056 117.593  0.00  0.00     0.028 C 
ATOM     10  C   LIG d   1      -2.189  79.664 117.983  0.00  0.00     0.006 C 
ENDBRANCH   8   9
BRANCH   8  11
ATOM     11  C   LIG d   1       0.483  77.724 116.022  0.00  0.00     0.028 C 
ATOM     12  C   LIG d   1       0.295  76.381 115.298  0.00  0.00     0.006 C 
ENDBRANCH   8  11
ENDBRANCH   7   8
ENDBRANCH   1   7
BRANCH   6  13
ATOM     13  N   LIG d   1      -0.407  80.914 112.551  0.00  0.00    -0.311 N 
ATOM     14  C   LIG d   1      -1.216  81.951 112.340  0.00  0.00     0.210 C 
ATOM     15  C   LIG d   1      -0.505  83.281 112.071  0.00  0.00     0.109 C 
ATOM     16  O   LIG d   1      -2.454  81.902 112.381  0.00  0.00    -0.276 OA
ATOM     17  H   LIG d   1       0.585  81.051 112.531  0.00  0.00     0.149 HD
ENDBRANCH   6  13
BRANCH   5  18
ATOM     18  N   LIG d   1      -0.942  78.816 110.397  0.00  0.00     0.381 N 
ATOM     19  H   LIG d   1      -1.446  78.245 109.748  0.00  0.00    -0.090 HD
ATOM     20  H   LIG d   1      -0.076  78.355 110.616  0.00  0.00    -0.090 HD
ATOM     21  H   LIG d   1      -0.760  79.708 109.994  0.00  0.00    -0.090 HD
ENDBRANCH   5  18
BRANCH   3  22
ATOM     22  C   LIG d   1      -3.947  76.666 113.446  0.00  0.00     0.382 C 
ATOM     23  O   LIG d   1      -3.711  75.565 113.998  0.00  0.00    -0.241 OA
ATOM     24  O   LIG d   1      -5.095  76.910 113.029  0.00  0.00    -0.241 OA
ENDBRANCH   3  22
TORSDOF 7
ENDMDL
MODEL 9
REMARK VINA RESULT:      -4.8      1.429      2.126
REMARK  7 active torsions:
REMARK  status: ('A' for Active; 'I' for Inactive)
REMARK    1  A    between atoms: C_2  and  C_3 
REMARK    2  A    between atoms: C_3  and  O_6 
REMARK    3  A    between atoms: C_3  and  C_4 
REMARK    4  A    between atoms: C_7  and  O_6 
REMARK    5  A    between atoms: C_9  and  C_10 
REMARK    6  A    between atoms: N_15  and  C_14 
REMARK    7  A    between atoms: N_20  and  C_19 
REMARK       I    between atoms: C_22  and  N_20 
ROOT
ATOM      1  C   LIG d   1      -3.044  76.878 115.064  0.00  0.00     0.161 C 
ATOM      2  C   LIG d   1      -3.168  77.343 113.744  0.00  0.00     0.016 C 
ATOM      3  C   LIG d   1      -2.079  77.438 112.847  0.00  0.00     0.038 C 
ATOM      4  C   LIG d   1      -0.811  76.928 113.164  0.00  0.00     0.028 C 
ATOM      5  C   LIG d   1      -0.521  76.912 114.661  0.00  0.00    -0.047 C 
ATOM      6  C   LIG d   1      -1.690  76.213 115.391  0.00  0.00     0.091 C 
ENDROOT
BRANCH   1   7
ATOM      7  O   LIG d   1      -4.130  75.981 115.370  0.00  0.00    -0.368 OA
BRANCH   7   8
ATOM      8  C   LIG d   1      -5.051  76.422 116.397  0.00  0.00     0.119 C 
BRANCH   8   9
ATOM      9  C   LIG d   1      -6.437  76.575 115.741  0.00  0.00     0.028 C 
ATOM     10  C   LIG d   1      -7.567  76.691 116.777  0.00  0.00     0.006 C 
ENDBRANCH   8   9
BRANCH   8  11
ATOM     11  C   LIG d   1      -4.688  77.819 116.909  0.00  0.00     0.028 C 
ATOM     12  C   LIG d   1      -4.374  77.839 118.413  0.00  0.00     0.006 C 
ENDBRANCH   8  11
ENDBRANCH   7   8
ENDBRANCH   1   7
BRANCH   6  13
ATOM     13  N   LIG d   1      -1.527  76.229 116.868  0.00  0.00    -0.311 N 
ATOM     14  C   LIG d   1      -0.992  75.223 117.558  0.00  0.00     0.210 C 
ATOM     15  C   LIG d   1      -0.935  75.436 119.074  0.00  0.00     0.109 C 
ATOM     16  O   LIG d   1      -0.529  74.188 117.055  0.00  0.00    -0.276 OA
ATOM     17  H   LIG d   1      -1.847  77.044 117.354  0.00  0.00     0.149 HD
ENDBRANCH   6  13
BRANCH   5  18
ATOM     18  N   LIG d   1       0.773  76.231 114.857  0.00  0.00     0.381 N 
ATOM     19  H   LIG d   1       0.618  75.286 115.145  0.00  0.00    -0.090 HD
ATOM     20  H   LIG d   1       1.282  76.703 115.583  0.00  0.00    -0.090 HD
ATOM     21  H   LIG d   1       1.298  76.246 114.010  0.00  0.00    -0.090 HD
ENDBRANCH   5  18
BRANCH   3  22
ATOM     22  C   LIG d   1      -2.244  78.084 111.632  0.00  0.00     0.382 C 
ATOM     23  O   LIG d   1      -1.841  79.264 111.490  0.00  0.00    -0.241 OA
ATOM     24  O   LIG d   1      -2.830  77.519 110.690  0.00  0.00    -0.241 OA
ENDBRANCH   3  22
TORSDOF 7
ENDMDL
