MODEL 1
REMARK VINA RESULT:      -5.1      0.000      0.000
REMARK  7 active torsions:
REMARK  status: ('A' for Active; 'I' for Inactive)
REMARK    1  A    between atoms: C_2  and  C_3 
REMARK    2  A    between atoms: C_3  and  O_6 
REMARK    3  A    between atoms: C_3  and  C_4 
REMARK    4  A    between atoms: C_7  and  O_6 
REMARK    5  A    between atoms: C_9  and  C_10 
REMARK    6  A    between atoms: N_15  and  C_14 
REMARK    7  A    between atoms: N_20  and  C_19 
REMARK       I    between atoms: C_22  and  N_20 
ROOT
ATOM      1  C   LIG d   1      -1.259  81.414 113.929  0.00  0.00     0.161 C 
ATOM      2  C   LIG d   1      -0.929  82.678 113.412  0.00  0.00     0.016 C 
ATOM      3  C   LIG d   1      -0.462  82.881 112.093  0.00  0.00     0.038 C 
ATOM      4  C   LIG d   1      -0.436  81.846 111.148  0.00  0.00     0.028 C 
ATOM      5  C   LIG d   1      -0.281  80.462 111.769  0.00  0.00    -0.047 C 
ATOM      6  C   LIG d   1      -1.344  80.288 112.878  0.00  0.00     0.091 C 
ENDROOT
BRANCH   1   7
ATOM      7  O   LIG d   1      -2.490  81.498 114.675  0.00  0.00    -0.368 OA
BRANCH   7   8
ATOM      8  C   LIG d   1      -2.407  81.162 116.081  0.00  0.00     0.119 C 
BRANCH   8   9
ATOM      9  C   LIG d   1      -3.759  80.547 116.491  0.00  0.00     0.028 C 
ATOM     10  C   LIG d   1      -3.824  79.035 116.216  0.00  0.00     0.006 C 
ENDBRANCH   8   9
BRANCH   8  11
ATOM     11  C   LIG d   1      -2.254  82.416 116.946  0.00  0.00     0.028 C 
ATOM     12  C   LIG d   1      -0.785  82.785 117.207  0.00  0.00     0.006 C 
ENDBRANCH   8  11
ENDBRANCH   7   8
ENDBRANCH   1   7
BRANCH   6  13
ATOM     13  N   LIG d   1      -1.208  78.993 113.595  0.00  0.00    -0.311 N 
ATOM     14  C   LIG d   1      -1.947  77.920 113.317  0.00  0.00     0.210 C 
ATOM     15  C   LIG d   1      -1.660  76.694 114.189  0.00  0.00     0.109 C 
ATOM     16  O   LIG d   1      -2.790  77.858 112.410  0.00  0.00    -0.276 OA
ATOM     17  H   LIG d   1      -0.526  78.945 114.326  0.00  0.00     0.149 HD
ENDBRANCH   6  13
BRANCH   5  18
ATOM     18  N   LIG d   1      -0.409  79.470 110.685  0.00  0.00     0.381 N 
ATOM     19  H   LIG d   1       0.459  79.391 110.194  0.00  0.00    -0.090 HD
ATOM     20  H   LIG d   1      -1.110  79.784 110.038  0.00  0.00    -0.090 HD
ATOM     21  H   LIG d   1      -0.668  78.584 111.062  0.00  0.00    -0.090 HD
ENDBRANCH   5  18
BRANCH   3  22
ATOM     22  C   LIG d   1       0.025  84.125 111.721  0.00  0.00     0.382 C 
ATOM     23  O   LIG d   1      -0.403  84.680 110.680  0.00  0.00    -0.241 OA
ATOM     24  O   LIG d   1       0.919  84.680 112.388  0.00  0.00    -0.241 OA
ENDBRANCH   3  22
TORSDOF 7
ENDMDL
MODEL 2
REMARK VINA RESULT:      -5.1      1.828      2.676
REMARK  7 active torsions:
REMARK  status: ('A' for Active; 'I' for Inactive)
REMARK    1  A    between atoms: C_2  and  C_3 
REMARK    2  A    between atoms: C_3  and  O_6 
REMARK    3  A    between atoms: C_3  and  C_4 
REMARK    4  A    between atoms: C_7  and  O_6 
REMARK    5  A    between atoms: C_9  and  C_10 
REMARK    6  A    between atoms: N_15  and  C_14 
REMARK    7  A    between atoms: N_20  and  C_19 
REMARK       I    between atoms: C_22  and  N_20 
ROOT
ATOM      1  C   LIG d   1      -2.524  80.091 115.049  0.00  0.00     0.161 C 
ATOM      2  C   LIG d   1      -2.180  81.278 114.382  0.00  0.00     0.016 C 
ATOM      3  C   LIG d   1      -1.699  81.312 113.053  0.00  0.00     0.038 C 
ATOM      4  C   LIG d   1      -1.672  80.166 112.244  0.00  0.00     0.028 C 
ATOM      5  C   LIG d   1      -1.532  78.870 113.036  0.00  0.00    -0.047 C 
ATOM      6  C   LIG d   1      -2.606  78.842 114.147  0.00  0.00     0.091 C 
ENDROOT
BRANCH   1   7
ATOM      7  O   LIG d   1      -3.761  80.273 115.766  0.00  0.00    -0.368 OA
BRANCH   7   8
ATOM      8  C   LIG d   1      -3.802  81.385 116.694  0.00  0.00     0.119 C 
BRANCH   8   9
ATOM      9  C   LIG d   1      -2.955  80.995 117.921  0.00  0.00     0.028 C 
ATOM     10  C   LIG d   1      -1.682  81.849 118.051  0.00  0.00     0.006 C 
ENDBRANCH   8   9
BRANCH   8  11
ATOM     11  C   LIG d   1      -5.218  81.609 117.233  0.00  0.00     0.028 C 
ATOM     12  C   LIG d   1      -5.320  81.386 118.750  0.00  0.00     0.006 C 
ENDBRANCH   8  11
ENDBRANCH   7   8
ENDBRANCH   1   7
BRANCH   6  13
ATOM     13  N   LIG d   1      -2.486  77.646 115.022  0.00  0.00    -0.311 N 
ATOM     14  C   LIG d   1      -3.241  76.558 114.884  0.00  0.00     0.210 C 
ATOM     15  C   LIG d   1      -2.968  75.448 115.903  0.00  0.00     0.109 C 
ATOM     16  O   LIG d   1      -4.090  76.394 113.994  0.00  0.00    -0.276 OA
ATOM     17  H   LIG d   1      -1.800  77.681 115.750  0.00  0.00     0.149 HD
ENDBRANCH   6  13
BRANCH   5  18
ATOM     18  N   LIG d   1      -1.655  77.750 112.083  0.00  0.00     0.381 N 
ATOM     19  H   LIG d   1      -0.917  77.092 112.236  0.00  0.00    -0.090 HD
ATOM     20  H   LIG d   1      -1.570  78.108 111.148  0.00  0.00    -0.090 HD
ATOM     21  H   LIG d   1      -2.538  77.302 112.196  0.00  0.00    -0.090 HD
ENDBRANCH   5  18
BRANCH   3  22
ATOM     22  C   LIG d   1      -1.201  82.497 112.532  0.00  0.00     0.382 C 
ATOM     23  O   LIG d   1      -1.058  83.497 113.276  0.00  0.00    -0.241 OA
ATOM     24  O   LIG d   1      -0.935  82.591 111.319  0.00  0.00    -0.241 OA
ENDBRANCH   3  22
TORSDOF 7
ENDMDL
MODEL 3
REMARK VINA RESULT:      -5.0      1.742      5.062
REMARK  7 active torsions:
REMARK  status: ('A' for Active; 'I' for Inactive)
REMARK    1  A    between atoms: C_2  and  C_3 
REMARK    2  A    between atoms: C_3  and  O_6 
REMARK    3  A    between atoms: C_3  and  C_4 
REMARK    4  A    between atoms: C_7  and  O_6 
REMARK    5  A    between atoms: C_9  and  C_10 
REMARK    6  A    between atoms: N_15  and  C_14 
REMARK    7  A    between atoms: N_20  and  C_19 
REMARK       I    between atoms: C_22  and  N_20 
ROOT
ATOM      1  C   LIG d   1      -1.986  80.548 114.524  0.00  0.00     0.161 C 
ATOM      2  C   LIG d   1      -2.520  79.306 114.905  0.00  0.00     0.016 C 
ATOM      3  C   LIG d   1      -2.504  78.164 114.073  0.00  0.00     0.038 C 
ATOM      4  C   LIG d   1      -1.812  78.146 112.852  0.00  0.00     0.028 C 
ATOM      5  C   LIG d   1      -1.693  79.521 112.203  0.00  0.00    -0.047 C 
ATOM      6  C   LIG d   1      -1.130  80.518 113.241  0.00  0.00     0.091 C 
ENDROOT
BRANCH   1   7
ATOM      7  O   LIG d   1      -1.233  81.112 115.616  0.00  0.00    -0.368 OA
BRANCH   7   8
ATOM      8  C   LIG d   1      -1.919  82.106 116.418  0.00  0.00     0.119 C 
BRANCH   8   9
ATOM      9  C   LIG d   1      -1.023  83.359 116.468  0.00  0.00     0.028 C 
ATOM     10  C   LIG d   1      -1.390  84.387 115.385  0.00  0.00     0.006 C 
ENDBRANCH   8   9
BRANCH   8  11
ATOM     11  C   LIG d   1      -2.059  81.649 117.872  0.00  0.00     0.028 C 
ATOM     12  C   LIG d   1      -3.474  81.150 118.207  0.00  0.00     0.006 C 
ENDBRANCH   8  11
ENDBRANCH   7   8
ENDBRANCH   1   7
BRANCH   6  13
ATOM     13  N   LIG d   1      -1.060  81.906 112.714  0.00  0.00    -0.311 N 
ATOM     14  C   LIG d   1       0.041  82.434 112.184  0.00  0.00     0.210 C 
ATOM     15  C   LIG d   1      -0.097  83.887 111.719  0.00  0.00     0.109 C 
ATOM     16  O   LIG d   1       1.111  81.827 112.024  0.00  0.00    -0.276 OA
ATOM     17  H   LIG d   1      -1.892  82.459 112.775  0.00  0.00     0.149 HD
ENDBRANCH   6  13
BRANCH   5  18
ATOM     18  N   LIG d   1      -0.834  79.379 111.013  0.00  0.00     0.381 N 
ATOM     19  H   LIG d   1      -1.127  78.587 110.476  0.00  0.00    -0.090 HD
ATOM     20  H   LIG d   1       0.113  79.224 111.311  0.00  0.00    -0.090 HD
ATOM     21  H   LIG d   1      -0.884  80.203 110.456  0.00  0.00    -0.090 HD
ENDBRANCH   5  18
BRANCH   3  22
ATOM     22  C   LIG d   1      -3.218  77.034 114.441  0.00  0.00     0.382 C 
ATOM     23  O   LIG d   1      -4.105  76.577 113.680  0.00  0.00    -0.241 OA
ATOM     24  O   LIG d   1      -3.019  76.492 115.545  0.00  0.00    -0.241 OA
ENDBRANCH   3  22
TORSDOF 7
ENDMDL
MODEL 4
REMARK VINA RESULT:      -4.9      2.133      2.844
REMARK  7 active torsions:
REMARK  status: ('A' for Active; 'I' for Inactive)
REMARK    1  A    between atoms: C_2  and  C_3 
REMARK    2  A    between atoms: C_3  and  O_6 
REMARK    3  A    between atoms: C_3  and  C_4 
REMARK    4  A    between atoms: C_7  and  O_6 
REMARK    5  A    between atoms: C_9  and  C_10 
REMARK    6  A    between atoms: N_15  and  C_14 
REMARK    7  A    between atoms: N_20  and  C_19 
REMARK       I    between atoms: C_22  and  N_20 
ROOT
ATOM      1  C   LIG d   1      -2.675  79.644 115.236  0.00  0.00     0.161 C 
ATOM      2  C   LIG d   1      -2.442  80.887 114.625  0.00  0.00     0.016 C 
ATOM      3  C   LIG d   1      -1.944  81.025 113.309  0.00  0.00     0.038 C 
ATOM      4  C   LIG d   1      -1.787  79.923 112.455  0.00  0.00     0.028 C 
ATOM      5  C   LIG d   1      -1.531  78.615 113.196  0.00  0.00    -0.047 C 
ATOM      6  C   LIG d   1      -2.615  78.432 114.282  0.00  0.00     0.091 C 
ENDROOT
BRANCH   1   7
ATOM      7  O   LIG d   1      -3.936  79.671 115.933  0.00  0.00    -0.368 OA
BRANCH   7   8
ATOM      8  C   LIG d   1      -3.871  79.541 117.375  0.00  0.00     0.119 C 
BRANCH   8   9
ATOM      9  C   LIG d   1      -4.711  78.310 117.767  0.00  0.00     0.028 C 
ATOM     10  C   LIG d   1      -5.815  78.002 116.742  0.00  0.00     0.006 C 
ENDBRANCH   8   9
BRANCH   8  11
ATOM     11  C   LIG d   1      -4.541  80.728 118.072  0.00  0.00     0.028 C 
ATOM     12  C   LIG d   1      -5.386  81.582 117.114  0.00  0.00     0.006 C 
ENDBRANCH   8  11
ENDBRANCH   7   8
ENDBRANCH   1   7
BRANCH   6  13
ATOM     13  N   LIG d   1      -2.390  77.219 115.110  0.00  0.00    -0.311 N 
ATOM     14  C   LIG d   1      -3.172  76.142 115.060  0.00  0.00     0.210 C 
ATOM     15  C   LIG d   1      -2.773  75.009 116.011  0.00  0.00     0.109 C 
ATOM     16  O   LIG d   1      -4.139  76.005 114.296  0.00  0.00    -0.276 OA
ATOM     17  H   LIG d   1      -1.608  77.232 115.736  0.00  0.00     0.149 HD
ENDBRANCH   6  13
BRANCH   5  18
ATOM     18  N   LIG d   1      -1.525  77.530 112.196  0.00  0.00     0.381 N 
ATOM     19  H   LIG d   1      -1.875  77.872 111.324  0.00  0.00    -0.090 HD
ATOM     20  H   LIG d   1      -2.131  76.794 112.512  0.00  0.00    -0.090 HD
ATOM     21  H   LIG d   1      -0.600  77.181 112.077  0.00  0.00    -0.090 HD
ENDBRANCH   5  18
BRANCH   3  22
ATOM     22  C   LIG d   1      -1.559  82.275 112.848  0.00  0.00     0.382 C 
ATOM     23  O   LIG d   1      -1.258  82.433 111.640  0.00  0.00    -0.241 OA
ATOM     24  O   LIG d   1      -1.466  83.237 113.633  0.00  0.00    -0.241 OA
ENDBRANCH   3  22
TORSDOF 7
ENDMDL
MODEL 5
REMARK VINA RESULT:      -4.8      2.434      3.677
REMARK  7 active torsions:
REMARK  status: ('A' for Active; 'I' for Inactive)
REMARK    1  A    between atoms: C_2  and  C_3 
REMARK    2  A    between atoms: C_3  and  O_6 
REMARK    3  A    between atoms: C_3  and  C_4 
REMARK    4  A    between atoms: C_7  and  O_6 
REMARK    5  A    between atoms: C_9  and  C_10 
REMARK    6  A    between atoms: N_15  and  C_14 
REMARK    7  A    between atoms: N_20  and  C_19 
REMARK       I    between atoms: C_22  and  N_20 
ROOT
ATOM      1  C   LIG d   1      -0.294  80.266 115.573  0.00  0.00     0.161 C 
ATOM      2  C   LIG d   1      -0.824  81.221 114.691  0.00  0.00     0.016 C 
ATOM      3  C   LIG d   1      -1.801  80.921 113.713  0.00  0.00     0.038 C 
ATOM      4  C   LIG d   1      -2.428  79.668 113.653  0.00  0.00     0.028 C 
ATOM      5  C   LIG d   1      -1.566  78.532 114.192  0.00  0.00    -0.047 C 
ATOM      6  C   LIG d   1      -1.047  78.919 115.596  0.00  0.00     0.091 C 
ENDROOT
BRANCH   1   7
ATOM      7  O   LIG d   1      -0.216  80.818 116.902  0.00  0.00    -0.368 OA
BRANCH   7   8
ATOM      8  C   LIG d   1      -1.044  81.979 117.160  0.00  0.00     0.119 C 
BRANCH   8   9
ATOM      9  C   LIG d   1      -0.182  83.002 117.924  0.00  0.00     0.028 C 
ATOM     10  C   LIG d   1       0.545  83.976 116.982  0.00  0.00     0.006 C 
ENDBRANCH   8   9
BRANCH   8  11
ATOM     11  C   LIG d   1      -2.202  81.639 118.104  0.00  0.00     0.028 C 
ATOM     12  C   LIG d   1      -3.521  81.379 117.359  0.00  0.00     0.006 C 
ENDBRANCH   8  11
ENDBRANCH   7   8
ENDBRANCH   1   7
BRANCH   6  13
ATOM     13  N   LIG d   1      -0.126  77.898 116.161  0.00  0.00    -0.311 N 
ATOM     14  C   LIG d   1      -0.523  76.927 116.982  0.00  0.00     0.210 C 
ATOM     15  C   LIG d   1       0.591  75.993 117.465  0.00  0.00     0.109 C 
ATOM     16  O   LIG d   1      -1.697  76.731 117.331  0.00  0.00    -0.276 OA
ATOM     17  H   LIG d   1       0.839  77.964 115.905  0.00  0.00     0.149 HD
ENDBRANCH   6  13
BRANCH   5  18
ATOM     18  N   LIG d   1      -2.391  77.310 114.197  0.00  0.00     0.381 N 
ATOM     19  H   LIG d   1      -3.200  77.449 114.768  0.00  0.00    -0.090 HD
ATOM     20  H   LIG d   1      -1.854  76.556 114.590  0.00  0.00    -0.090 HD
ATOM     21  H   LIG d   1      -2.667  77.081 113.267  0.00  0.00    -0.090 HD
ENDBRANCH   5  18
BRANCH   3  22
ATOM     22  C   LIG d   1      -2.130  81.870 112.757  0.00  0.00     0.382 C 
ATOM     23  O   LIG d   1      -3.215  81.781 112.134  0.00  0.00    -0.241 OA
ATOM     24  O   LIG d   1      -1.336  82.788 112.479  0.00  0.00    -0.241 OA
ENDBRANCH   3  22
TORSDOF 7
ENDMDL
MODEL 6
REMARK VINA RESULT:      -4.8      4.336      7.567
REMARK  7 active torsions:
REMARK  status: ('A' for Active; 'I' for Inactive)
REMARK    1  A    between atoms: C_2  and  C_3 
REMARK    2  A    between atoms: C_3  and  O_6 
REMARK    3  A    between atoms: C_3  and  C_4 
REMARK    4  A    between atoms: C_7  and  O_6 
REMARK    5  A    between atoms: C_9  and  C_10 
REMARK    6  A    between atoms: N_15  and  C_14 
REMARK    7  A    between atoms: N_20  and  C_19 
REMARK       I    between atoms: C_22  and  N_20 
ROOT
ATOM      1  C   LIG d   1      -4.542  78.622 116.620  0.00  0.00     0.161 C 
ATOM      2  C   LIG d   1      -4.201  77.399 116.019  0.00  0.00     0.016 C 
ATOM      3  C   LIG d   1      -5.084  76.298 115.939  0.00  0.00     0.038 C 
ATOM      4  C   LIG d   1      -6.429  76.397 116.324  0.00  0.00     0.028 C 
ATOM      5  C   LIG d   1      -6.676  77.451 117.398  0.00  0.00    -0.047 C 
ATOM      6  C   LIG d   1      -6.041  78.786 116.946  0.00  0.00     0.091 C 
ENDROOT
BRANCH   1   7
ATOM      7  O   LIG d   1      -4.085  79.715 115.798  0.00  0.00    -0.368 OA
BRANCH   7   8
ATOM      8  C   LIG d   1      -2.766  80.232 116.101  0.00  0.00     0.119 C 
BRANCH   8   9
ATOM      9  C   LIG d   1      -2.951  81.498 116.960  0.00  0.00     0.028 C 
ATOM     10  C   LIG d   1      -2.730  81.229 118.458  0.00  0.00     0.006 C 
ENDBRANCH   8   9
BRANCH   8  11
ATOM     11  C   LIG d   1      -2.048  80.703 114.834  0.00  0.00     0.028 C 
ATOM     12  C   LIG d   1      -2.030  79.637 113.727  0.00  0.00     0.006 C 
ENDBRANCH   8  11
ENDBRANCH   7   8
ENDBRANCH   1   7
BRANCH   6  13
ATOM     13  N   LIG d   1      -6.163  79.850 117.977  0.00  0.00    -0.311 N 
ATOM     14  C   LIG d   1      -6.588  81.084 117.710  0.00  0.00     0.210 C 
ATOM     15  C   LIG d   1      -6.620  82.031 118.914  0.00  0.00     0.109 C 
ATOM     16  O   LIG d   1      -6.972  81.475 116.598  0.00  0.00    -0.276 OA
ATOM     17  H   LIG d   1      -5.902  79.610 118.913  0.00  0.00     0.149 HD
ENDBRANCH   6  13
BRANCH   5  18
ATOM     18  N   LIG d   1      -8.133  77.545 117.605  0.00  0.00     0.381 N 
ATOM     19  H   LIG d   1      -8.323  77.926 118.510  0.00  0.00    -0.090 HD
ATOM     20  H   LIG d   1      -8.528  76.622 117.562  0.00  0.00    -0.090 HD
ATOM     21  H   LIG d   1      -8.541  78.121 116.902  0.00  0.00    -0.090 HD
ENDBRANCH   5  18
BRANCH   3  22
ATOM     22  C   LIG d   1      -4.612  75.068 115.506  0.00  0.00     0.382 C 
ATOM     23  O   LIG d   1      -4.755  74.728 114.307  0.00  0.00    -0.241 OA
ATOM     24  O   LIG d   1      -4.085  74.276 116.310  0.00  0.00    -0.241 OA
ENDBRANCH   3  22
TORSDOF 7
ENDMDL
MODEL 7
REMARK VINA RESULT:      -4.7      2.891      4.222
REMARK  7 active torsions:
REMARK  status: ('A' for Active; 'I' for Inactive)
REMARK    1  A    between atoms: C_2  and  C_3 
REMARK    2  A    between atoms: C_3  and  O_6 
REMARK    3  A    between atoms: C_3  and  C_4 
REMARK    4  A    between atoms: C_7  and  O_6 
REMARK    5  A    between atoms: C_9  and  C_10 
REMARK    6  A    between atoms: N_15  and  C_14 
REMARK    7  A    between atoms: N_20  and  C_19 
REMARK       I    between atoms: C_22  and  N_20 
ROOT
ATOM      1  C   LIG d   1      -3.876  79.805 116.476  0.00  0.00     0.161 C 
ATOM      2  C   LIG d   1      -3.540  81.169 116.474  0.00  0.00     0.016 C 
ATOM      3  C   LIG d   1      -2.419  81.693 115.790  0.00  0.00     0.038 C 
ATOM      4  C   LIG d   1      -1.638  80.904 114.933  0.00  0.00     0.028 C 
ATOM      5  C   LIG d   1      -1.638  79.425 115.303  0.00  0.00    -0.047 C 
ATOM      6  C   LIG d   1      -3.100  78.946 115.456  0.00  0.00     0.091 C 
ENDROOT
BRANCH   1   7
ATOM      7  O   LIG d   1      -5.296  79.651 116.283  0.00  0.00    -0.368 OA
BRANCH   7   8
ATOM      8  C   LIG d   1      -6.095  79.548 117.488  0.00  0.00     0.119 C 
BRANCH   8   9
ATOM      9  C   LIG d   1      -6.908  78.242 117.394  0.00  0.00     0.028 C 
ATOM     10  C   LIG d   1      -8.370  78.428 117.834  0.00  0.00     0.006 C 
ENDBRANCH   8   9
BRANCH   8  11
ATOM     11  C   LIG d   1      -7.136  80.669 117.563  0.00  0.00     0.028 C 
ATOM     12  C   LIG d   1      -6.701  81.825 118.478  0.00  0.00     0.006 C 
ENDBRANCH   8  11
ENDBRANCH   7   8
ENDBRANCH   1   7
BRANCH   6  13
ATOM     13  N   LIG d   1      -3.189  77.530 115.900  0.00  0.00    -0.311 N 
ATOM     14  C   LIG d   1      -3.623  76.543 115.118  0.00  0.00     0.210 C 
ATOM     15  C   LIG d   1      -3.654  75.161 115.778  0.00  0.00     0.109 C 
ATOM     16  O   LIG d   1      -3.954  76.675 113.930  0.00  0.00    -0.276 OA
ATOM     17  H   LIG d   1      -2.910  77.328 116.840  0.00  0.00     0.149 HD
ENDBRANCH   6  13
BRANCH   5  18
ATOM     18  N   LIG d   1      -0.900  78.702 114.250  0.00  0.00     0.381 N 
ATOM     19  H   LIG d   1      -1.519  78.473 113.498  0.00  0.00    -0.090 HD
ATOM     20  H   LIG d   1      -0.541  77.846 114.634  0.00  0.00    -0.090 HD
ATOM     21  H   LIG d   1      -0.149  79.264 113.913  0.00  0.00    -0.090 HD
ENDBRANCH   5  18
BRANCH   3  22
ATOM     22  C   LIG d   1      -2.046  83.013 115.994  0.00  0.00     0.382 C 
ATOM     23  O   LIG d   1      -2.540  83.921 115.282  0.00  0.00    -0.241 OA
ATOM     24  O   LIG d   1      -1.188  83.302 116.849  0.00  0.00    -0.241 OA
ENDBRANCH   3  22
TORSDOF 7
ENDMDL
MODEL 8
REMARK VINA RESULT:      -4.7      4.571      6.669
REMARK  7 active torsions:
REMARK  status: ('A' for Active; 'I' for Inactive)
REMARK    1  A    between atoms: C_2  and  C_3 
REMARK    2  A    between atoms: C_3  and  O_6 
REMARK    3  A    between atoms: C_3  and  C_4 
REMARK    4  A    between atoms: C_7  and  O_6 
REMARK    5  A    between atoms: C_9  and  C_10 
REMARK    6  A    between atoms: N_15  and  C_14 
REMARK    7  A    between atoms: N_20  and  C_19 
REMARK       I    between atoms: C_22  and  N_20 
ROOT
ATOM      1  C   LIG d   1      -4.913  78.215 116.726  0.00  0.00     0.161 C 
ATOM      2  C   LIG d   1      -5.784  79.164 117.287  0.00  0.00     0.016 C 
ATOM      3  C   LIG d   1      -5.492  80.547 117.349  0.00  0.00     0.038 C 
ATOM      4  C   LIG d   1      -4.369  81.096 116.713  0.00  0.00     0.028 C 
ATOM      5  C   LIG d   1      -3.211  80.114 116.573  0.00  0.00    -0.047 C 
ATOM      6  C   LIG d   1      -3.734  78.810 115.929  0.00  0.00     0.091 C 
ENDROOT
BRANCH   1   7
ATOM      7  O   LIG d   1      -5.659  77.294 115.906  0.00  0.00    -0.368 OA
BRANCH   7   8
ATOM      8  C   LIG d   1      -5.883  75.977 116.468  0.00  0.00     0.119 C 
BRANCH   8   9
ATOM      9  C   LIG d   1      -5.705  74.952 115.332  0.00  0.00     0.028 C 
ATOM     10  C   LIG d   1      -5.768  75.602 113.940  0.00  0.00     0.006 C 
ENDBRANCH   8   9
BRANCH   8  11
ATOM     11  C   LIG d   1      -7.331  75.812 116.940  0.00  0.00     0.028 C 
ATOM     12  C   LIG d   1      -7.643  74.386 117.420  0.00  0.00     0.006 C 
ENDBRANCH   8  11
ENDBRANCH   7   8
ENDBRANCH   1   7
BRANCH   6  13
ATOM     13  N   LIG d   1      -2.683  77.764 115.833  0.00  0.00    -0.311 N 
ATOM     14  C   LIG d   1      -2.368  77.143 114.697  0.00  0.00     0.210 C 
ATOM     15  C   LIG d   1      -1.269  76.083 114.823  0.00  0.00     0.109 C 
ATOM     16  O   LIG d   1      -2.871  77.393 113.592  0.00  0.00    -0.276 OA
ATOM     17  H   LIG d   1      -2.202  77.522 116.677  0.00  0.00     0.149 HD
ENDBRANCH   6  13
BRANCH   5  18
ATOM     18  N   LIG d   1      -2.161  80.773 115.773  0.00  0.00     0.381 N 
ATOM     19  H   LIG d   1      -2.566  81.498 115.215  0.00  0.00    -0.090 HD
ATOM     20  H   LIG d   1      -1.747  80.095 115.158  0.00  0.00    -0.090 HD
ATOM     21  H   LIG d   1      -1.465  81.156 116.374  0.00  0.00    -0.090 HD
ENDBRANCH   5  18
BRANCH   3  22
ATOM     22  C   LIG d   1      -6.309  81.389 118.087  0.00  0.00     0.382 C 
ATOM     23  O   LIG d   1      -7.469  81.648 117.684  0.00  0.00    -0.241 OA
ATOM     24  O   LIG d   1      -5.886  81.929 119.126  0.00  0.00    -0.241 OA
ENDBRANCH   3  22
TORSDOF 7
ENDMDL
MODEL 9
REMARK VINA RESULT:      -4.7      4.181      8.105
REMARK  7 active torsions:
REMARK  status: ('A' for Active; 'I' for Inactive)
REMARK    1  A    between atoms: C_2  and  C_3 
REMARK    2  A    between atoms: C_3  and  O_6 
REMARK    3  A    between atoms: C_3  and  C_4 
REMARK    4  A    between atoms: C_7  and  O_6 
REMARK    5  A    between atoms: C_9  and  C_10 
REMARK    6  A    between atoms: N_15  and  C_14 
REMARK    7  A    between atoms: N_20  and  C_19 
REMARK       I    between atoms: C_22  and  N_20 
ROOT
ATOM      1  C   LIG d   1      -5.028  77.705 116.747  0.00  0.00     0.161 C 
ATOM      2  C   LIG d   1      -6.335  77.335 117.104  0.00  0.00     0.016 C 
ATOM      3  C   LIG d   1      -7.318  78.260 117.525  0.00  0.00     0.038 C 
ATOM      4  C   LIG d   1      -7.103  79.645 117.474  0.00  0.00     0.028 C 
ATOM      5  C   LIG d   1      -5.635  80.036 117.601  0.00  0.00    -0.047 C 
ATOM      6  C   LIG d   1      -4.809  79.223 116.578  0.00  0.00     0.091 C 
ENDROOT
BRANCH   1   7
ATOM      7  O   LIG d   1      -4.631  77.006 115.550  0.00  0.00    -0.368 OA
BRANCH   7   8
ATOM      8  C   LIG d   1      -4.428  75.577 115.685  0.00  0.00     0.119 C 
BRANCH   8   9
ATOM      9  C   LIG d   1      -2.943  75.291 115.393  0.00  0.00     0.028 C 
ATOM     10  C   LIG d   1      -2.330  74.293 116.389  0.00  0.00     0.006 C 
ENDBRANCH   8   9
BRANCH   8  11
ATOM     11  C   LIG d   1      -5.208  74.801 114.620  0.00  0.00     0.028 C 
ATOM     12  C   LIG d   1      -5.976  75.719 113.656  0.00  0.00     0.006 C 
ENDBRANCH   8  11
ENDBRANCH   7   8
ENDBRANCH   1   7
BRANCH   6  13
ATOM     13  N   LIG d   1      -3.350  79.483 116.693  0.00  0.00    -0.311 N 
ATOM     14  C   LIG d   1      -2.617  79.996 115.707  0.00  0.00     0.210 C 
ATOM     15  C   LIG d   1      -1.128  80.164 116.028  0.00  0.00     0.109 C 
ATOM     16  O   LIG d   1      -3.064  80.359 114.608  0.00  0.00    -0.276 OA
ATOM     17  H   LIG d   1      -2.912  79.247 117.562  0.00  0.00     0.149 HD
ENDBRANCH   6  13
BRANCH   5  18
ATOM     18  N   LIG d   1      -5.541  81.493 117.393  0.00  0.00     0.381 N 
ATOM     19  H   LIG d   1      -5.012  81.908 118.134  0.00  0.00    -0.090 HD
ATOM     20  H   LIG d   1      -6.467  81.884 117.410  0.00  0.00    -0.090 HD
ATOM     21  H   LIG d   1      -5.108  81.685 116.517  0.00  0.00    -0.090 HD
ENDBRANCH   5  18
BRANCH   3  22
ATOM     22  C   LIG d   1      -8.519  77.798 118.043  0.00  0.00     0.382 C 
ATOM     23  O   LIG d   1      -9.045  78.382 119.021  0.00  0.00    -0.241 OA
ATOM     24  O   LIG d   1      -9.059  76.779 117.573  0.00  0.00    -0.241 OA
ENDBRANCH   3  22
TORSDOF 7
ENDMDL
