MODEL 1
REMARK VINA RESULT:      -4.8      0.000      0.000
REMARK  7 active torsions:
REMARK  status: ('A' for Active; 'I' for Inactive)
REMARK    1  A    between atoms: C_2  and  C_3 
REMARK    2  A    between atoms: C_3  and  O_6 
REMARK    3  A    between atoms: C_3  and  C_4 
REMARK    4  A    between atoms: C_7  and  O_6 
REMARK    5  A    between atoms: C_9  and  C_10 
REMARK    6  A    between atoms: N_15  and  C_14 
REMARK    7  A    between atoms: N_20  and  C_19 
REMARK       I    between atoms: C_22  and  N_20 
ROOT
ATOM      1  C   LIG d   1      -2.902  78.400 115.519  0.00  0.00     0.161 C 
ATOM      2  C   LIG d   1      -2.949  79.492 114.637  0.00  0.00     0.016 C 
ATOM      3  C   LIG d   1      -2.321  79.496 113.370  0.00  0.00     0.038 C 
ATOM      4  C   LIG d   1      -1.726  78.345 112.834  0.00  0.00     0.028 C 
ATOM      5  C   LIG d   1      -1.216  77.376 113.895  0.00  0.00    -0.047 C 
ATOM      6  C   LIG d   1      -2.352  77.096 114.906  0.00  0.00     0.091 C 
ENDROOT
BRANCH   1   7
ATOM      7  O   LIG d   1      -4.207  78.175 116.088  0.00  0.00    -0.368 OA
BRANCH   7   8
ATOM      8  C   LIG d   1      -4.629  79.114 117.107  0.00  0.00     0.119 C 
BRANCH   8   9
ATOM      9  C   LIG d   1      -3.777  78.848 118.364  0.00  0.00     0.028 C 
ATOM     10  C   LIG d   1      -3.177  80.137 118.950  0.00  0.00     0.006 C 
ENDBRANCH   8   9
BRANCH   8  11
ATOM     11  C   LIG d   1      -6.076  78.857 117.537  0.00  0.00     0.028 C 
ATOM     12  C   LIG d   1      -6.816  80.143 117.938  0.00  0.00     0.006 C 
ENDBRANCH   8  11
ENDBRANCH   7   8
ENDBRANCH   1   7
BRANCH   6  13
ATOM     13  N   LIG d   1      -1.912  76.222 116.025  0.00  0.00    -0.311 N 
ATOM     14  C   LIG d   1      -2.048  74.898 116.018  0.00  0.00     0.210 C 
ATOM     15  C   LIG d   1      -1.547  74.190 117.281  0.00  0.00     0.109 C 
ATOM     16  O   LIG d   1      -2.508  74.239 115.074  0.00  0.00    -0.276 OA
ATOM     17  H   LIG d   1      -1.499  76.672 116.819  0.00  0.00     0.149 HD
ENDBRANCH   6  13
BRANCH   5  18
ATOM     18  N   LIG d   1      -0.746  76.162 113.201  0.00  0.00     0.381 N 
ATOM     19  H   LIG d   1      -0.441  76.396 112.278  0.00  0.00    -0.090 HD
ATOM     20  H   LIG d   1      -1.511  75.514 113.126  0.00  0.00    -0.090 HD
ATOM     21  H   LIG d   1       0.002  75.746 113.711  0.00  0.00    -0.090 HD
ENDBRANCH   5  18
BRANCH   3  22
ATOM     22  C   LIG d   1      -2.250  80.675 112.643  0.00  0.00     0.382 C 
ATOM     23  O   LIG d   1      -3.286  81.353 112.444  0.00  0.00    -0.241 OA
ATOM     24  O   LIG d   1      -1.170  81.045 112.145  0.00  0.00    -0.241 OA
ENDBRANCH   3  22
TORSDOF 7
ENDMDL
MODEL 2
REMARK VINA RESULT:      -4.7      0.351      1.450
REMARK  7 active torsions:
REMARK  status: ('A' for Active; 'I' for Inactive)
REMARK    1  A    between atoms: C_2  and  C_3 
REMARK    2  A    between atoms: C_3  and  O_6 
REMARK    3  A    between atoms: C_3  and  C_4 
REMARK    4  A    between atoms: C_7  and  O_6 
REMARK    5  A    between atoms: C_9  and  C_10 
REMARK    6  A    between atoms: N_15  and  C_14 
REMARK    7  A    between atoms: N_20  and  C_19 
REMARK       I    between atoms: C_22  and  N_20 
ROOT
ATOM      1  C   LIG d   1      -2.932  78.384 115.526  0.00  0.00     0.161 C 
ATOM      2  C   LIG d   1      -2.979  79.478 114.646  0.00  0.00     0.016 C 
ATOM      3  C   LIG d   1      -2.340  79.491 113.385  0.00  0.00     0.038 C 
ATOM      4  C   LIG d   1      -1.730  78.346 112.851  0.00  0.00     0.028 C 
ATOM      5  C   LIG d   1      -1.223  77.378 113.915  0.00  0.00    -0.047 C 
ATOM      6  C   LIG d   1      -2.365  77.086 114.914  0.00  0.00     0.091 C 
ENDROOT
BRANCH   1   7
ATOM      7  O   LIG d   1      -4.240  78.147 116.082  0.00  0.00    -0.368 OA
BRANCH   7   8
ATOM      8  C   LIG d   1      -4.424  78.531 117.467  0.00  0.00     0.119 C 
BRANCH   8   9
ATOM      9  C   LIG d   1      -5.188  79.870 117.478  0.00  0.00     0.028 C 
ATOM     10  C   LIG d   1      -6.662  79.700 117.882  0.00  0.00     0.006 C 
ENDBRANCH   8   9
BRANCH   8  11
ATOM     11  C   LIG d   1      -3.083  78.824 118.146  0.00  0.00     0.028 C 
ATOM     12  C   LIG d   1      -3.084  80.152 118.920  0.00  0.00     0.006 C 
ENDBRANCH   8  11
ENDBRANCH   7   8
ENDBRANCH   1   7
BRANCH   6  13
ATOM     13  N   LIG d   1      -1.929  76.213 116.035  0.00  0.00    -0.311 N 
ATOM     14  C   LIG d   1      -2.057  74.888 116.024  0.00  0.00     0.210 C 
ATOM     15  C   LIG d   1      -1.561  74.180 117.289  0.00  0.00     0.109 C 
ATOM     16  O   LIG d   1      -2.505  74.228 115.074  0.00  0.00    -0.276 OA
ATOM     17  H   LIG d   1      -1.526  76.663 116.833  0.00  0.00     0.149 HD
ENDBRANCH   6  13
BRANCH   5  18
ATOM     18  N   LIG d   1      -0.737  76.170 113.222  0.00  0.00     0.381 N 
ATOM     19  H   LIG d   1      -1.082  75.353 113.684  0.00  0.00    -0.090 HD
ATOM     20  H   LIG d   1       0.267  76.154 113.261  0.00  0.00    -0.090 HD
ATOM     21  H   LIG d   1      -1.039  76.176 112.273  0.00  0.00    -0.090 HD
ENDBRANCH   5  18
BRANCH   3  22
ATOM     22  C   LIG d   1      -2.271  80.672 112.662  0.00  0.00     0.382 C 
ATOM     23  O   LIG d   1      -3.310  81.347 112.463  0.00  0.00    -0.241 OA
ATOM     24  O   LIG d   1      -1.191  81.049 112.168  0.00  0.00    -0.241 OA
ENDBRANCH   3  22
TORSDOF 7
ENDMDL
MODEL 3
REMARK VINA RESULT:      -4.6      2.609      3.347
REMARK  7 active torsions:
REMARK  status: ('A' for Active; 'I' for Inactive)
REMARK    1  A    between atoms: C_2  and  C_3 
REMARK    2  A    between atoms: C_3  and  O_6 
REMARK    3  A    between atoms: C_3  and  C_4 
REMARK    4  A    between atoms: C_7  and  O_6 
REMARK    5  A    between atoms: C_9  and  C_10 
REMARK    6  A    between atoms: N_15  and  C_14 
REMARK    7  A    between atoms: N_20  and  C_19 
REMARK       I    between atoms: C_22  and  N_20 
ROOT
ATOM      1  C   LIG d   1      -2.728  76.697 115.275  0.00  0.00     0.161 C 
ATOM      2  C   LIG d   1      -2.890  77.578 114.193  0.00  0.00     0.016 C 
ATOM      3  C   LIG d   1      -1.967  78.601 113.877  0.00  0.00     0.038 C 
ATOM      4  C   LIG d   1      -0.734  78.716 114.537  0.00  0.00     0.028 C 
ATOM      5  C   LIG d   1      -0.755  78.169 115.960  0.00  0.00    -0.047 C 
ATOM      6  C   LIG d   1      -1.335  76.736 115.938  0.00  0.00     0.091 C 
ENDROOT
BRANCH   1   7
ATOM      7  O   LIG d   1      -3.049  75.353 114.864  0.00  0.00    -0.368 OA
BRANCH   7   8
ATOM      8  C   LIG d   1      -4.261  74.788 115.422  0.00  0.00     0.119 C 
BRANCH   8   9
ATOM      9  C   LIG d   1      -5.372  74.937 114.364  0.00  0.00     0.028 C 
ATOM     10  C   LIG d   1      -6.414  75.999 114.754  0.00  0.00     0.006 C 
ENDBRANCH   8   9
BRANCH   8  11
ATOM     11  C   LIG d   1      -4.744  75.591 116.633  0.00  0.00     0.028 C 
ATOM     12  C   LIG d   1      -4.826  74.746 117.914  0.00  0.00     0.006 C 
ENDBRANCH   8  11
ENDBRANCH   7   8
ENDBRANCH   1   7
BRANCH   6  13
ATOM     13  N   LIG d   1      -1.469  76.158 117.300  0.00  0.00    -0.311 N 
ATOM     14  C   LIG d   1      -0.977  74.969 117.644  0.00  0.00     0.210 C 
ATOM     15  C   LIG d   1      -1.244  74.553 119.094  0.00  0.00     0.109 C 
ATOM     16  O   LIG d   1      -0.317  74.233 116.895  0.00  0.00    -0.276 OA
ATOM     17  H   LIG d   1      -1.964  76.702 117.980  0.00  0.00     0.149 HD
ENDBRANCH   6  13
BRANCH   5  18
ATOM     18  N   LIG d   1       0.625  78.226 116.480  0.00  0.00     0.381 N 
ATOM     19  H   LIG d   1       0.664  78.840 117.268  0.00  0.00    -0.090 HD
ATOM     20  H   LIG d   1       1.227  78.593 115.764  0.00  0.00    -0.090 HD
ATOM     21  H   LIG d   1       0.928  77.314 116.743  0.00  0.00    -0.090 HD
ENDBRANCH   5  18
BRANCH   3  22
ATOM     22  C   LIG d   1      -2.291  79.547 112.917  0.00  0.00     0.382 C 
ATOM     23  O   LIG d   1      -1.766  79.492 111.779  0.00  0.00    -0.241 OA
ATOM     24  O   LIG d   1      -3.069  80.482 113.189  0.00  0.00    -0.241 OA
ENDBRANCH   3  22
TORSDOF 7
ENDMDL
MODEL 4
REMARK VINA RESULT:      -4.3      2.761      4.444
REMARK  7 active torsions:
REMARK  status: ('A' for Active; 'I' for Inactive)
REMARK    1  A    between atoms: C_2  and  C_3 
REMARK    2  A    between atoms: C_3  and  O_6 
REMARK    3  A    between atoms: C_3  and  C_4 
REMARK    4  A    between atoms: C_7  and  O_6 
REMARK    5  A    between atoms: C_9  and  C_10 
REMARK    6  A    between atoms: N_15  and  C_14 
REMARK    7  A    between atoms: N_20  and  C_19 
REMARK       I    between atoms: C_22  and  N_20 
ROOT
ATOM      1  C   LIG d   1      -3.441  76.367 116.962  0.00  0.00     0.161 C 
ATOM      2  C   LIG d   1      -4.392  77.297 117.414  0.00  0.00     0.016 C 
ATOM      3  C   LIG d   1      -4.363  78.668 117.072  0.00  0.00     0.038 C 
ATOM      4  C   LIG d   1      -3.461  79.178 116.126  0.00  0.00     0.028 C 
ATOM      5  C   LIG d   1      -2.167  78.376 116.031  0.00  0.00    -0.047 C 
ATOM      6  C   LIG d   1      -2.514  76.882 115.841  0.00  0.00     0.091 C 
ENDROOT
BRANCH   1   7
ATOM      7  O   LIG d   1      -4.101  75.154 116.549  0.00  0.00    -0.368 OA
BRANCH   7   8
ATOM      8  C   LIG d   1      -5.390  75.317 115.908  0.00  0.00     0.119 C 
BRANCH   8   9
ATOM      9  C   LIG d   1      -6.349  74.283 116.529  0.00  0.00     0.028 C 
ATOM     10  C   LIG d   1      -7.720  74.888 116.876  0.00  0.00     0.006 C 
ENDBRANCH   8   9
BRANCH   8  11
ATOM     11  C   LIG d   1      -5.322  74.964 114.420  0.00  0.00     0.028 C 
ATOM     12  C   LIG d   1      -6.095  75.956 113.536  0.00  0.00     0.006 C 
ENDBRANCH   8  11
ENDBRANCH   7   8
ENDBRANCH   1   7
BRANCH   6  13
ATOM     13  N   LIG d   1      -1.306  76.017 115.823  0.00  0.00    -0.311 N 
ATOM     14  C   LIG d   1      -0.694  75.636 114.703  0.00  0.00     0.210 C 
ATOM     15  C   LIG d   1       0.522  74.728 114.907  0.00  0.00     0.109 C 
ATOM     16  O   LIG d   1      -1.024  75.990 113.561  0.00  0.00    -0.276 OA
ATOM     17  H   LIG d   1      -0.952  75.709 116.707  0.00  0.00     0.149 HD
ENDBRANCH   6  13
BRANCH   5  18
ATOM     18  N   LIG d   1      -1.379  78.933 114.915  0.00  0.00     0.381 N 
ATOM     19  H   LIG d   1      -0.872  79.737 115.226  0.00  0.00    -0.090 HD
ATOM     20  H   LIG d   1      -2.007  79.220 114.185  0.00  0.00    -0.090 HD
ATOM     21  H   LIG d   1      -0.747  78.246 114.568  0.00  0.00    -0.090 HD
ENDBRANCH   5  18
BRANCH   3  22
ATOM     22  C   LIG d   1      -5.219  79.554 117.709  0.00  0.00     0.382 C 
ATOM     23  O   LIG d   1      -6.412  79.652 117.335  0.00  0.00    -0.241 OA
ATOM     24  O   LIG d   1      -4.801  80.288 118.625  0.00  0.00    -0.241 OA
ENDBRANCH   3  22
TORSDOF 7
ENDMDL
MODEL 5
REMARK VINA RESULT:      -4.3      2.763      5.331
REMARK  7 active torsions:
REMARK  status: ('A' for Active; 'I' for Inactive)
REMARK    1  A    between atoms: C_2  and  C_3 
REMARK    2  A    between atoms: C_3  and  O_6 
REMARK    3  A    between atoms: C_3  and  C_4 
REMARK    4  A    between atoms: C_7  and  O_6 
REMARK    5  A    between atoms: C_9  and  C_10 
REMARK    6  A    between atoms: N_15  and  C_14 
REMARK    7  A    between atoms: N_20  and  C_19 
REMARK       I    between atoms: C_22  and  N_20 
ROOT
ATOM      1  C   LIG d   1      -1.262  79.477 114.407  0.00  0.00     0.161 C 
ATOM      2  C   LIG d   1      -2.155  78.415 114.629  0.00  0.00     0.016 C 
ATOM      3  C   LIG d   1      -2.655  77.590 113.595  0.00  0.00     0.038 C 
ATOM      4  C   LIG d   1      -2.176  77.676 112.280  0.00  0.00     0.028 C 
ATOM      5  C   LIG d   1      -1.651  79.061 111.916  0.00  0.00    -0.047 C 
ATOM      6  C   LIG d   1      -0.641  79.515 112.995  0.00  0.00     0.091 C 
ENDROOT
BRANCH   1   7
ATOM      7  O   LIG d   1      -0.226  79.461 115.409  0.00  0.00    -0.368 OA
BRANCH   7   8
ATOM      8  C   LIG d   1      -0.548  78.783 116.648  0.00  0.00     0.119 C 
BRANCH   8   9
ATOM      9  C   LIG d   1      -0.648  79.855 117.750  0.00  0.00     0.028 C 
ATOM     10  C   LIG d   1      -1.984  79.793 118.510  0.00  0.00     0.006 C 
ENDBRANCH   8   9
BRANCH   8  11
ATOM     11  C   LIG d   1       0.589  77.855 117.087  0.00  0.00     0.028 C 
ATOM     12  C   LIG d   1       0.215  76.368 116.993  0.00  0.00     0.006 C 
ENDBRANCH   8  11
ENDBRANCH   7   8
ENDBRANCH   1   7
BRANCH   6  13
ATOM     13  N   LIG d   1      -0.143  80.896 112.760  0.00  0.00    -0.311 N 
ATOM     14  C   LIG d   1      -0.899  81.873 112.261  0.00  0.00     0.210 C 
ATOM     15  C   LIG d   1      -0.183  83.215 112.080  0.00  0.00     0.109 C 
ATOM     16  O   LIG d   1      -2.102  81.763 111.981  0.00  0.00    -0.276 OA
ATOM     17  H   LIG d   1       0.814  81.080 112.989  0.00  0.00     0.149 HD
ENDBRANCH   6  13
BRANCH   5  18
ATOM     18  N   LIG d   1      -1.058  78.973 110.568  0.00  0.00     0.381 N 
ATOM     19  H   LIG d   1      -1.733  78.615 109.923  0.00  0.00    -0.090 HD
ATOM     20  H   LIG d   1      -0.280  78.337 110.597  0.00  0.00    -0.090 HD
ATOM     21  H   LIG d   1      -0.750  79.873 110.272  0.00  0.00    -0.090 HD
ENDBRANCH   5  18
BRANCH   3  22
ATOM     22  C   LIG d   1      -3.677  76.692 113.866  0.00  0.00     0.382 C 
ATOM     23  O   LIG d   1      -3.534  75.835 114.771  0.00  0.00    -0.241 OA
ATOM     24  O   LIG d   1      -4.721  76.700 113.188  0.00  0.00    -0.241 OA
ENDBRANCH   3  22
TORSDOF 7
ENDMDL
MODEL 6
REMARK VINA RESULT:      -4.2      2.666      5.711
REMARK  7 active torsions:
REMARK  status: ('A' for Active; 'I' for Inactive)
REMARK    1  A    between atoms: C_2  and  C_3 
REMARK    2  A    between atoms: C_3  and  O_6 
REMARK    3  A    between atoms: C_3  and  C_4 
REMARK    4  A    between atoms: C_7  and  O_6 
REMARK    5  A    between atoms: C_9  and  C_10 
REMARK    6  A    between atoms: N_15  and  C_14 
REMARK    7  A    between atoms: N_20  and  C_19 
REMARK       I    between atoms: C_22  and  N_20 
ROOT
ATOM      1  C   LIG d   1      -1.749  75.288 115.428  0.00  0.00     0.161 C 
ATOM      2  C   LIG d   1      -1.459  74.747 116.691  0.00  0.00     0.016 C 
ATOM      3  C   LIG d   1      -0.995  75.520 117.780  0.00  0.00     0.038 C 
ATOM      4  C   LIG d   1      -0.932  76.920 117.723  0.00  0.00     0.028 C 
ATOM      5  C   LIG d   1      -0.733  77.460 116.310  0.00  0.00    -0.047 C 
ATOM      6  C   LIG d   1      -1.792  76.830 115.378  0.00  0.00     0.091 C 
ENDROOT
BRANCH   1   7
ATOM      7  O   LIG d   1      -2.984  74.736 114.931  0.00  0.00    -0.368 OA
BRANCH   7   8
ATOM      8  C   LIG d   1      -4.201  75.315 115.464  0.00  0.00     0.119 C 
BRANCH   8   9
ATOM      9  C   LIG d   1      -4.997  74.181 116.137  0.00  0.00     0.028 C 
ATOM     10  C   LIG d   1      -4.919  74.239 117.672  0.00  0.00     0.006 C 
ENDBRANCH   8   9
BRANCH   8  11
ATOM     11  C   LIG d   1      -5.106  75.837 114.345  0.00  0.00     0.028 C 
ATOM     12  C   LIG d   1      -6.574  75.972 114.780  0.00  0.00     0.006 C 
ENDBRANCH   8  11
ENDBRANCH   7   8
ENDBRANCH   1   7
BRANCH   6  13
ATOM     13  N   LIG d   1      -1.616  77.240 113.961  0.00  0.00    -0.311 N 
ATOM     14  C   LIG d   1      -2.272  78.257 113.404  0.00  0.00     0.210 C 
ATOM     15  C   LIG d   1      -1.957  78.497 111.925  0.00  0.00     0.109 C 
ATOM     16  O   LIG d   1      -3.061  79.002 114.004  0.00  0.00    -0.276 OA
ATOM     17  H   LIG d   1      -0.971  76.708 113.409  0.00  0.00     0.149 HD
ENDBRANCH   6  13
BRANCH   5  18
ATOM     18  N   LIG d   1      -0.823  78.931 116.378  0.00  0.00     0.381 N 
ATOM     19  H   LIG d   1      -0.173  79.279 117.054  0.00  0.00    -0.090 HD
ATOM     20  H   LIG d   1      -1.750  79.186 116.672  0.00  0.00    -0.090 HD
ATOM     21  H   LIG d   1      -0.629  79.326 115.485  0.00  0.00    -0.090 HD
ENDBRANCH   5  18
BRANCH   3  22
ATOM     22  C   LIG d   1      -0.549  74.888 118.931  0.00  0.00     0.382 C 
ATOM     23  O   LIG d   1       0.682  74.791 119.157  0.00  0.00    -0.241 OA
ATOM     24  O   LIG d   1      -1.360  74.373 119.724  0.00  0.00    -0.241 OA
ENDBRANCH   3  22
TORSDOF 7
ENDMDL
MODEL 7
REMARK VINA RESULT:      -4.1      3.759      5.316
REMARK  7 active torsions:
REMARK  status: ('A' for Active; 'I' for Inactive)
REMARK    1  A    between atoms: C_2  and  C_3 
REMARK    2  A    between atoms: C_3  and  O_6 
REMARK    3  A    between atoms: C_3  and  C_4 
REMARK    4  A    between atoms: C_7  and  O_6 
REMARK    5  A    between atoms: C_9  and  C_10 
REMARK    6  A    between atoms: N_15  and  C_14 
REMARK    7  A    between atoms: N_20  and  C_19 
REMARK       I    between atoms: C_22  and  N_20 
ROOT
ATOM      1  C   LIG d   1      -5.370  77.674 117.258  0.00  0.00     0.161 C 
ATOM      2  C   LIG d   1      -6.081  78.886 117.287  0.00  0.00     0.016 C 
ATOM      3  C   LIG d   1      -5.712  79.985 118.097  0.00  0.00     0.038 C 
ATOM      4  C   LIG d   1      -4.513  80.001 118.823  0.00  0.00     0.028 C 
ATOM      5  C   LIG d   1      -4.025  78.611 119.218  0.00  0.00    -0.047 C 
ATOM      6  C   LIG d   1      -3.997  77.713 117.960  0.00  0.00     0.091 C 
ENDROOT
BRANCH   1   7
ATOM      7  O   LIG d   1      -5.224  77.226 115.896  0.00  0.00    -0.368 OA
BRANCH   7   8
ATOM      8  C   LIG d   1      -6.260  76.341 115.402  0.00  0.00     0.119 C 
BRANCH   8   9
ATOM      9  C   LIG d   1      -6.712  75.455 116.579  0.00  0.00     0.028 C 
ATOM     10  C   LIG d   1      -8.238  75.268 116.621  0.00  0.00     0.006 C 
ENDBRANCH   8   9
BRANCH   8  11
ATOM     11  C   LIG d   1      -5.709  75.371 114.352  0.00  0.00     0.028 C 
ATOM     12  C   LIG d   1      -4.964  74.180 114.974  0.00  0.00     0.006 C 
ENDBRANCH   8  11
ENDBRANCH   7   8
ENDBRANCH   1   7
BRANCH   6  13
ATOM     13  N   LIG d   1      -3.611  76.312 118.272  0.00  0.00    -0.311 N 
ATOM     14  C   LIG d   1      -2.737  75.614 117.548  0.00  0.00     0.210 C 
ATOM     15  C   LIG d   1      -2.497  74.180 118.032  0.00  0.00     0.109 C 
ATOM     16  O   LIG d   1      -2.115  76.056 116.571  0.00  0.00    -0.276 OA
ATOM     17  H   LIG d   1      -4.045  75.886 119.067  0.00  0.00     0.149 HD
ENDBRANCH   6  13
BRANCH   5  18
ATOM     18  N   LIG d   1      -2.700  78.766 119.847  0.00  0.00     0.381 N 
ATOM     19  H   LIG d   1      -2.805  79.132 120.773  0.00  0.00    -0.090 HD
ATOM     20  H   LIG d   1      -2.159  79.420 119.309  0.00  0.00    -0.090 HD
ATOM     21  H   LIG d   1      -2.233  77.886 119.881  0.00  0.00    -0.090 HD
ENDBRANCH   5  18
BRANCH   3  22
ATOM     22  C   LIG d   1      -6.569  81.068 118.215  0.00  0.00     0.382 C 
ATOM     23  O   LIG d   1      -6.942  81.688 117.190  0.00  0.00    -0.241 OA
ATOM     24  O   LIG d   1      -6.938  81.462 119.338  0.00  0.00    -0.241 OA
ENDBRANCH   3  22
TORSDOF 7
ENDMDL
MODEL 8
REMARK VINA RESULT:      -4.0      2.932      4.149
REMARK  7 active torsions:
REMARK  status: ('A' for Active; 'I' for Inactive)
REMARK    1  A    between atoms: C_2  and  C_3 
REMARK    2  A    between atoms: C_3  and  O_6 
REMARK    3  A    between atoms: C_3  and  C_4 
REMARK    4  A    between atoms: C_7  and  O_6 
REMARK    5  A    between atoms: C_9  and  C_10 
REMARK    6  A    between atoms: N_15  and  C_14 
REMARK    7  A    between atoms: N_20  and  C_19 
REMARK       I    between atoms: C_22  and  N_20 
ROOT
ATOM      1  C   LIG d   1      -4.866  78.603 117.245  0.00  0.00     0.161 C 
ATOM      2  C   LIG d   1      -3.585  79.178 117.299  0.00  0.00     0.016 C 
ATOM      3  C   LIG d   1      -2.433  78.566 116.753  0.00  0.00     0.038 C 
ATOM      4  C   LIG d   1      -2.511  77.398 115.979  0.00  0.00     0.028 C 
ATOM      5  C   LIG d   1      -3.707  76.519 116.326  0.00  0.00    -0.047 C 
ATOM      6  C   LIG d   1      -4.988  77.384 116.307  0.00  0.00     0.091 C 
ENDROOT
BRANCH   1   7
ATOM      7  O   LIG d   1      -5.838  79.607 116.891  0.00  0.00    -0.368 OA
BRANCH   7   8
ATOM      8  C   LIG d   1      -6.562  80.208 117.992  0.00  0.00     0.119 C 
BRANCH   8   9
ATOM      9  C   LIG d   1      -7.921  79.489 118.099  0.00  0.00     0.028 C 
ATOM     10  C   LIG d   1      -7.978  78.515 119.288  0.00  0.00     0.006 C 
ENDBRANCH   8   9
BRANCH   8  11
ATOM     11  C   LIG d   1      -6.901  81.673 117.702  0.00  0.00     0.028 C 
ATOM     12  C   LIG d   1      -8.414  81.939 117.660  0.00  0.00     0.006 C 
ENDBRANCH   8  11
ENDBRANCH   7   8
ENDBRANCH   1   7
BRANCH   6  13
ATOM     13  N   LIG d   1      -6.194  76.619 116.718  0.00  0.00    -0.311 N 
ATOM     14  C   LIG d   1      -7.011  76.019 115.855  0.00  0.00     0.210 C 
ATOM     15  C   LIG d   1      -8.208  75.301 116.488  0.00  0.00     0.109 C 
ATOM     16  O   LIG d   1      -6.842  75.985 114.627  0.00  0.00    -0.276 OA
ATOM     17  H   LIG d   1      -6.390  76.569 117.699  0.00  0.00     0.149 HD
ENDBRANCH   6  13
BRANCH   5  18
ATOM     18  N   LIG d   1      -3.743  75.411 115.354  0.00  0.00     0.381 N 
ATOM     19  H   LIG d   1      -4.587  75.456 114.819  0.00  0.00    -0.090 HD
ATOM     20  H   LIG d   1      -3.733  74.539 115.853  0.00  0.00    -0.090 HD
ATOM     21  H   LIG d   1      -2.954  75.463 114.747  0.00  0.00    -0.090 HD
ENDBRANCH   5  18
BRANCH   3  22
ATOM     22  C   LIG d   1      -1.181  79.101 117.015  0.00  0.00     0.382 C 
ATOM     23  O   LIG d   1      -0.409  79.382 116.067  0.00  0.00    -0.241 OA
ATOM     24  O   LIG d   1      -0.797  79.264 118.188  0.00  0.00    -0.241 OA
ENDBRANCH   3  22
TORSDOF 7
ENDMDL
MODEL 9
REMARK VINA RESULT:      -4.0      2.612      5.354
REMARK  7 active torsions:
REMARK  status: ('A' for Active; 'I' for Inactive)
REMARK    1  A    between atoms: C_2  and  C_3 
REMARK    2  A    between atoms: C_3  and  O_6 
REMARK    3  A    between atoms: C_3  and  C_4 
REMARK    4  A    between atoms: C_7  and  O_6 
REMARK    5  A    between atoms: C_9  and  C_10 
REMARK    6  A    between atoms: N_15  and  C_14 
REMARK    7  A    between atoms: N_20  and  C_19 
REMARK       I    between atoms: C_22  and  N_20 
ROOT
ATOM      1  C   LIG d   1      -5.163  77.456 116.259  0.00  0.00     0.161 C 
ATOM      2  C   LIG d   1      -5.997  76.931 117.260  0.00  0.00     0.016 C 
ATOM      3  C   LIG d   1      -5.816  75.650 117.831  0.00  0.00     0.038 C 
ATOM      4  C   LIG d   1      -4.690  74.864 117.545  0.00  0.00     0.028 C 
ATOM      5  C   LIG d   1      -4.093  75.138 116.168  0.00  0.00    -0.047 C 
ATOM      6  C   LIG d   1      -3.865  76.659 116.014  0.00  0.00     0.091 C 
ENDROOT
BRANCH   1   7
ATOM      7  O   LIG d   1      -4.857  78.834 116.552  0.00  0.00    -0.368 OA
BRANCH   7   8
ATOM      8  C   LIG d   1      -5.179  79.288 117.889  0.00  0.00     0.119 C 
BRANCH   8   9
ATOM      9  C   LIG d   1      -6.042  80.557 117.753  0.00  0.00     0.028 C 
ATOM     10  C   LIG d   1      -7.522  80.298 118.082  0.00  0.00     0.006 C 
ENDBRANCH   8   9
BRANCH   8  11
ATOM     11  C   LIG d   1      -3.922  79.732 118.644  0.00  0.00     0.028 C 
ATOM     12  C   LIG d   1      -4.157  80.981 119.509  0.00  0.00     0.006 C 
ENDBRANCH   8  11
ENDBRANCH   7   8
ENDBRANCH   1   7
BRANCH   6  13
ATOM     13  N   LIG d   1      -3.362  77.022 114.663  0.00  0.00    -0.311 N 
ATOM     14  C   LIG d   1      -2.070  77.181 114.381  0.00  0.00     0.210 C 
ATOM     15  C   LIG d   1      -1.770  77.576 112.931  0.00  0.00     0.109 C 
ATOM     16  O   LIG d   1      -1.143  77.001 115.184  0.00  0.00    -0.276 OA
ATOM     17  H   LIG d   1      -4.045  77.157 113.943  0.00  0.00     0.149 HD
ENDBRANCH   6  13
BRANCH   5  18
ATOM     18  N   LIG d   1      -2.849  74.353 116.057  0.00  0.00     0.381 N 
ATOM     19  H   LIG d   1      -2.146  74.747 116.649  0.00  0.00    -0.090 HD
ATOM     20  H   LIG d   1      -2.523  74.394 115.108  0.00  0.00    -0.090 HD
ATOM     21  H   LIG d   1      -3.020  73.406 116.317  0.00  0.00    -0.090 HD
ENDBRANCH   5  18
BRANCH   3  22
ATOM     22  C   LIG d   1      -6.788  75.127 118.669  0.00  0.00     0.382 C 
ATOM     23  O   LIG d   1      -6.454  74.450 119.671  0.00  0.00    -0.241 OA
ATOM     24  O   LIG d   1      -7.997  75.287 118.412  0.00  0.00    -0.241 OA
ENDBRANCH   3  22
TORSDOF 7
ENDMDL
