MODEL 1
REMARK VINA RESULT:      -5.0      0.000      0.000
REMARK  7 active torsions:
REMARK  status: ('A' for Active; 'I' for Inactive)
REMARK    1  A    between atoms: C_2  and  C_3 
REMARK    2  A    between atoms: C_3  and  O_6 
REMARK    3  A    between atoms: C_3  and  C_4 
REMARK    4  A    between atoms: C_7  and  O_6 
REMARK    5  A    between atoms: C_9  and  C_10 
REMARK    6  A    between atoms: N_15  and  C_14 
REMARK    7  A    between atoms: N_20  and  C_19 
REMARK       I    between atoms: C_22  and  N_20 
ROOT
ATOM      1  C   LIG d   1      -3.044  77.336 114.679  0.00  0.00     0.161 C 
ATOM      2  C   LIG d   1      -3.183  78.349 113.715  0.00  0.00     0.016 C 
ATOM      3  C   LIG d   1      -2.150  79.256 113.385  0.00  0.00     0.038 C 
ATOM      4  C   LIG d   1      -0.849  79.115 113.891  0.00  0.00     0.028 C 
ATOM      5  C   LIG d   1      -0.800  78.418 115.247  0.00  0.00    -0.047 C 
ATOM      6  C   LIG d   1      -1.598  77.097 115.161  0.00  0.00     0.091 C 
ENDROOT
BRANCH   1   7
ATOM      7  O   LIG d   1      -3.616  76.109 114.184  0.00  0.00    -0.368 OA
BRANCH   7   8
ATOM      8  C   LIG d   1      -4.856  75.689 114.805  0.00  0.00     0.119 C 
BRANCH   8   9
ATOM      9  C   LIG d   1      -4.636  74.271 115.366  0.00  0.00     0.028 C 
ATOM     10  C   LIG d   1      -4.934  74.182 116.872  0.00  0.00     0.006 C 
ENDBRANCH   8   9
BRANCH   8  11
ATOM     11  C   LIG d   1      -5.977  75.546 113.771  0.00  0.00     0.028 C 
ATOM     12  C   LIG d   1      -7.376  75.728 114.380  0.00  0.00     0.006 C 
ENDBRANCH   8  11
ENDBRANCH   7   8
ENDBRANCH   1   7
BRANCH   6  13
ATOM     13  N   LIG d   1      -1.671  76.393 116.468  0.00  0.00    -0.311 N 
ATOM     14  C   LIG d   1      -1.206  75.160 116.664  0.00  0.00     0.210 C 
ATOM     15  C   LIG d   1      -1.400  74.614 118.082  0.00  0.00     0.109 C 
ATOM     16  O   LIG d   1      -0.623  74.480 115.806  0.00  0.00    -0.276 OA
ATOM     17  H   LIG d   1      -2.100  76.884 117.228  0.00  0.00     0.149 HD
ENDBRANCH   6  13
BRANCH   5  18
ATOM     18  N   LIG d   1       0.620  78.215 115.592  0.00  0.00     0.381 N 
ATOM     19  H   LIG d   1       0.709  78.046 116.574  0.00  0.00    -0.090 HD
ATOM     20  H   LIG d   1       1.132  79.050 115.367  0.00  0.00    -0.090 HD
ATOM     21  H   LIG d   1       0.988  77.443 115.080  0.00  0.00    -0.090 HD
ENDBRANCH   5  18
BRANCH   3  22
ATOM     22  C   LIG d   1      -2.425  80.343 112.568  0.00  0.00     0.382 C 
ATOM     23  O   LIG d   1      -3.573  80.848 112.562  0.00  0.00    -0.241 OA
ATOM     24  O   LIG d   1      -1.551  80.797 111.805  0.00  0.00    -0.241 OA
ENDBRANCH   3  22
TORSDOF 7
ENDMDL
MODEL 2
REMARK VINA RESULT:      -4.6      1.050      1.847
REMARK  7 active torsions:
REMARK  status: ('A' for Active; 'I' for Inactive)
REMARK    1  A    between atoms: C_2  and  C_3 
REMARK    2  A    between atoms: C_3  and  O_6 
REMARK    3  A    between atoms: C_3  and  C_4 
REMARK    4  A    between atoms: C_7  and  O_6 
REMARK    5  A    between atoms: C_9  and  C_10 
REMARK    6  A    between atoms: N_15  and  C_14 
REMARK    7  A    between atoms: N_20  and  C_19 
REMARK       I    between atoms: C_22  and  N_20 
ROOT
ATOM      1  C   LIG d   1      -3.042  76.265 115.103  0.00  0.00     0.161 C 
ATOM      2  C   LIG d   1      -3.218  77.197 114.067  0.00  0.00     0.016 C 
ATOM      3  C   LIG d   1      -2.263  78.188 113.742  0.00  0.00     0.038 C 
ATOM      4  C   LIG d   1      -0.993  78.217 114.336  0.00  0.00     0.028 C 
ATOM      5  C   LIG d   1      -0.965  77.612 115.736  0.00  0.00    -0.047 C 
ATOM      6  C   LIG d   1      -1.616  76.211 115.690  0.00  0.00     0.091 C 
ENDROOT
BRANCH   1   7
ATOM      7  O   LIG d   1      -3.451  74.956 114.658  0.00  0.00    -0.368 OA
BRANCH   7   8
ATOM      8  C   LIG d   1      -4.624  74.401 115.301  0.00  0.00     0.119 C 
BRANCH   8   9
ATOM      9  C   LIG d   1      -5.737  74.315 114.239  0.00  0.00     0.028 C 
ATOM     10  C   LIG d   1      -6.640  75.561 114.233  0.00  0.00     0.006 C 
ENDBRANCH   8   9
BRANCH   8  11
ATOM     11  C   LIG d   1      -5.166  75.343 116.381  0.00  0.00     0.028 C 
ATOM     12  C   LIG d   1      -5.191  74.699 117.776  0.00  0.00     0.006 C 
ENDBRANCH   8  11
ENDBRANCH   7   8
ENDBRANCH   1   7
BRANCH   6  13
ATOM     13  N   LIG d   1      -1.706  75.583 117.034  0.00  0.00    -0.311 N 
ATOM     14  C   LIG d   1      -0.799  74.729 117.506  0.00  0.00     0.210 C 
ATOM     15  C   LIG d   1      -1.093  74.183 118.907  0.00  0.00     0.109 C 
ATOM     16  O   LIG d   1       0.237  74.396 116.911  0.00  0.00    -0.276 OA
ATOM     17  H   LIG d   1      -2.499  75.822 117.597  0.00  0.00     0.149 HD
ENDBRANCH   6  13
BRANCH   5  18
ATOM     18  N   LIG d   1       0.441  77.582 116.181  0.00  0.00     0.381 N 
ATOM     19  H   LIG d   1       1.015  78.069 115.522  0.00  0.00    -0.090 HD
ATOM     20  H   LIG d   1       0.749  76.627 116.222  0.00  0.00    -0.090 HD
ATOM     21  H   LIG d   1       0.523  78.004 117.080  0.00  0.00    -0.090 HD
ENDBRANCH   5  18
BRANCH   3  22
ATOM     22  C   LIG d   1      -2.591  79.188 112.839  0.00  0.00     0.382 C 
ATOM     23  O   LIG d   1      -2.090  79.183 111.689  0.00  0.00    -0.241 OA
ATOM     24  O   LIG d   1      -3.347  80.119 113.175  0.00  0.00    -0.241 OA
ENDBRANCH   3  22
TORSDOF 7
ENDMDL
MODEL 3
REMARK VINA RESULT:      -4.4      2.751      5.702
REMARK  7 active torsions:
REMARK  status: ('A' for Active; 'I' for Inactive)
REMARK    1  A    between atoms: C_2  and  C_3 
REMARK    2  A    between atoms: C_3  and  O_6 
REMARK    3  A    between atoms: C_3  and  C_4 
REMARK    4  A    between atoms: C_7  and  O_6 
REMARK    5  A    between atoms: C_9  and  C_10 
REMARK    6  A    between atoms: N_15  and  C_14 
REMARK    7  A    between atoms: N_20  and  C_19 
REMARK       I    between atoms: C_22  and  N_20 
ROOT
ATOM      1  C   LIG d   1      -1.856  79.303 114.303  0.00  0.00     0.161 C 
ATOM      2  C   LIG d   1      -2.656  78.170 114.527  0.00  0.00     0.016 C 
ATOM      3  C   LIG d   1      -3.019  77.260 113.507  0.00  0.00     0.038 C 
ATOM      4  C   LIG d   1      -2.479  77.340 112.215  0.00  0.00     0.028 C 
ATOM      5  C   LIG d   1      -2.069  78.754 111.816  0.00  0.00    -0.047 C 
ATOM      6  C   LIG d   1      -1.166  79.345 112.923  0.00  0.00     0.091 C 
ENDROOT
BRANCH   1   7
ATOM      7  O   LIG d   1      -0.879  79.427 115.356  0.00  0.00    -0.368 OA
BRANCH   7   8
ATOM      8  C   LIG d   1      -1.020  78.508 116.467  0.00  0.00     0.119 C 
BRANCH   8   9
ATOM      9  C   LIG d   1      -1.148  79.350 117.751  0.00  0.00     0.028 C 
ATOM     10  C   LIG d   1      -2.595  79.417 118.267  0.00  0.00     0.006 C 
ENDBRANCH   8   9
BRANCH   8  11
ATOM     11  C   LIG d   1       0.246  77.667 116.658  0.00  0.00     0.028 C 
ATOM     12  C   LIG d   1       0.046  76.193 116.274  0.00  0.00     0.006 C 
ENDBRANCH   8  11
ENDBRANCH   7   8
ENDBRANCH   1   7
BRANCH   6  13
ATOM     13  N   LIG d   1      -0.788  80.757 112.653  0.00  0.00    -0.311 N 
ATOM     14  C   LIG d   1       0.304  81.107 111.975  0.00  0.00     0.210 C 
ATOM     15  C   LIG d   1       0.517  82.616 111.827  0.00  0.00     0.109 C 
ATOM     16  O   LIG d   1       1.099  80.310 111.456  0.00  0.00    -0.276 OA
ATOM     17  H   LIG d   1      -1.395  81.468 113.012  0.00  0.00     0.149 HD
ENDBRANCH   6  13
BRANCH   5  18
ATOM     18  N   LIG d   1      -1.397  78.671 110.506  0.00  0.00     0.381 N 
ATOM     19  H   LIG d   1      -0.461  79.015 110.583  0.00  0.00    -0.090 HD
ATOM     20  H   LIG d   1      -1.892  79.248 109.849  0.00  0.00    -0.090 HD
ATOM     21  H   LIG d   1      -1.386  77.727 110.188  0.00  0.00    -0.090 HD
ENDBRANCH   5  18
BRANCH   3  22
ATOM     22  C   LIG d   1      -3.965  76.280 113.766  0.00  0.00     0.382 C 
ATOM     23  O   LIG d   1      -5.038  76.257 113.117  0.00  0.00    -0.241 OA
ATOM     24  O   LIG d   1      -3.777  75.444 114.670  0.00  0.00    -0.241 OA
ENDBRANCH   3  22
TORSDOF 7
ENDMDL
MODEL 4
REMARK VINA RESULT:      -4.4      1.999      4.737
REMARK  7 active torsions:
REMARK  status: ('A' for Active; 'I' for Inactive)
REMARK    1  A    between atoms: C_2  and  C_3 
REMARK    2  A    between atoms: C_3  and  O_6 
REMARK    3  A    between atoms: C_3  and  C_4 
REMARK    4  A    between atoms: C_7  and  O_6 
REMARK    5  A    between atoms: C_9  and  C_10 
REMARK    6  A    between atoms: N_15  and  C_14 
REMARK    7  A    between atoms: N_20  and  C_19 
REMARK       I    between atoms: C_22  and  N_20 
ROOT
ATOM      1  C   LIG d   1      -1.416  75.276 115.220  0.00  0.00     0.161 C 
ATOM      2  C   LIG d   1      -0.951  75.032 116.523  0.00  0.00     0.016 C 
ATOM      3  C   LIG d   1      -0.406  76.036 117.356  0.00  0.00     0.038 C 
ATOM      4  C   LIG d   1      -0.429  77.391 116.996  0.00  0.00     0.028 C 
ATOM      5  C   LIG d   1      -0.426  77.617 115.487  0.00  0.00    -0.047 C 
ATOM      6  C   LIG d   1      -1.551  76.768 114.851  0.00  0.00     0.091 C 
ENDROOT
BRANCH   1   7
ATOM      7  O   LIG d   1      -2.668  74.593 115.012  0.00  0.00    -0.368 OA
BRANCH   7   8
ATOM      8  C   LIG d   1      -3.837  75.209 115.607  0.00  0.00     0.119 C 
BRANCH   8   9
ATOM      9  C   LIG d   1      -4.464  74.181 116.568  0.00  0.00     0.028 C 
ATOM     10  C   LIG d   1      -4.201  74.521 118.045  0.00  0.00     0.006 C 
ENDBRANCH   8   9
BRANCH   8  11
ATOM     11  C   LIG d   1      -4.914  75.492 114.556  0.00  0.00     0.028 C 
ATOM     12  C   LIG d   1      -5.757  74.251 114.219  0.00  0.00     0.006 C 
ENDBRANCH   8  11
ENDBRANCH   7   8
ENDBRANCH   1   7
BRANCH   6  13
ATOM     13  N   LIG d   1      -1.564  76.866 113.368  0.00  0.00    -0.311 N 
ATOM     14  C   LIG d   1      -2.370  77.684 112.694  0.00  0.00     0.210 C 
ATOM     15  C   LIG d   1      -2.237  77.613 111.170  0.00  0.00     0.109 C 
ATOM     16  O   LIG d   1      -3.160  78.486 113.215  0.00  0.00    -0.276 OA
ATOM     17  H   LIG d   1      -0.933  76.273 112.867  0.00  0.00     0.149 HD
ENDBRANCH   6  13
BRANCH   5  18
ATOM     18  N   LIG d   1      -0.590  79.064 115.253  0.00  0.00     0.381 N 
ATOM     19  H   LIG d   1      -1.546  79.266 115.036  0.00  0.00    -0.090 HD
ATOM     20  H   LIG d   1      -0.025  79.332 114.467  0.00  0.00    -0.090 HD
ATOM     21  H   LIG d   1      -0.311  79.574 116.062  0.00  0.00    -0.090 HD
ENDBRANCH   5  18
BRANCH   3  22
ATOM     22  C   LIG d   1       0.205  75.682 118.549  0.00  0.00     0.382 C 
ATOM     23  O   LIG d   1      -0.175  74.660 119.170  0.00  0.00    -0.241 OA
ATOM     24  O   LIG d   1       1.103  76.395 119.035  0.00  0.00    -0.241 OA
ENDBRANCH   3  22
TORSDOF 7
ENDMDL
MODEL 5
REMARK VINA RESULT:      -4.3      2.483      5.965
REMARK  7 active torsions:
REMARK  status: ('A' for Active; 'I' for Inactive)
REMARK    1  A    between atoms: C_2  and  C_3 
REMARK    2  A    between atoms: C_3  and  O_6 
REMARK    3  A    between atoms: C_3  and  C_4 
REMARK    4  A    between atoms: C_7  and  O_6 
REMARK    5  A    between atoms: C_9  and  C_10 
REMARK    6  A    between atoms: N_15  and  C_14 
REMARK    7  A    between atoms: N_20  and  C_19 
REMARK       I    between atoms: C_22  and  N_20 
ROOT
ATOM      1  C   LIG d   1      -1.906  79.254 114.386  0.00  0.00     0.161 C 
ATOM      2  C   LIG d   1      -2.775  78.172 114.599  0.00  0.00     0.016 C 
ATOM      3  C   LIG d   1      -3.075  77.208 113.609  0.00  0.00     0.038 C 
ATOM      4  C   LIG d   1      -2.403  77.176 112.378  0.00  0.00     0.028 C 
ATOM      5  C   LIG d   1      -1.890  78.541 111.932  0.00  0.00    -0.047 C 
ATOM      6  C   LIG d   1      -1.078  79.173 113.086  0.00  0.00     0.091 C 
ENDROOT
BRANCH   1   7
ATOM      7  O   LIG d   1      -1.036  79.414 115.524  0.00  0.00    -0.368 OA
BRANCH   7   8
ATOM      8  C   LIG d   1       0.178  78.623 115.514  0.00  0.00     0.119 C 
BRANCH   8   9
ATOM      9  C   LIG d   1       0.037  77.545 116.606  0.00  0.00     0.028 C 
ATOM     10  C   LIG d   1      -0.118  76.132 116.019  0.00  0.00     0.006 C 
ENDBRANCH   8   9
BRANCH   8  11
ATOM     11  C   LIG d   1       1.392  79.462 115.926  0.00  0.00     0.028 C 
ATOM     12  C   LIG d   1       1.269  80.029 117.349  0.00  0.00     0.006 C 
ENDBRANCH   8  11
ENDBRANCH   7   8
ENDBRANCH   1   7
BRANCH   6  13
ATOM     13  N   LIG d   1      -0.611  80.546 112.764  0.00  0.00    -0.311 N 
ATOM     14  C   LIG d   1      -1.400  81.488 112.250  0.00  0.00     0.210 C 
ATOM     15  C   LIG d   1      -0.713  82.829 111.974  0.00  0.00     0.109 C 
ATOM     16  O   LIG d   1      -2.612  81.350 112.026  0.00  0.00    -0.276 OA
ATOM     17  H   LIG d   1       0.352  80.754 112.943  0.00  0.00     0.149 HD
ENDBRANCH   6  13
BRANCH   5  18
ATOM     18  N   LIG d   1      -1.093  78.339 110.707  0.00  0.00     0.381 N 
ATOM     19  H   LIG d   1      -1.285  79.073 110.054  0.00  0.00    -0.090 HD
ATOM     20  H   LIG d   1      -1.359  77.466 110.287  0.00  0.00    -0.090 HD
ATOM     21  H   LIG d   1      -0.122  78.328 110.930  0.00  0.00    -0.090 HD
ENDBRANCH   5  18
BRANCH   3  22
ATOM     22  C   LIG d   1      -4.085  76.285 113.832  0.00  0.00     0.382 C 
ATOM     23  O   LIG d   1      -3.965  75.430 114.743  0.00  0.00    -0.241 OA
ATOM     24  O   LIG d   1      -5.097  76.268 113.105  0.00  0.00    -0.241 OA
ENDBRANCH   3  22
TORSDOF 7
ENDMDL
MODEL 6
REMARK VINA RESULT:      -4.3      2.649      2.967
REMARK  7 active torsions:
REMARK  status: ('A' for Active; 'I' for Inactive)
REMARK    1  A    between atoms: C_2  and  C_3 
REMARK    2  A    between atoms: C_3  and  O_6 
REMARK    3  A    between atoms: C_3  and  C_4 
REMARK    4  A    between atoms: C_7  and  O_6 
REMARK    5  A    between atoms: C_9  and  C_10 
REMARK    6  A    between atoms: N_15  and  C_14 
REMARK    7  A    between atoms: N_20  and  C_19 
REMARK       I    between atoms: C_22  and  N_20 
ROOT
ATOM      1  C   LIG d   1      -3.104  78.450 115.856  0.00  0.00     0.161 C 
ATOM      2  C   LIG d   1      -3.228  79.298 114.742  0.00  0.00     0.016 C 
ATOM      3  C   LIG d   1      -2.501  79.118 113.543  0.00  0.00     0.038 C 
ATOM      4  C   LIG d   1      -1.707  77.983 113.319  0.00  0.00     0.028 C 
ATOM      5  C   LIG d   1      -1.160  77.365 114.601  0.00  0.00    -0.047 C 
ATOM      6  C   LIG d   1      -2.327  77.144 115.590  0.00  0.00     0.091 C 
ENDROOT
BRANCH   1   7
ATOM      7  O   LIG d   1      -4.408  78.157 116.394  0.00  0.00    -0.368 OA
BRANCH   7   8
ATOM      8  C   LIG d   1      -5.036  79.217 117.155  0.00  0.00     0.119 C 
BRANCH   8   9
ATOM      9  C   LIG d   1      -4.349  79.268 118.533  0.00  0.00     0.028 C 
ATOM     10  C   LIG d   1      -4.412  77.920 119.271  0.00  0.00     0.006 C 
ENDBRANCH   8   9
BRANCH   8  11
ATOM     11  C   LIG d   1      -6.506  78.899 117.446  0.00  0.00     0.028 C 
ATOM     12  C   LIG d   1      -7.323  80.146 117.819  0.00  0.00     0.006 C 
ENDBRANCH   8  11
ENDBRANCH   7   8
ENDBRANCH   1   7
BRANCH   6  13
ATOM     13  N   LIG d   1      -1.866  76.620 116.903  0.00  0.00    -0.311 N 
ATOM     14  C   LIG d   1      -2.315  75.486 117.438  0.00  0.00     0.210 C 
ATOM     15  C   LIG d   1      -1.723  75.139 118.808  0.00  0.00     0.109 C 
ATOM     16  O   LIG d   1      -3.122  74.717 116.893  0.00  0.00    -0.276 OA
ATOM     17  H   LIG d   1      -1.188  77.165 117.399  0.00  0.00     0.149 HD
ENDBRANCH   6  13
BRANCH   5  18
ATOM     18  N   LIG d   1      -0.468  76.115 114.234  0.00  0.00     0.381 N 
ATOM     19  H   LIG d   1       0.464  76.124 114.597  0.00  0.00    -0.090 HD
ATOM     20  H   LIG d   1      -0.415  76.056 113.232  0.00  0.00    -0.090 HD
ATOM     21  H   LIG d   1      -0.966  75.331 114.595  0.00  0.00    -0.090 HD
ENDBRANCH   5  18
BRANCH   3  22
ATOM     22  C   LIG d   1      -2.533  80.102 112.566  0.00  0.00     0.382 C 
ATOM     23  O   LIG d   1      -1.537  80.282 111.825  0.00  0.00    -0.241 OA
ATOM     24  O   LIG d   1      -3.528  80.841 112.446  0.00  0.00    -0.241 OA
ENDBRANCH   3  22
TORSDOF 7
ENDMDL
MODEL 7
REMARK VINA RESULT:      -4.2      1.967      4.884
REMARK  7 active torsions:
REMARK  status: ('A' for Active; 'I' for Inactive)
REMARK    1  A    between atoms: C_2  and  C_3 
REMARK    2  A    between atoms: C_3  and  O_6 
REMARK    3  A    between atoms: C_3  and  C_4 
REMARK    4  A    between atoms: C_7  and  O_6 
REMARK    5  A    between atoms: C_9  and  C_10 
REMARK    6  A    between atoms: N_15  and  C_14 
REMARK    7  A    between atoms: N_20  and  C_19 
REMARK       I    between atoms: C_22  and  N_20 
ROOT
ATOM      1  C   LIG d   1      -1.657  75.589 115.079  0.00  0.00     0.161 C 
ATOM      2  C   LIG d   1      -1.336  75.157 116.377  0.00  0.00     0.016 C 
ATOM      3  C   LIG d   1      -0.616  75.945 117.304  0.00  0.00     0.038 C 
ATOM      4  C   LIG d   1      -0.298  77.287 117.046  0.00  0.00     0.028 C 
ATOM      5  C   LIG d   1      -0.158  77.602 115.560  0.00  0.00    -0.047 C 
ATOM      6  C   LIG d   1      -1.414  77.090 114.819  0.00  0.00     0.091 C 
ENDROOT
BRANCH   1   7
ATOM      7  O   LIG d   1      -3.021  75.241 114.771  0.00  0.00    -0.368 OA
BRANCH   7   8
ATOM      8  C   LIG d   1      -3.961  75.315 115.871  0.00  0.00     0.119 C 
BRANCH   8   9
ATOM      9  C   LIG d   1      -4.986  74.180 115.682  0.00  0.00     0.028 C 
ATOM     10  C   LIG d   1      -5.689  74.247 114.315  0.00  0.00     0.006 C 
ENDBRANCH   8   9
BRANCH   8  11
ATOM     11  C   LIG d   1      -4.777  76.610 115.821  0.00  0.00     0.028 C 
ATOM     12  C   LIG d   1      -4.415  77.586 116.952  0.00  0.00     0.006 C 
ENDBRANCH   8  11
ENDBRANCH   7   8
ENDBRANCH   1   7
BRANCH   6  13
ATOM     13  N   LIG d   1      -1.322  77.283 113.348  0.00  0.00    -0.311 N 
ATOM     14  C   LIG d   1      -2.281  77.856 112.622  0.00  0.00     0.210 C 
ATOM     15  C   LIG d   1      -1.992  77.937 111.120  0.00  0.00     0.109 C 
ATOM     16  O   LIG d   1      -3.328  78.333 113.084  0.00  0.00    -0.276 OA
ATOM     17  H   LIG d   1      -0.492  76.952 112.896  0.00  0.00     0.149 HD
ENDBRANCH   6  13
BRANCH   5  18
ATOM     18  N   LIG d   1       0.037  79.058 115.430  0.00  0.00     0.381 N 
ATOM     19  H   LIG d   1      -0.477  79.534 116.143  0.00  0.00    -0.090 HD
ATOM     20  H   LIG d   1      -0.314  79.354 114.536  0.00  0.00    -0.090 HD
ATOM     21  H   LIG d   1       1.006  79.280 115.504  0.00  0.00    -0.090 HD
ENDBRANCH   5  18
BRANCH   3  22
ATOM     22  C   LIG d   1      -0.173  75.379 118.489  0.00  0.00     0.382 C 
ATOM     23  O   LIG d   1       0.664  74.445 118.463  0.00  0.00    -0.241 OA
ATOM     24  O   LIG d   1      -0.632  75.761 119.582  0.00  0.00    -0.241 OA
ENDBRANCH   3  22
TORSDOF 7
ENDMDL
MODEL 8
REMARK VINA RESULT:      -4.1      2.583      3.089
REMARK  7 active torsions:
REMARK  status: ('A' for Active; 'I' for Inactive)
REMARK    1  A    between atoms: C_2  and  C_3 
REMARK    2  A    between atoms: C_3  and  O_6 
REMARK    3  A    between atoms: C_3  and  C_4 
REMARK    4  A    between atoms: C_7  and  O_6 
REMARK    5  A    between atoms: C_9  and  C_10 
REMARK    6  A    between atoms: N_15  and  C_14 
REMARK    7  A    between atoms: N_20  and  C_19 
REMARK       I    between atoms: C_22  and  N_20 
ROOT
ATOM      1  C   LIG d   1      -2.612  78.370 116.252  0.00  0.00     0.161 C 
ATOM      2  C   LIG d   1      -2.924  79.114 115.102  0.00  0.00     0.016 C 
ATOM      3  C   LIG d   1      -2.415  78.811 113.818  0.00  0.00     0.038 C 
ATOM      4  C   LIG d   1      -1.674  77.646 113.570  0.00  0.00     0.028 C 
ATOM      5  C   LIG d   1      -0.915  77.139 114.791  0.00  0.00    -0.047 C 
ATOM      6  C   LIG d   1      -1.895  77.031 115.982  0.00  0.00     0.091 C 
ENDROOT
BRANCH   1   7
ATOM      7  O   LIG d   1      -3.805  78.151 117.031  0.00  0.00    -0.368 OA
BRANCH   7   8
ATOM      8  C   LIG d   1      -4.513  79.340 117.459  0.00  0.00     0.119 C 
BRANCH   8   9
ATOM      9  C   LIG d   1      -4.194  79.557 118.951  0.00  0.00     0.028 C 
ATOM     10  C   LIG d   1      -3.163  80.676 119.174  0.00  0.00     0.006 C 
ENDBRANCH   8   9
BRANCH   8  11
ATOM     11  C   LIG d   1      -6.030  79.139 117.395  0.00  0.00     0.028 C 
ATOM     12  C   LIG d   1      -6.425  77.709 116.994  0.00  0.00     0.006 C 
ENDBRANCH   8  11
ENDBRANCH   7   8
ENDBRANCH   1   7
BRANCH   6  13
ATOM     13  N   LIG d   1      -1.217  76.622 117.239  0.00  0.00    -0.311 N 
ATOM     14  C   LIG d   1      -1.131  75.357 117.648  0.00  0.00     0.210 C 
ATOM     15  C   LIG d   1      -0.407  75.157 118.983  0.00  0.00     0.109 C 
ATOM     16  O   LIG d   1      -1.557  74.379 117.016  0.00  0.00    -0.276 OA
ATOM     17  H   LIG d   1      -0.815  77.349 117.798  0.00  0.00     0.149 HD
ENDBRANCH   6  13
BRANCH   5  18
ATOM     18  N   LIG d   1      -0.300  75.848 114.430  0.00  0.00     0.381 N 
ATOM     19  H   LIG d   1      -0.450  75.184 115.162  0.00  0.00    -0.090 HD
ATOM     20  H   LIG d   1       0.690  75.979 114.321  0.00  0.00    -0.090 HD
ATOM     21  H   LIG d   1      -0.693  75.509 113.579  0.00  0.00    -0.090 HD
ENDBRANCH   5  18
BRANCH   3  22
ATOM     22  C   LIG d   1      -2.612  79.701 112.773  0.00  0.00     0.382 C 
ATOM     23  O   LIG d   1      -3.470  80.611 112.878  0.00  0.00    -0.241 OA
ATOM     24  O   LIG d   1      -1.975  79.579 111.710  0.00  0.00    -0.241 OA
ENDBRANCH   3  22
TORSDOF 7
ENDMDL
MODEL 9
REMARK VINA RESULT:      -4.0      3.790      4.679
REMARK  7 active torsions:
REMARK  status: ('A' for Active; 'I' for Inactive)
REMARK    1  A    between atoms: C_2  and  C_3 
REMARK    2  A    between atoms: C_3  and  O_6 
REMARK    3  A    between atoms: C_3  and  C_4 
REMARK    4  A    between atoms: C_7  and  O_6 
REMARK    5  A    between atoms: C_9  and  C_10 
REMARK    6  A    between atoms: N_15  and  C_14 
REMARK    7  A    between atoms: N_20  and  C_19 
REMARK       I    between atoms: C_22  and  N_20 
ROOT
ATOM      1  C   LIG d   1      -6.127  77.025 118.170  0.00  0.00     0.161 C 
ATOM      2  C   LIG d   1      -6.985  78.131 118.053  0.00  0.00     0.016 C 
ATOM      3  C   LIG d   1      -6.545  79.422 117.682  0.00  0.00     0.038 C 
ATOM      4  C   LIG d   1      -5.231  79.663 117.253  0.00  0.00     0.028 C 
ATOM      5  C   LIG d   1      -4.215  78.688 117.839  0.00  0.00    -0.047 C 
ATOM      6  C   LIG d   1      -4.710  77.243 117.599  0.00  0.00     0.091 C 
ENDROOT
BRANCH   1   7
ATOM      7  O   LIG d   1      -6.737  75.867 117.568  0.00  0.00    -0.368 OA
BRANCH   7   8
ATOM      8  C   LIG d   1      -6.540  75.712 116.141  0.00  0.00     0.119 C 
BRANCH   8   9
ATOM      9  C   LIG d   1      -7.931  75.714 115.478  0.00  0.00     0.028 C 
ATOM     10  C   LIG d   1      -9.060  75.429 116.483  0.00  0.00     0.006 C 
ENDBRANCH   8   9
BRANCH   8  11
ATOM     11  C   LIG d   1      -5.934  74.345 115.807  0.00  0.00     0.028 C 
ATOM     12  C   LIG d   1      -5.625  74.180 114.310  0.00  0.00     0.006 C 
ENDBRANCH   8  11
ENDBRANCH   7   8
ENDBRANCH   1   7
BRANCH   6  13
ATOM     13  N   LIG d   1      -3.816  76.228 118.215  0.00  0.00    -0.311 N 
ATOM     14  C   LIG d   1      -2.839  75.612 117.551  0.00  0.00     0.210 C 
ATOM     15  C   LIG d   1      -2.049  74.586 118.368  0.00  0.00     0.109 C 
ATOM     16  O   LIG d   1      -2.532  75.841 116.371  0.00  0.00    -0.276 OA
ATOM     17  H   LIG d   1      -3.975  76.004 119.178  0.00  0.00     0.149 HD
ENDBRANCH   6  13
BRANCH   5  18
ATOM     18  N   LIG d   1      -2.913  78.966 117.203  0.00  0.00     0.381 N 
ATOM     19  H   LIG d   1      -2.814  78.411 116.376  0.00  0.00    -0.090 HD
ATOM     20  H   LIG d   1      -2.179  78.713 117.841  0.00  0.00    -0.090 HD
ATOM     21  H   LIG d   1      -2.845  79.933 116.973  0.00  0.00    -0.090 HD
ENDBRANCH   5  18
BRANCH   3  22
ATOM     22  C   LIG d   1      -7.414  80.498 117.776  0.00  0.00     0.382 C 
ATOM     23  O   LIG d   1      -7.357  81.426 116.933  0.00  0.00    -0.241 OA
ATOM     24  O   LIG d   1      -8.225  80.575 118.718  0.00  0.00    -0.241 OA
ENDBRANCH   3  22
TORSDOF 7
ENDMDL
