MODEL 1
REMARK VINA RESULT:      -5.4      0.000      0.000
REMARK  7 active torsions:
REMARK  status: ('A' for Active; 'I' for Inactive)
REMARK    1  A    between atoms: C_2  and  C_3 
REMARK    2  A    between atoms: C_3  and  O_6 
REMARK    3  A    between atoms: C_3  and  C_4 
REMARK    4  A    between atoms: C_7  and  O_6 
REMARK    5  A    between atoms: C_9  and  C_10 
REMARK    6  A    between atoms: N_15  and  C_14 
REMARK    7  A    between atoms: N_20  and  C_19 
REMARK       I    between atoms: C_22  and  N_20 
ROOT
ATOM      1  C   LIG d   1      -2.597  76.086 115.051  0.00  0.00     0.161 C 
ATOM      2  C   LIG d   1      -2.535  75.845 116.433  0.00  0.00     0.016 C 
ATOM      3  C   LIG d   1      -1.949  76.744 117.354  0.00  0.00     0.038 C 
ATOM      4  C   LIG d   1      -1.518  78.022 116.970  0.00  0.00     0.028 C 
ATOM      5  C   LIG d   1      -1.101  78.106 115.506  0.00  0.00    -0.047 C 
ATOM      6  C   LIG d   1      -2.232  77.524 114.628  0.00  0.00     0.091 C 
ENDROOT
BRANCH   1   7
ATOM      7  O   LIG d   1      -3.903  75.733 114.551  0.00  0.00    -0.368 OA
BRANCH   7   8
ATOM      8  C   LIG d   1      -4.960  75.648 115.538  0.00  0.00     0.119 C 
BRANCH   8   9
ATOM      9  C   LIG d   1      -5.871  74.470 115.139  0.00  0.00     0.028 C 
ATOM     10  C   LIG d   1      -6.951  74.180 116.194  0.00  0.00     0.006 C 
ENDBRANCH   8   9
BRANCH   8  11
ATOM     11  C   LIG d   1      -5.860  76.887 115.500  0.00  0.00     0.028 C 
ATOM     12  C   LIG d   1      -5.683  77.790 116.731  0.00  0.00     0.006 C 
ENDBRANCH   8  11
ENDBRANCH   7   8
ENDBRANCH   1   7
BRANCH   6  13
ATOM     13  N   LIG d   1      -1.870  77.491 113.186  0.00  0.00    -0.311 N 
ATOM     14  C   LIG d   1      -2.529  78.170 112.249  0.00  0.00     0.210 C 
ATOM     15  C   LIG d   1      -2.004  77.980 110.823  0.00  0.00     0.109 C 
ATOM     16  O   LIG d   1      -3.479  78.937 112.468  0.00  0.00    -0.276 OA
ATOM     17  H   LIG d   1      -1.092  76.918 112.924  0.00  0.00     0.149 HD
ENDBRANCH   6  13
BRANCH   5  18
ATOM     18  N   LIG d   1      -0.806  79.520 115.207  0.00  0.00     0.381 N 
ATOM     19  H   LIG d   1      -0.152  79.879 115.874  0.00  0.00    -0.090 HD
ATOM     20  H   LIG d   1      -1.655  80.052 115.281  0.00  0.00    -0.090 HD
ATOM     21  H   LIG d   1      -0.433  79.604 114.287  0.00  0.00    -0.090 HD
ENDBRANCH   5  18
BRANCH   3  22
ATOM     22  C   LIG d   1      -1.754  76.350 118.669  0.00  0.00     0.382 C 
ATOM     23  O   LIG d   1      -1.210  75.248 118.920  0.00  0.00    -0.241 OA
ATOM     24  O   LIG d   1      -2.156  77.063 119.608  0.00  0.00    -0.241 OA
ENDBRANCH   3  22
TORSDOF 7
ENDMDL
MODEL 2
REMARK VINA RESULT:      -5.1      1.838      4.930
REMARK  7 active torsions:
REMARK  status: ('A' for Active; 'I' for Inactive)
REMARK    1  A    between atoms: C_2  and  C_3 
REMARK    2  A    between atoms: C_3  and  O_6 
REMARK    3  A    between atoms: C_3  and  C_4 
REMARK    4  A    between atoms: C_7  and  O_6 
REMARK    5  A    between atoms: C_9  and  C_10 
REMARK    6  A    between atoms: N_15  and  C_14 
REMARK    7  A    between atoms: N_20  and  C_19 
REMARK       I    between atoms: C_22  and  N_20 
ROOT
ATOM      1  C   LIG d   1      -3.597  77.173 116.081  0.00  0.00     0.161 C 
ATOM      2  C   LIG d   1      -3.929  77.642 114.799  0.00  0.00     0.016 C 
ATOM      3  C   LIG d   1      -3.045  77.588 113.697  0.00  0.00     0.038 C 
ATOM      4  C   LIG d   1      -1.814  76.919 113.766  0.00  0.00     0.028 C 
ATOM      5  C   LIG d   1      -1.227  76.875 115.173  0.00  0.00    -0.047 C 
ATOM      6  C   LIG d   1      -2.300  76.339 116.148  0.00  0.00     0.091 C 
ENDROOT
BRANCH   1   7
ATOM      7  O   LIG d   1      -4.701  76.426 116.630  0.00  0.00    -0.368 OA
BRANCH   7   8
ATOM      8  C   LIG d   1      -5.983  76.618 115.983  0.00  0.00     0.119 C 
BRANCH   8   9
ATOM      9  C   LIG d   1      -6.822  77.545 116.884  0.00  0.00     0.028 C 
ATOM     10  C   LIG d   1      -8.303  77.132 116.935  0.00  0.00     0.006 C 
ENDBRANCH   8   9
BRANCH   8  11
ATOM     11  C   LIG d   1      -6.770  75.306 115.907  0.00  0.00     0.028 C 
ATOM     12  C   LIG d   1      -6.020  74.205 115.140  0.00  0.00     0.006 C 
ENDBRANCH   8  11
ENDBRANCH   7   8
ENDBRANCH   1   7
BRANCH   6  13
ATOM     13  N   LIG d   1      -1.836  76.343 117.560  0.00  0.00    -0.311 N 
ATOM     14  C   LIG d   1      -1.317  75.275 118.164  0.00  0.00     0.210 C 
ATOM     15  C   LIG d   1      -0.921  75.489 119.628  0.00  0.00     0.109 C 
ATOM     16  O   LIG d   1      -1.118  74.180 117.617  0.00  0.00    -0.276 OA
ATOM     17  H   LIG d   1      -1.931  77.200 118.069  0.00  0.00     0.149 HD
ENDBRANCH   6  13
BRANCH   5  18
ATOM     18  N   LIG d   1      -0.017  76.033 115.125  0.00  0.00     0.381 N 
ATOM     19  H   LIG d   1      -0.074  75.402 114.350  0.00  0.00    -0.090 HD
ATOM     20  H   LIG d   1       0.036  75.491 115.969  0.00  0.00    -0.090 HD
ATOM     21  H   LIG d   1       0.794  76.605 115.038  0.00  0.00    -0.090 HD
ENDBRANCH   5  18
BRANCH   3  22
ATOM     22  C   LIG d   1      -3.373  78.244 112.520  0.00  0.00     0.382 C 
ATOM     23  O   LIG d   1      -2.740  79.271 112.177  0.00  0.00    -0.241 OA
ATOM     24  O   LIG d   1      -4.323  77.846 111.820  0.00  0.00    -0.241 OA
ENDBRANCH   3  22
TORSDOF 7
ENDMDL
MODEL 3
REMARK VINA RESULT:      -4.9      2.711      3.662
REMARK  7 active torsions:
REMARK  status: ('A' for Active; 'I' for Inactive)
REMARK    1  A    between atoms: C_2  and  C_3 
REMARK    2  A    between atoms: C_3  and  O_6 
REMARK    3  A    between atoms: C_3  and  C_4 
REMARK    4  A    between atoms: C_7  and  O_6 
REMARK    5  A    between atoms: C_9  and  C_10 
REMARK    6  A    between atoms: N_15  and  C_14 
REMARK    7  A    between atoms: N_20  and  C_19 
REMARK       I    between atoms: C_22  and  N_20 
ROOT
ATOM      1  C   LIG d   1      -3.978  78.602 116.806  0.00  0.00     0.161 C 
ATOM      2  C   LIG d   1      -3.171  79.598 117.381  0.00  0.00     0.016 C 
ATOM      3  C   LIG d   1      -1.830  79.831 116.998  0.00  0.00     0.038 C 
ATOM      4  C   LIG d   1      -1.248  79.177 115.902  0.00  0.00     0.028 C 
ATOM      5  C   LIG d   1      -1.858  77.809 115.618  0.00  0.00    -0.047 C 
ATOM      6  C   LIG d   1      -3.395  77.953 115.533  0.00  0.00     0.091 C 
ENDROOT
BRANCH   1   7
ATOM      7  O   LIG d   1      -5.293  79.129 116.543  0.00  0.00    -0.368 OA
BRANCH   7   8
ATOM      8  C   LIG d   1      -6.318  78.796 117.511  0.00  0.00     0.119 C 
BRANCH   8   9
ATOM      9  C   LIG d   1      -7.154  77.643 116.923  0.00  0.00     0.028 C 
ATOM     10  C   LIG d   1      -6.843  76.293 117.590  0.00  0.00     0.006 C 
ENDBRANCH   8   9
BRANCH   8  11
ATOM     11  C   LIG d   1      -7.302  79.955 117.700  0.00  0.00     0.028 C 
ATOM     12  C   LIG d   1      -8.718  79.480 118.063  0.00  0.00     0.006 C 
ENDBRANCH   8  11
ENDBRANCH   7   8
ENDBRANCH   1   7
BRANCH   6  13
ATOM     13  N   LIG d   1      -4.077  76.647 115.341  0.00  0.00    -0.311 N 
ATOM     14  C   LIG d   1      -4.708  76.307 114.218  0.00  0.00     0.210 C 
ATOM     15  C   LIG d   1      -5.361  74.922 114.237  0.00  0.00     0.109 C 
ATOM     16  O   LIG d   1      -4.761  77.008 113.196  0.00  0.00    -0.276 OA
ATOM     17  H   LIG d   1      -4.056  76.004 116.108  0.00  0.00     0.149 HD
ENDBRANCH   6  13
BRANCH   5  18
ATOM     18  N   LIG d   1      -1.255  77.301 114.372  0.00  0.00     0.381 N 
ATOM     19  H   LIG d   1      -0.897  76.379 114.520  0.00  0.00    -0.090 HD
ATOM     20  H   LIG d   1      -0.489  77.899 114.114  0.00  0.00    -0.090 HD
ATOM     21  H   LIG d   1      -1.935  77.288 113.644  0.00  0.00    -0.090 HD
ENDBRANCH   5  18
BRANCH   3  22
ATOM     22  C   LIG d   1      -1.044  80.698 117.742  0.00  0.00     0.382 C 
ATOM     23  O   LIG d   1       0.103  81.006 117.338  0.00  0.00    -0.241 OA
ATOM     24  O   LIG d   1      -1.450  81.141 118.833  0.00  0.00    -0.241 OA
ENDBRANCH   3  22
TORSDOF 7
ENDMDL
MODEL 4
REMARK VINA RESULT:      -4.9      2.640      5.855
REMARK  7 active torsions:
REMARK  status: ('A' for Active; 'I' for Inactive)
REMARK    1  A    between atoms: C_2  and  C_3 
REMARK    2  A    between atoms: C_3  and  O_6 
REMARK    3  A    between atoms: C_3  and  C_4 
REMARK    4  A    between atoms: C_7  and  O_6 
REMARK    5  A    between atoms: C_9  and  C_10 
REMARK    6  A    between atoms: N_15  and  C_14 
REMARK    7  A    between atoms: N_20  and  C_19 
REMARK       I    between atoms: C_22  and  N_20 
ROOT
ATOM      1  C   LIG d   1      -3.073  76.452 114.724  0.00  0.00     0.161 C 
ATOM      2  C   LIG d   1      -3.974  76.943 113.765  0.00  0.00     0.016 C 
ATOM      3  C   LIG d   1      -5.346  76.602 113.740  0.00  0.00     0.038 C 
ATOM      4  C   LIG d   1      -5.945  75.861 114.771  0.00  0.00     0.028 C 
ATOM      5  C   LIG d   1      -4.975  74.927 115.487  0.00  0.00    -0.047 C 
ATOM      6  C   LIG d   1      -3.729  75.733 115.921  0.00  0.00     0.091 C 
ENDROOT
BRANCH   1   7
ATOM      7  O   LIG d   1      -2.223  77.521 115.187  0.00  0.00    -0.368 OA
BRANCH   7   8
ATOM      8  C   LIG d   1      -2.730  78.865 115.001  0.00  0.00     0.119 C 
BRANCH   8   9
ATOM      9  C   LIG d   1      -1.648  79.669 114.254  0.00  0.00     0.028 C 
ATOM     10  C   LIG d   1      -2.237  80.555 113.144  0.00  0.00     0.006 C 
ENDBRANCH   8   9
BRANCH   8  11
ATOM     11  C   LIG d   1      -2.915  79.582 116.341  0.00  0.00     0.028 C 
ATOM     12  C   LIG d   1      -4.351  79.480 116.878  0.00  0.00     0.006 C 
ENDBRANCH   8  11
ENDBRANCH   7   8
ENDBRANCH   1   7
BRANCH   6  13
ATOM     13  N   LIG d   1      -2.693  74.876 116.555  0.00  0.00    -0.311 N 
ATOM     14  C   LIG d   1      -2.018  75.230 117.647  0.00  0.00     0.210 C 
ATOM     15  C   LIG d   1      -0.980  74.209 118.124  0.00  0.00     0.109 C 
ATOM     16  O   LIG d   1      -2.202  76.278 118.284  0.00  0.00    -0.276 OA
ATOM     17  H   LIG d   1      -2.502  73.995 116.121  0.00  0.00     0.149 HD
ENDBRANCH   6  13
BRANCH   5  18
ATOM     18  N   LIG d   1      -5.697  74.322 116.622  0.00  0.00     0.381 N 
ATOM     19  H   LIG d   1      -5.267  74.598 117.483  0.00  0.00    -0.090 HD
ATOM     20  H   LIG d   1      -5.639  73.321 116.548  0.00  0.00    -0.090 HD
ATOM     21  H   LIG d   1      -6.651  74.609 116.612  0.00  0.00    -0.090 HD
ENDBRANCH   5  18
BRANCH   3  22
ATOM     22  C   LIG d   1      -6.126  76.970 112.655  0.00  0.00     0.382 C 
ATOM     23  O   LIG d   1      -5.586  77.219 111.550  0.00  0.00    -0.241 OA
ATOM     24  O   LIG d   1      -7.359  77.098 112.778  0.00  0.00    -0.241 OA
ENDBRANCH   3  22
TORSDOF 7
ENDMDL
MODEL 5
REMARK VINA RESULT:      -4.9      2.801      5.152
REMARK  7 active torsions:
REMARK  status: ('A' for Active; 'I' for Inactive)
REMARK    1  A    between atoms: C_2  and  C_3 
REMARK    2  A    between atoms: C_3  and  O_6 
REMARK    3  A    between atoms: C_3  and  C_4 
REMARK    4  A    between atoms: C_7  and  O_6 
REMARK    5  A    between atoms: C_9  and  C_10 
REMARK    6  A    between atoms: N_15  and  C_14 
REMARK    7  A    between atoms: N_20  and  C_19 
REMARK       I    between atoms: C_22  and  N_20 
ROOT
ATOM      1  C   LIG d   1      -2.170  79.868 114.503  0.00  0.00     0.161 C 
ATOM      2  C   LIG d   1      -2.884  78.700 114.816  0.00  0.00     0.016 C 
ATOM      3  C   LIG d   1      -3.143  77.671 113.881  0.00  0.00     0.038 C 
ATOM      4  C   LIG d   1      -2.570  77.673 112.600  0.00  0.00     0.028 C 
ATOM      5  C   LIG d   1      -2.261  79.071 112.077  0.00  0.00    -0.047 C 
ATOM      6  C   LIG d   1      -1.443  79.836 113.142  0.00  0.00     0.091 C 
ENDROOT
BRANCH   1   7
ATOM      7  O   LIG d   1      -1.239  80.171 115.561  0.00  0.00    -0.368 OA
BRANCH   7   8
ATOM      8  C   LIG d   1      -1.397  79.411 116.785  0.00  0.00     0.119 C 
BRANCH   8   9
ATOM      9  C   LIG d   1      -1.653  80.417 117.924  0.00  0.00     0.028 C 
ATOM     10  C   LIG d   1      -3.107  80.380 118.424  0.00  0.00     0.006 C 
ENDBRANCH   8   9
BRANCH   8  11
ATOM     11  C   LIG d   1      -0.100  78.691 117.164  0.00  0.00     0.028 C 
ATOM     12  C   LIG d   1      -0.159  77.178 116.896  0.00  0.00     0.006 C 
ENDBRANCH   8  11
ENDBRANCH   7   8
ENDBRANCH   1   7
BRANCH   6  13
ATOM     13  N   LIG d   1      -1.170  81.242 112.745  0.00  0.00    -0.311 N 
ATOM     14  C   LIG d   1      -0.089  81.614 112.062  0.00  0.00     0.210 C 
ATOM     15  C   LIG d   1       0.008  83.116 111.773  0.00  0.00     0.109 C 
ATOM     16  O   LIG d   1       0.783  80.840 111.641  0.00  0.00    -0.276 OA
ATOM     17  H   LIG d   1      -1.842  81.932 113.019  0.00  0.00     0.149 HD
ENDBRANCH   6  13
BRANCH   5  18
ATOM     18  N   LIG d   1      -1.544  78.919 110.796  0.00  0.00     0.381 N 
ATOM     19  H   LIG d   1      -0.977  79.726 110.628  0.00  0.00    -0.090 HD
ATOM     20  H   LIG d   1      -2.217  78.846 110.054  0.00  0.00    -0.090 HD
ATOM     21  H   LIG d   1      -0.974  78.102 110.820  0.00  0.00    -0.090 HD
ENDBRANCH   5  18
BRANCH   3  22
ATOM     22  C   LIG d   1      -4.015  76.645 114.212  0.00  0.00     0.382 C 
ATOM     23  O   LIG d   1      -5.252  76.852 114.219  0.00  0.00    -0.241 OA
ATOM     24  O   LIG d   1      -3.578  75.528 114.546  0.00  0.00    -0.241 OA
ENDBRANCH   3  22
TORSDOF 7
ENDMDL
MODEL 6
REMARK VINA RESULT:      -4.8      2.488      5.269
REMARK  7 active torsions:
REMARK  status: ('A' for Active; 'I' for Inactive)
REMARK    1  A    between atoms: C_2  and  C_3 
REMARK    2  A    between atoms: C_3  and  O_6 
REMARK    3  A    between atoms: C_3  and  C_4 
REMARK    4  A    between atoms: C_7  and  O_6 
REMARK    5  A    between atoms: C_9  and  C_10 
REMARK    6  A    between atoms: N_15  and  C_14 
REMARK    7  A    between atoms: N_20  and  C_19 
REMARK       I    between atoms: C_22  and  N_20 
ROOT
ATOM      1  C   LIG d   1      -2.938  79.165 116.262  0.00  0.00     0.161 C 
ATOM      2  C   LIG d   1      -3.099  80.084 115.212  0.00  0.00     0.016 C 
ATOM      3  C   LIG d   1      -2.617  79.861 113.902  0.00  0.00     0.038 C 
ATOM      4  C   LIG d   1      -2.069  78.629 113.513  0.00  0.00     0.028 C 
ATOM      5  C   LIG d   1      -1.430  77.860 114.664  0.00  0.00    -0.047 C 
ATOM      6  C   LIG d   1      -2.442  77.770 115.830  0.00  0.00     0.091 C 
ENDROOT
BRANCH   1   7
ATOM      7  O   LIG d   1      -4.168  79.052 117.005  0.00  0.00    -0.368 OA
BRANCH   7   8
ATOM      8  C   LIG d   1      -4.094  79.384 118.413  0.00  0.00     0.119 C 
BRANCH   8   9
ATOM      9  C   LIG d   1      -4.548  78.143 119.206  0.00  0.00     0.028 C 
ATOM     10  C   LIG d   1      -5.424  77.198 118.366  0.00  0.00     0.006 C 
ENDBRANCH   8   9
BRANCH   8  11
ATOM     11  C   LIG d   1      -5.093  80.486 118.779  0.00  0.00     0.028 C 
ATOM     12  C   LIG d   1      -6.026  80.855 117.614  0.00  0.00     0.006 C 
ENDBRANCH   8  11
ENDBRANCH   7   8
ENDBRANCH   1   7
BRANCH   6  13
ATOM     13  N   LIG d   1      -1.867  77.105 117.029  0.00  0.00    -0.311 N 
ATOM     14  C   LIG d   1      -2.012  75.807 117.287  0.00  0.00     0.210 C 
ATOM     15  C   LIG d   1      -1.357  75.329 118.587  0.00  0.00     0.109 C 
ATOM     16  O   LIG d   1      -2.593  74.999 116.547  0.00  0.00    -0.276 OA
ATOM     17  H   LIG d   1      -1.353  77.681 117.667  0.00  0.00     0.149 HD
ENDBRANCH   6  13
BRANCH   5  18
ATOM     18  N   LIG d   1      -1.025  76.539 114.147  0.00  0.00     0.381 N 
ATOM     19  H   LIG d   1      -1.656  76.249 113.427  0.00  0.00    -0.090 HD
ATOM     20  H   LIG d   1      -1.070  75.870 114.895  0.00  0.00    -0.090 HD
ATOM     21  H   LIG d   1      -0.097  76.585 113.787  0.00  0.00    -0.090 HD
ENDBRANCH   5  18
BRANCH   3  22
ATOM     22  C   LIG d   1      -2.644  80.892 112.974  0.00  0.00     0.382 C 
ATOM     23  O   LIG d   1      -3.695  81.555 112.805  0.00  0.00    -0.241 OA
ATOM     24  O   LIG d   1      -1.643  81.138 112.274  0.00  0.00    -0.241 OA
ENDBRANCH   3  22
TORSDOF 7
ENDMDL
MODEL 7
REMARK VINA RESULT:      -4.8      1.913      4.850
REMARK  7 active torsions:
REMARK  status: ('A' for Active; 'I' for Inactive)
REMARK    1  A    between atoms: C_2  and  C_3 
REMARK    2  A    between atoms: C_3  and  O_6 
REMARK    3  A    between atoms: C_3  and  C_4 
REMARK    4  A    between atoms: C_7  and  O_6 
REMARK    5  A    between atoms: C_9  and  C_10 
REMARK    6  A    between atoms: N_15  and  C_14 
REMARK    7  A    between atoms: N_20  and  C_19 
REMARK       I    between atoms: C_22  and  N_20 
ROOT
ATOM      1  C   LIG d   1      -3.958  77.828 115.160  0.00  0.00     0.161 C 
ATOM      2  C   LIG d   1      -3.513  77.725 113.832  0.00  0.00     0.016 C 
ATOM      3  C   LIG d   1      -2.339  78.352 113.354  0.00  0.00     0.038 C 
ATOM      4  C   LIG d   1      -1.445  79.005 114.214  0.00  0.00     0.028 C 
ATOM      5  C   LIG d   1      -2.109  79.564 115.468  0.00  0.00    -0.047 C 
ATOM      6  C   LIG d   1      -2.937  78.444 116.139  0.00  0.00     0.091 C 
ENDROOT
BRANCH   1   7
ATOM      7  O   LIG d   1      -4.389  76.536 115.633  0.00  0.00    -0.368 OA
BRANCH   7   8
ATOM      8  C   LIG d   1      -5.808  76.262 115.535  0.00  0.00     0.119 C 
BRANCH   8   9
ATOM      9  C   LIG d   1      -6.426  76.516 116.923  0.00  0.00     0.028 C 
ATOM     10  C   LIG d   1      -7.219  77.832 116.980  0.00  0.00     0.006 C 
ENDBRANCH   8   9
BRANCH   8  11
ATOM     11  C   LIG d   1      -6.070  74.782 115.240  0.00  0.00     0.028 C 
ATOM     12  C   LIG d   1      -7.165  74.180 116.135  0.00  0.00     0.006 C 
ENDBRANCH   8  11
ENDBRANCH   7   8
ENDBRANCH   1   7
BRANCH   6  13
ATOM     13  N   LIG d   1      -3.688  78.928 117.327  0.00  0.00    -0.311 N 
ATOM     14  C   LIG d   1      -3.706  78.287 118.494  0.00  0.00     0.210 C 
ATOM     15  C   LIG d   1      -4.559  78.948 119.582  0.00  0.00     0.109 C 
ATOM     16  O   LIG d   1      -3.071  77.251 118.742  0.00  0.00    -0.276 OA
ATOM     17  H   LIG d   1      -4.206  79.779 117.223  0.00  0.00     0.149 HD
ENDBRANCH   6  13
BRANCH   5  18
ATOM     18  N   LIG d   1      -1.043  80.095 116.338  0.00  0.00     0.381 N 
ATOM     19  H   LIG d   1      -0.151  79.786 116.008  0.00  0.00    -0.090 HD
ATOM     20  H   LIG d   1      -1.176  79.740 117.269  0.00  0.00    -0.090 HD
ATOM     21  H   LIG d   1      -1.075  81.091 116.347  0.00  0.00    -0.090 HD
ENDBRANCH   5  18
BRANCH   3  22
ATOM     22  C   LIG d   1      -2.072  78.363 111.993  0.00  0.00     0.382 C 
ATOM     23  O   LIG d   1      -2.202  77.312 111.320  0.00  0.00    -0.241 OA
ATOM     24  O   LIG d   1      -1.658  79.399 111.439  0.00  0.00    -0.241 OA
ENDBRANCH   3  22
TORSDOF 7
ENDMDL
MODEL 8
REMARK VINA RESULT:      -4.8      1.924      4.722
REMARK  7 active torsions:
REMARK  status: ('A' for Active; 'I' for Inactive)
REMARK    1  A    between atoms: C_2  and  C_3 
REMARK    2  A    between atoms: C_3  and  O_6 
REMARK    3  A    between atoms: C_3  and  C_4 
REMARK    4  A    between atoms: C_7  and  O_6 
REMARK    5  A    between atoms: C_9  and  C_10 
REMARK    6  A    between atoms: N_15  and  C_14 
REMARK    7  A    between atoms: N_20  and  C_19 
REMARK       I    between atoms: C_22  and  N_20 
ROOT
ATOM      1  C   LIG d   1      -3.047  77.910 115.325  0.00  0.00     0.161 C 
ATOM      2  C   LIG d   1      -3.138  78.740 114.196  0.00  0.00     0.016 C 
ATOM      3  C   LIG d   1      -2.163  79.707 113.860  0.00  0.00     0.038 C 
ATOM      4  C   LIG d   1      -0.947  79.806 114.553  0.00  0.00     0.028 C 
ATOM      5  C   LIG d   1      -1.035  79.333 116.000  0.00  0.00    -0.047 C 
ATOM      6  C   LIG d   1      -1.675  77.926 116.031  0.00  0.00     0.091 C 
ENDROOT
BRANCH   1   7
ATOM      7  O   LIG d   1      -3.413  76.562 114.971  0.00  0.00    -0.368 OA
BRANCH   7   8
ATOM      8  C   LIG d   1      -4.509  75.981 115.720  0.00  0.00     0.119 C 
BRANCH   8   9
ATOM      9  C   LIG d   1      -5.430  75.267 114.712  0.00  0.00     0.028 C 
ATOM     10  C   LIG d   1      -6.342  74.227 115.385  0.00  0.00     0.006 C 
ENDBRANCH   8   9
BRANCH   8  11
ATOM     11  C   LIG d   1      -5.378  77.064 116.366  0.00  0.00     0.028 C 
ATOM     12  C   LIG d   1      -5.491  76.906 117.891  0.00  0.00     0.006 C 
ENDBRANCH   8  11
ENDBRANCH   7   8
ENDBRANCH   1   7
BRANCH   6  13
ATOM     13  N   LIG d   1      -1.876  77.425 117.416  0.00  0.00    -0.311 N 
ATOM     14  C   LIG d   1      -0.998  76.648 118.048  0.00  0.00     0.210 C 
ATOM     15  C   LIG d   1      -1.409  76.227 119.463  0.00  0.00     0.109 C 
ATOM     16  O   LIG d   1       0.097  76.295 117.584  0.00  0.00    -0.276 OA
ATOM     17  H   LIG d   1      -2.723  77.690 117.879  0.00  0.00     0.149 HD
ENDBRANCH   6  13
BRANCH   5  18
ATOM     18  N   LIG d   1       0.329  79.360 116.562  0.00  0.00     0.381 N 
ATOM     19  H   LIG d   1       0.939  79.859 115.946  0.00  0.00    -0.090 HD
ATOM     20  H   LIG d   1       0.665  78.417 116.644  0.00  0.00    -0.090 HD
ATOM     21  H   LIG d   1       0.320  79.796 117.457  0.00  0.00    -0.090 HD
ENDBRANCH   5  18
BRANCH   3  22
ATOM     22  C   LIG d   1      -2.417  80.616 112.844  0.00  0.00     0.382 C 
ATOM     23  O   LIG d   1      -3.519  81.213 112.798  0.00  0.00    -0.241 OA
ATOM     24  O   LIG d   1      -1.575  80.813 111.947  0.00  0.00    -0.241 OA
ENDBRANCH   3  22
TORSDOF 7
ENDMDL
MODEL 9
REMARK VINA RESULT:      -4.6      2.825      4.300
REMARK  7 active torsions:
REMARK  status: ('A' for Active; 'I' for Inactive)
REMARK    1  A    between atoms: C_2  and  C_3 
REMARK    2  A    between atoms: C_3  and  O_6 
REMARK    3  A    between atoms: C_3  and  C_4 
REMARK    4  A    between atoms: C_7  and  O_6 
REMARK    5  A    between atoms: C_9  and  C_10 
REMARK    6  A    between atoms: N_15  and  C_14 
REMARK    7  A    between atoms: N_20  and  C_19 
REMARK       I    between atoms: C_22  and  N_20 
ROOT
ATOM      1  C   LIG d   1      -4.805  77.194 117.772  0.00  0.00     0.161 C 
ATOM      2  C   LIG d   1      -5.579  78.359 117.902  0.00  0.00     0.016 C 
ATOM      3  C   LIG d   1      -5.173  79.622 117.413  0.00  0.00     0.038 C 
ATOM      4  C   LIG d   1      -4.025  79.776 116.622  0.00  0.00     0.028 C 
ATOM      5  C   LIG d   1      -2.956  78.724 116.894  0.00  0.00    -0.047 C 
ATOM      6  C   LIG d   1      -3.601  77.321 116.816  0.00  0.00     0.091 C 
ENDROOT
BRANCH   1   7
ATOM      7  O   LIG d   1      -5.644  76.091 117.378  0.00  0.00    -0.368 OA
BRANCH   7   8
ATOM      8  C   LIG d   1      -6.424  76.282 116.172  0.00  0.00     0.119 C 
BRANCH   8   9
ATOM      9  C   LIG d   1      -7.863  75.821 116.472  0.00  0.00     0.028 C 
ATOM     10  C   LIG d   1      -8.793  76.994 116.825  0.00  0.00     0.006 C 
ENDBRANCH   8   9
BRANCH   8  11
ATOM     11  C   LIG d   1      -5.934  75.372 115.041  0.00  0.00     0.028 C 
ATOM     12  C   LIG d   1      -5.414  76.158 113.827  0.00  0.00     0.006 C 
ENDBRANCH   8  11
ENDBRANCH   7   8
ENDBRANCH   1   7
BRANCH   6  13
ATOM     13  N   LIG d   1      -2.642  76.237 117.153  0.00  0.00    -0.311 N 
ATOM     14  C   LIG d   1      -2.039  75.481 116.237  0.00  0.00     0.210 C 
ATOM     15  C   LIG d   1      -1.104  74.406 116.800  0.00  0.00     0.109 C 
ATOM     16  O   LIG d   1      -2.165  75.619 115.011  0.00  0.00    -0.276 OA
ATOM     17  H   LIG d   1      -2.458  76.076 118.124  0.00  0.00     0.149 HD
ENDBRANCH   6  13
BRANCH   5  18
ATOM     18  N   LIG d   1      -1.876  78.920 115.909  0.00  0.00     0.381 N 
ATOM     19  H   LIG d   1      -1.313  78.094 115.855  0.00  0.00    -0.090 HD
ATOM     20  H   LIG d   1      -1.293  79.680 116.212  0.00  0.00    -0.090 HD
ATOM     21  H   LIG d   1      -2.264  79.125 115.014  0.00  0.00    -0.090 HD
ENDBRANCH   5  18
BRANCH   3  22
ATOM     22  C   LIG d   1      -5.899  80.755 117.748  0.00  0.00     0.382 C 
ATOM     23  O   LIG d   1      -6.990  80.992 117.175  0.00  0.00    -0.241 OA
ATOM     24  O   LIG d   1      -5.456  81.565 118.584  0.00  0.00    -0.241 OA
ENDBRANCH   3  22
TORSDOF 7
ENDMDL
