MODEL 1
REMARK VINA RESULT:      -4.9      0.000      0.000
REMARK  7 active torsions:
REMARK  status: ('A' for Active; 'I' for Inactive)
REMARK    1  A    between atoms: C_2  and  C_3 
REMARK    2  A    between atoms: C_3  and  O_6 
REMARK    3  A    between atoms: C_3  and  C_4 
REMARK    4  A    between atoms: C_7  and  O_6 
REMARK    5  A    between atoms: C_9  and  C_10 
REMARK    6  A    between atoms: N_15  and  C_14 
REMARK    7  A    between atoms: N_20  and  C_19 
REMARK       I    between atoms: C_22  and  N_20 
ROOT
ATOM      1  C   LIG d   1      -2.522  80.876 114.810  0.00  0.00     0.161 C 
ATOM      2  C   LIG d   1      -2.135  81.941 113.980  0.00  0.00     0.016 C 
ATOM      3  C   LIG d   1      -1.488  81.762 112.735  0.00  0.00     0.038 C 
ATOM      4  C   LIG d   1      -1.319  80.493 112.163  0.00  0.00     0.028 C 
ATOM      5  C   LIG d   1      -1.239  79.370 113.193  0.00  0.00    -0.047 C 
ATOM      6  C   LIG d   1      -2.446  79.482 114.152  0.00  0.00     0.091 C 
ENDROOT
BRANCH   1   7
ATOM      7  O   LIG d   1      -3.847  81.114 115.325  0.00  0.00    -0.368 OA
BRANCH   7   8
ATOM      8  C   LIG d   1      -3.920  81.733 116.633  0.00  0.00     0.119 C 
BRANCH   8   9
ATOM      9  C   LIG d   1      -2.649  81.332 117.407  0.00  0.00     0.028 C 
ATOM     10  C   LIG d   1      -2.020  82.518 118.157  0.00  0.00     0.006 C 
ENDBRANCH   8   9
BRANCH   8  11
ATOM     11  C   LIG d   1      -5.087  81.172 117.451  0.00  0.00     0.028 C 
ATOM     12  C   LIG d   1      -5.324  79.674 117.201  0.00  0.00     0.006 C 
ENDBRANCH   8  11
ENDBRANCH   7   8
ENDBRANCH   1   7
BRANCH   6  13
ATOM     13  N   LIG d   1      -2.400  78.472 115.241  0.00  0.00    -0.311 N 
ATOM     14  C   LIG d   1      -2.999  77.285 115.166  0.00  0.00     0.210 C 
ATOM     15  C   LIG d   1      -2.844  76.402 116.409  0.00  0.00     0.109 C 
ATOM     16  O   LIG d   1      -3.618  76.866 114.176  0.00  0.00    -0.276 OA
ATOM     17  H   LIG d   1      -1.893  78.717 116.069  0.00  0.00     0.149 HD
ENDBRANCH   6  13
BRANCH   5  18
ATOM     18  N   LIG d   1      -1.202  78.092 112.457  0.00  0.00     0.381 N 
ATOM     19  H   LIG d   1      -2.125  77.711 112.393  0.00  0.00    -0.090 HD
ATOM     20  H   LIG d   1      -0.626  77.442 112.962  0.00  0.00    -0.090 HD
ATOM     21  H   LIG d   1      -0.831  78.235 111.543  0.00  0.00    -0.090 HD
ENDBRANCH   5  18
BRANCH   3  22
ATOM     22  C   LIG d   1      -0.967  82.860 112.068  0.00  0.00     0.382 C 
ATOM     23  O   LIG d   1      -0.834  83.954 112.669  0.00  0.00    -0.241 OA
ATOM     24  O   LIG d   1      -0.668  82.783 110.861  0.00  0.00    -0.241 OA
ENDBRANCH   3  22
TORSDOF 7
ENDMDL
MODEL 2
REMARK VINA RESULT:      -4.9      2.356      5.253
REMARK  7 active torsions:
REMARK  status: ('A' for Active; 'I' for Inactive)
REMARK    1  A    between atoms: C_2  and  C_3 
REMARK    2  A    between atoms: C_3  and  O_6 
REMARK    3  A    between atoms: C_3  and  C_4 
REMARK    4  A    between atoms: C_7  and  O_6 
REMARK    5  A    between atoms: C_9  and  C_10 
REMARK    6  A    between atoms: N_15  and  C_14 
REMARK    7  A    between atoms: N_20  and  C_19 
REMARK       I    between atoms: C_22  and  N_20 
ROOT
ATOM      1  C   LIG d   1      -1.545  81.440 113.859  0.00  0.00     0.161 C 
ATOM      2  C   LIG d   1      -2.043  80.321 114.547  0.00  0.00     0.016 C 
ATOM      3  C   LIG d   1      -2.099  79.024 113.986  0.00  0.00     0.038 C 
ATOM      4  C   LIG d   1      -1.517  78.728 112.744  0.00  0.00     0.028 C 
ATOM      5  C   LIG d   1      -1.456  79.926 111.803  0.00  0.00    -0.047 C 
ATOM      6  C   LIG d   1      -0.805  81.115 112.545  0.00  0.00     0.091 C 
ENDROOT
BRANCH   1   7
ATOM      7  O   LIG d   1      -0.700  82.214 114.733  0.00  0.00    -0.368 OA
BRANCH   7   8
ATOM      8  C   LIG d   1      -1.326  83.343 115.390  0.00  0.00     0.119 C 
BRANCH   8   9
ATOM      9  C   LIG d   1      -1.009  84.599 114.555  0.00  0.00     0.028 C 
ATOM     10  C   LIG d   1       0.474  84.679 114.155  0.00  0.00     0.006 C 
ENDBRANCH   8   9
BRANCH   8  11
ATOM     11  C   LIG d   1      -0.704  83.603 116.765  0.00  0.00     0.028 C 
ATOM     12  C   LIG d   1      -1.444  82.878 117.901  0.00  0.00     0.006 C 
ENDBRANCH   8  11
ENDBRANCH   7   8
ENDBRANCH   1   7
BRANCH   6  13
ATOM     13  N   LIG d   1      -0.783  82.353 111.723  0.00  0.00    -0.311 N 
ATOM     14  C   LIG d   1       0.261  82.723 110.982  0.00  0.00     0.210 C 
ATOM     15  C   LIG d   1       0.082  84.044 110.228  0.00  0.00     0.109 C 
ATOM     16  O   LIG d   1       1.304  82.066 110.853  0.00  0.00    -0.276 OA
ATOM     17  H   LIG d   1      -1.601  82.930 111.745  0.00  0.00     0.149 HD
ENDBRANCH   6  13
BRANCH   5  18
ATOM     18  N   LIG d   1      -0.705  79.512 110.603  0.00  0.00     0.381 N 
ATOM     19  H   LIG d   1      -0.406  78.563 110.701  0.00  0.00    -0.090 HD
ATOM     20  H   LIG d   1       0.110  80.092 110.513  0.00  0.00    -0.090 HD
ATOM     21  H   LIG d   1      -1.278  79.605 109.793  0.00  0.00    -0.090 HD
ENDBRANCH   5  18
BRANCH   3  22
ATOM     22  C   LIG d   1      -2.778  78.016 114.653  0.00  0.00     0.382 C 
ATOM     23  O   LIG d   1      -2.462  76.816 114.463  0.00  0.00    -0.241 OA
ATOM     24  O   LIG d   1      -3.730  78.288 115.408  0.00  0.00    -0.241 OA
ENDBRANCH   3  22
TORSDOF 7
ENDMDL
MODEL 3
REMARK VINA RESULT:      -4.8      1.835      2.217
REMARK  7 active torsions:
REMARK  status: ('A' for Active; 'I' for Inactive)
REMARK    1  A    between atoms: C_2  and  C_3 
REMARK    2  A    between atoms: C_3  and  O_6 
REMARK    3  A    between atoms: C_3  and  C_4 
REMARK    4  A    between atoms: C_7  and  O_6 
REMARK    5  A    between atoms: C_9  and  C_10 
REMARK    6  A    between atoms: N_15  and  C_14 
REMARK    7  A    between atoms: N_20  and  C_19 
REMARK       I    between atoms: C_22  and  N_20 
ROOT
ATOM      1  C   LIG d   1      -0.033  80.955 114.670  0.00  0.00     0.161 C 
ATOM      2  C   LIG d   1      -0.154  82.116 113.888  0.00  0.00     0.016 C 
ATOM      3  C   LIG d   1      -0.815  82.148 112.639  0.00  0.00     0.038 C 
ATOM      4  C   LIG d   1      -1.535  81.047 112.152  0.00  0.00     0.028 C 
ATOM      5  C   LIG d   1      -1.016  79.709 112.667  0.00  0.00    -0.047 C 
ATOM      6  C   LIG d   1      -0.908  79.771 114.208  0.00  0.00     0.091 C 
ENDROOT
BRANCH   1   7
ATOM      7  O   LIG d   1      -0.300  81.266 116.052  0.00  0.00    -0.368 OA
BRANCH   7   8
ATOM      8  C   LIG d   1      -0.970  82.526 116.304  0.00  0.00     0.119 C 
BRANCH   8   9
ATOM      9  C   LIG d   1      -0.218  83.228 117.451  0.00  0.00     0.028 C 
ATOM     10  C   LIG d   1       0.273  84.632 117.058  0.00  0.00     0.006 C 
ENDBRANCH   8   9
BRANCH   8  11
ATOM     11  C   LIG d   1      -2.392  82.306 116.826  0.00  0.00     0.028 C 
ATOM     12  C   LIG d   1      -3.435  82.226 115.700  0.00  0.00     0.006 C 
ENDBRANCH   8  11
ENDBRANCH   7   8
ENDBRANCH   1   7
BRANCH   6  13
ATOM     13  N   LIG d   1      -0.329  78.531 114.786  0.00  0.00    -0.311 N 
ATOM     14  C   LIG d   1      -1.064  77.497 115.192  0.00  0.00     0.210 C 
ATOM     15  C   LIG d   1      -0.268  76.326 115.776  0.00  0.00     0.109 C 
ATOM     16  O   LIG d   1      -2.299  77.426 115.093  0.00  0.00    -0.276 OA
ATOM     17  H   LIG d   1       0.668  78.491 114.874  0.00  0.00     0.149 HD
ENDBRANCH   6  13
BRANCH   5  18
ATOM     18  N   LIG d   1      -1.940  78.660 112.194  0.00  0.00     0.381 N 
ATOM     19  H   LIG d   1      -1.886  78.586 111.198  0.00  0.00    -0.090 HD
ATOM     20  H   LIG d   1      -2.879  78.919 112.441  0.00  0.00    -0.090 HD
ATOM     21  H   LIG d   1      -1.707  77.787 112.612  0.00  0.00    -0.090 HD
ENDBRANCH   5  18
BRANCH   3  22
ATOM     22  C   LIG d   1      -0.725  83.280 111.842  0.00  0.00     0.382 C 
ATOM     23  O   LIG d   1      -0.765  84.419 112.366  0.00  0.00    -0.241 OA
ATOM     24  O   LIG d   1      -0.648  83.176 110.604  0.00  0.00    -0.241 OA
ENDBRANCH   3  22
TORSDOF 7
ENDMDL
MODEL 4
REMARK VINA RESULT:      -4.7      3.609      6.698
REMARK  7 active torsions:
REMARK  status: ('A' for Active; 'I' for Inactive)
REMARK    1  A    between atoms: C_2  and  C_3 
REMARK    2  A    between atoms: C_3  and  O_6 
REMARK    3  A    between atoms: C_3  and  C_4 
REMARK    4  A    between atoms: C_7  and  O_6 
REMARK    5  A    between atoms: C_9  and  C_10 
REMARK    6  A    between atoms: N_15  and  C_14 
REMARK    7  A    between atoms: N_20  and  C_19 
REMARK       I    between atoms: C_22  and  N_20 
ROOT
ATOM      1  C   LIG d   1      -1.535  75.412 115.382  0.00  0.00     0.161 C 
ATOM      2  C   LIG d   1      -1.035  74.822 116.555  0.00  0.00     0.016 C 
ATOM      3  C   LIG d   1      -0.435  75.559 117.602  0.00  0.00     0.038 C 
ATOM      4  C   LIG d   1      -0.430  76.962 117.613  0.00  0.00     0.028 C 
ATOM      5  C   LIG d   1      -0.469  77.578 116.219  0.00  0.00    -0.047 C 
ATOM      6  C   LIG d   1      -1.638  76.951 115.425  0.00  0.00     0.091 C 
ENDROOT
BRANCH   1   7
ATOM      7  O   LIG d   1      -2.812  74.833 115.049  0.00  0.00    -0.368 OA
BRANCH   7   8
ATOM      8  C   LIG d   1      -3.978  75.527 115.558  0.00  0.00     0.119 C 
BRANCH   8   9
ATOM      9  C   LIG d   1      -4.417  74.811 116.849  0.00  0.00     0.028 C 
ATOM     10  C   LIG d   1      -4.310  75.717 118.088  0.00  0.00     0.006 C 
ENDBRANCH   8   9
BRANCH   8  11
ATOM     11  C   LIG d   1      -5.165  75.398 114.599  0.00  0.00     0.028 C 
ATOM     12  C   LIG d   1      -6.355  74.650 115.221  0.00  0.00     0.006 C 
ENDBRANCH   8  11
ENDBRANCH   7   8
ENDBRANCH   1   7
BRANCH   6  13
ATOM     13  N   LIG d   1      -1.696  77.437 114.022  0.00  0.00    -0.311 N 
ATOM     14  C   LIG d   1      -2.461  78.454 113.630  0.00  0.00     0.210 C 
ATOM     15  C   LIG d   1      -2.387  78.781 112.135  0.00  0.00     0.109 C 
ATOM     16  O   LIG d   1      -3.170  79.138 114.384  0.00  0.00    -0.276 OA
ATOM     17  H   LIG d   1      -1.129  76.959 113.350  0.00  0.00     0.149 HD
ENDBRANCH   6  13
BRANCH   5  18
ATOM     18  N   LIG d   1      -0.599  79.039 116.381  0.00  0.00     0.381 N 
ATOM     19  H   LIG d   1      -0.602  79.273 117.354  0.00  0.00    -0.090 HD
ATOM     20  H   LIG d   1      -1.473  79.334 115.983  0.00  0.00    -0.090 HD
ATOM     21  H   LIG d   1       0.156  79.501 115.923  0.00  0.00    -0.090 HD
ENDBRANCH   5  18
BRANCH   3  22
ATOM     22  C   LIG d   1       0.204  74.890 118.635  0.00  0.00     0.382 C 
ATOM     23  O   LIG d   1      -0.467  74.230 119.465  0.00  0.00    -0.241 OA
ATOM     24  O   LIG d   1       1.439  74.973 118.773  0.00  0.00    -0.241 OA
ENDBRANCH   3  22
TORSDOF 7
ENDMDL
MODEL 5
REMARK VINA RESULT:      -4.5      2.708      4.319
REMARK  7 active torsions:
REMARK  status: ('A' for Active; 'I' for Inactive)
REMARK    1  A    between atoms: C_2  and  C_3 
REMARK    2  A    between atoms: C_3  and  O_6 
REMARK    3  A    between atoms: C_3  and  C_4 
REMARK    4  A    between atoms: C_7  and  O_6 
REMARK    5  A    between atoms: C_9  and  C_10 
REMARK    6  A    between atoms: N_15  and  C_14 
REMARK    7  A    between atoms: N_20  and  C_19 
REMARK       I    between atoms: C_22  and  N_20 
ROOT
ATOM      1  C   LIG d   1      -2.548  78.132 115.005  0.00  0.00     0.161 C 
ATOM      2  C   LIG d   1      -2.701  78.950 113.873  0.00  0.00     0.016 C 
ATOM      3  C   LIG d   1      -1.797  79.981 113.530  0.00  0.00     0.038 C 
ATOM      4  C   LIG d   1      -0.588  80.167 114.218  0.00  0.00     0.028 C 
ATOM      5  C   LIG d   1      -0.638  79.696 115.667  0.00  0.00    -0.047 C 
ATOM      6  C   LIG d   1      -1.177  78.248 115.705  0.00  0.00     0.091 C 
ENDROOT
BRANCH   1   7
ATOM      7  O   LIG d   1      -2.819  76.760 114.658  0.00  0.00    -0.368 OA
BRANCH   7   8
ATOM      8  C   LIG d   1      -3.910  76.126 115.369  0.00  0.00     0.119 C 
BRANCH   8   9
ATOM      9  C   LIG d   1      -3.328  74.917 116.127  0.00  0.00     0.028 C 
ATOM     10  C   LIG d   1      -1.965  74.476 115.570  0.00  0.00     0.006 C 
ENDBRANCH   8   9
BRANCH   8  11
ATOM     11  C   LIG d   1      -4.941  75.539 114.400  0.00  0.00     0.028 C 
ATOM     12  C   LIG d   1      -6.249  75.133 115.096  0.00  0.00     0.006 C 
ENDBRANCH   8  11
ENDBRANCH   7   8
ENDBRANCH   1   7
BRANCH   6  13
ATOM     13  N   LIG d   1      -1.337  77.739 117.093  0.00  0.00    -0.311 N 
ATOM     14  C   LIG d   1      -0.405  77.026 117.724  0.00  0.00     0.210 C 
ATOM     15  C   LIG d   1      -0.780  76.583 119.142  0.00  0.00     0.109 C 
ATOM     16  O   LIG d   1       0.708  76.746 117.256  0.00  0.00    -0.276 OA
ATOM     17  H   LIG d   1      -2.198  77.947 117.559  0.00  0.00     0.149 HD
ENDBRANCH   6  13
BRANCH   5  18
ATOM     18  N   LIG d   1       0.723  79.820 116.223  0.00  0.00     0.381 N 
ATOM     19  H   LIG d   1       0.882  79.097 116.896  0.00  0.00    -0.090 HD
ATOM     20  H   LIG d   1       0.804  80.707 116.688  0.00  0.00    -0.090 HD
ATOM     21  H   LIG d   1       1.397  79.758 115.492  0.00  0.00    -0.090 HD
ENDBRANCH   5  18
BRANCH   3  22
ATOM     22  C   LIG d   1      -2.118  80.865 112.511  0.00  0.00     0.382 C 
ATOM     23  O   LIG d   1      -3.166  81.551 112.583  0.00  0.00    -0.241 OA
ATOM     24  O   LIG d   1      -1.395  80.954 111.500  0.00  0.00    -0.241 OA
ENDBRANCH   3  22
TORSDOF 7
ENDMDL
MODEL 6
REMARK VINA RESULT:      -4.4      3.670      5.191
REMARK  7 active torsions:
REMARK  status: ('A' for Active; 'I' for Inactive)
REMARK    1  A    between atoms: C_2  and  C_3 
REMARK    2  A    between atoms: C_3  and  O_6 
REMARK    3  A    between atoms: C_3  and  C_4 
REMARK    4  A    between atoms: C_7  and  O_6 
REMARK    5  A    between atoms: C_9  and  C_10 
REMARK    6  A    between atoms: N_15  and  C_14 
REMARK    7  A    between atoms: N_20  and  C_19 
REMARK       I    between atoms: C_22  and  N_20 
ROOT
ATOM      1  C   LIG d   1      -3.083  76.422 116.000  0.00  0.00     0.161 C 
ATOM      2  C   LIG d   1      -3.399  77.043 114.780  0.00  0.00     0.016 C 
ATOM      3  C   LIG d   1      -2.450  77.731 113.989  0.00  0.00     0.038 C 
ATOM      4  C   LIG d   1      -1.081  77.714 114.292  0.00  0.00     0.028 C 
ATOM      5  C   LIG d   1      -0.791  77.529 115.778  0.00  0.00    -0.047 C 
ATOM      6  C   LIG d   1      -1.573  76.299 116.292  0.00  0.00     0.091 C 
ENDROOT
BRANCH   1   7
ATOM      7  O   LIG d   1      -3.714  75.128 116.068  0.00  0.00    -0.368 OA
BRANCH   7   8
ATOM      8  C   LIG d   1      -4.786  74.990 117.032  0.00  0.00     0.119 C 
BRANCH   8   9
ATOM      9  C   LIG d   1      -6.040  74.526 116.267  0.00  0.00     0.028 C 
ATOM     10  C   LIG d   1      -7.087  75.643 116.123  0.00  0.00     0.006 C 
ENDBRANCH   8   9
BRANCH   8  11
ATOM     11  C   LIG d   1      -5.162  76.343 117.644  0.00  0.00     0.028 C 
ATOM     12  C   LIG d   1      -4.840  76.429 119.144  0.00  0.00     0.006 C 
ENDBRANCH   8  11
ENDBRANCH   7   8
ENDBRANCH   1   7
BRANCH   6  13
ATOM     13  N   LIG d   1      -1.412  76.096 117.755  0.00  0.00    -0.311 N 
ATOM     14  C   LIG d   1      -0.490  75.296 118.288  0.00  0.00     0.210 C 
ATOM     15  C   LIG d   1      -0.509  75.215 119.817  0.00  0.00     0.109 C 
ATOM     16  O   LIG d   1       0.363  74.671 117.640  0.00  0.00    -0.276 OA
ATOM     17  H   LIG d   1      -2.043  76.590 118.356  0.00  0.00     0.149 HD
ENDBRANCH   6  13
BRANCH   5  18
ATOM     18  N   LIG d   1       0.669  77.393 115.934  0.00  0.00     0.381 N 
ATOM     19  H   LIG d   1       1.064  77.006 115.100  0.00  0.00    -0.090 HD
ATOM     20  H   LIG d   1       0.858  76.763 116.694  0.00  0.00    -0.090 HD
ATOM     21  H   LIG d   1       1.077  78.282 116.121  0.00  0.00    -0.090 HD
ENDBRANCH   5  18
BRANCH   3  22
ATOM     22  C   LIG d   1      -2.875  78.478 112.901  0.00  0.00     0.382 C 
ATOM     23  O   LIG d   1      -2.954  79.727 112.991  0.00  0.00    -0.241 OA
ATOM     24  O   LIG d   1      -3.224  77.916 111.846  0.00  0.00    -0.241 OA
ENDBRANCH   3  22
TORSDOF 7
ENDMDL
MODEL 7
REMARK VINA RESULT:      -4.4      2.227      4.177
REMARK  7 active torsions:
REMARK  status: ('A' for Active; 'I' for Inactive)
REMARK    1  A    between atoms: C_2  and  C_3 
REMARK    2  A    between atoms: C_3  and  O_6 
REMARK    3  A    between atoms: C_3  and  C_4 
REMARK    4  A    between atoms: C_7  and  O_6 
REMARK    5  A    between atoms: C_9  and  C_10 
REMARK    6  A    between atoms: N_15  and  C_14 
REMARK    7  A    between atoms: N_20  and  C_19 
REMARK       I    between atoms: C_22  and  N_20 
ROOT
ATOM      1  C   LIG d   1      -2.627  81.655 113.833  0.00  0.00     0.161 C 
ATOM      2  C   LIG d   1      -1.838  81.890 112.695  0.00  0.00     0.016 C 
ATOM      3  C   LIG d   1      -0.710  82.743 112.693  0.00  0.00     0.038 C 
ATOM      4  C   LIG d   1      -0.204  83.305 113.875  0.00  0.00     0.028 C 
ATOM      5  C   LIG d   1      -1.262  83.500 114.955  0.00  0.00    -0.047 C 
ATOM      6  C   LIG d   1      -2.025  82.171 115.157  0.00  0.00     0.091 C 
ENDROOT
BRANCH   1   7
ATOM      7  O   LIG d   1      -2.931  80.249 113.936  0.00  0.00    -0.368 OA
BRANCH   7   8
ATOM      8  C   LIG d   1      -1.832  79.386 114.320  0.00  0.00     0.119 C 
BRANCH   8   9
ATOM      9  C   LIG d   1      -1.814  78.197 113.341  0.00  0.00     0.028 C 
ATOM     10  C   LIG d   1      -2.710  78.433 112.113  0.00  0.00     0.006 C 
ENDBRANCH   8   9
BRANCH   8  11
ATOM     11  C   LIG d   1      -2.064  78.770 115.702  0.00  0.00     0.028 C 
ATOM     12  C   LIG d   1      -3.554  78.557 116.017  0.00  0.00     0.006 C 
ENDBRANCH   8  11
ENDBRANCH   7   8
ENDBRANCH   1   7
BRANCH   6  13
ATOM     13  N   LIG d   1      -3.135  82.298 116.137  0.00  0.00    -0.311 N 
ATOM     14  C   LIG d   1      -3.015  81.979 117.425  0.00  0.00     0.210 C 
ATOM     15  C   LIG d   1      -4.287  82.166 118.258  0.00  0.00     0.109 C 
ATOM     16  O   LIG d   1      -1.968  81.591 117.963  0.00  0.00    -0.276 OA
ATOM     17  H   LIG d   1      -4.012  82.635 115.792  0.00  0.00     0.149 HD
ENDBRANCH   6  13
BRANCH   5  18
ATOM     18  N   LIG d   1      -0.574  83.963 116.175  0.00  0.00     0.381 N 
ATOM     19  H   LIG d   1      -0.206  84.881 116.029  0.00  0.00    -0.090 HD
ATOM     20  H   LIG d   1       0.193  83.343 116.370  0.00  0.00    -0.090 HD
ATOM     21  H   LIG d   1      -1.209  83.970 116.943  0.00  0.00    -0.090 HD
ENDBRANCH   5  18
BRANCH   3  22
ATOM     22  C   LIG d   1      -0.101  83.074 111.493  0.00  0.00     0.382 C 
ATOM     23  O   LIG d   1      -0.796  83.242 110.462  0.00  0.00    -0.241 OA
ATOM     24  O   LIG d   1       1.139  83.162 111.417  0.00  0.00    -0.241 OA
ENDBRANCH   3  22
TORSDOF 7
ENDMDL
MODEL 8
REMARK VINA RESULT:      -4.3      4.090      6.044
REMARK  7 active torsions:
REMARK  status: ('A' for Active; 'I' for Inactive)
REMARK    1  A    between atoms: C_2  and  C_3 
REMARK    2  A    between atoms: C_3  and  O_6 
REMARK    3  A    between atoms: C_3  and  C_4 
REMARK    4  A    between atoms: C_7  and  O_6 
REMARK    5  A    between atoms: C_9  and  C_10 
REMARK    6  A    between atoms: N_15  and  C_14 
REMARK    7  A    between atoms: N_20  and  C_19 
REMARK       I    between atoms: C_22  and  N_20 
ROOT
ATOM      1  C   LIG d   1      -4.788  76.809 117.541  0.00  0.00     0.161 C 
ATOM      2  C   LIG d   1      -5.647  77.919 117.591  0.00  0.00     0.016 C 
ATOM      3  C   LIG d   1      -5.274  79.212 117.159  0.00  0.00     0.038 C 
ATOM      4  C   LIG d   1      -4.057  79.452 116.503  0.00  0.00     0.028 C 
ATOM      5  C   LIG d   1      -2.958  78.467 116.886  0.00  0.00    -0.047 C 
ATOM      6  C   LIG d   1      -3.496  77.027 116.726  0.00  0.00     0.091 C 
ENDROOT
BRANCH   1   7
ATOM      7  O   LIG d   1      -5.503  75.659 117.047  0.00  0.00    -0.368 OA
BRANCH   7   8
ATOM      8  C   LIG d   1      -6.792  75.923 116.439  0.00  0.00     0.119 C 
BRANCH   8   9
ATOM      9  C   LIG d   1      -7.822  74.998 117.117  0.00  0.00     0.028 C 
ATOM     10  C   LIG d   1      -8.017  75.330 118.606  0.00  0.00     0.006 C 
ENDBRANCH   8   9
BRANCH   8  11
ATOM     11  C   LIG d   1      -6.801  75.525 114.960  0.00  0.00     0.028 C 
ATOM     12  C   LIG d   1      -5.425  75.057 114.460  0.00  0.00     0.006 C 
ENDBRANCH   8  11
ENDBRANCH   7   8
ENDBRANCH   1   7
BRANCH   6  13
ATOM     13  N   LIG d   1      -2.511  76.002 117.161  0.00  0.00    -0.311 N 
ATOM     14  C   LIG d   1      -1.896  75.173 116.320  0.00  0.00     0.210 C 
ATOM     15  C   LIG d   1      -0.933  74.180 116.979  0.00  0.00     0.109 C 
ATOM     16  O   LIG d   1      -2.031  75.188 115.087  0.00  0.00    -0.276 OA
ATOM     17  H   LIG d   1      -2.318  75.942 118.142  0.00  0.00     0.149 HD
ENDBRANCH   6  13
BRANCH   5  18
ATOM     18  N   LIG d   1      -1.790  78.747 116.029  0.00  0.00     0.381 N 
ATOM     19  H   LIG d   1      -1.006  78.209 116.340  0.00  0.00    -0.090 HD
ATOM     20  H   LIG d   1      -1.555  79.721 116.107  0.00  0.00    -0.090 HD
ATOM     21  H   LIG d   1      -2.001  78.523 115.082  0.00  0.00    -0.090 HD
ENDBRANCH   5  18
BRANCH   3  22
ATOM     22  C   LIG d   1      -6.106  80.291 117.418  0.00  0.00     0.382 C 
ATOM     23  O   LIG d   1      -7.350  80.157 117.330  0.00  0.00    -0.241 OA
ATOM     24  O   LIG d   1      -5.626  81.406 117.695  0.00  0.00    -0.241 OA
ENDBRANCH   3  22
TORSDOF 7
ENDMDL
MODEL 9
REMARK VINA RESULT:      -4.2      2.606      2.996
REMARK  7 active torsions:
REMARK  status: ('A' for Active; 'I' for Inactive)
REMARK    1  A    between atoms: C_2  and  C_3 
REMARK    2  A    between atoms: C_3  and  O_6 
REMARK    3  A    between atoms: C_3  and  C_4 
REMARK    4  A    between atoms: C_7  and  O_6 
REMARK    5  A    between atoms: C_9  and  C_10 
REMARK    6  A    between atoms: N_15  and  C_14 
REMARK    7  A    between atoms: N_20  and  C_19 
REMARK       I    between atoms: C_22  and  N_20 
ROOT
ATOM      1  C   LIG d   1      -0.157  80.451 115.355  0.00  0.00     0.161 C 
ATOM      2  C   LIG d   1      -0.795  81.234 114.379  0.00  0.00     0.016 C 
ATOM      3  C   LIG d   1      -1.728  80.715 113.453  0.00  0.00     0.038 C 
ATOM      4  C   LIG d   1      -2.203  79.398 113.538  0.00  0.00     0.028 C 
ATOM      5  C   LIG d   1      -1.212  78.438 114.188  0.00  0.00    -0.047 C 
ATOM      6  C   LIG d   1      -0.745  79.036 115.535  0.00  0.00     0.091 C 
ENDROOT
BRANCH   1   7
ATOM      7  O   LIG d   1      -0.146  81.153 116.614  0.00  0.00    -0.368 OA
BRANCH   7   8
ATOM      8  C   LIG d   1      -0.910  82.383 116.665  0.00  0.00     0.119 C 
BRANCH   8   9
ATOM      9  C   LIG d   1       0.052  83.509 117.090  0.00  0.00     0.028 C 
ATOM     10  C   LIG d   1       0.062  84.679 116.092  0.00  0.00     0.006 C 
ENDBRANCH   8   9
BRANCH   8  11
ATOM     11  C   LIG d   1      -1.980  82.329 117.760  0.00  0.00     0.028 C 
ATOM     12  C   LIG d   1      -3.073  81.288 117.475  0.00  0.00     0.006 C 
ENDBRANCH   8  11
ENDBRANCH   7   8
ENDBRANCH   1   7
BRANCH   6  13
ATOM     13  N   LIG d   1       0.290  78.200 116.198  0.00  0.00    -0.311 N 
ATOM     14  C   LIG d   1       0.150  77.693 117.421  0.00  0.00     0.210 C 
ATOM     15  C   LIG d   1       1.344  76.877 117.924  0.00  0.00     0.109 C 
ATOM     16  O   LIG d   1      -0.864  77.815 118.125  0.00  0.00    -0.276 OA
ATOM     17  H   LIG d   1       1.132  78.025 115.685  0.00  0.00     0.149 HD
ENDBRANCH   6  13
BRANCH   5  18
ATOM     18  N   LIG d   1      -1.887  77.135 114.338  0.00  0.00     0.381 N 
ATOM     19  H   LIG d   1      -2.662  77.081 113.708  0.00  0.00    -0.090 HD
ATOM     20  H   LIG d   1      -2.236  77.055 115.276  0.00  0.00    -0.090 HD
ATOM     21  H   LIG d   1      -1.246  76.395 114.151  0.00  0.00    -0.090 HD
ENDBRANCH   5  18
BRANCH   3  22
ATOM     22  C   LIG d   1      -2.167  81.506 112.402  0.00  0.00     0.382 C 
ATOM     23  O   LIG d   1      -3.396  81.653 112.198  0.00  0.00    -0.241 OA
ATOM     24  O   LIG d   1      -1.349  82.040 111.629  0.00  0.00    -0.241 OA
ENDBRANCH   3  22
TORSDOF 7
ENDMDL
