MODEL 1
REMARK VINA RESULT:      -5.1      0.000      0.000
REMARK  7 active torsions:
REMARK  status: ('A' for Active; 'I' for Inactive)
REMARK    1  A    between atoms: C_2  and  C_3 
REMARK    2  A    between atoms: C_3  and  O_6 
REMARK    3  A    between atoms: C_3  and  C_4 
REMARK    4  A    between atoms: C_7  and  O_6 
REMARK    5  A    between atoms: C_9  and  C_10 
REMARK    6  A    between atoms: N_15  and  C_14 
REMARK    7  A    between atoms: N_20  and  C_19 
REMARK       I    between atoms: C_22  and  N_20 
ROOT
ATOM      1  C   LIG d   1      -1.682  74.957 115.421  0.00  0.00     0.161 C 
ATOM      2  C   LIG d   1      -1.212  74.539 116.677  0.00  0.00     0.016 C 
ATOM      3  C   LIG d   1      -0.670  75.422 117.639  0.00  0.00     0.038 C 
ATOM      4  C   LIG d   1      -0.699  76.814 117.467  0.00  0.00     0.028 C 
ATOM      5  C   LIG d   1      -0.702  77.244 116.004  0.00  0.00    -0.047 C 
ATOM      6  C   LIG d   1      -1.825  76.485 115.260  0.00  0.00     0.091 C 
ENDROOT
BRANCH   1   7
ATOM      7  O   LIG d   1      -2.932  74.303 115.124  0.00  0.00    -0.368 OA
BRANCH   7   8
ATOM      8  C   LIG d   1      -4.124  74.941 115.645  0.00  0.00     0.119 C 
BRANCH   8   9
ATOM      9  C   LIG d   1      -4.537  74.180 116.920  0.00  0.00     0.028 C 
ATOM     10  C   LIG d   1      -6.010  74.416 117.292  0.00  0.00     0.006 C 
ENDBRANCH   8   9
BRANCH   8  11
ATOM     11  C   LIG d   1      -5.304  74.787 114.681  0.00  0.00     0.028 C 
ATOM     12  C   LIG d   1      -5.696  76.109 114.002  0.00  0.00     0.006 C 
ENDBRANCH   8  11
ENDBRANCH   7   8
ENDBRANCH   1   7
BRANCH   6  13
ATOM     13  N   LIG d   1      -1.843  76.784 113.804  0.00  0.00    -0.311 N 
ATOM     14  C   LIG d   1      -2.472  77.834 113.279  0.00  0.00     0.210 C 
ATOM     15  C   LIG d   1      -2.382  77.945 111.754  0.00  0.00     0.109 C 
ATOM     16  O   LIG d   1      -3.069  78.701 113.934  0.00  0.00    -0.276 OA
ATOM     17  H   LIG d   1      -1.357  76.149 113.202  0.00  0.00     0.149 HD
ENDBRANCH   6  13
BRANCH   5  18
ATOM     18  N   LIG d   1      -0.873  78.709 115.970  0.00  0.00     0.381 N 
ATOM     19  H   LIG d   1      -0.873  79.071 116.902  0.00  0.00    -0.090 HD
ATOM     20  H   LIG d   1      -1.760  78.923 115.548  0.00  0.00    -0.090 HD
ATOM     21  H   LIG d   1      -0.138  79.126 115.443  0.00  0.00    -0.090 HD
ENDBRANCH   5  18
BRANCH   3  22
ATOM     22  C   LIG d   1      -0.053  74.911 118.771  0.00  0.00     0.382 C 
ATOM     23  O   LIG d   1      -0.731  74.666 119.797  0.00  0.00    -0.241 OA
ATOM     24  O   LIG d   1       1.180  74.734 118.793  0.00  0.00    -0.241 OA
ENDBRANCH   3  22
TORSDOF 7
ENDMDL
MODEL 2
REMARK VINA RESULT:      -4.9      3.122      3.952
REMARK  7 active torsions:
REMARK  status: ('A' for Active; 'I' for Inactive)
REMARK    1  A    between atoms: C_2  and  C_3 
REMARK    2  A    between atoms: C_3  and  O_6 
REMARK    3  A    between atoms: C_3  and  C_4 
REMARK    4  A    between atoms: C_7  and  O_6 
REMARK    5  A    between atoms: C_9  and  C_10 
REMARK    6  A    between atoms: N_15  and  C_14 
REMARK    7  A    between atoms: N_20  and  C_19 
REMARK       I    between atoms: C_22  and  N_20 
ROOT
ATOM      1  C   LIG d   1      -3.622  77.645 117.252  0.00  0.00     0.161 C 
ATOM      2  C   LIG d   1      -2.877  78.618 117.938  0.00  0.00     0.016 C 
ATOM      3  C   LIG d   1      -1.523  78.906 117.653  0.00  0.00     0.038 C 
ATOM      4  C   LIG d   1      -0.861  78.341 116.553  0.00  0.00     0.028 C 
ATOM      5  C   LIG d   1      -1.418  76.981 116.144  0.00  0.00    -0.047 C 
ATOM      6  C   LIG d   1      -2.950  77.096 115.976  0.00  0.00     0.091 C 
ENDROOT
BRANCH   1   7
ATOM      7  O   LIG d   1      -4.934  78.159 116.946  0.00  0.00    -0.368 OA
BRANCH   7   8
ATOM      8  C   LIG d   1      -6.008  77.723 117.816  0.00  0.00     0.119 C 
BRANCH   8   9
ATOM      9  C   LIG d   1      -6.776  76.609 117.080  0.00  0.00     0.028 C 
ATOM     10  C   LIG d   1      -6.504  75.217 117.675  0.00  0.00     0.006 C 
ENDBRANCH   8   9
BRANCH   8  11
ATOM     11  C   LIG d   1      -7.031  78.841 118.040  0.00  0.00     0.028 C 
ATOM     12  C   LIG d   1      -6.420  80.244 117.899  0.00  0.00     0.006 C 
ENDBRANCH   8  11
ENDBRANCH   7   8
ENDBRANCH   1   7
BRANCH   6  13
ATOM     13  N   LIG d   1      -3.585  75.791 115.659  0.00  0.00    -0.311 N 
ATOM     14  C   LIG d   1      -4.388  75.601 114.613  0.00  0.00     0.210 C 
ATOM     15  C   LIG d   1      -4.953  74.184 114.480  0.00  0.00     0.109 C 
ATOM     16  O   LIG d   1      -4.661  76.464 113.765  0.00  0.00    -0.276 OA
ATOM     17  H   LIG d   1      -3.393  75.028 116.278  0.00  0.00     0.149 HD
ENDBRANCH   6  13
BRANCH   5  18
ATOM     18  N   LIG d   1      -0.730  76.572 114.905  0.00  0.00     0.381 N 
ATOM     19  H   LIG d   1      -1.373  76.101 114.300  0.00  0.00    -0.090 HD
ATOM     20  H   LIG d   1       0.009  75.932 115.139  0.00  0.00    -0.090 HD
ATOM     21  H   LIG d   1      -0.353  77.371 114.444  0.00  0.00    -0.090 HD
ENDBRANCH   5  18
BRANCH   3  22
ATOM     22  C   LIG d   1      -0.804  79.739 118.497  0.00  0.00     0.382 C 
ATOM     23  O   LIG d   1      -1.004  79.700 119.735  0.00  0.00    -0.241 OA
ATOM     24  O   LIG d   1       0.010  80.559 118.032  0.00  0.00    -0.241 OA
ENDBRANCH   3  22
TORSDOF 7
ENDMDL
MODEL 3
REMARK VINA RESULT:      -4.8      3.068      4.086
REMARK  7 active torsions:
REMARK  status: ('A' for Active; 'I' for Inactive)
REMARK    1  A    between atoms: C_2  and  C_3 
REMARK    2  A    between atoms: C_3  and  O_6 
REMARK    3  A    between atoms: C_3  and  C_4 
REMARK    4  A    between atoms: C_7  and  O_6 
REMARK    5  A    between atoms: C_9  and  C_10 
REMARK    6  A    between atoms: N_15  and  C_14 
REMARK    7  A    between atoms: N_20  and  C_19 
REMARK       I    between atoms: C_22  and  N_20 
ROOT
ATOM      1  C   LIG d   1      -3.571  77.644 117.277  0.00  0.00     0.161 C 
ATOM      2  C   LIG d   1      -2.811  78.618 117.946  0.00  0.00     0.016 C 
ATOM      3  C   LIG d   1      -1.460  78.898 117.637  0.00  0.00     0.038 C 
ATOM      4  C   LIG d   1      -0.819  78.325 116.528  0.00  0.00     0.028 C 
ATOM      5  C   LIG d   1      -1.388  76.967 116.135  0.00  0.00    -0.047 C 
ATOM      6  C   LIG d   1      -2.923  77.088 115.992  0.00  0.00     0.091 C 
ENDROOT
BRANCH   1   7
ATOM      7  O   LIG d   1      -4.886  78.163 116.991  0.00  0.00    -0.368 OA
BRANCH   7   8
ATOM      8  C   LIG d   1      -5.983  77.550 117.711  0.00  0.00     0.119 C 
BRANCH   8   9
ATOM      9  C   LIG d   1      -6.473  78.566 118.761  0.00  0.00     0.028 C 
ATOM     10  C   LIG d   1      -7.336  79.679 118.142  0.00  0.00     0.006 C 
ENDBRANCH   8   9
BRANCH   8  11
ATOM     11  C   LIG d   1      -5.512  76.333 118.514  0.00  0.00     0.028 C 
ATOM     12  C   LIG d   1      -6.179  75.025 118.060  0.00  0.00     0.006 C 
ENDBRANCH   8  11
ENDBRANCH   7   8
ENDBRANCH   1   7
BRANCH   6  13
ATOM     13  N   LIG d   1      -3.569  75.784 115.691  0.00  0.00    -0.311 N 
ATOM     14  C   LIG d   1      -4.415  75.601 114.679  0.00  0.00     0.210 C 
ATOM     15  C   LIG d   1      -4.983  74.183 114.559  0.00  0.00     0.109 C 
ATOM     16  O   LIG d   1      -4.725  76.470 113.850  0.00  0.00    -0.276 OA
ATOM     17  H   LIG d   1      -3.349  75.016 116.295  0.00  0.00     0.149 HD
ENDBRANCH   6  13
BRANCH   5  18
ATOM     18  N   LIG d   1      -0.723  76.549 114.886  0.00  0.00     0.381 N 
ATOM     19  H   LIG d   1      -0.256  75.676 115.027  0.00  0.00    -0.090 HD
ATOM     20  H   LIG d   1      -0.035  77.238 114.639  0.00  0.00    -0.090 HD
ATOM     21  H   LIG d   1      -1.394  76.462 114.155  0.00  0.00    -0.090 HD
ENDBRANCH   5  18
BRANCH   3  22
ATOM     22  C   LIG d   1      -0.724  79.732 118.465  0.00  0.00     0.382 C 
ATOM     23  O   LIG d   1       0.085  80.552 117.970  0.00  0.00    -0.241 OA
ATOM     24  O   LIG d   1      -0.827  79.642 119.704  0.00  0.00    -0.241 OA
ENDBRANCH   3  22
TORSDOF 7
ENDMDL
MODEL 4
REMARK VINA RESULT:      -4.6      4.225      5.888
REMARK  7 active torsions:
REMARK  status: ('A' for Active; 'I' for Inactive)
REMARK    1  A    between atoms: C_2  and  C_3 
REMARK    2  A    between atoms: C_3  and  O_6 
REMARK    3  A    between atoms: C_3  and  C_4 
REMARK    4  A    between atoms: C_7  and  O_6 
REMARK    5  A    between atoms: C_9  and  C_10 
REMARK    6  A    between atoms: N_15  and  C_14 
REMARK    7  A    between atoms: N_20  and  C_19 
REMARK       I    between atoms: C_22  and  N_20 
ROOT
ATOM      1  C   LIG d   1      -5.560  77.623 117.594  0.00  0.00     0.161 C 
ATOM      2  C   LIG d   1      -6.634  78.528 117.576  0.00  0.00     0.016 C 
ATOM      3  C   LIG d   1      -6.630  79.755 118.277  0.00  0.00     0.038 C 
ATOM      4  C   LIG d   1      -5.482  80.234 118.927  0.00  0.00     0.028 C 
ATOM      5  C   LIG d   1      -4.545  79.126 119.394  0.00  0.00    -0.047 C 
ATOM      6  C   LIG d   1      -4.257  78.178 118.207  0.00  0.00     0.091 C 
ENDROOT
BRANCH   1   7
ATOM      7  O   LIG d   1      -5.315  77.126 116.263  0.00  0.00    -0.368 OA
BRANCH   7   8
ATOM      8  C   LIG d   1      -6.084  75.965 115.865  0.00  0.00     0.119 C 
BRANCH   8   9
ATOM      9  C   LIG d   1      -5.833  74.862 116.911  0.00  0.00     0.028 C 
ATOM     10  C   LIG d   1      -7.133  74.180 117.369  0.00  0.00     0.006 C 
ENDBRANCH   8   9
BRANCH   8  11
ATOM     11  C   LIG d   1      -5.578  75.389 114.539  0.00  0.00     0.028 C 
ATOM     12  C   LIG d   1      -4.616  74.206 114.732  0.00  0.00     0.006 C 
ENDBRANCH   8  11
ENDBRANCH   7   8
ENDBRANCH   1   7
BRANCH   6  13
ATOM     13  N   LIG d   1      -3.415  77.018 118.600  0.00  0.00    -0.311 N 
ATOM     14  C   LIG d   1      -2.336  76.632 117.920  0.00  0.00     0.210 C 
ATOM     15  C   LIG d   1      -1.623  75.400 118.484  0.00  0.00     0.109 C 
ATOM     16  O   LIG d   1      -1.885  77.212 116.921  0.00  0.00    -0.276 OA
ATOM     17  H   LIG d   1      -3.691  76.509 119.416  0.00  0.00     0.149 HD
ENDBRANCH   6  13
BRANCH   5  18
ATOM     18  N   LIG d   1      -3.329  79.767 119.929  0.00  0.00     0.381 N 
ATOM     19  H   LIG d   1      -2.543  79.162 119.802  0.00  0.00    -0.090 HD
ATOM     20  H   LIG d   1      -3.451  79.923 120.915  0.00  0.00    -0.090 HD
ATOM     21  H   LIG d   1      -3.168  80.634 119.466  0.00  0.00    -0.090 HD
ENDBRANCH   5  18
BRANCH   3  22
ATOM     22  C   LIG d   1      -7.796  80.500 118.365  0.00  0.00     0.382 C 
ATOM     23  O   LIG d   1      -8.524  80.407 119.383  0.00  0.00    -0.241 OA
ATOM     24  O   LIG d   1      -8.152  81.231 117.421  0.00  0.00    -0.241 OA
ENDBRANCH   3  22
TORSDOF 7
ENDMDL
MODEL 5
REMARK VINA RESULT:      -4.6      2.009      5.075
REMARK  7 active torsions:
REMARK  status: ('A' for Active; 'I' for Inactive)
REMARK    1  A    between atoms: C_2  and  C_3 
REMARK    2  A    between atoms: C_3  and  O_6 
REMARK    3  A    between atoms: C_3  and  C_4 
REMARK    4  A    between atoms: C_7  and  O_6 
REMARK    5  A    between atoms: C_9  and  C_10 
REMARK    6  A    between atoms: N_15  and  C_14 
REMARK    7  A    between atoms: N_20  and  C_19 
REMARK       I    between atoms: C_22  and  N_20 
ROOT
ATOM      1  C   LIG d   1      -3.642  76.041 116.159  0.00  0.00     0.161 C 
ATOM      2  C   LIG d   1      -4.017  76.413 114.857  0.00  0.00     0.016 C 
ATOM      3  C   LIG d   1      -3.088  76.761 113.850  0.00  0.00     0.038 C 
ATOM      4  C   LIG d   1      -1.705  76.613 114.033  0.00  0.00     0.028 C 
ATOM      5  C   LIG d   1      -1.272  76.724 115.491  0.00  0.00    -0.047 C 
ATOM      6  C   LIG d   1      -2.135  75.767 116.345  0.00  0.00     0.091 C 
ENDROOT
BRANCH   1   7
ATOM      7  O   LIG d   1      -4.415  74.901 116.583  0.00  0.00    -0.368 OA
BRANCH   7   8
ATOM      8  C   LIG d   1      -5.363  75.135 117.653  0.00  0.00     0.119 C 
BRANCH   8   9
ATOM      9  C   LIG d   1      -6.775  75.084 117.040  0.00  0.00     0.028 C 
ATOM     10  C   LIG d   1      -7.252  76.461 116.547  0.00  0.00     0.006 C 
ENDBRANCH   8   9
BRANCH   8  11
ATOM     11  C   LIG d   1      -5.220  76.549 118.224  0.00  0.00     0.028 C 
ATOM     12  C   LIG d   1      -4.849  76.555 119.716  0.00  0.00     0.006 C 
ENDBRANCH   8  11
ENDBRANCH   7   8
ENDBRANCH   1   7
BRANCH   6  13
ATOM     13  N   LIG d   1      -1.833  75.875 117.796  0.00  0.00    -0.311 N 
ATOM     14  C   LIG d   1      -0.981  75.070 118.430  0.00  0.00     0.210 C 
ATOM     15  C   LIG d   1      -0.831  75.340 119.930  0.00  0.00     0.109 C 
ATOM     16  O   LIG d   1      -0.311  74.180 117.885  0.00  0.00    -0.276 OA
ATOM     17  H   LIG d   1      -2.310  76.591 118.309  0.00  0.00     0.149 HD
ENDBRANCH   6  13
BRANCH   5  18
ATOM     18  N   LIG d   1       0.169  76.414 115.552  0.00  0.00     0.381 N 
ATOM     19  H   LIG d   1       0.666  77.191 115.939  0.00  0.00    -0.090 HD
ATOM     20  H   LIG d   1       0.508  76.255 114.620  0.00  0.00    -0.090 HD
ATOM     21  H   LIG d   1       0.319  75.602 116.111  0.00  0.00    -0.090 HD
ENDBRANCH   5  18
BRANCH   3  22
ATOM     22  C   LIG d   1      -3.540  77.301 112.655  0.00  0.00     0.382 C 
ATOM     23  O   LIG d   1      -4.770  77.452 112.461  0.00  0.00    -0.241 OA
ATOM     24  O   LIG d   1      -2.736  77.597 111.751  0.00  0.00    -0.241 OA
ENDBRANCH   3  22
TORSDOF 7
ENDMDL
MODEL 6
REMARK VINA RESULT:      -4.6      2.225      4.523
REMARK  7 active torsions:
REMARK  status: ('A' for Active; 'I' for Inactive)
REMARK    1  A    between atoms: C_2  and  C_3 
REMARK    2  A    between atoms: C_3  and  O_6 
REMARK    3  A    between atoms: C_3  and  C_4 
REMARK    4  A    between atoms: C_7  and  O_6 
REMARK    5  A    between atoms: C_9  and  C_10 
REMARK    6  A    between atoms: N_15  and  C_14 
REMARK    7  A    between atoms: N_20  and  C_19 
REMARK       I    between atoms: C_22  and  N_20 
ROOT
ATOM      1  C   LIG d   1      -2.660  78.185 115.967  0.00  0.00     0.161 C 
ATOM      2  C   LIG d   1      -1.454  78.757 116.405  0.00  0.00     0.016 C 
ATOM      3  C   LIG d   1      -0.370  77.999 116.905  0.00  0.00     0.038 C 
ATOM      4  C   LIG d   1      -0.363  76.597 116.860  0.00  0.00     0.028 C 
ATOM      5  C   LIG d   1      -1.758  75.982 116.895  0.00  0.00    -0.047 C 
ATOM      6  C   LIG d   1      -2.628  76.651 115.807  0.00  0.00     0.091 C 
ENDROOT
BRANCH   1   7
ATOM      7  O   LIG d   1      -3.078  78.809 114.737  0.00  0.00    -0.368 OA
BRANCH   7   8
ATOM      8  C   LIG d   1      -2.298  78.484 113.560  0.00  0.00     0.119 C 
BRANCH   8   9
ATOM      9  C   LIG d   1      -1.746  79.805 112.991  0.00  0.00     0.028 C 
ATOM     10  C   LIG d   1      -2.845  80.863 112.795  0.00  0.00     0.006 C 
ENDBRANCH   8   9
BRANCH   8  11
ATOM     11  C   LIG d   1      -3.179  77.901 112.451  0.00  0.00     0.028 C 
ATOM     12  C   LIG d   1      -2.384  77.544 111.185  0.00  0.00     0.006 C 
ENDBRANCH   8  11
ENDBRANCH   7   8
ENDBRANCH   1   7
BRANCH   6  13
ATOM     13  N   LIG d   1      -4.033  76.167 115.828  0.00  0.00    -0.311 N 
ATOM     14  C   LIG d   1      -4.466  75.139 115.100  0.00  0.00     0.210 C 
ATOM     15  C   LIG d   1      -5.956  74.818 115.256  0.00  0.00     0.109 C 
ATOM     16  O   LIG d   1      -3.751  74.443 114.364  0.00  0.00    -0.276 OA
ATOM     17  H   LIG d   1      -4.675  76.655 116.422  0.00  0.00     0.149 HD
ENDBRANCH   6  13
BRANCH   5  18
ATOM     18  N   LIG d   1      -1.609  74.527 116.703  0.00  0.00     0.381 N 
ATOM     19  H   LIG d   1      -0.639  74.283 116.707  0.00  0.00    -0.090 HD
ATOM     20  H   LIG d   1      -1.993  74.276 115.810  0.00  0.00    -0.090 HD
ATOM     21  H   LIG d   1      -2.085  74.037 117.428  0.00  0.00    -0.090 HD
ENDBRANCH   5  18
BRANCH   3  22
ATOM     22  C   LIG d   1       0.706  78.645 117.495  0.00  0.00     0.382 C 
ATOM     23  O   LIG d   1       0.974  79.830 117.182  0.00  0.00    -0.241 OA
ATOM     24  O   LIG d   1       1.438  78.043 118.303  0.00  0.00    -0.241 OA
ENDBRANCH   3  22
TORSDOF 7
ENDMDL
MODEL 7
REMARK VINA RESULT:      -4.4      3.051      5.201
REMARK  7 active torsions:
REMARK  status: ('A' for Active; 'I' for Inactive)
REMARK    1  A    between atoms: C_2  and  C_3 
REMARK    2  A    between atoms: C_3  and  O_6 
REMARK    3  A    between atoms: C_3  and  C_4 
REMARK    4  A    between atoms: C_7  and  O_6 
REMARK    5  A    between atoms: C_9  and  C_10 
REMARK    6  A    between atoms: N_15  and  C_14 
REMARK    7  A    between atoms: N_20  and  C_19 
REMARK       I    between atoms: C_22  and  N_20 
ROOT
ATOM      1  C   LIG d   1      -2.811  78.290 116.548  0.00  0.00     0.161 C 
ATOM      2  C   LIG d   1      -3.904  77.522 116.114  0.00  0.00     0.016 C 
ATOM      3  C   LIG d   1      -3.772  76.355 115.327  0.00  0.00     0.038 C 
ATOM      4  C   LIG d   1      -2.519  75.788 115.046  0.00  0.00     0.028 C 
ATOM      5  C   LIG d   1      -1.383  76.805 115.036  0.00  0.00    -0.047 C 
ATOM      6  C   LIG d   1      -1.433  77.626 116.345  0.00  0.00     0.091 C 
ENDROOT
BRANCH   1   7
ATOM      7  O   LIG d   1      -2.990  78.659 117.929  0.00  0.00    -0.368 OA
BRANCH   7   8
ATOM      8  C   LIG d   1      -4.210  78.196 118.559  0.00  0.00     0.119 C 
BRANCH   8   9
ATOM      9  C   LIG d   1      -4.977  79.439 119.051  0.00  0.00     0.028 C 
ATOM     10  C   LIG d   1      -4.080  80.409 119.838  0.00  0.00     0.006 C 
ENDBRANCH   8   9
BRANCH   8  11
ATOM     11  C   LIG d   1      -3.912  77.379 119.819  0.00  0.00     0.028 C 
ATOM     12  C   LIG d   1      -2.830  76.310 119.594  0.00  0.00     0.006 C 
ENDBRANCH   8  11
ENDBRANCH   7   8
ENDBRANCH   1   7
BRANCH   6  13
ATOM     13  N   LIG d   1      -0.406  78.700 116.379  0.00  0.00    -0.311 N 
ATOM     14  C   LIG d   1       0.480  78.836 117.364  0.00  0.00     0.210 C 
ATOM     15  C   LIG d   1       1.436  80.023 117.214  0.00  0.00     0.109 C 
ATOM     16  O   LIG d   1       0.585  78.068 118.332  0.00  0.00    -0.276 OA
ATOM     17  H   LIG d   1      -0.400  79.350 115.617  0.00  0.00     0.149 HD
ENDBRANCH   6  13
BRANCH   5  18
ATOM     18  N   LIG d   1      -0.121  76.061 114.867  0.00  0.00     0.381 N 
ATOM     19  H   LIG d   1      -0.145  75.540 114.013  0.00  0.00    -0.090 HD
ATOM     20  H   LIG d   1      -0.021  75.413 115.629  0.00  0.00    -0.090 HD
ATOM     21  H   LIG d   1       0.649  76.693 114.857  0.00  0.00    -0.090 HD
ENDBRANCH   5  18
BRANCH   3  22
ATOM     22  C   LIG d   1      -4.900  75.764 114.779  0.00  0.00     0.382 C 
ATOM     23  O   LIG d   1      -6.003  76.360 114.822  0.00  0.00    -0.241 OA
ATOM     24  O   LIG d   1      -4.838  74.624 114.281  0.00  0.00    -0.241 OA
ENDBRANCH   3  22
TORSDOF 7
ENDMDL
MODEL 8
REMARK VINA RESULT:      -4.2      2.503      4.977
REMARK  7 active torsions:
REMARK  status: ('A' for Active; 'I' for Inactive)
REMARK    1  A    between atoms: C_2  and  C_3 
REMARK    2  A    between atoms: C_3  and  O_6 
REMARK    3  A    between atoms: C_3  and  C_4 
REMARK    4  A    between atoms: C_7  and  O_6 
REMARK    5  A    between atoms: C_9  and  C_10 
REMARK    6  A    between atoms: N_15  and  C_14 
REMARK    7  A    between atoms: N_20  and  C_19 
REMARK       I    between atoms: C_22  and  N_20 
ROOT
ATOM      1  C   LIG d   1      -2.978  77.110 117.109  0.00  0.00     0.161 C 
ATOM      2  C   LIG d   1      -3.023  78.027 116.046  0.00  0.00     0.016 C 
ATOM      3  C   LIG d   1      -2.414  77.795 114.791  0.00  0.00     0.038 C 
ATOM      4  C   LIG d   1      -1.844  76.556 114.462  0.00  0.00     0.028 C 
ATOM      5  C   LIG d   1      -1.332  75.784 115.673  0.00  0.00    -0.047 C 
ATOM      6  C   LIG d   1      -2.456  75.708 116.731  0.00  0.00     0.091 C 
ENDROOT
BRANCH   1   7
ATOM      7  O   LIG d   1      -4.277  77.012 117.725  0.00  0.00    -0.368 OA
BRANCH   7   8
ATOM      8  C   LIG d   1      -5.413  77.271 116.863  0.00  0.00     0.119 C 
BRANCH   8   9
ATOM      9  C   LIG d   1      -6.478  77.998 117.706  0.00  0.00     0.028 C 
ATOM     10  C   LIG d   1      -6.190  79.502 117.845  0.00  0.00     0.006 C 
ENDBRANCH   8   9
BRANCH   8  11
ATOM     11  C   LIG d   1      -6.076  75.967 116.409  0.00  0.00     0.028 C 
ATOM     12  C   LIG d   1      -5.770  75.623 114.942  0.00  0.00     0.006 C 
ENDBRANCH   8  11
ENDBRANCH   7   8
ENDBRANCH   1   7
BRANCH   6  13
ATOM     13  N   LIG d   1      -2.012  75.041 117.983  0.00  0.00    -0.311 N 
ATOM     14  C   LIG d   1      -0.945  75.427 118.680  0.00  0.00     0.210 C 
ATOM     15  C   LIG d   1      -0.651  74.590 119.930  0.00  0.00     0.109 C 
ATOM     16  O   LIG d   1      -0.232  76.402 118.400  0.00  0.00    -0.276 OA
ATOM     17  H   LIG d   1      -2.552  74.259 118.300  0.00  0.00     0.149 HD
ENDBRANCH   6  13
BRANCH   5  18
ATOM     18  N   LIG d   1      -0.891  74.457 115.202  0.00  0.00     0.381 N 
ATOM     19  H   LIG d   1      -0.488  73.945 115.961  0.00  0.00    -0.090 HD
ATOM     20  H   LIG d   1      -0.188  74.581 114.495  0.00  0.00    -0.090 HD
ATOM     21  H   LIG d   1      -1.665  73.954 114.826  0.00  0.00    -0.090 HD
ENDBRANCH   5  18
BRANCH   3  22
ATOM     22  C   LIG d   1      -2.337  78.823 113.864  0.00  0.00     0.382 C 
ATOM     23  O   LIG d   1      -3.080  78.812 112.853  0.00  0.00    -0.241 OA
ATOM     24  O   LIG d   1      -1.503  79.738 114.003  0.00  0.00    -0.241 OA
ENDBRANCH   3  22
TORSDOF 7
ENDMDL
MODEL 9
REMARK VINA RESULT:      -4.2      2.567      5.051
REMARK  7 active torsions:
REMARK  status: ('A' for Active; 'I' for Inactive)
REMARK    1  A    between atoms: C_2  and  C_3 
REMARK    2  A    between atoms: C_3  and  O_6 
REMARK    3  A    between atoms: C_3  and  C_4 
REMARK    4  A    between atoms: C_7  and  O_6 
REMARK    5  A    between atoms: C_9  and  C_10 
REMARK    6  A    between atoms: N_15  and  C_14 
REMARK    7  A    between atoms: N_20  and  C_19 
REMARK       I    between atoms: C_22  and  N_20 
ROOT
ATOM      1  C   LIG d   1      -2.196  78.908 115.175  0.00  0.00     0.161 C 
ATOM      2  C   LIG d   1      -3.065  77.928 115.683  0.00  0.00     0.016 C 
ATOM      3  C   LIG d   1      -3.656  76.923 114.884  0.00  0.00     0.038 C 
ATOM      4  C   LIG d   1      -3.297  76.736 113.541  0.00  0.00     0.028 C 
ATOM      5  C   LIG d   1      -2.808  78.011 112.862  0.00  0.00    -0.047 C 
ATOM      6  C   LIG d   1      -1.705  78.653 113.734  0.00  0.00     0.091 C 
ENDROOT
BRANCH   1   7
ATOM      7  O   LIG d   1      -1.074  79.075 116.064  0.00  0.00    -0.368 OA
BRANCH   7   8
ATOM      8  C   LIG d   1      -1.150  78.367 117.326  0.00  0.00     0.119 C 
BRANCH   8   9
ATOM      9  C   LIG d   1      -1.069  79.417 118.451  0.00  0.00     0.028 C 
ATOM     10  C   LIG d   1      -2.380  79.528 119.247  0.00  0.00     0.006 C 
ENDBRANCH   8   9
BRANCH   8  11
ATOM     11  C   LIG d   1       0.066  77.459 117.530  0.00  0.00     0.028 C 
ATOM     12  C   LIG d   1      -0.306  76.090 118.123  0.00  0.00     0.006 C 
ENDBRANCH   8  11
ENDBRANCH   7   8
ENDBRANCH   1   7
BRANCH   6  13
ATOM     13  N   LIG d   1      -1.231  79.950 113.185  0.00  0.00    -0.311 N 
ATOM     14  C   LIG d   1      -2.051  80.902 112.742  0.00  0.00     0.210 C 
ATOM     15  C   LIG d   1      -1.354  82.153 112.198  0.00  0.00     0.109 C 
ATOM     16  O   LIG d   1      -3.289  80.843 112.779  0.00  0.00    -0.276 OA
ATOM     17  H   LIG d   1      -0.241  80.095 113.147  0.00  0.00     0.149 HD
ENDBRANCH   6  13
BRANCH   5  18
ATOM     18  N   LIG d   1      -2.338  77.645 111.512  0.00  0.00     0.381 N 
ATOM     19  H   LIG d   1      -2.217  78.471 110.960  0.00  0.00    -0.090 HD
ATOM     20  H   LIG d   1      -3.033  77.069 111.071  0.00  0.00    -0.090 HD
ATOM     21  H   LIG d   1      -1.476  77.150 111.574  0.00  0.00    -0.090 HD
ENDBRANCH   5  18
BRANCH   3  22
ATOM     22  C   LIG d   1      -4.648  76.115 115.419  0.00  0.00     0.382 C 
ATOM     23  O   LIG d   1      -5.837  76.515 115.442  0.00  0.00    -0.241 OA
ATOM     24  O   LIG d   1      -4.363  75.010 115.919  0.00  0.00    -0.241 OA
ENDBRANCH   3  22
TORSDOF 7
ENDMDL
