MODEL 1
REMARK VINA RESULT:      -5.4      0.000      0.000
REMARK  7 active torsions:
REMARK  status: ('A' for Active; 'I' for Inactive)
REMARK    1  A    between atoms: C_2  and  C_3 
REMARK    2  A    between atoms: C_3  and  O_6 
REMARK    3  A    between atoms: C_3  and  C_4 
REMARK    4  A    between atoms: C_7  and  O_6 
REMARK    5  A    between atoms: C_9  and  C_10 
REMARK    6  A    between atoms: N_15  and  C_14 
REMARK    7  A    between atoms: N_20  and  C_19 
REMARK       I    between atoms: C_22  and  N_20 
ROOT
ATOM      1  C   LIG d   1      -2.783  77.787 114.602  0.00  0.00     0.161 C 
ATOM      2  C   LIG d   1      -2.939  78.817 113.660  0.00  0.00     0.016 C 
ATOM      3  C   LIG d   1      -2.000  79.859 113.484  0.00  0.00     0.038 C 
ATOM      4  C   LIG d   1      -0.760  79.858 114.139  0.00  0.00     0.028 C 
ATOM      5  C   LIG d   1      -0.778  79.112 115.469  0.00  0.00    -0.047 C 
ATOM      6  C   LIG d   1      -1.384  77.708 115.248  0.00  0.00     0.091 C 
ENDROOT
BRANCH   1   7
ATOM      7  O   LIG d   1      -3.132  76.522 114.006  0.00  0.00    -0.368 OA
BRANCH   7   8
ATOM      8  C   LIG d   1      -4.088  75.715 114.737  0.00  0.00     0.119 C 
BRANCH   8   9
ATOM      9  C   LIG d   1      -5.099  75.156 113.717  0.00  0.00     0.028 C 
ATOM     10  C   LIG d   1      -6.035  76.243 113.164  0.00  0.00     0.006 C 
ENDBRANCH   8   9
BRANCH   8  11
ATOM     11  C   LIG d   1      -4.915  76.568 115.703  0.00  0.00     0.028 C 
ATOM     12  C   LIG d   1      -5.141  75.883 117.060  0.00  0.00     0.006 C 
ENDBRANCH   8  11
ENDBRANCH   7   8
ENDBRANCH   1   7
BRANCH   6  13
ATOM     13  N   LIG d   1      -1.516  76.942 116.515  0.00  0.00    -0.311 N 
ATOM     14  C   LIG d   1      -1.090  75.689 116.662  0.00  0.00     0.210 C 
ATOM     15  C   LIG d   1      -1.342  75.078 118.044  0.00  0.00     0.109 C 
ATOM     16  O   LIG d   1      -0.497  75.036 115.790  0.00  0.00    -0.276 OA
ATOM     17  H   LIG d   1      -1.958  77.406 117.285  0.00  0.00     0.149 HD
ENDBRANCH   6  13
BRANCH   5  18
ATOM     18  N   LIG d   1       0.607  79.071 115.976  0.00  0.00     0.381 N 
ATOM     19  H   LIG d   1       1.213  79.559 115.347  0.00  0.00    -0.090 HD
ATOM     20  H   LIG d   1       0.908  78.113 116.023  0.00  0.00    -0.090 HD
ATOM     21  H   LIG d   1       0.651  79.486 116.880  0.00  0.00    -0.090 HD
ENDBRANCH   5  18
BRANCH   3  22
ATOM     22  C   LIG d   1      -2.316  80.939 112.673  0.00  0.00     0.382 C 
ATOM     23  O   LIG d   1      -1.400  81.626 112.160  0.00  0.00    -0.241 OA
ATOM     24  O   LIG d   1      -3.504  81.262 112.486  0.00  0.00    -0.241 OA
ENDBRANCH   3  22
TORSDOF 7
ENDMDL
MODEL 2
REMARK VINA RESULT:      -5.4      1.679      2.319
REMARK  7 active torsions:
REMARK  status: ('A' for Active; 'I' for Inactive)
REMARK    1  A    between atoms: C_2  and  C_3 
REMARK    2  A    between atoms: C_3  and  O_6 
REMARK    3  A    between atoms: C_3  and  C_4 
REMARK    4  A    between atoms: C_7  and  O_6 
REMARK    5  A    between atoms: C_9  and  C_10 
REMARK    6  A    between atoms: N_15  and  C_14 
REMARK    7  A    between atoms: N_20  and  C_19 
REMARK       I    between atoms: C_22  and  N_20 
ROOT
ATOM      1  C   LIG d   1      -2.880  77.727 116.239  0.00  0.00     0.161 C 
ATOM      2  C   LIG d   1      -3.146  78.510 115.104  0.00  0.00     0.016 C 
ATOM      3  C   LIG d   1      -2.335  78.501 113.945  0.00  0.00     0.038 C 
ATOM      4  C   LIG d   1      -1.281  77.590 113.785  0.00  0.00     0.028 C 
ATOM      5  C   LIG d   1      -0.669  77.134 115.105  0.00  0.00    -0.047 C 
ATOM      6  C   LIG d   1      -1.799  76.645 116.040  0.00  0.00     0.091 C 
ENDROOT
BRANCH   1   7
ATOM      7  O   LIG d   1      -4.102  77.132 116.719  0.00  0.00    -0.368 OA
BRANCH   7   8
ATOM      8  C   LIG d   1      -5.152  76.952 115.737  0.00  0.00     0.119 C 
BRANCH   8   9
ATOM      9  C   LIG d   1      -6.488  77.306 116.418  0.00  0.00     0.028 C 
ATOM     10  C   LIG d   1      -7.375  76.070 116.647  0.00  0.00     0.006 C 
ENDBRANCH   8   9
BRANCH   8  11
ATOM     11  C   LIG d   1      -5.283  75.482 115.326  0.00  0.00     0.028 C 
ATOM     12  C   LIG d   1      -5.079  75.265 113.818  0.00  0.00     0.006 C 
ENDBRANCH   8  11
ENDBRANCH   7   8
ENDBRANCH   1   7
BRANCH   6  13
ATOM     13  N   LIG d   1      -1.295  76.259 117.384  0.00  0.00    -0.311 N 
ATOM     14  C   LIG d   1      -1.572  75.093 117.964  0.00  0.00     0.210 C 
ATOM     15  C   LIG d   1      -0.969  74.905 119.360  0.00  0.00     0.109 C 
ATOM     16  O   LIG d   1      -2.232  74.182 117.441  0.00  0.00    -0.276 OA
ATOM     17  H   LIG d   1      -0.725  76.927 117.866  0.00  0.00     0.149 HD
ENDBRANCH   6  13
BRANCH   5  18
ATOM     18  N   LIG d   1       0.322  76.085 114.798  0.00  0.00     0.381 N 
ATOM     19  H   LIG d   1       0.260  75.352 115.476  0.00  0.00    -0.090 HD
ATOM     20  H   LIG d   1       1.243  76.483 114.847  0.00  0.00    -0.090 HD
ATOM     21  H   LIG d   1       0.159  75.718 113.886  0.00  0.00    -0.090 HD
ENDBRANCH   5  18
BRANCH   3  22
ATOM     22  C   LIG d   1      -2.552  79.439 112.948  0.00  0.00     0.382 C 
ATOM     23  O   LIG d   1      -3.133  80.518 113.217  0.00  0.00    -0.241 OA
ATOM     24  O   LIG d   1      -2.214  79.202 111.773  0.00  0.00    -0.241 OA
ENDBRANCH   3  22
TORSDOF 7
ENDMDL
MODEL 3
REMARK VINA RESULT:      -5.1      1.871      2.173
REMARK  7 active torsions:
REMARK  status: ('A' for Active; 'I' for Inactive)
REMARK    1  A    between atoms: C_2  and  C_3 
REMARK    2  A    between atoms: C_3  and  O_6 
REMARK    3  A    between atoms: C_3  and  C_4 
REMARK    4  A    between atoms: C_7  and  O_6 
REMARK    5  A    between atoms: C_9  and  C_10 
REMARK    6  A    between atoms: N_15  and  C_14 
REMARK    7  A    between atoms: N_20  and  C_19 
REMARK       I    between atoms: C_22  and  N_20 
ROOT
ATOM      1  C   LIG d   1      -2.938  77.733 115.941  0.00  0.00     0.161 C 
ATOM      2  C   LIG d   1      -2.935  78.230 114.627  0.00  0.00     0.016 C 
ATOM      3  C   LIG d   1      -1.965  77.873 113.662  0.00  0.00     0.038 C 
ATOM      4  C   LIG d   1      -1.014  76.871 113.903  0.00  0.00     0.028 C 
ATOM      5  C   LIG d   1      -0.667  76.707 115.378  0.00  0.00    -0.047 C 
ATOM      6  C   LIG d   1      -1.974  76.553 116.188  0.00  0.00     0.091 C 
ENDROOT
BRANCH   1   7
ATOM      7  O   LIG d   1      -4.280  77.371 116.323  0.00  0.00    -0.368 OA
BRANCH   7   8
ATOM      8  C   LIG d   1      -4.690  76.018 116.008  0.00  0.00     0.119 C 
BRANCH   8   9
ATOM      9  C   LIG d   1      -5.819  76.107 114.963  0.00  0.00     0.028 C 
ATOM     10  C   LIG d   1      -5.356  75.680 113.560  0.00  0.00     0.006 C 
ENDBRANCH   8   9
BRANCH   8  11
ATOM     11  C   LIG d   1      -5.316  75.328 117.224  0.00  0.00     0.028 C 
ATOM     12  C   LIG d   1      -6.713  74.757 116.931  0.00  0.00     0.006 C 
ENDBRANCH   8  11
ENDBRANCH   7   8
ENDBRANCH   1   7
BRANCH   6  13
ATOM     13  N   LIG d   1      -1.729  76.472 117.651  0.00  0.00    -0.311 N 
ATOM     14  C   LIG d   1      -1.672  75.323 118.323  0.00  0.00     0.210 C 
ATOM     15  C   LIG d   1      -1.429  75.466 119.828  0.00  0.00     0.109 C 
ATOM     16  O   LIG d   1      -1.767  74.199 117.809  0.00  0.00    -0.276 OA
ATOM     17  H   LIG d   1      -1.609  77.337 118.142  0.00  0.00     0.149 HD
ENDBRANCH   6  13
BRANCH   5  18
ATOM     18  N   LIG d   1       0.229  75.541 115.499  0.00  0.00     0.381 N 
ATOM     19  H   LIG d   1       0.432  75.368 116.463  0.00  0.00    -0.090 HD
ATOM     20  H   LIG d   1       1.092  75.743 115.026  0.00  0.00    -0.090 HD
ATOM     21  H   LIG d   1      -0.201  74.738 115.093  0.00  0.00    -0.090 HD
ENDBRANCH   5  18
BRANCH   3  22
ATOM     22  C   LIG d   1      -1.916  78.551 112.454  0.00  0.00     0.382 C 
ATOM     23  O   LIG d   1      -1.195  79.572 112.336  0.00  0.00    -0.241 OA
ATOM     24  O   LIG d   1      -2.618  78.182 111.493  0.00  0.00    -0.241 OA
ENDBRANCH   3  22
TORSDOF 7
ENDMDL
MODEL 4
REMARK VINA RESULT:      -5.1      0.917      1.829
REMARK  7 active torsions:
REMARK  status: ('A' for Active; 'I' for Inactive)
REMARK    1  A    between atoms: C_2  and  C_3 
REMARK    2  A    between atoms: C_3  and  O_6 
REMARK    3  A    between atoms: C_3  and  C_4 
REMARK    4  A    between atoms: C_7  and  O_6 
REMARK    5  A    between atoms: C_9  and  C_10 
REMARK    6  A    between atoms: N_15  and  C_14 
REMARK    7  A    between atoms: N_20  and  C_19 
REMARK       I    between atoms: C_22  and  N_20 
ROOT
ATOM      1  C   LIG d   1      -2.601  78.126 115.008  0.00  0.00     0.161 C 
ATOM      2  C   LIG d   1      -2.800  78.989 113.918  0.00  0.00     0.016 C 
ATOM      3  C   LIG d   1      -1.867  79.977 113.528  0.00  0.00     0.038 C 
ATOM      4  C   LIG d   1      -0.595  80.069 114.113  0.00  0.00     0.028 C 
ATOM      5  C   LIG d   1      -0.550  79.551 115.547  0.00  0.00    -0.047 C 
ATOM      6  C   LIG d   1      -1.172  78.137 115.590  0.00  0.00     0.091 C 
ENDROOT
BRANCH   1   7
ATOM      7  O   LIG d   1      -2.984  76.785 114.646  0.00  0.00    -0.368 OA
BRANCH   7   8
ATOM      8  C   LIG d   1      -4.317  76.374 115.038  0.00  0.00     0.119 C 
BRANCH   8   9
ATOM      9  C   LIG d   1      -4.178  75.483 116.287  0.00  0.00     0.028 C 
ATOM     10  C   LIG d   1      -5.534  75.190 116.952  0.00  0.00     0.006 C 
ENDBRANCH   8   9
BRANCH   8  11
ATOM     11  C   LIG d   1      -4.962  75.483 113.973  0.00  0.00     0.028 C 
ATOM     12  C   LIG d   1      -6.053  76.208 113.170  0.00  0.00     0.006 C 
ENDBRANCH   8  11
ENDBRANCH   7   8
ENDBRANCH   1   7
BRANCH   6  13
ATOM     13  N   LIG d   1      -1.243  77.591 116.970  0.00  0.00    -0.311 N 
ATOM     14  C   LIG d   1      -0.294  76.827 117.507  0.00  0.00     0.210 C 
ATOM     15  C   LIG d   1      -0.575  76.354 118.936  0.00  0.00     0.109 C 
ATOM     16  O   LIG d   1       0.770  76.523 116.946  0.00  0.00    -0.276 OA
ATOM     17  H   LIG d   1      -2.058  77.815 117.507  0.00  0.00     0.149 HD
ENDBRANCH   6  13
BRANCH   5  18
ATOM     18  N   LIG d   1       0.858  79.578 115.986  0.00  0.00     0.381 N 
ATOM     19  H   LIG d   1       1.142  80.521 116.158  0.00  0.00    -0.090 HD
ATOM     20  H   LIG d   1       1.435  79.204 115.252  0.00  0.00    -0.090 HD
ATOM     21  H   LIG d   1       0.968  79.034 116.813  0.00  0.00    -0.090 HD
ENDBRANCH   5  18
BRANCH   3  22
ATOM     22  C   LIG d   1      -2.218  80.913 112.567  0.00  0.00     0.382 C 
ATOM     23  O   LIG d   1      -3.409  81.299 112.474  0.00  0.00    -0.241 OA
ATOM     24  O   LIG d   1      -1.370  81.344 111.764  0.00  0.00    -0.241 OA
ENDBRANCH   3  22
TORSDOF 7
ENDMDL
MODEL 5
REMARK VINA RESULT:      -4.9      2.926      3.725
REMARK  7 active torsions:
REMARK  status: ('A' for Active; 'I' for Inactive)
REMARK    1  A    between atoms: C_2  and  C_3 
REMARK    2  A    between atoms: C_3  and  O_6 
REMARK    3  A    between atoms: C_3  and  C_4 
REMARK    4  A    between atoms: C_7  and  O_6 
REMARK    5  A    between atoms: C_9  and  C_10 
REMARK    6  A    between atoms: N_15  and  C_14 
REMARK    7  A    between atoms: N_20  and  C_19 
REMARK       I    between atoms: C_22  and  N_20 
ROOT
ATOM      1  C   LIG d   1      -4.266  77.052 116.992  0.00  0.00     0.161 C 
ATOM      2  C   LIG d   1      -5.012  78.170 117.400  0.00  0.00     0.016 C 
ATOM      3  C   LIG d   1      -4.593  79.504 117.191  0.00  0.00     0.038 C 
ATOM      4  C   LIG d   1      -3.463  79.813 116.419  0.00  0.00     0.028 C 
ATOM      5  C   LIG d   1      -2.409  78.711 116.419  0.00  0.00    -0.047 C 
ATOM      6  C   LIG d   1      -3.086  77.371 116.051  0.00  0.00     0.091 C 
ENDROOT
BRANCH   1   7
ATOM      7  O   LIG d   1      -5.138  76.076 116.389  0.00  0.00    -0.368 OA
BRANCH   7   8
ATOM      8  C   LIG d   1      -6.263  76.602 115.642  0.00  0.00     0.119 C 
BRANCH   8   9
ATOM      9  C   LIG d   1      -7.536  75.920 116.181  0.00  0.00     0.028 C 
ATOM     10  C   LIG d   1      -8.400  76.873 117.024  0.00  0.00     0.006 C 
ENDBRANCH   8   9
BRANCH   8  11
ATOM     11  C   LIG d   1      -6.185  76.206 114.164  0.00  0.00     0.028 C 
ATOM     12  C   LIG d   1      -5.111  75.142 113.889  0.00  0.00     0.006 C 
ENDBRANCH   8  11
ENDBRANCH   7   8
ENDBRANCH   1   7
BRANCH   6  13
ATOM     13  N   LIG d   1      -2.141  76.225 116.109  0.00  0.00    -0.311 N 
ATOM     14  C   LIG d   1      -1.447  75.792 115.058  0.00  0.00     0.210 C 
ATOM     15  C   LIG d   1      -0.546  74.584 115.331  0.00  0.00     0.109 C 
ATOM     16  O   LIG d   1      -1.468  76.314 113.933  0.00  0.00    -0.276 OA
ATOM     17  H   LIG d   1      -2.039  75.762 116.992  0.00  0.00     0.149 HD
ENDBRANCH   6  13
BRANCH   5  18
ATOM     18  N   LIG d   1      -1.352  79.105 115.468  0.00  0.00     0.381 N 
ATOM     19  H   LIG d   1      -1.528  80.031 115.131  0.00  0.00    -0.090 HD
ATOM     20  H   LIG d   1      -1.368  78.476 114.685  0.00  0.00    -0.090 HD
ATOM     21  H   LIG d   1      -0.462  79.070 115.914  0.00  0.00    -0.090 HD
ENDBRANCH   5  18
BRANCH   3  22
ATOM     22  C   LIG d   1      -5.286  80.544 117.791  0.00  0.00     0.382 C 
ATOM     23  O   LIG d   1      -4.790  81.141 118.776  0.00  0.00    -0.241 OA
ATOM     24  O   LIG d   1      -6.420  80.864 117.386  0.00  0.00    -0.241 OA
ENDBRANCH   3  22
TORSDOF 7
ENDMDL
MODEL 6
REMARK VINA RESULT:      -4.8      2.982      4.182
REMARK  7 active torsions:
REMARK  status: ('A' for Active; 'I' for Inactive)
REMARK    1  A    between atoms: C_2  and  C_3 
REMARK    2  A    between atoms: C_3  and  O_6 
REMARK    3  A    between atoms: C_3  and  C_4 
REMARK    4  A    between atoms: C_7  and  O_6 
REMARK    5  A    between atoms: C_9  and  C_10 
REMARK    6  A    between atoms: N_15  and  C_14 
REMARK    7  A    between atoms: N_20  and  C_19 
REMARK       I    between atoms: C_22  and  N_20 
ROOT
ATOM      1  C   LIG d   1      -3.292  78.621 116.487  0.00  0.00     0.161 C 
ATOM      2  C   LIG d   1      -2.360  79.541 116.994  0.00  0.00     0.016 C 
ATOM      3  C   LIG d   1      -1.077  79.738 116.434  0.00  0.00     0.038 C 
ATOM      4  C   LIG d   1      -0.694  79.133 115.228  0.00  0.00     0.028 C 
ATOM      5  C   LIG d   1      -1.411  77.814 114.957  0.00  0.00    -0.047 C 
ATOM      6  C   LIG d   1      -2.934  78.032 115.106  0.00  0.00     0.091 C 
ENDROOT
BRANCH   1   7
ATOM      7  O   LIG d   1      -4.602  79.222 116.451  0.00  0.00    -0.368 OA
BRANCH   7   8
ATOM      8  C   LIG d   1      -5.531  78.788 117.474  0.00  0.00     0.119 C 
BRANCH   8   9
ATOM      9  C   LIG d   1      -6.475  77.752 116.833  0.00  0.00     0.028 C 
ATOM     10  C   LIG d   1      -6.342  76.361 117.476  0.00  0.00     0.006 C 
ENDBRANCH   8   9
BRANCH   8  11
ATOM     11  C   LIG d   1      -6.437  79.936 117.928  0.00  0.00     0.028 C 
ATOM     12  C   LIG d   1      -5.746  81.307 117.849  0.00  0.00     0.006 C 
ENDBRANCH   8  11
ENDBRANCH   7   8
ENDBRANCH   1   7
BRANCH   6  13
ATOM     13  N   LIG d   1      -3.706  76.773 114.940  0.00  0.00    -0.311 N 
ATOM     14  C   LIG d   1      -4.343  76.446 113.817  0.00  0.00     0.210 C 
ATOM     15  C   LIG d   1      -5.095  75.112 113.865  0.00  0.00     0.109 C 
ATOM     16  O   LIG d   1      -4.331  77.119 112.775  0.00  0.00    -0.276 OA
ATOM     17  H   LIG d   1      -3.742  76.153 115.726  0.00  0.00     0.149 HD
ENDBRANCH   6  13
BRANCH   5  18
ATOM     18  N   LIG d   1      -1.021  77.364 113.608  0.00  0.00     0.381 N 
ATOM     19  H   LIG d   1      -0.161  76.855 113.656  0.00  0.00    -0.090 HD
ATOM     20  H   LIG d   1      -0.878  78.169 113.024  0.00  0.00    -0.090 HD
ATOM     21  H   LIG d   1      -1.735  76.787 113.221  0.00  0.00    -0.090 HD
ENDBRANCH   5  18
BRANCH   3  22
ATOM     22  C   LIG d   1      -0.147  80.519 117.104  0.00  0.00     0.382 C 
ATOM     23  O   LIG d   1      -0.295  80.761 118.326  0.00  0.00    -0.241 OA
ATOM     24  O   LIG d   1       0.814  81.021 116.491  0.00  0.00    -0.241 OA
ENDBRANCH   3  22
TORSDOF 7
ENDMDL
MODEL 7
REMARK VINA RESULT:      -4.8      2.047      3.867
REMARK  7 active torsions:
REMARK  status: ('A' for Active; 'I' for Inactive)
REMARK    1  A    between atoms: C_2  and  C_3 
REMARK    2  A    between atoms: C_3  and  O_6 
REMARK    3  A    between atoms: C_3  and  C_4 
REMARK    4  A    between atoms: C_7  and  O_6 
REMARK    5  A    between atoms: C_9  and  C_10 
REMARK    6  A    between atoms: N_15  and  C_14 
REMARK    7  A    between atoms: N_20  and  C_19 
REMARK       I    between atoms: C_22  and  N_20 
ROOT
ATOM      1  C   LIG d   1      -3.175  76.730 114.551  0.00  0.00     0.161 C 
ATOM      2  C   LIG d   1      -2.618  77.823 113.867  0.00  0.00     0.016 C 
ATOM      3  C   LIG d   1      -2.653  79.148 114.359  0.00  0.00     0.038 C 
ATOM      4  C   LIG d   1      -3.118  79.449 115.648  0.00  0.00     0.028 C 
ATOM      5  C   LIG d   1      -4.149  78.452 116.167  0.00  0.00    -0.047 C 
ATOM      6  C   LIG d   1      -3.588  77.021 116.009  0.00  0.00     0.091 C 
ENDROOT
BRANCH   1   7
ATOM      7  O   LIG d   1      -2.270  75.609 114.500  0.00  0.00    -0.368 OA
BRANCH   7   8
ATOM      8  C   LIG d   1      -1.066  75.726 115.298  0.00  0.00     0.119 C 
BRANCH   8   9
ATOM      9  C   LIG d   1       0.137  75.591 114.344  0.00  0.00     0.028 C 
ATOM     10  C   LIG d   1       0.187  74.217 113.654  0.00  0.00     0.006 C 
ENDBRANCH   8   9
BRANCH   8  11
ATOM     11  C   LIG d   1      -0.935  74.561 116.283  0.00  0.00     0.028 C 
ATOM     12  C   LIG d   1      -0.208  74.956 117.579  0.00  0.00     0.006 C 
ENDBRANCH   8  11
ENDBRANCH   7   8
ENDBRANCH   1   7
BRANCH   6  13
ATOM     13  N   LIG d   1      -4.567  75.979 116.415  0.00  0.00    -0.311 N 
ATOM     14  C   LIG d   1      -5.791  75.882 115.898  0.00  0.00     0.210 C 
ATOM     15  C   LIG d   1      -6.647  74.749 116.472  0.00  0.00     0.109 C 
ATOM     16  O   LIG d   1      -6.237  76.607 114.996  0.00  0.00    -0.276 OA
ATOM     17  H   LIG d   1      -4.277  75.330 117.120  0.00  0.00     0.149 HD
ENDBRANCH   6  13
BRANCH   5  18
ATOM     18  N   LIG d   1      -4.444  78.806 117.569  0.00  0.00     0.381 N 
ATOM     19  H   LIG d   1      -5.073  78.134 117.962  0.00  0.00    -0.090 HD
ATOM     20  H   LIG d   1      -4.890  79.706 117.590  0.00  0.00    -0.090 HD
ATOM     21  H   LIG d   1      -3.601  78.832 118.098  0.00  0.00    -0.090 HD
ENDBRANCH   5  18
BRANCH   3  22
ATOM     22  C   LIG d   1      -2.256  80.196 113.541  0.00  0.00     0.382 C 
ATOM     23  O   LIG d   1      -3.106  80.811 112.854  0.00  0.00    -0.241 OA
ATOM     24  O   LIG d   1      -1.053  80.504 113.449  0.00  0.00    -0.241 OA
ENDBRANCH   3  22
TORSDOF 7
ENDMDL
MODEL 8
REMARK VINA RESULT:      -4.8      2.253      2.999
REMARK  7 active torsions:
REMARK  status: ('A' for Active; 'I' for Inactive)
REMARK    1  A    between atoms: C_2  and  C_3 
REMARK    2  A    between atoms: C_3  and  O_6 
REMARK    3  A    between atoms: C_3  and  C_4 
REMARK    4  A    between atoms: C_7  and  O_6 
REMARK    5  A    between atoms: C_9  and  C_10 
REMARK    6  A    between atoms: N_15  and  C_14 
REMARK    7  A    between atoms: N_20  and  C_19 
REMARK       I    between atoms: C_22  and  N_20 
ROOT
ATOM      1  C   LIG d   1      -2.893  78.620 115.908  0.00  0.00     0.161 C 
ATOM      2  C   LIG d   1      -3.032  79.573 114.886  0.00  0.00     0.016 C 
ATOM      3  C   LIG d   1      -2.319  79.515 113.666  0.00  0.00     0.038 C 
ATOM      4  C   LIG d   1      -1.525  78.411 113.323  0.00  0.00     0.028 C 
ATOM      5  C   LIG d   1      -0.960  77.672 114.531  0.00  0.00    -0.047 C 
ATOM      6  C   LIG d   1      -2.115  77.349 115.506  0.00  0.00     0.091 C 
ENDROOT
BRANCH   1   7
ATOM      7  O   LIG d   1      -4.190  78.269 116.430  0.00  0.00    -0.368 OA
BRANCH   7   8
ATOM      8  C   LIG d   1      -4.576  78.919 117.666  0.00  0.00     0.119 C 
BRANCH   8   9
ATOM      9  C   LIG d   1      -4.493  77.867 118.788  0.00  0.00     0.028 C 
ATOM     10  C   LIG d   1      -3.324  78.130 119.753  0.00  0.00     0.006 C 
ENDBRANCH   8   9
BRANCH   8  11
ATOM     11  C   LIG d   1      -6.044  79.358 117.630  0.00  0.00     0.028 C 
ATOM     12  C   LIG d   1      -7.012  78.181 117.427  0.00  0.00     0.006 C 
ENDBRANCH   8  11
ENDBRANCH   7   8
ENDBRANCH   1   7
BRANCH   6  13
ATOM     13  N   LIG d   1      -1.638  76.700 116.755  0.00  0.00    -0.311 N 
ATOM     14  C   LIG d   1      -2.129  75.552 117.219  0.00  0.00     0.210 C 
ATOM     15  C   LIG d   1      -1.510  75.068 118.534  0.00  0.00     0.109 C 
ATOM     16  O   LIG d   1      -2.997  74.873 116.650  0.00  0.00    -0.276 OA
ATOM     17  H   LIG d   1      -0.913  77.167 117.264  0.00  0.00     0.149 HD
ENDBRANCH   6  13
BRANCH   5  18
ATOM     18  N   LIG d   1      -0.270  76.467 114.034  0.00  0.00     0.381 N 
ATOM     19  H   LIG d   1      -0.826  75.656 114.219  0.00  0.00    -0.090 HD
ATOM     20  H   LIG d   1       0.603  76.368 114.521  0.00  0.00    -0.090 HD
ATOM     21  H   LIG d   1      -0.104  76.548 113.055  0.00  0.00    -0.090 HD
ENDBRANCH   5  18
BRANCH   3  22
ATOM     22  C   LIG d   1      -2.365  80.590 112.792  0.00  0.00     0.382 C 
ATOM     23  O   LIG d   1      -3.397  81.301 112.726  0.00  0.00    -0.241 OA
ATOM     24  O   LIG d   1      -1.405  80.832 112.036  0.00  0.00    -0.241 OA
ENDBRANCH   3  22
TORSDOF 7
ENDMDL
MODEL 9
REMARK VINA RESULT:      -4.8      1.894      4.980
REMARK  7 active torsions:
REMARK  status: ('A' for Active; 'I' for Inactive)
REMARK    1  A    between atoms: C_2  and  C_3 
REMARK    2  A    between atoms: C_3  and  O_6 
REMARK    3  A    between atoms: C_3  and  C_4 
REMARK    4  A    between atoms: C_7  and  O_6 
REMARK    5  A    between atoms: C_9  and  C_10 
REMARK    6  A    between atoms: N_15  and  C_14 
REMARK    7  A    between atoms: N_20  and  C_19 
REMARK       I    between atoms: C_22  and  N_20 
ROOT
ATOM      1  C   LIG d   1      -1.867  75.748 114.951  0.00  0.00     0.161 C 
ATOM      2  C   LIG d   1      -1.704  75.036 116.151  0.00  0.00     0.016 C 
ATOM      3  C   LIG d   1      -0.911  75.496 117.227  0.00  0.00     0.038 C 
ATOM      4  C   LIG d   1      -0.344  76.779 117.235  0.00  0.00     0.028 C 
ATOM      5  C   LIG d   1      -0.065  77.326 115.839  0.00  0.00    -0.047 C 
ATOM      6  C   LIG d   1      -1.347  77.200 114.985  0.00  0.00     0.091 C 
ENDROOT
BRANCH   1   7
ATOM      7  O   LIG d   1      -3.251  75.721 114.550  0.00  0.00    -0.368 OA
BRANCH   7   8
ATOM      8  C   LIG d   1      -4.225  75.692 115.623  0.00  0.00     0.119 C 
BRANCH   8   9
ATOM      9  C   LIG d   1      -5.428  74.863 115.135  0.00  0.00     0.028 C 
ATOM     10  C   LIG d   1      -6.620  74.931 116.105  0.00  0.00     0.006 C 
ENDBRANCH   8   9
BRANCH   8  11
ATOM     11  C   LIG d   1      -4.783  77.090 115.907  0.00  0.00     0.028 C 
ATOM     12  C   LIG d   1      -4.265  77.682 117.227  0.00  0.00     0.006 C 
ENDBRANCH   8  11
ENDBRANCH   7   8
ENDBRANCH   1   7
BRANCH   6  13
ATOM     13  N   LIG d   1      -1.136  77.635 113.579  0.00  0.00    -0.311 N 
ATOM     14  C   LIG d   1      -1.989  78.416 112.918  0.00  0.00     0.210 C 
ATOM     15  C   LIG d   1      -1.592  78.729 111.472  0.00  0.00     0.109 C 
ATOM     16  O   LIG d   1      -3.022  78.904 113.402  0.00  0.00    -0.276 OA
ATOM     17  H   LIG d   1      -0.308  77.310 113.120  0.00  0.00     0.149 HD
ENDBRANCH   6  13
BRANCH   5  18
ATOM     18  N   LIG d   1       0.394  78.720 115.991  0.00  0.00     0.381 N 
ATOM     19  H   LIG d   1       0.378  79.180 115.103  0.00  0.00    -0.090 HD
ATOM     20  H   LIG d   1       1.341  78.716 116.327  0.00  0.00    -0.090 HD
ATOM     21  H   LIG d   1      -0.192  79.204 116.634  0.00  0.00    -0.090 HD
ENDBRANCH   5  18
BRANCH   3  22
ATOM     22  C   LIG d   1      -0.645  74.652 118.294  0.00  0.00     0.382 C 
ATOM     23  O   LIG d   1      -1.590  74.180 118.971  0.00  0.00    -0.241 OA
ATOM     24  O   LIG d   1       0.530  74.391 118.616  0.00  0.00    -0.241 OA
ENDBRANCH   3  22
TORSDOF 7
ENDMDL
