MODEL 1
REMARK VINA RESULT:      -5.1      0.000      0.000
REMARK  7 active torsions:
REMARK  status: ('A' for Active; 'I' for Inactive)
REMARK    1  A    between atoms: C_2  and  C_3 
REMARK    2  A    between atoms: C_3  and  O_6 
REMARK    3  A    between atoms: C_3  and  C_4 
REMARK    4  A    between atoms: C_7  and  O_6 
REMARK    5  A    between atoms: C_9  and  C_10 
REMARK    6  A    between atoms: N_15  and  C_14 
REMARK    7  A    between atoms: N_20  and  C_19 
REMARK       I    between atoms: C_22  and  N_20 
ROOT
ATOM      1  C   LIG d   1      -3.368  78.217 115.631  0.00  0.00     0.161 C 
ATOM      2  C   LIG d   1      -3.397  79.321 114.763  0.00  0.00     0.016 C 
ATOM      3  C   LIG d   1      -2.490  79.494 113.693  0.00  0.00     0.038 C 
ATOM      4  C   LIG d   1      -1.579  78.493 113.323  0.00  0.00     0.028 C 
ATOM      5  C   LIG d   1      -1.176  77.584 114.480  0.00  0.00    -0.047 C 
ATOM      6  C   LIG d   1      -2.453  77.060 115.175  0.00  0.00     0.091 C 
ENDROOT
BRANCH   1   7
ATOM      7  O   LIG d   1      -4.708  77.737 115.857  0.00  0.00    -0.368 OA
BRANCH   7   8
ATOM      8  C   LIG d   1      -5.190  77.809 117.221  0.00  0.00     0.119 C 
BRANCH   8   9
ATOM      9  C   LIG d   1      -5.723  76.414 117.599  0.00  0.00     0.028 C 
ATOM     10  C   LIG d   1      -5.748  75.451 116.400  0.00  0.00     0.006 C 
ENDBRANCH   8   9
BRANCH   8  11
ATOM     11  C   LIG d   1      -6.394  78.749 117.337  0.00  0.00     0.028 C 
ATOM     12  C   LIG d   1      -5.991  80.231 117.389  0.00  0.00     0.006 C 
ENDBRANCH   8  11
ENDBRANCH   7   8
ENDBRANCH   1   7
BRANCH   6  13
ATOM     13  N   LIG d   1      -2.148  76.231 116.370  0.00  0.00    -0.311 N 
ATOM     14  C   LIG d   1      -2.042  74.903 116.333  0.00  0.00     0.210 C 
ATOM     15  C   LIG d   1      -1.742  74.241 117.681  0.00  0.00     0.109 C 
ATOM     16  O   LIG d   1      -2.136  74.215 115.306  0.00  0.00    -0.276 OA
ATOM     17  H   LIG d   1      -2.026  76.711 117.240  0.00  0.00     0.149 HD
ENDBRANCH   6  13
BRANCH   5  18
ATOM     18  N   LIG d   1      -0.336  76.506 113.926  0.00  0.00     0.381 N 
ATOM     19  H   LIG d   1      -0.850  75.995 113.236  0.00  0.00    -0.090 HD
ATOM     20  H   LIG d   1      -0.089  75.873 114.667  0.00  0.00    -0.090 HD
ATOM     21  H   LIG d   1       0.489  76.890 113.519  0.00  0.00    -0.090 HD
ENDBRANCH   5  18
BRANCH   3  22
ATOM     22  C   LIG d   1      -2.460  80.698 113.005  0.00  0.00     0.382 C 
ATOM     23  O   LIG d   1      -3.520  81.345 112.828  0.00  0.00    -0.241 OA
ATOM     24  O   LIG d   1      -1.394  81.123 112.521  0.00  0.00    -0.241 OA
ENDBRANCH   3  22
TORSDOF 7
ENDMDL
MODEL 2
REMARK VINA RESULT:      -5.0      0.893      1.871
REMARK  7 active torsions:
REMARK  status: ('A' for Active; 'I' for Inactive)
REMARK    1  A    between atoms: C_2  and  C_3 
REMARK    2  A    between atoms: C_3  and  O_6 
REMARK    3  A    between atoms: C_3  and  C_4 
REMARK    4  A    between atoms: C_7  and  O_6 
REMARK    5  A    between atoms: C_9  and  C_10 
REMARK    6  A    between atoms: N_15  and  C_14 
REMARK    7  A    between atoms: N_20  and  C_19 
REMARK       I    between atoms: C_22  and  N_20 
ROOT
ATOM      1  C   LIG d   1      -3.314  78.423 115.448  0.00  0.00     0.161 C 
ATOM      2  C   LIG d   1      -3.325  79.569 114.635  0.00  0.00     0.016 C 
ATOM      3  C   LIG d   1      -2.485  79.732 113.509  0.00  0.00     0.038 C 
ATOM      4  C   LIG d   1      -1.680  78.690 113.027  0.00  0.00     0.028 C 
ATOM      5  C   LIG d   1      -1.262  77.698 114.108  0.00  0.00    -0.047 C 
ATOM      6  C   LIG d   1      -2.521  77.230 114.873  0.00  0.00     0.091 C 
ENDROOT
BRANCH   1   7
ATOM      7  O   LIG d   1      -4.666  78.026 115.751  0.00  0.00    -0.368 OA
BRANCH   7   8
ATOM      8  C   LIG d   1      -5.050  78.088 117.147  0.00  0.00     0.119 C 
BRANCH   8   9
ATOM      9  C   LIG d   1      -6.221  79.083 117.261  0.00  0.00     0.028 C 
ATOM     10  C   LIG d   1      -5.743  80.531 117.461  0.00  0.00     0.006 C 
ENDBRANCH   8   9
BRANCH   8  11
ATOM     11  C   LIG d   1      -3.930  78.679 118.008  0.00  0.00     0.028 C 
ATOM     12  C   LIG d   1      -3.479  77.733 119.131  0.00  0.00     0.006 C 
ENDBRANCH   8  11
ENDBRANCH   7   8
ENDBRANCH   1   7
BRANCH   6  13
ATOM     13  N   LIG d   1      -2.192  76.322 116.003  0.00  0.00    -0.311 N 
ATOM     14  C   LIG d   1      -2.682  75.089 116.118  0.00  0.00     0.210 C 
ATOM     15  C   LIG d   1      -2.232  74.329 117.370  0.00  0.00     0.109 C 
ATOM     16  O   LIG d   1      -3.421  74.540 115.287  0.00  0.00    -0.276 OA
ATOM     17  H   LIG d   1      -1.575  76.675 116.707  0.00  0.00     0.149 HD
ENDBRANCH   6  13
BRANCH   5  18
ATOM     18  N   LIG d   1      -0.544  76.593 113.445  0.00  0.00     0.381 N 
ATOM     19  H   LIG d   1       0.443  76.752 113.495  0.00  0.00    -0.090 HD
ATOM     20  H   LIG d   1      -0.811  76.567 112.477  0.00  0.00    -0.090 HD
ATOM     21  H   LIG d   1      -0.771  75.728 113.883  0.00  0.00    -0.090 HD
ENDBRANCH   5  18
BRANCH   3  22
ATOM     22  C   LIG d   1      -2.418  80.964 112.876  0.00  0.00     0.382 C 
ATOM     23  O   LIG d   1      -1.322  81.378 112.425  0.00  0.00    -0.241 OA
ATOM     24  O   LIG d   1      -3.429  81.686 112.789  0.00  0.00    -0.241 OA
ENDBRANCH   3  22
TORSDOF 7
ENDMDL
MODEL 3
REMARK VINA RESULT:      -4.8      1.453      1.930
REMARK  7 active torsions:
REMARK  status: ('A' for Active; 'I' for Inactive)
REMARK    1  A    between atoms: C_2  and  C_3 
REMARK    2  A    between atoms: C_3  and  O_6 
REMARK    3  A    between atoms: C_3  and  C_4 
REMARK    4  A    between atoms: C_7  and  O_6 
REMARK    5  A    between atoms: C_9  and  C_10 
REMARK    6  A    between atoms: N_15  and  C_14 
REMARK    7  A    between atoms: N_20  and  C_19 
REMARK       I    between atoms: C_22  and  N_20 
ROOT
ATOM      1  C   LIG d   1      -2.579  78.622 115.279  0.00  0.00     0.161 C 
ATOM      2  C   LIG d   1      -2.856  79.828 114.614  0.00  0.00     0.016 C 
ATOM      3  C   LIG d   1      -2.524  80.064 113.259  0.00  0.00     0.038 C 
ATOM      4  C   LIG d   1      -2.026  79.048 112.430  0.00  0.00     0.028 C 
ATOM      5  C   LIG d   1      -1.263  77.967 113.189  0.00  0.00    -0.047 C 
ATOM      6  C   LIG d   1      -2.137  77.464 114.360  0.00  0.00     0.091 C 
ENDROOT
BRANCH   1   7
ATOM      7  O   LIG d   1      -3.717  78.228 116.070  0.00  0.00    -0.368 OA
BRANCH   7   8
ATOM      8  C   LIG d   1      -4.128  79.157 117.103  0.00  0.00     0.119 C 
BRANCH   8   9
ATOM      9  C   LIG d   1      -3.642  78.594 118.452  0.00  0.00     0.028 C 
ATOM     10  C   LIG d   1      -2.427  79.358 119.004  0.00  0.00     0.006 C 
ENDBRANCH   8   9
BRANCH   8  11
ATOM     11  C   LIG d   1      -5.654  79.224 117.217  0.00  0.00     0.028 C 
ATOM     12  C   LIG d   1      -6.174  80.657 117.415  0.00  0.00     0.006 C 
ENDBRANCH   8  11
ENDBRANCH   7   8
ENDBRANCH   1   7
BRANCH   6  13
ATOM     13  N   LIG d   1      -1.432  76.464 115.205  0.00  0.00    -0.311 N 
ATOM     14  C   LIG d   1      -1.977  75.309 115.583  0.00  0.00     0.210 C 
ATOM     15  C   LIG d   1      -1.085  74.433 116.468  0.00  0.00     0.109 C 
ATOM     16  O   LIG d   1      -3.101  74.913 115.242  0.00  0.00    -0.276 OA
ATOM     17  H   LIG d   1      -0.503  76.691 115.501  0.00  0.00     0.149 HD
ENDBRANCH   6  13
BRANCH   5  18
ATOM     18  N   LIG d   1      -0.920  76.904 112.225  0.00  0.00     0.381 N 
ATOM     19  H   LIG d   1       0.074  76.809 112.165  0.00  0.00    -0.090 HD
ATOM     20  H   LIG d   1      -1.267  77.163 111.318  0.00  0.00    -0.090 HD
ATOM     21  H   LIG d   1      -1.327  76.041 112.511  0.00  0.00    -0.090 HD
ENDBRANCH   5  18
BRANCH   3  22
ATOM     22  C   LIG d   1      -2.654  81.340 112.732  0.00  0.00     0.382 C 
ATOM     23  O   LIG d   1      -1.654  81.922 112.246  0.00  0.00    -0.241 OA
ATOM     24  O   LIG d   1      -3.748  81.933 112.776  0.00  0.00    -0.241 OA
ENDBRANCH   3  22
TORSDOF 7
ENDMDL
MODEL 4
REMARK VINA RESULT:      -4.7      2.689      3.897
REMARK  7 active torsions:
REMARK  status: ('A' for Active; 'I' for Inactive)
REMARK    1  A    between atoms: C_2  and  C_3 
REMARK    2  A    between atoms: C_3  and  O_6 
REMARK    3  A    between atoms: C_3  and  C_4 
REMARK    4  A    between atoms: C_7  and  O_6 
REMARK    5  A    between atoms: C_9  and  C_10 
REMARK    6  A    between atoms: N_15  and  C_14 
REMARK    7  A    between atoms: N_20  and  C_19 
REMARK       I    between atoms: C_22  and  N_20 
ROOT
ATOM      1  C   LIG d   1      -4.986  77.147 117.450  0.00  0.00     0.161 C 
ATOM      2  C   LIG d   1      -5.787  78.282 117.658  0.00  0.00     0.016 C 
ATOM      3  C   LIG d   1      -5.394  79.590 117.293  0.00  0.00     0.038 C 
ATOM      4  C   LIG d   1      -4.228  79.834 116.552  0.00  0.00     0.028 C 
ATOM      5  C   LIG d   1      -3.145  78.780 116.762  0.00  0.00    -0.047 C 
ATOM      6  C   LIG d   1      -3.759  77.379 116.543  0.00  0.00     0.091 C 
ENDROOT
BRANCH   1   7
ATOM      7  O   LIG d   1      -5.792  76.068 116.936  0.00  0.00    -0.368 OA
BRANCH   7   8
ATOM      8  C   LIG d   1      -6.774  76.427 115.933  0.00  0.00     0.119 C 
BRANCH   8   9
ATOM      9  C   LIG d   1      -8.101  75.747 116.321  0.00  0.00     0.028 C 
ATOM     10  C   LIG d   1      -7.929  74.730 117.461  0.00  0.00     0.006 C 
ENDBRANCH   8   9
BRANCH   8  11
ATOM     11  C   LIG d   1      -6.407  75.849 114.563  0.00  0.00     0.028 C 
ATOM     12  C   LIG d   1      -5.414  74.680 114.656  0.00  0.00     0.006 C 
ENDBRANCH   8  11
ENDBRANCH   7   8
ENDBRANCH   1   7
BRANCH   6  13
ATOM     13  N   LIG d   1      -2.789  76.286 116.811  0.00  0.00    -0.311 N 
ATOM     14  C   LIG d   1      -2.052  75.710 115.862  0.00  0.00     0.210 C 
ATOM     15  C   LIG d   1      -1.129  74.590 116.351  0.00  0.00     0.109 C 
ATOM     16  O   LIG d   1      -2.052  76.043 114.667  0.00  0.00    -0.276 OA
ATOM     17  H   LIG d   1      -2.702  75.976 117.759  0.00  0.00     0.149 HD
ENDBRANCH   6  13
BRANCH   5  18
ATOM     18  N   LIG d   1      -2.043  79.081 115.829  0.00  0.00     0.381 N 
ATOM     19  H   LIG d   1      -2.097  78.475 115.035  0.00  0.00    -0.090 HD
ATOM     20  H   LIG d   1      -1.168  78.915 116.294  0.00  0.00    -0.090 HD
ATOM     21  H   LIG d   1      -2.096  80.032 115.535  0.00  0.00    -0.090 HD
ENDBRANCH   5  18
BRANCH   3  22
ATOM     22  C   LIG d   1      -6.151  80.676 117.705  0.00  0.00     0.382 C 
ATOM     23  O   LIG d   1      -6.848  81.306 116.873  0.00  0.00    -0.241 OA
ATOM     24  O   LIG d   1      -6.112  81.060 118.889  0.00  0.00    -0.241 OA
ENDBRANCH   3  22
TORSDOF 7
ENDMDL
MODEL 5
REMARK VINA RESULT:      -4.6      1.046      1.988
REMARK  7 active torsions:
REMARK  status: ('A' for Active; 'I' for Inactive)
REMARK    1  A    between atoms: C_2  and  C_3 
REMARK    2  A    between atoms: C_3  and  O_6 
REMARK    3  A    between atoms: C_3  and  C_4 
REMARK    4  A    between atoms: C_7  and  O_6 
REMARK    5  A    between atoms: C_9  and  C_10 
REMARK    6  A    between atoms: N_15  and  C_14 
REMARK    7  A    between atoms: N_20  and  C_19 
REMARK       I    between atoms: C_22  and  N_20 
ROOT
ATOM      1  C   LIG d   1      -2.450  78.180 116.392  0.00  0.00     0.161 C 
ATOM      2  C   LIG d   1      -2.713  79.154 115.414  0.00  0.00     0.016 C 
ATOM      3  C   LIG d   1      -2.147  79.129 114.119  0.00  0.00     0.038 C 
ATOM      4  C   LIG d   1      -1.393  78.038 113.660  0.00  0.00     0.028 C 
ATOM      5  C   LIG d   1      -0.688  77.276 114.777  0.00  0.00    -0.047 C 
ATOM      6  C   LIG d   1      -1.720  76.924 115.873  0.00  0.00     0.091 C 
ENDROOT
BRANCH   1   7
ATOM      7  O   LIG d   1      -3.676  77.809 117.053  0.00  0.00    -0.368 OA
BRANCH   7   8
ATOM      8  C   LIG d   1      -4.813  77.554 116.192  0.00  0.00     0.119 C 
BRANCH   8   9
ATOM      9  C   LIG d   1      -6.060  78.134 116.887  0.00  0.00     0.028 C 
ATOM     10  C   LIG d   1      -5.863  79.596 117.320  0.00  0.00     0.006 C 
ENDBRANCH   8   9
BRANCH   8  11
ATOM     11  C   LIG d   1      -5.085  76.052 116.058  0.00  0.00     0.028 C 
ATOM     12  C   LIG d   1      -5.246  75.604 114.597  0.00  0.00     0.006 C 
ENDBRANCH   8  11
ENDBRANCH   7   8
ENDBRANCH   1   7
BRANCH   6  13
ATOM     13  N   LIG d   1      -1.097  76.251 117.042  0.00  0.00    -0.311 N 
ATOM     14  C   LIG d   1      -1.294  74.968 117.340  0.00  0.00     0.210 C 
ATOM     15  C   LIG d   1      -0.573  74.479 118.600  0.00  0.00     0.109 C 
ATOM     16  O   LIG d   1      -1.971  74.180 116.663  0.00  0.00    -0.276 OA
ATOM     17  H   LIG d   1      -0.506  76.808 117.628  0.00  0.00     0.149 HD
ENDBRANCH   6  13
BRANCH   5  18
ATOM     18  N   LIG d   1      -0.055  76.088 114.175  0.00  0.00     0.381 N 
ATOM     19  H   LIG d   1      -0.365  75.263 114.648  0.00  0.00    -0.090 HD
ATOM     20  H   LIG d   1       0.941  76.159 114.285  0.00  0.00    -0.090 HD
ATOM     21  H   LIG d   1      -0.286  76.032 113.207  0.00  0.00    -0.090 HD
ENDBRANCH   5  18
BRANCH   3  22
ATOM     22  C   LIG d   1      -2.299  80.223 113.281  0.00  0.00     0.382 C 
ATOM     23  O   LIG d   1      -3.447  80.590 112.932  0.00  0.00    -0.241 OA
ATOM     24  O   LIG d   1      -1.302  80.821 112.834  0.00  0.00    -0.241 OA
ENDBRANCH   3  22
TORSDOF 7
ENDMDL
MODEL 6
REMARK VINA RESULT:      -4.5      2.462      5.242
REMARK  7 active torsions:
REMARK  status: ('A' for Active; 'I' for Inactive)
REMARK    1  A    between atoms: C_2  and  C_3 
REMARK    2  A    between atoms: C_3  and  O_6 
REMARK    3  A    between atoms: C_3  and  C_4 
REMARK    4  A    between atoms: C_7  and  O_6 
REMARK    5  A    between atoms: C_9  and  C_10 
REMARK    6  A    between atoms: N_15  and  C_14 
REMARK    7  A    between atoms: N_20  and  C_19 
REMARK       I    between atoms: C_22  and  N_20 
ROOT
ATOM      1  C   LIG d   1      -1.353  75.328 115.433  0.00  0.00     0.161 C 
ATOM      2  C   LIG d   1      -0.774  74.945 116.654  0.00  0.00     0.016 C 
ATOM      3  C   LIG d   1      -0.191  75.861 117.560  0.00  0.00     0.038 C 
ATOM      4  C   LIG d   1      -0.284  77.248 117.374  0.00  0.00     0.028 C 
ATOM      5  C   LIG d   1      -0.415  77.656 115.911  0.00  0.00    -0.047 C 
ATOM      6  C   LIG d   1      -1.564  76.847 115.265  0.00  0.00     0.091 C 
ENDROOT
BRANCH   1   7
ATOM      7  O   LIG d   1      -2.598  74.626 115.242  0.00  0.00    -0.368 OA
BRANCH   7   8
ATOM      8  C   LIG d   1      -3.802  75.362 115.568  0.00  0.00     0.119 C 
BRANCH   8   9
ATOM      9  C   LIG d   1      -4.210  74.971 117.002  0.00  0.00     0.028 C 
ATOM     10  C   LIG d   1      -4.067  76.139 117.992  0.00  0.00     0.006 C 
ENDBRANCH   8   9
BRANCH   8  11
ATOM     11  C   LIG d   1      -4.975  74.934 114.681  0.00  0.00     0.028 C 
ATOM     12  C   LIG d   1      -6.134  75.942 114.699  0.00  0.00     0.006 C 
ENDBRANCH   8  11
ENDBRANCH   7   8
ENDBRANCH   1   7
BRANCH   6  13
ATOM     13  N   LIG d   1      -1.705  77.124 113.812  0.00  0.00    -0.311 N 
ATOM     14  C   LIG d   1      -2.555  78.020 113.315  0.00  0.00     0.210 C 
ATOM     15  C   LIG d   1      -2.556  78.135 111.788  0.00  0.00     0.109 C 
ATOM     16  O   LIG d   1      -3.286  78.755 113.997  0.00  0.00    -0.276 OA
ATOM     17  H   LIG d   1      -1.127  76.595 113.189  0.00  0.00     0.149 HD
ENDBRANCH   6  13
BRANCH   5  18
ATOM     18  N   LIG d   1      -0.642  79.113 115.873  0.00  0.00     0.381 N 
ATOM     19  H   LIG d   1      -0.463  79.507 116.774  0.00  0.00    -0.090 HD
ATOM     20  H   LIG d   1      -1.604  79.286 115.638  0.00  0.00    -0.090 HD
ATOM     21  H   LIG d   1      -0.046  79.533 115.194  0.00  0.00    -0.090 HD
ENDBRANCH   5  18
BRANCH   3  22
ATOM     22  C   LIG d   1       0.529  75.389 118.647  0.00  0.00     0.382 C 
ATOM     23  O   LIG d   1       1.440  76.091 119.148  0.00  0.00    -0.241 OA
ATOM     24  O   LIG d   1       0.310  74.251 119.104  0.00  0.00    -0.241 OA
ENDBRANCH   3  22
TORSDOF 7
ENDMDL
MODEL 7
REMARK VINA RESULT:      -4.4      2.460      2.990
REMARK  7 active torsions:
REMARK  status: ('A' for Active; 'I' for Inactive)
REMARK    1  A    between atoms: C_2  and  C_3 
REMARK    2  A    between atoms: C_3  and  O_6 
REMARK    3  A    between atoms: C_3  and  C_4 
REMARK    4  A    between atoms: C_7  and  O_6 
REMARK    5  A    between atoms: C_9  and  C_10 
REMARK    6  A    between atoms: N_15  and  C_14 
REMARK    7  A    between atoms: N_20  and  C_19 
REMARK       I    between atoms: C_22  and  N_20 
ROOT
ATOM      1  C   LIG d   1      -3.271  78.431 116.546  0.00  0.00     0.161 C 
ATOM      2  C   LIG d   1      -2.386  79.445 116.948  0.00  0.00     0.016 C 
ATOM      3  C   LIG d   1      -1.055  79.547 116.481  0.00  0.00     0.038 C 
ATOM      4  C   LIG d   1      -0.564  78.723 115.458  0.00  0.00     0.028 C 
ATOM      5  C   LIG d   1      -1.259  77.368 115.384  0.00  0.00    -0.047 C 
ATOM      6  C   LIG d   1      -2.788  77.590 115.346  0.00  0.00     0.091 C 
ENDROOT
BRANCH   1   7
ATOM      7  O   LIG d   1      -4.568  78.996 116.272  0.00  0.00    -0.368 OA
BRANCH   7   8
ATOM      8  C   LIG d   1      -5.524  78.956 117.360  0.00  0.00     0.119 C 
BRANCH   8   9
ATOM      9  C   LIG d   1      -6.593  77.907 116.999  0.00  0.00     0.028 C 
ATOM     10  C   LIG d   1      -6.405  76.588 117.768  0.00  0.00     0.006 C 
ENDBRANCH   8   9
BRANCH   8  11
ATOM     11  C   LIG d   1      -6.282  80.281 117.486  0.00  0.00     0.028 C 
ATOM     12  C   LIG d   1      -7.787  80.085 117.731  0.00  0.00     0.006 C 
ENDBRANCH   8  11
ENDBRANCH   7   8
ENDBRANCH   1   7
BRANCH   6  13
ATOM     13  N   LIG d   1      -3.547  76.312 115.359  0.00  0.00    -0.311 N 
ATOM     14  C   LIG d   1      -4.527  76.033 114.502  0.00  0.00     0.210 C 
ATOM     15  C   LIG d   1      -5.192  74.667 114.702  0.00  0.00     0.109 C 
ATOM     16  O   LIG d   1      -4.888  76.773 113.574  0.00  0.00    -0.276 OA
ATOM     17  H   LIG d   1      -3.299  75.641 116.059  0.00  0.00     0.149 HD
ENDBRANCH   6  13
BRANCH   5  18
ATOM     18  N   LIG d   1      -0.746  76.668 114.192  0.00  0.00     0.381 N 
ATOM     19  H   LIG d   1      -0.785  77.276 113.399  0.00  0.00    -0.090 HD
ATOM     20  H   LIG d   1      -1.330  75.871 114.006  0.00  0.00    -0.090 HD
ATOM     21  H   LIG d   1       0.192  76.372 114.347  0.00  0.00    -0.090 HD
ENDBRANCH   5  18
BRANCH   3  22
ATOM     22  C   LIG d   1      -0.188  80.456 117.069  0.00  0.00     0.382 C 
ATOM     23  O   LIG d   1       0.756  80.943 116.401  0.00  0.00    -0.241 OA
ATOM     24  O   LIG d   1      -0.311  80.761 118.270  0.00  0.00    -0.241 OA
ENDBRANCH   3  22
TORSDOF 7
ENDMDL
MODEL 8
REMARK VINA RESULT:      -4.3      2.826      4.410
REMARK  7 active torsions:
REMARK  status: ('A' for Active; 'I' for Inactive)
REMARK    1  A    between atoms: C_2  and  C_3 
REMARK    2  A    between atoms: C_3  and  O_6 
REMARK    3  A    between atoms: C_3  and  C_4 
REMARK    4  A    between atoms: C_7  and  O_6 
REMARK    5  A    between atoms: C_9  and  C_10 
REMARK    6  A    between atoms: N_15  and  C_14 
REMARK    7  A    between atoms: N_20  and  C_19 
REMARK       I    between atoms: C_22  and  N_20 
ROOT
ATOM      1  C   LIG d   1      -5.384  77.906 116.718  0.00  0.00     0.161 C 
ATOM      2  C   LIG d   1      -4.265  78.156 115.907  0.00  0.00     0.016 C 
ATOM      3  C   LIG d   1      -3.665  77.176 115.083  0.00  0.00     0.038 C 
ATOM      4  C   LIG d   1      -4.241  75.910 114.899  0.00  0.00     0.028 C 
ATOM      5  C   LIG d   1      -5.082  75.449 116.084  0.00  0.00    -0.047 C 
ATOM      6  C   LIG d   1      -6.092  76.562 116.446  0.00  0.00     0.091 C 
ENDROOT
BRANCH   1   7
ATOM      7  O   LIG d   1      -6.320  78.996 116.609  0.00  0.00    -0.368 OA
BRANCH   7   8
ATOM      8  C   LIG d   1      -6.567  79.748 117.823  0.00  0.00     0.119 C 
BRANCH   8   9
ATOM      9  C   LIG d   1      -8.053  79.563 118.187  0.00  0.00     0.028 C 
ATOM     10  C   LIG d   1      -8.247  79.100 119.641  0.00  0.00     0.006 C 
ENDBRANCH   8   9
BRANCH   8  11
ATOM     11  C   LIG d   1      -6.389  81.252 117.593  0.00  0.00     0.028 C 
ATOM     12  C   LIG d   1      -7.713  81.966 117.276  0.00  0.00     0.006 C 
ENDBRANCH   8  11
ENDBRANCH   7   8
ENDBRANCH   1   7
BRANCH   6  13
ATOM     13  N   LIG d   1      -6.899  76.227 117.648  0.00  0.00    -0.311 N 
ATOM     14  C   LIG d   1      -8.116  75.690 117.588  0.00  0.00     0.210 C 
ATOM     15  C   LIG d   1      -8.781  75.443 118.945  0.00  0.00     0.109 C 
ATOM     16  O   LIG d   1      -8.695  75.366 116.540  0.00  0.00    -0.276 OA
ATOM     17  H   LIG d   1      -6.492  76.429 118.541  0.00  0.00     0.149 HD
ENDBRANCH   6  13
BRANCH   5  18
ATOM     18  N   LIG d   1      -5.732  74.180 115.703  0.00  0.00     0.381 N 
ATOM     19  H   LIG d   1      -6.724  74.306 115.666  0.00  0.00    -0.090 HD
ATOM     20  H   LIG d   1      -5.527  73.488 116.401  0.00  0.00    -0.090 HD
ATOM     21  H   LIG d   1      -5.395  73.878 114.816  0.00  0.00    -0.090 HD
ENDBRANCH   5  18
BRANCH   3  22
ATOM     22  C   LIG d   1      -2.454  77.445 114.464  0.00  0.00     0.382 C 
ATOM     23  O   LIG d   1      -1.612  78.185 115.028  0.00  0.00    -0.241 OA
ATOM     24  O   LIG d   1      -2.211  76.994 113.329  0.00  0.00    -0.241 OA
ENDBRANCH   3  22
TORSDOF 7
ENDMDL
MODEL 9
REMARK VINA RESULT:      -4.2      3.877      4.926
REMARK  7 active torsions:
REMARK  status: ('A' for Active; 'I' for Inactive)
REMARK    1  A    between atoms: C_2  and  C_3 
REMARK    2  A    between atoms: C_3  and  O_6 
REMARK    3  A    between atoms: C_3  and  C_4 
REMARK    4  A    between atoms: C_7  and  O_6 
REMARK    5  A    between atoms: C_9  and  C_10 
REMARK    6  A    between atoms: N_15  and  C_14 
REMARK    7  A    between atoms: N_20  and  C_19 
REMARK       I    between atoms: C_22  and  N_20 
ROOT
ATOM      1  C   LIG d   1      -5.840  78.234 117.420  0.00  0.00     0.161 C 
ATOM      2  C   LIG d   1      -6.649  79.364 117.220  0.00  0.00     0.016 C 
ATOM      3  C   LIG d   1      -6.377  80.628 117.793  0.00  0.00     0.038 C 
ATOM      4  C   LIG d   1      -5.185  80.885 118.487  0.00  0.00     0.028 C 
ATOM      5  C   LIG d   1      -4.585  79.645 119.140  0.00  0.00    -0.047 C 
ATOM      6  C   LIG d   1      -4.477  78.523 118.083  0.00  0.00     0.091 C 
ENDROOT
BRANCH   1   7
ATOM      7  O   LIG d   1      -5.652  77.540 116.171  0.00  0.00    -0.368 OA
BRANCH   7   8
ATOM      8  C   LIG d   1      -6.656  76.550 115.834  0.00  0.00     0.119 C 
BRANCH   8   9
ATOM      9  C   LIG d   1      -6.599  75.449 116.911  0.00  0.00     0.028 C 
ATOM     10  C   LIG d   1      -7.991  74.890 117.252  0.00  0.00     0.006 C 
ENDBRANCH   8   9
BRANCH   8  11
ATOM     11  C   LIG d   1      -6.323  75.845 114.516  0.00  0.00     0.028 C 
ATOM     12  C   LIG d   1      -5.245  74.761 114.675  0.00  0.00     0.006 C 
ENDBRANCH   8  11
ENDBRANCH   7   8
ENDBRANCH   1   7
BRANCH   6  13
ATOM     13  N   LIG d   1      -3.978  77.247 118.659  0.00  0.00    -0.311 N 
ATOM     14  C   LIG d   1      -2.693  76.896 118.658  0.00  0.00     0.210 C 
ATOM     15  C   LIG d   1      -2.395  75.530 119.285  0.00  0.00     0.109 C 
ATOM     16  O   LIG d   1      -1.767  77.601 118.228  0.00  0.00    -0.276 OA
ATOM     17  H   LIG d   1      -4.657  76.630 119.058  0.00  0.00     0.149 HD
ENDBRANCH   6  13
BRANCH   5  18
ATOM     18  N   LIG d   1      -3.280  80.029 119.711  0.00  0.00     0.381 N 
ATOM     19  H   LIG d   1      -3.164  79.604 120.609  0.00  0.00    -0.090 HD
ATOM     20  H   LIG d   1      -3.258  81.027 119.829  0.00  0.00    -0.090 HD
ATOM     21  H   LIG d   1      -2.544  79.743 119.102  0.00  0.00    -0.090 HD
ENDBRANCH   5  18
BRANCH   3  22
ATOM     22  C   LIG d   1      -7.321  81.639 117.707  0.00  0.00     0.382 C 
ATOM     23  O   LIG d   1      -7.288  82.598 118.517  0.00  0.00    -0.241 OA
ATOM     24  O   LIG d   1      -8.232  81.583 116.860  0.00  0.00    -0.241 OA
ENDBRANCH   3  22
TORSDOF 7
ENDMDL
