MODEL 1
REMARK VINA RESULT:      -5.0      0.000      0.000
REMARK  7 active torsions:
REMARK  status: ('A' for Active; 'I' for Inactive)
REMARK    1  A    between atoms: C_2  and  C_3 
REMARK    2  A    between atoms: C_3  and  O_6 
REMARK    3  A    between atoms: C_3  and  C_4 
REMARK    4  A    between atoms: C_7  and  O_6 
REMARK    5  A    between atoms: C_9  and  C_10 
REMARK    6  A    between atoms: N_15  and  C_14 
REMARK    7  A    between atoms: N_20  and  C_19 
REMARK       I    between atoms: C_22  and  N_20 
ROOT
ATOM      1  C   LIG d   1      -2.478  78.332 115.026  0.00  0.00     0.161 C 
ATOM      2  C   LIG d   1      -2.815  79.558 114.430  0.00  0.00     0.016 C 
ATOM      3  C   LIG d   1      -2.528  79.874 113.082  0.00  0.00     0.038 C 
ATOM      4  C   LIG d   1      -2.016  78.919 112.190  0.00  0.00     0.028 C 
ATOM      5  C   LIG d   1      -1.195  77.831 112.873  0.00  0.00    -0.047 C 
ATOM      6  C   LIG d   1      -2.019  77.238 114.039  0.00  0.00     0.091 C 
ENDROOT
BRANCH   1   7
ATOM      7  O   LIG d   1      -3.580  77.857 115.824  0.00  0.00    -0.368 OA
BRANCH   7   8
ATOM      8  C   LIG d   1      -3.396  77.907 117.260  0.00  0.00     0.119 C 
BRANCH   8   9
ATOM      9  C   LIG d   1      -4.333  79.001 117.808  0.00  0.00     0.028 C 
ATOM     10  C   LIG d   1      -3.859  79.555 119.162  0.00  0.00     0.006 C 
ENDBRANCH   8   9
BRANCH   8  11
ATOM     11  C   LIG d   1      -1.981  78.366 117.624  0.00  0.00     0.028 C 
ATOM     12  C   LIG d   1      -1.153  77.263 118.303  0.00  0.00     0.006 C 
ENDBRANCH   8  11
ENDBRANCH   7   8
ENDBRANCH   1   7
BRANCH   6  13
ATOM     13  N   LIG d   1      -1.257  76.224 114.813  0.00  0.00    -0.311 N 
ATOM     14  C   LIG d   1      -1.783  75.075 115.234  0.00  0.00     0.210 C 
ATOM     15  C   LIG d   1      -0.830  74.181 116.033  0.00  0.00     0.109 C 
ATOM     16  O   LIG d   1      -2.940  74.696 114.993  0.00  0.00    -0.276 OA
ATOM     17  H   LIG d   1      -0.302  76.436 115.026  0.00  0.00     0.149 HD
ENDBRANCH   6  13
BRANCH   5  18
ATOM     18  N   LIG d   1      -0.841  76.831 111.848  0.00  0.00     0.381 N 
ATOM     19  H   LIG d   1      -1.194  75.933 112.114  0.00  0.00    -0.090 HD
ATOM     20  H   LIG d   1       0.160  76.770 111.786  0.00  0.00    -0.090 HD
ATOM     21  H   LIG d   1      -1.220  77.097 110.966  0.00  0.00    -0.090 HD
ENDBRANCH   5  18
BRANCH   3  22
ATOM     22  C   LIG d   1      -2.717  81.169 112.624  0.00  0.00     0.382 C 
ATOM     23  O   LIG d   1      -1.743  81.826 112.182  0.00  0.00    -0.241 OA
ATOM     24  O   LIG d   1      -3.839  81.704 112.688  0.00  0.00    -0.241 OA
ENDBRANCH   3  22
TORSDOF 7
ENDMDL
MODEL 2
REMARK VINA RESULT:      -4.9      2.747      5.756
REMARK  7 active torsions:
REMARK  status: ('A' for Active; 'I' for Inactive)
REMARK    1  A    between atoms: C_2  and  C_3 
REMARK    2  A    between atoms: C_3  and  O_6 
REMARK    3  A    between atoms: C_3  and  C_4 
REMARK    4  A    between atoms: C_7  and  O_6 
REMARK    5  A    between atoms: C_9  and  C_10 
REMARK    6  A    between atoms: N_15  and  C_14 
REMARK    7  A    between atoms: N_20  and  C_19 
REMARK       I    between atoms: C_22  and  N_20 
ROOT
ATOM      1  C   LIG d   1      -1.233  75.127 115.396  0.00  0.00     0.161 C 
ATOM      2  C   LIG d   1      -0.847  74.660 116.663  0.00  0.00     0.016 C 
ATOM      3  C   LIG d   1      -0.264  75.484 117.653  0.00  0.00     0.038 C 
ATOM      4  C   LIG d   1      -0.165  76.874 117.495  0.00  0.00     0.028 C 
ATOM      5  C   LIG d   1      -0.077  77.314 116.038  0.00  0.00    -0.047 C 
ATOM      6  C   LIG d   1      -1.234  76.663 115.247  0.00  0.00     0.091 C 
ENDROOT
BRANCH   1   7
ATOM      7  O   LIG d   1      -2.524  74.589 115.048  0.00  0.00    -0.368 OA
BRANCH   7   8
ATOM      8  C   LIG d   1      -3.671  75.388 115.429  0.00  0.00     0.119 C 
BRANCH   8   9
ATOM      9  C   LIG d   1      -4.193  74.838 116.771  0.00  0.00     0.028 C 
ATOM     10  C   LIG d   1      -4.039  75.850 117.918  0.00  0.00     0.006 C 
ENDBRANCH   8   9
BRANCH   8  11
ATOM     11  C   LIG d   1      -4.827  75.209 114.440  0.00  0.00     0.028 C 
ATOM     12  C   LIG d   1      -6.063  74.556 115.081  0.00  0.00     0.006 C 
ENDBRANCH   8  11
ENDBRANCH   7   8
ENDBRANCH   1   7
BRANCH   6  13
ATOM     13  N   LIG d   1      -1.173  76.974 113.795  0.00  0.00    -0.311 N 
ATOM     14  C   LIG d   1      -2.042  77.775 113.179  0.00  0.00     0.210 C 
ATOM     15  C   LIG d   1      -1.810  77.945 111.674  0.00  0.00     0.109 C 
ATOM     16  O   LIG d   1      -2.962  78.385 113.742  0.00  0.00    -0.276 OA
ATOM     17  H   LIG d   1      -0.438  76.545 113.267  0.00  0.00     0.149 HD
ENDBRANCH   6  13
BRANCH   5  18
ATOM     18  N   LIG d   1      -0.117  78.788 116.014  0.00  0.00     0.381 N 
ATOM     19  H   LIG d   1       0.769  79.156 116.297  0.00  0.00    -0.090 HD
ATOM     20  H   LIG d   1      -0.813  79.105 116.666  0.00  0.00    -0.090 HD
ATOM     21  H   LIG d   1      -0.340  79.109 115.097  0.00  0.00    -0.090 HD
ENDBRANCH   5  18
BRANCH   3  22
ATOM     22  C   LIG d   1       0.264  74.912 118.800  0.00  0.00     0.382 C 
ATOM     23  O   LIG d   1      -0.455  74.181 119.524  0.00  0.00    -0.241 OA
ATOM     24  O   LIG d   1       1.437  75.152 119.144  0.00  0.00    -0.241 OA
ENDBRANCH   3  22
TORSDOF 7
ENDMDL
MODEL 3
REMARK VINA RESULT:      -4.7      2.351      3.422
REMARK  7 active torsions:
REMARK  status: ('A' for Active; 'I' for Inactive)
REMARK    1  A    between atoms: C_2  and  C_3 
REMARK    2  A    between atoms: C_3  and  O_6 
REMARK    3  A    between atoms: C_3  and  C_4 
REMARK    4  A    between atoms: C_7  and  O_6 
REMARK    5  A    between atoms: C_9  and  C_10 
REMARK    6  A    between atoms: N_15  and  C_14 
REMARK    7  A    between atoms: N_20  and  C_19 
REMARK       I    between atoms: C_22  and  N_20 
ROOT
ATOM      1  C   LIG d   1      -2.804  77.057 115.237  0.00  0.00     0.161 C 
ATOM      2  C   LIG d   1      -2.974  77.937 114.155  0.00  0.00     0.016 C 
ATOM      3  C   LIG d   1      -2.078  78.991 113.861  0.00  0.00     0.038 C 
ATOM      4  C   LIG d   1      -0.862  79.143 114.544  0.00  0.00     0.028 C 
ATOM      5  C   LIG d   1      -0.892  78.589 115.965  0.00  0.00    -0.047 C 
ATOM      6  C   LIG d   1      -1.426  77.139 115.927  0.00  0.00     0.091 C 
ENDROOT
BRANCH   1   7
ATOM      7  O   LIG d   1      -3.074  75.706 114.815  0.00  0.00    -0.368 OA
BRANCH   7   8
ATOM      8  C   LIG d   1      -4.201  75.053 115.449  0.00  0.00     0.119 C 
BRANCH   8   9
ATOM      9  C   LIG d   1      -5.127  74.538 114.330  0.00  0.00     0.028 C 
ATOM     10  C   LIG d   1      -6.187  75.574 113.922  0.00  0.00     0.006 C 
ENDBRANCH   8   9
BRANCH   8  11
ATOM     11  C   LIG d   1      -5.046  76.050 116.247  0.00  0.00     0.028 C 
ATOM     12  C   LIG d   1      -5.032  75.767 117.758  0.00  0.00     0.006 C 
ENDBRANCH   8  11
ENDBRANCH   7   8
ENDBRANCH   1   7
BRANCH   6  13
ATOM     13  N   LIG d   1      -1.567  76.551 117.284  0.00  0.00    -0.311 N 
ATOM     14  C   LIG d   1      -1.133  75.333 117.604  0.00  0.00     0.210 C 
ATOM     15  C   LIG d   1      -1.396  74.913 119.054  0.00  0.00     0.109 C 
ATOM     16  O   LIG d   1      -0.526  74.573 116.834  0.00  0.00    -0.276 OA
ATOM     17  H   LIG d   1      -2.019  77.111 117.979  0.00  0.00     0.149 HD
ENDBRANCH   6  13
BRANCH   5  18
ATOM     18  N   LIG d   1       0.474  78.688 116.511  0.00  0.00     0.381 N 
ATOM     19  H   LIG d   1       0.829  77.773 116.704  0.00  0.00    -0.090 HD
ATOM     20  H   LIG d   1       0.443  79.202 117.374  0.00  0.00    -0.090 HD
ATOM     21  H   LIG d   1       1.069  79.153 115.860  0.00  0.00    -0.090 HD
ENDBRANCH   5  18
BRANCH   3  22
ATOM     22  C   LIG d   1      -2.415  79.931 112.899  0.00  0.00     0.382 C 
ATOM     23  O   LIG d   1      -3.509  80.540 112.973  0.00  0.00    -0.241 OA
ATOM     24  O   LIG d   1      -1.658  80.144 111.933  0.00  0.00    -0.241 OA
ENDBRANCH   3  22
TORSDOF 7
ENDMDL
MODEL 4
REMARK VINA RESULT:      -4.4      1.938      2.473
REMARK  7 active torsions:
REMARK  status: ('A' for Active; 'I' for Inactive)
REMARK    1  A    between atoms: C_2  and  C_3 
REMARK    2  A    between atoms: C_3  and  O_6 
REMARK    3  A    between atoms: C_3  and  C_4 
REMARK    4  A    between atoms: C_7  and  O_6 
REMARK    5  A    between atoms: C_9  and  C_10 
REMARK    6  A    between atoms: N_15  and  C_14 
REMARK    7  A    between atoms: N_20  and  C_19 
REMARK       I    between atoms: C_22  and  N_20 
ROOT
ATOM      1  C   LIG d   1      -1.708  78.255 116.563  0.00  0.00     0.161 C 
ATOM      2  C   LIG d   1      -2.283  78.905 115.459  0.00  0.00     0.016 C 
ATOM      3  C   LIG d   1      -2.123  78.463 114.125  0.00  0.00     0.038 C 
ATOM      4  C   LIG d   1      -1.499  77.245 113.818  0.00  0.00     0.028 C 
ATOM      5  C   LIG d   1      -0.468  76.814 114.856  0.00  0.00    -0.047 C 
ATOM      6  C   LIG d   1      -1.117  76.863 116.258  0.00  0.00     0.091 C 
ENDROOT
BRANCH   1   7
ATOM      7  O   LIG d   1      -2.670  78.167 117.633  0.00  0.00    -0.368 OA
BRANCH   7   8
ATOM      8  C   LIG d   1      -3.997  77.718 117.262  0.00  0.00     0.119 C 
BRANCH   8   9
ATOM      9  C   LIG d   1      -5.008  78.710 117.869  0.00  0.00     0.028 C 
ATOM     10  C   LIG d   1      -4.413  79.511 119.040  0.00  0.00     0.006 C 
ENDBRANCH   8   9
BRANCH   8  11
ATOM     11  C   LIG d   1      -4.325  76.364 117.899  0.00  0.00     0.028 C 
ATOM     12  C   LIG d   1      -4.235  75.199 116.900  0.00  0.00     0.006 C 
ENDBRANCH   8  11
ENDBRANCH   7   8
ENDBRANCH   1   7
BRANCH   6  13
ATOM     13  N   LIG d   1      -0.152  76.537 117.341  0.00  0.00    -0.311 N 
ATOM     14  C   LIG d   1      -0.013  75.317 117.856  0.00  0.00     0.210 C 
ATOM     15  C   LIG d   1       1.024  75.203 118.977  0.00  0.00     0.109 C 
ATOM     16  O   LIG d   1      -0.627  74.311 117.468  0.00  0.00    -0.276 OA
ATOM     17  H   LIG d   1       0.409  77.288 117.693  0.00  0.00     0.149 HD
ENDBRANCH   6  13
BRANCH   5  18
ATOM     18  N   LIG d   1       0.004  75.467 114.483  0.00  0.00     0.381 N 
ATOM     19  H   LIG d   1      -0.409  74.785 115.088  0.00  0.00    -0.090 HD
ATOM     20  H   LIG d   1       1.001  75.428 114.598  0.00  0.00    -0.090 HD
ATOM     21  H   LIG d   1      -0.236  75.271 113.537  0.00  0.00    -0.090 HD
ENDBRANCH   5  18
BRANCH   3  22
ATOM     22  C   LIG d   1      -2.557  79.263 113.079  0.00  0.00     0.382 C 
ATOM     23  O   LIG d   1      -2.084  79.101 111.928  0.00  0.00    -0.241 OA
ATOM     24  O   LIG d   1      -3.383  80.173 113.280  0.00  0.00    -0.241 OA
ENDBRANCH   3  22
TORSDOF 7
ENDMDL
MODEL 5
REMARK VINA RESULT:      -4.4      2.897      4.077
REMARK  7 active torsions:
REMARK  status: ('A' for Active; 'I' for Inactive)
REMARK    1  A    between atoms: C_2  and  C_3 
REMARK    2  A    between atoms: C_3  and  O_6 
REMARK    3  A    between atoms: C_3  and  C_4 
REMARK    4  A    between atoms: C_7  and  O_6 
REMARK    5  A    between atoms: C_9  and  C_10 
REMARK    6  A    between atoms: N_15  and  C_14 
REMARK    7  A    between atoms: N_20  and  C_19 
REMARK       I    between atoms: C_22  and  N_20 
ROOT
ATOM      1  C   LIG d   1      -3.132  77.991 116.982  0.00  0.00     0.161 C 
ATOM      2  C   LIG d   1      -2.174  78.896 117.467  0.00  0.00     0.016 C 
ATOM      3  C   LIG d   1      -0.871  79.013 116.929  0.00  0.00     0.038 C 
ATOM      4  C   LIG d   1      -0.486  78.332 115.765  0.00  0.00     0.028 C 
ATOM      5  C   LIG d   1      -1.252  77.032 115.542  0.00  0.00    -0.047 C 
ATOM      6  C   LIG d   1      -2.767  77.319 115.642  0.00  0.00     0.091 C 
ENDROOT
BRANCH   1   7
ATOM      7  O   LIG d   1      -4.414  78.642 116.883  0.00  0.00    -0.368 OA
BRANCH   7   8
ATOM      8  C   LIG d   1      -5.302  78.476 118.016  0.00  0.00     0.119 C 
BRANCH   8   9
ATOM      9  C   LIG d   1      -6.452  77.551 117.571  0.00  0.00     0.028 C 
ATOM     10  C   LIG d   1      -6.225  76.089 117.990  0.00  0.00     0.006 C 
ENDBRANCH   8   9
BRANCH   8  11
ATOM     11  C   LIG d   1      -5.971  79.800 118.398  0.00  0.00     0.028 C 
ATOM     12  C   LIG d   1      -7.450  79.861 117.984  0.00  0.00     0.006 C 
ENDBRANCH   8  11
ENDBRANCH   7   8
ENDBRANCH   1   7
BRANCH   6  13
ATOM     13  N   LIG d   1      -3.587  76.085 115.519  0.00  0.00    -0.311 N 
ATOM     14  C   LIG d   1      -4.360  75.820 114.468  0.00  0.00     0.210 C 
ATOM     15  C   LIG d   1      -5.137  74.502 114.552  0.00  0.00     0.109 C 
ATOM     16  O   LIG d   1      -4.452  76.536 113.459  0.00  0.00    -0.276 OA
ATOM     17  H   LIG d   1      -3.548  75.434 116.279  0.00  0.00     0.149 HD
ENDBRANCH   6  13
BRANCH   5  18
ATOM     18  N   LIG d   1      -0.849  76.498 114.227  0.00  0.00     0.381 N 
ATOM     19  H   LIG d   1      -1.144  77.123 113.503  0.00  0.00    -0.090 HD
ATOM     20  H   LIG d   1      -1.303  75.613 114.083  0.00  0.00    -0.090 HD
ATOM     21  H   LIG d   1       0.139  76.382 114.194  0.00  0.00    -0.090 HD
ENDBRANCH   5  18
BRANCH   3  22
ATOM     22  C   LIG d   1       0.075  79.788 117.583  0.00  0.00     0.382 C 
ATOM     23  O   LIG d   1       0.200  79.707 118.828  0.00  0.00    -0.241 OA
ATOM     24  O   LIG d   1       0.774  80.600 116.948  0.00  0.00    -0.241 OA
ENDBRANCH   3  22
TORSDOF 7
ENDMDL
MODEL 6
REMARK VINA RESULT:      -4.2      2.907      5.669
REMARK  7 active torsions:
REMARK  status: ('A' for Active; 'I' for Inactive)
REMARK    1  A    between atoms: C_2  and  C_3 
REMARK    2  A    between atoms: C_3  and  O_6 
REMARK    3  A    between atoms: C_3  and  C_4 
REMARK    4  A    between atoms: C_7  and  O_6 
REMARK    5  A    between atoms: C_9  and  C_10 
REMARK    6  A    between atoms: N_15  and  C_14 
REMARK    7  A    between atoms: N_20  and  C_19 
REMARK       I    between atoms: C_22  and  N_20 
ROOT
ATOM      1  C   LIG d   1      -1.968  76.864 115.033  0.00  0.00     0.161 C 
ATOM      2  C   LIG d   1      -0.831  76.797 115.856  0.00  0.00     0.016 C 
ATOM      3  C   LIG d   1      -0.737  75.952 116.985  0.00  0.00     0.038 C 
ATOM      4  C   LIG d   1      -1.723  74.998 117.282  0.00  0.00     0.028 C 
ATOM      5  C   LIG d   1      -3.109  75.381 116.773  0.00  0.00    -0.047 C 
ATOM      6  C   LIG d   1      -3.009  75.751 115.276  0.00  0.00     0.091 C 
ENDROOT
BRANCH   1   7
ATOM      7  O   LIG d   1      -1.568  76.882 113.648  0.00  0.00    -0.368 OA
BRANCH   7   8
ATOM      8  C   LIG d   1      -1.417  78.191 113.045  0.00  0.00     0.119 C 
BRANCH   8   9
ATOM      9  C   LIG d   1      -2.265  79.180 113.869  0.00  0.00     0.028 C 
ATOM     10  C   LIG d   1      -2.818  80.332 113.013  0.00  0.00     0.006 C 
ENDBRANCH   8   9
BRANCH   8  11
ATOM     11  C   LIG d   1      -2.011  78.226 111.634  0.00  0.00     0.028 C 
ATOM     12  C   LIG d   1      -0.937  78.184 110.535  0.00  0.00     0.006 C 
ENDBRANCH   8  11
ENDBRANCH   7   8
ENDBRANCH   1   7
BRANCH   6  13
ATOM     13  N   LIG d   1      -4.305  76.219 114.720  0.00  0.00    -0.311 N 
ATOM     14  C   LIG d   1      -5.171  75.417 114.103  0.00  0.00     0.210 C 
ATOM     15  C   LIG d   1      -6.438  76.106 113.588  0.00  0.00     0.109 C 
ATOM     16  O   LIG d   1      -5.024  74.193 113.962  0.00  0.00    -0.276 OA
ATOM     17  H   LIG d   1      -4.519  77.193 114.818  0.00  0.00     0.149 HD
ENDBRANCH   6  13
BRANCH   5  18
ATOM     18  N   LIG d   1      -4.008  74.240 117.028  0.00  0.00     0.381 N 
ATOM     19  H   LIG d   1      -3.501  73.503 117.476  0.00  0.00    -0.090 HD
ATOM     20  H   LIG d   1      -4.354  73.897 116.150  0.00  0.00    -0.090 HD
ATOM     21  H   LIG d   1      -4.769  74.528 117.604  0.00  0.00    -0.090 HD
ENDBRANCH   5  18
BRANCH   3  22
ATOM     22  C   LIG d   1       0.335  76.083 117.855  0.00  0.00     0.382 C 
ATOM     23  O   LIG d   1       1.335  76.761 117.518  0.00  0.00    -0.241 OA
ATOM     24  O   LIG d   1       0.333  75.496 118.953  0.00  0.00    -0.241 OA
ENDBRANCH   3  22
TORSDOF 7
ENDMDL
MODEL 7
REMARK VINA RESULT:      -4.2      4.425      6.039
REMARK  7 active torsions:
REMARK  status: ('A' for Active; 'I' for Inactive)
REMARK    1  A    between atoms: C_2  and  C_3 
REMARK    2  A    between atoms: C_3  and  O_6 
REMARK    3  A    between atoms: C_3  and  C_4 
REMARK    4  A    between atoms: C_7  and  O_6 
REMARK    5  A    between atoms: C_9  and  C_10 
REMARK    6  A    between atoms: N_15  and  C_14 
REMARK    7  A    between atoms: N_20  and  C_19 
REMARK       I    between atoms: C_22  and  N_20 
ROOT
ATOM      1  C   LIG d   1      -6.440  77.082 117.364  0.00  0.00     0.161 C 
ATOM      2  C   LIG d   1      -7.315  78.169 117.523  0.00  0.00     0.016 C 
ATOM      3  C   LIG d   1      -6.947  79.378 118.156  0.00  0.00     0.038 C 
ATOM      4  C   LIG d   1      -5.625  79.640 118.543  0.00  0.00     0.028 C 
ATOM      5  C   LIG d   1      -4.825  78.380 118.860  0.00  0.00    -0.047 C 
ATOM      6  C   LIG d   1      -4.961  77.390 117.681  0.00  0.00     0.091 C 
ENDROOT
BRANCH   1   7
ATOM      7  O   LIG d   1      -6.566  76.543 116.033  0.00  0.00    -0.368 OA
BRANCH   7   8
ATOM      8  C   LIG d   1      -7.167  75.229 115.932  0.00  0.00     0.119 C 
BRANCH   8   9
ATOM      9  C   LIG d   1      -7.597  74.806 117.350  0.00  0.00     0.028 C 
ATOM     10  C   LIG d   1      -9.060  74.334 117.403  0.00  0.00     0.006 C 
ENDBRANCH   8   9
BRANCH   8  11
ATOM     11  C   LIG d   1      -6.143  74.180 115.489  0.00  0.00     0.028 C 
ATOM     12  C   LIG d   1      -5.279  74.652 114.309  0.00  0.00     0.006 C 
ENDBRANCH   8  11
ENDBRANCH   7   8
ENDBRANCH   1   7
BRANCH   6  13
ATOM     13  N   LIG d   1      -4.278  76.097 117.945  0.00  0.00    -0.311 N 
ATOM     14  C   LIG d   1      -3.247  75.653 117.229  0.00  0.00     0.210 C 
ATOM     15  C   LIG d   1      -2.704  74.286 117.656  0.00  0.00     0.109 C 
ATOM     16  O   LIG d   1      -2.709  76.277 116.301  0.00  0.00    -0.276 OA
ATOM     17  H   LIG d   1      -4.630  75.541 118.700  0.00  0.00     0.149 HD
ENDBRANCH   6  13
BRANCH   5  18
ATOM     18  N   LIG d   1      -3.431  78.789 119.114  0.00  0.00     0.381 N 
ATOM     19  H   LIG d   1      -2.811  78.040 118.881  0.00  0.00    -0.090 HD
ATOM     20  H   LIG d   1      -3.325  78.995 120.092  0.00  0.00    -0.090 HD
ATOM     21  H   LIG d   1      -3.208  79.595 118.572  0.00  0.00    -0.090 HD
ENDBRANCH   5  18
BRANCH   3  22
ATOM     22  C   LIG d   1      -7.918  80.326 118.445  0.00  0.00     0.382 C 
ATOM     23  O   LIG d   1      -8.067  80.731 119.623  0.00  0.00    -0.241 OA
ATOM     24  O   LIG d   1      -8.675  80.747 117.551  0.00  0.00    -0.241 OA
ENDBRANCH   3  22
TORSDOF 7
ENDMDL
MODEL 8
REMARK VINA RESULT:      -4.2      2.442      3.312
REMARK  7 active torsions:
REMARK  status: ('A' for Active; 'I' for Inactive)
REMARK    1  A    between atoms: C_2  and  C_3 
REMARK    2  A    between atoms: C_3  and  O_6 
REMARK    3  A    between atoms: C_3  and  C_4 
REMARK    4  A    between atoms: C_7  and  O_6 
REMARK    5  A    between atoms: C_9  and  C_10 
REMARK    6  A    between atoms: N_15  and  C_14 
REMARK    7  A    between atoms: N_20  and  C_19 
REMARK       I    between atoms: C_22  and  N_20 
ROOT
ATOM      1  C   LIG d   1      -2.317  77.016 116.671  0.00  0.00     0.161 C 
ATOM      2  C   LIG d   1      -2.675  78.040 115.778  0.00  0.00     0.016 C 
ATOM      3  C   LIG d   1      -2.117  78.175 114.486  0.00  0.00     0.038 C 
ATOM      4  C   LIG d   1      -1.268  77.202 113.939  0.00  0.00     0.028 C 
ATOM      5  C   LIG d   1      -0.488  76.419 114.990  0.00  0.00    -0.047 C 
ATOM      6  C   LIG d   1      -1.475  75.882 116.050  0.00  0.00     0.091 C 
ENDROOT
BRANCH   1   7
ATOM      7  O   LIG d   1      -3.499  76.478 117.297  0.00  0.00    -0.368 OA
BRANCH   7   8
ATOM      8  C   LIG d   1      -4.717  76.538 116.515  0.00  0.00     0.119 C 
BRANCH   8   9
ATOM      9  C   LIG d   1      -5.863  76.917 117.473  0.00  0.00     0.028 C 
ATOM     10  C   LIG d   1      -6.925  75.810 117.585  0.00  0.00     0.006 C 
ENDBRANCH   8   9
BRANCH   8  11
ATOM     11  C   LIG d   1      -5.091  75.160 115.960  0.00  0.00     0.028 C 
ATOM     12  C   LIG d   1      -5.044  75.104 114.425  0.00  0.00     0.006 C 
ENDBRANCH   8  11
ENDBRANCH   7   8
ENDBRANCH   1   7
BRANCH   6  13
ATOM     13  N   LIG d   1      -0.785  75.175 117.161  0.00  0.00    -0.311 N 
ATOM     14  C   LIG d   1       0.078  75.769 117.984  0.00  0.00     0.210 C 
ATOM     15  C   LIG d   1       0.692  74.853 119.048  0.00  0.00     0.109 C 
ATOM     16  O   LIG d   1       0.369  76.974 117.954  0.00  0.00    -0.276 OA
ATOM     17  H   LIG d   1      -0.987  74.201 117.277  0.00  0.00     0.149 HD
ENDBRANCH   6  13
BRANCH   5  18
ATOM     18  N   LIG d   1       0.250  75.349 114.292  0.00  0.00     0.381 N 
ATOM     19  H   LIG d   1      -0.064  74.456 114.614  0.00  0.00    -0.090 HD
ATOM     20  H   LIG d   1       1.228  75.436 114.506  0.00  0.00    -0.090 HD
ATOM     21  H   LIG d   1       0.110  75.424 113.308  0.00  0.00    -0.090 HD
ENDBRANCH   5  18
BRANCH   3  22
ATOM     22  C   LIG d   1      -2.377  79.316 113.741  0.00  0.00     0.382 C 
ATOM     23  O   LIG d   1      -3.494  79.465 113.192  0.00  0.00    -0.241 OA
ATOM     24  O   LIG d   1      -1.492  80.177 113.576  0.00  0.00    -0.241 OA
ENDBRANCH   3  22
TORSDOF 7
ENDMDL
MODEL 9
REMARK VINA RESULT:      -4.1      2.895      5.429
REMARK  7 active torsions:
REMARK  status: ('A' for Active; 'I' for Inactive)
REMARK    1  A    between atoms: C_2  and  C_3 
REMARK    2  A    between atoms: C_3  and  O_6 
REMARK    3  A    between atoms: C_3  and  C_4 
REMARK    4  A    between atoms: C_7  and  O_6 
REMARK    5  A    between atoms: C_9  and  C_10 
REMARK    6  A    between atoms: N_15  and  C_14 
REMARK    7  A    between atoms: N_20  and  C_19 
REMARK       I    between atoms: C_22  and  N_20 
ROOT
ATOM      1  C   LIG d   1      -2.973  76.726 115.757  0.00  0.00     0.161 C 
ATOM      2  C   LIG d   1      -2.844  76.638 117.153  0.00  0.00     0.016 C 
ATOM      3  C   LIG d   1      -1.923  77.408 117.899  0.00  0.00     0.038 C 
ATOM      4  C   LIG d   1      -1.169  78.436 117.313  0.00  0.00     0.028 C 
ATOM      5  C   LIG d   1      -0.899  78.217 115.828  0.00  0.00    -0.047 C 
ATOM      6  C   LIG d   1      -2.238  77.920 115.113  0.00  0.00     0.091 C 
ENDROOT
BRANCH   1   7
ATOM      7  O   LIG d   1      -4.368  76.743 115.396  0.00  0.00    -0.368 OA
BRANCH   7   8
ATOM      8  C   LIG d   1      -5.106  75.522 115.645  0.00  0.00     0.119 C 
BRANCH   8   9
ATOM      9  C   LIG d   1      -5.466  74.911 114.276  0.00  0.00     0.028 C 
ATOM     10  C   LIG d   1      -6.305  75.865 113.410  0.00  0.00     0.006 C 
ENDBRANCH   8   9
BRANCH   8  11
ATOM     11  C   LIG d   1      -6.448  75.810 116.325  0.00  0.00     0.028 C 
ATOM     12  C   LIG d   1      -7.227  74.531 116.672  0.00  0.00     0.006 C 
ENDBRANCH   8  11
ENDBRANCH   7   8
ENDBRANCH   1   7
BRANCH   6  13
ATOM     13  N   LIG d   1      -2.054  77.611 113.671  0.00  0.00    -0.311 N 
ATOM     14  C   LIG d   1      -2.136  78.528 112.709  0.00  0.00     0.210 C 
ATOM     15  C   LIG d   1      -1.934  77.994 111.287  0.00  0.00     0.109 C 
ATOM     16  O   LIG d   1      -2.325  79.739 112.900  0.00  0.00    -0.276 OA
ATOM     17  H   LIG d   1      -1.866  76.658 113.429  0.00  0.00     0.149 HD
ENDBRANCH   6  13
BRANCH   5  18
ATOM     18  N   LIG d   1      -0.226  79.425 115.314  0.00  0.00     0.381 N 
ATOM     19  H   LIG d   1      -0.150  80.106 116.043  0.00  0.00    -0.090 HD
ATOM     20  H   LIG d   1      -0.780  79.816 114.573  0.00  0.00    -0.090 HD
ATOM     21  H   LIG d   1       0.681  79.191 114.973  0.00  0.00    -0.090 HD
ENDBRANCH   5  18
BRANCH   3  22
ATOM     22  C   LIG d   1      -1.720  77.127 119.242  0.00  0.00     0.382 C 
ATOM     23  O   LIG d   1      -0.969  77.860 119.930  0.00  0.00    -0.241 OA
ATOM     24  O   LIG d   1      -2.243  76.124 119.763  0.00  0.00    -0.241 OA
ENDBRANCH   3  22
TORSDOF 7
ENDMDL
