MODEL 1
REMARK VINA RESULT:      -5.1      0.000      0.000
REMARK  7 active torsions:
REMARK  status: ('A' for Active; 'I' for Inactive)
REMARK    1  A    between atoms: C_2  and  C_3 
REMARK    2  A    between atoms: C_3  and  O_6 
REMARK    3  A    between atoms: C_3  and  C_4 
REMARK    4  A    between atoms: C_7  and  O_6 
REMARK    5  A    between atoms: C_9  and  C_10 
REMARK    6  A    between atoms: N_15  and  C_14 
REMARK    7  A    between atoms: N_20  and  C_19 
REMARK       I    between atoms: C_22  and  N_20 
ROOT
ATOM      1  C   LIG d   1      -5.813  77.324 118.168  0.00  0.00     0.161 C 
ATOM      2  C   LIG d   1      -6.649  78.444 118.031  0.00  0.00     0.016 C 
ATOM      3  C   LIG d   1      -6.181  79.723 117.651  0.00  0.00     0.038 C 
ATOM      4  C   LIG d   1      -4.858  79.935 117.234  0.00  0.00     0.028 C 
ATOM      5  C   LIG d   1      -3.867  78.947 117.839  0.00  0.00    -0.047 C 
ATOM      6  C   LIG d   1      -4.386  77.509 117.609  0.00  0.00     0.091 C 
ENDROOT
BRANCH   1   7
ATOM      7  O   LIG d   1      -6.439  76.171 117.571  0.00  0.00    -0.368 OA
BRANCH   7   8
ATOM      8  C   LIG d   1      -7.399  76.439 116.520  0.00  0.00     0.119 C 
BRANCH   8   9
ATOM      9  C   LIG d   1      -8.629  75.549 116.779  0.00  0.00     0.028 C 
ATOM     10  C   LIG d   1      -8.359  74.467 117.838  0.00  0.00     0.006 C 
ENDBRANCH   8   9
BRANCH   8  11
ATOM     11  C   LIG d   1      -6.864  76.005 115.153  0.00  0.00     0.028 C 
ATOM     12  C   LIG d   1      -5.711  74.994 115.257  0.00  0.00     0.006 C 
ENDBRANCH   8  11
ENDBRANCH   7   8
ENDBRANCH   1   7
BRANCH   6  13
ATOM     13  N   LIG d   1      -3.518  76.484 118.244  0.00  0.00    -0.311 N 
ATOM     14  C   LIG d   1      -2.582  75.805 117.584  0.00  0.00     0.210 C 
ATOM     15  C   LIG d   1      -1.812  74.781 118.423  0.00  0.00     0.109 C 
ATOM     16  O   LIG d   1      -2.294  75.977 116.389  0.00  0.00    -0.276 OA
ATOM     17  H   LIG d   1      -3.662  76.304 119.219  0.00  0.00     0.149 HD
ENDBRANCH   6  13
BRANCH   5  18
ATOM     18  N   LIG d   1      -2.554  79.194 117.214  0.00  0.00     0.381 N 
ATOM     19  H   LIG d   1      -2.047  78.335 117.140  0.00  0.00    -0.090 HD
ATOM     20  H   LIG d   1      -2.028  79.820 117.798  0.00  0.00    -0.090 HD
ATOM     21  H   LIG d   1      -2.676  79.595 116.310  0.00  0.00    -0.090 HD
ENDBRANCH   5  18
BRANCH   3  22
ATOM     22  C   LIG d   1      -7.031  80.816 117.726  0.00  0.00     0.382 C 
ATOM     23  O   LIG d   1      -7.883  80.887 118.644  0.00  0.00    -0.241 OA
ATOM     24  O   LIG d   1      -6.986  81.711 116.860  0.00  0.00    -0.241 OA
ENDBRANCH   3  22
TORSDOF 7
ENDMDL
MODEL 2
REMARK VINA RESULT:      -4.9      3.354      4.636
REMARK  7 active torsions:
REMARK  status: ('A' for Active; 'I' for Inactive)
REMARK    1  A    between atoms: C_2  and  C_3 
REMARK    2  A    between atoms: C_3  and  O_6 
REMARK    3  A    between atoms: C_3  and  C_4 
REMARK    4  A    between atoms: C_7  and  O_6 
REMARK    5  A    between atoms: C_9  and  C_10 
REMARK    6  A    between atoms: N_15  and  C_14 
REMARK    7  A    between atoms: N_20  and  C_19 
REMARK       I    between atoms: C_22  and  N_20 
ROOT
ATOM      1  C   LIG d   1      -3.000  78.776 115.996  0.00  0.00     0.161 C 
ATOM      2  C   LIG d   1      -3.053  79.808 115.045  0.00  0.00     0.016 C 
ATOM      3  C   LIG d   1      -2.294  79.806 113.851  0.00  0.00     0.038 C 
ATOM      4  C   LIG d   1      -1.539  78.692 113.455  0.00  0.00     0.028 C 
ATOM      5  C   LIG d   1      -1.059  77.839 114.624  0.00  0.00    -0.047 C 
ATOM      6  C   LIG d   1      -2.266  77.502 115.528  0.00  0.00     0.091 C 
ENDROOT
BRANCH   1   7
ATOM      7  O   LIG d   1      -4.332  78.453 116.442  0.00  0.00    -0.368 OA
BRANCH   7   8
ATOM      8  C   LIG d   1      -4.754  79.065 117.685  0.00  0.00     0.119 C 
BRANCH   8   9
ATOM      9  C   LIG d   1      -5.277  77.941 118.600  0.00  0.00     0.028 C 
ATOM     10  C   LIG d   1      -4.308  77.624 119.752  0.00  0.00     0.006 C 
ENDBRANCH   8   9
BRANCH   8  11
ATOM     11  C   LIG d   1      -5.948  80.000 117.469  0.00  0.00     0.028 C 
ATOM     12  C   LIG d   1      -7.300  79.292 117.653  0.00  0.00     0.006 C 
ENDBRANCH   8  11
ENDBRANCH   7   8
ENDBRANCH   1   7
BRANCH   6  13
ATOM     13  N   LIG d   1      -1.871  76.740 116.741  0.00  0.00    -0.311 N 
ATOM     14  C   LIG d   1      -2.485  75.628 117.141  0.00  0.00     0.210 C 
ATOM     15  C   LIG d   1      -1.931  75.010 118.429  0.00  0.00     0.109 C 
ATOM     16  O   LIG d   1      -3.416  75.077 116.535  0.00  0.00    -0.276 OA
ATOM     17  H   LIG d   1      -1.104  77.099 117.276  0.00  0.00     0.149 HD
ENDBRANCH   6  13
BRANCH   5  18
ATOM     18  N   LIG d   1      -0.405  76.642 114.062  0.00  0.00     0.381 N 
ATOM     19  H   LIG d   1      -0.574  75.854 114.656  0.00  0.00    -0.090 HD
ATOM     20  H   LIG d   1       0.586  76.801 114.023  0.00  0.00    -0.090 HD
ATOM     21  H   LIG d   1      -0.756  76.458 113.148  0.00  0.00    -0.090 HD
ENDBRANCH   5  18
BRANCH   3  22
ATOM     22  C   LIG d   1      -2.255  80.944 113.060  0.00  0.00     0.382 C 
ATOM     23  O   LIG d   1      -3.323  81.456 112.645  0.00  0.00    -0.241 OA
ATOM     24  O   LIG d   1      -1.164  81.439 112.719  0.00  0.00    -0.241 OA
ENDBRANCH   3  22
TORSDOF 7
ENDMDL
MODEL 3
REMARK VINA RESULT:      -4.8      3.400      6.626
REMARK  7 active torsions:
REMARK  status: ('A' for Active; 'I' for Inactive)
REMARK    1  A    between atoms: C_2  and  C_3 
REMARK    2  A    between atoms: C_3  and  O_6 
REMARK    3  A    between atoms: C_3  and  C_4 
REMARK    4  A    between atoms: C_7  and  O_6 
REMARK    5  A    between atoms: C_9  and  C_10 
REMARK    6  A    between atoms: N_15  and  C_14 
REMARK    7  A    between atoms: N_20  and  C_19 
REMARK       I    between atoms: C_22  and  N_20 
ROOT
ATOM      1  C   LIG d   1      -2.468  78.546 115.694  0.00  0.00     0.161 C 
ATOM      2  C   LIG d   1      -1.602  77.482 115.390  0.00  0.00     0.016 C 
ATOM      3  C   LIG d   1      -1.761  76.177 115.911  0.00  0.00     0.038 C 
ATOM      4  C   LIG d   1      -2.890  75.809 116.657  0.00  0.00     0.028 C 
ATOM      5  C   LIG d   1      -3.527  76.974 117.406  0.00  0.00    -0.047 C 
ATOM      6  C   LIG d   1      -3.768  78.137 116.416  0.00  0.00     0.091 C 
ENDROOT
BRANCH   1   7
ATOM      7  O   LIG d   1      -2.773  79.286 114.495  0.00  0.00    -0.368 OA
BRANCH   7   8
ATOM      8  C   LIG d   1      -1.886  79.069 113.369  0.00  0.00     0.119 C 
BRANCH   8   9
ATOM      9  C   LIG d   1      -1.415  80.452 112.878  0.00  0.00     0.028 C 
ATOM     10  C   LIG d   1      -2.558  81.481 112.837  0.00  0.00     0.006 C 
ENDBRANCH   8   9
BRANCH   8  11
ATOM     11  C   LIG d   1      -2.632  78.450 112.183  0.00  0.00     0.028 C 
ATOM     12  C   LIG d   1      -1.740  78.275 110.944  0.00  0.00     0.006 C 
ENDBRANCH   8  11
ENDBRANCH   7   8
ENDBRANCH   1   7
BRANCH   6  13
ATOM     13  N   LIG d   1      -4.312  79.347 117.085  0.00  0.00    -0.311 N 
ATOM     14  C   LIG d   1      -5.615  79.595 117.207  0.00  0.00     0.210 C 
ATOM     15  C   LIG d   1      -5.960  80.910 117.913  0.00  0.00     0.109 C 
ATOM     16  O   LIG d   1      -6.518  78.835 116.826  0.00  0.00    -0.276 OA
ATOM     17  H   LIG d   1      -3.649  80.003 117.451  0.00  0.00     0.149 HD
ENDBRANCH   6  13
BRANCH   5  18
ATOM     18  N   LIG d   1      -4.770  76.478 118.028  0.00  0.00     0.381 N 
ATOM     19  H   LIG d   1      -5.527  76.556 117.380  0.00  0.00    -0.090 HD
ATOM     20  H   LIG d   1      -4.981  77.045 118.830  0.00  0.00    -0.090 HD
ATOM     21  H   LIG d   1      -4.656  75.528 118.305  0.00  0.00    -0.090 HD
ENDBRANCH   5  18
BRANCH   3  22
ATOM     22  C   LIG d   1      -0.761  75.235 115.720  0.00  0.00     0.382 C 
ATOM     23  O   LIG d   1      -0.275  75.060 114.577  0.00  0.00    -0.241 OA
ATOM     24  O   LIG d   1      -0.371  74.527 116.668  0.00  0.00    -0.241 OA
ENDBRANCH   3  22
TORSDOF 7
ENDMDL
MODEL 4
REMARK VINA RESULT:      -4.7      3.368      5.693
REMARK  7 active torsions:
REMARK  status: ('A' for Active; 'I' for Inactive)
REMARK    1  A    between atoms: C_2  and  C_3 
REMARK    2  A    between atoms: C_3  and  O_6 
REMARK    3  A    between atoms: C_3  and  C_4 
REMARK    4  A    between atoms: C_7  and  O_6 
REMARK    5  A    between atoms: C_9  and  C_10 
REMARK    6  A    between atoms: N_15  and  C_14 
REMARK    7  A    between atoms: N_20  and  C_19 
REMARK       I    between atoms: C_22  and  N_20 
ROOT
ATOM      1  C   LIG d   1      -1.836  75.905 115.164  0.00  0.00     0.161 C 
ATOM      2  C   LIG d   1      -1.693  75.297 116.423  0.00  0.00     0.016 C 
ATOM      3  C   LIG d   1      -0.923  75.850 117.471  0.00  0.00     0.038 C 
ATOM      4  C   LIG d   1      -0.363  77.134 117.383  0.00  0.00     0.028 C 
ATOM      5  C   LIG d   1      -0.060  77.565 115.952  0.00  0.00    -0.047 C 
ATOM      6  C   LIG d   1      -1.324  77.359 115.087  0.00  0.00     0.091 C 
ENDROOT
BRANCH   1   7
ATOM      7  O   LIG d   1      -3.212  75.836 114.742  0.00  0.00    -0.368 OA
BRANCH   7   8
ATOM      8  C   LIG d   1      -4.184  75.557 115.780  0.00  0.00     0.119 C 
BRANCH   8   9
ATOM      9  C   LIG d   1      -5.279  74.666 115.162  0.00  0.00     0.028 C 
ATOM     10  C   LIG d   1      -6.319  74.210 116.199  0.00  0.00     0.006 C 
ENDBRANCH   8   9
BRANCH   8  11
ATOM     11  C   LIG d   1      -4.904  76.834 116.225  0.00  0.00     0.028 C 
ATOM     12  C   LIG d   1      -4.583  77.222 117.677  0.00  0.00     0.006 C 
ENDBRANCH   8  11
ENDBRANCH   7   8
ENDBRANCH   1   7
BRANCH   6  13
ATOM     13  N   LIG d   1      -1.089  77.677 113.655  0.00  0.00    -0.311 N 
ATOM     14  C   LIG d   1      -1.932  78.396 112.915  0.00  0.00     0.210 C 
ATOM     15  C   LIG d   1      -1.508  78.590 111.456  0.00  0.00     0.109 C 
ATOM     16  O   LIG d   1      -2.975  78.918 113.337  0.00  0.00    -0.276 OA
ATOM     17  H   LIG d   1      -0.251  77.319 113.239  0.00  0.00     0.149 HD
ENDBRANCH   6  13
BRANCH   5  18
ATOM     18  N   LIG d   1       0.389  78.970 115.996  0.00  0.00     0.381 N 
ATOM     19  H   LIG d   1      -0.320  79.539 116.413  0.00  0.00    -0.090 HD
ATOM     20  H   LIG d   1       0.539  79.292 115.056  0.00  0.00    -0.090 HD
ATOM     21  H   LIG d   1       1.234  79.042 116.518  0.00  0.00    -0.090 HD
ENDBRANCH   5  18
BRANCH   3  22
ATOM     22  C   LIG d   1      -0.673  75.100 118.610  0.00  0.00     0.382 C 
ATOM     23  O   LIG d   1      -1.625  74.739 119.344  0.00  0.00    -0.241 OA
ATOM     24  O   LIG d   1       0.495  74.818 118.937  0.00  0.00    -0.241 OA
ENDBRANCH   3  22
TORSDOF 7
ENDMDL
MODEL 5
REMARK VINA RESULT:      -4.6      3.136      4.411
REMARK  7 active torsions:
REMARK  status: ('A' for Active; 'I' for Inactive)
REMARK    1  A    between atoms: C_2  and  C_3 
REMARK    2  A    between atoms: C_3  and  O_6 
REMARK    3  A    between atoms: C_3  and  C_4 
REMARK    4  A    between atoms: C_7  and  O_6 
REMARK    5  A    between atoms: C_9  and  C_10 
REMARK    6  A    between atoms: N_15  and  C_14 
REMARK    7  A    between atoms: N_20  and  C_19 
REMARK       I    between atoms: C_22  and  N_20 
ROOT
ATOM      1  C   LIG d   1      -2.465  78.165 116.572  0.00  0.00     0.161 C 
ATOM      2  C   LIG d   1      -2.716  79.030 115.494  0.00  0.00     0.016 C 
ATOM      3  C   LIG d   1      -2.156  78.853 114.208  0.00  0.00     0.038 C 
ATOM      4  C   LIG d   1      -1.424  77.706 113.869  0.00  0.00     0.028 C 
ATOM      5  C   LIG d   1      -0.726  77.060 115.061  0.00  0.00    -0.047 C 
ATOM      6  C   LIG d   1      -1.757  76.847 116.192  0.00  0.00     0.091 C 
ENDROOT
BRANCH   1   7
ATOM      7  O   LIG d   1      -3.693  77.890 117.274  0.00  0.00    -0.368 OA
BRANCH   7   8
ATOM      8  C   LIG d   1      -4.875  77.731 116.452  0.00  0.00     0.119 C 
BRANCH   8   9
ATOM      9  C   LIG d   1      -6.054  78.375 117.206  0.00  0.00     0.028 C 
ATOM     10  C   LIG d   1      -5.827  79.871 117.483  0.00  0.00     0.006 C 
ENDBRANCH   8   9
BRANCH   8  11
ATOM     11  C   LIG d   1      -5.252  76.254 116.297  0.00  0.00     0.028 C 
ATOM     12  C   LIG d   1      -5.011  75.724 114.874  0.00  0.00     0.006 C 
ENDBRANCH   8  11
ENDBRANCH   7   8
ENDBRANCH   1   7
BRANCH   6  13
ATOM     13  N   LIG d   1      -1.140  76.296 117.427  0.00  0.00    -0.311 N 
ATOM     14  C   LIG d   1      -1.487  75.127 117.961  0.00  0.00     0.210 C 
ATOM     15  C   LIG d   1      -0.740  74.756 119.246  0.00  0.00     0.109 C 
ATOM     16  O   LIG d   1      -2.321  74.347 117.476  0.00  0.00    -0.276 OA
ATOM     17  H   LIG d   1      -0.432  76.849 117.869  0.00  0.00     0.149 HD
ENDBRANCH   6  13
BRANCH   5  18
ATOM     18  N   LIG d   1      -0.115  75.802 114.591  0.00  0.00     0.381 N 
ATOM     19  H   LIG d   1      -0.077  75.142 115.343  0.00  0.00    -0.090 HD
ATOM     20  H   LIG d   1       0.825  75.989 114.289  0.00  0.00    -0.090 HD
ATOM     21  H   LIG d   1      -0.646  75.426 113.836  0.00  0.00    -0.090 HD
ENDBRANCH   5  18
BRANCH   3  22
ATOM     22  C   LIG d   1      -2.295  79.851 113.255  0.00  0.00     0.382 C 
ATOM     23  O   LIG d   1      -2.180  79.575 112.037  0.00  0.00    -0.241 OA
ATOM     24  O   LIG d   1      -2.491  81.032 113.600  0.00  0.00    -0.241 OA
ENDBRANCH   3  22
TORSDOF 7
ENDMDL
MODEL 6
REMARK VINA RESULT:      -4.5      2.364      5.001
REMARK  7 active torsions:
REMARK  status: ('A' for Active; 'I' for Inactive)
REMARK    1  A    between atoms: C_2  and  C_3 
REMARK    2  A    between atoms: C_3  and  O_6 
REMARK    3  A    between atoms: C_3  and  C_4 
REMARK    4  A    between atoms: C_7  and  O_6 
REMARK    5  A    between atoms: C_9  and  C_10 
REMARK    6  A    between atoms: N_15  and  C_14 
REMARK    7  A    between atoms: N_20  and  C_19 
REMARK       I    between atoms: C_22  and  N_20 
ROOT
ATOM      1  C   LIG d   1      -4.618  77.440 117.665  0.00  0.00     0.161 C 
ATOM      2  C   LIG d   1      -3.456  78.118 117.262  0.00  0.00     0.016 C 
ATOM      3  C   LIG d   1      -2.825  77.907 116.014  0.00  0.00     0.038 C 
ATOM      4  C   LIG d   1      -3.404  77.109 115.016  0.00  0.00     0.028 C 
ATOM      5  C   LIG d   1      -4.311  76.014 115.566  0.00  0.00    -0.047 C 
ATOM      6  C   LIG d   1      -5.326  76.648 116.545  0.00  0.00     0.091 C 
ENDROOT
BRANCH   1   7
ATOM      7  O   LIG d   1      -5.535  78.366 118.280  0.00  0.00    -0.368 OA
BRANCH   7   8
ATOM      8  C   LIG d   1      -6.307  79.194 117.377  0.00  0.00     0.119 C 
BRANCH   8   9
ATOM      9  C   LIG d   1      -5.866  80.654 117.596  0.00  0.00     0.028 C 
ATOM     10  C   LIG d   1      -7.027  81.649 117.433  0.00  0.00     0.006 C 
ENDBRANCH   8   9
BRANCH   8  11
ATOM     11  C   LIG d   1      -7.798  79.164 117.728  0.00  0.00     0.028 C 
ATOM     12  C   LIG d   1      -8.083  78.434 119.051  0.00  0.00     0.006 C 
ENDBRANCH   8  11
ENDBRANCH   7   8
ENDBRANCH   1   7
BRANCH   6  13
ATOM     13  N   LIG d   1      -6.198  75.634 117.194  0.00  0.00    -0.311 N 
ATOM     14  C   LIG d   1      -7.489  75.483 116.902  0.00  0.00     0.210 C 
ATOM     15  C   LIG d   1      -8.209  74.392 117.701  0.00  0.00     0.109 C 
ATOM     16  O   LIG d   1      -8.098  76.127 116.035  0.00  0.00    -0.276 OA
ATOM     17  H   LIG d   1      -5.777  75.047 117.887  0.00  0.00     0.149 HD
ENDBRANCH   6  13
BRANCH   5  18
ATOM     18  N   LIG d   1      -4.954  75.349 114.418  0.00  0.00     0.381 N 
ATOM     19  H   LIG d   1      -5.388  76.032 113.830  0.00  0.00    -0.090 HD
ATOM     20  H   LIG d   1      -5.667  74.728 114.759  0.00  0.00    -0.090 HD
ATOM     21  H   LIG d   1      -4.277  74.835 113.898  0.00  0.00    -0.090 HD
ENDBRANCH   5  18
BRANCH   3  22
ATOM     22  C   LIG d   1      -1.581  78.468 115.770  0.00  0.00     0.382 C 
ATOM     23  O   LIG d   1      -0.621  77.737 115.426  0.00  0.00    -0.241 OA
ATOM     24  O   LIG d   1      -1.395  79.689 115.932  0.00  0.00    -0.241 OA
ENDBRANCH   3  22
TORSDOF 7
ENDMDL
MODEL 7
REMARK VINA RESULT:      -4.5      3.060      4.823
REMARK  7 active torsions:
REMARK  status: ('A' for Active; 'I' for Inactive)
REMARK    1  A    between atoms: C_2  and  C_3 
REMARK    2  A    between atoms: C_3  and  O_6 
REMARK    3  A    between atoms: C_3  and  C_4 
REMARK    4  A    between atoms: C_7  and  O_6 
REMARK    5  A    between atoms: C_9  and  C_10 
REMARK    6  A    between atoms: N_15  and  C_14 
REMARK    7  A    between atoms: N_20  and  C_19 
REMARK       I    between atoms: C_22  and  N_20 
ROOT
ATOM      1  C   LIG d   1      -3.124  78.338 116.863  0.00  0.00     0.161 C 
ATOM      2  C   LIG d   1      -2.261  79.335 117.346  0.00  0.00     0.016 C 
ATOM      3  C   LIG d   1      -0.929  79.495 116.900  0.00  0.00     0.038 C 
ATOM      4  C   LIG d   1      -0.414  78.757 115.824  0.00  0.00     0.028 C 
ATOM      5  C   LIG d   1      -1.083  77.399 115.645  0.00  0.00    -0.047 C 
ATOM      6  C   LIG d   1      -2.616  77.595 115.609  0.00  0.00     0.091 C 
ENDROOT
BRANCH   1   7
ATOM      7  O   LIG d   1      -4.429  78.897 116.618  0.00  0.00    -0.368 OA
BRANCH   7   8
ATOM      8  C   LIG d   1      -5.371  78.821 117.717  0.00  0.00     0.119 C 
BRANCH   8   9
ATOM      9  C   LIG d   1      -5.887  77.371 117.785  0.00  0.00     0.028 C 
ATOM     10  C   LIG d   1      -7.040  77.112 116.801  0.00  0.00     0.006 C 
ENDBRANCH   8   9
BRANCH   8  11
ATOM     11  C   LIG d   1      -6.610  79.680 117.449  0.00  0.00     0.028 C 
ATOM     12  C   LIG d   1      -6.419  81.148 117.864  0.00  0.00     0.006 C 
ENDBRANCH   8  11
ENDBRANCH   7   8
ENDBRANCH   1   7
BRANCH   6  13
ATOM     13  N   LIG d   1      -3.350  76.306 115.521  0.00  0.00    -0.311 N 
ATOM     14  C   LIG d   1      -4.274  76.050 114.596  0.00  0.00     0.210 C 
ATOM     15  C   LIG d   1      -4.924  74.667 114.697  0.00  0.00     0.109 C 
ATOM     16  O   LIG d   1      -4.594  76.826 113.683  0.00  0.00    -0.276 OA
ATOM     17  H   LIG d   1      -3.131  75.608 116.205  0.00  0.00     0.149 HD
ENDBRANCH   6  13
BRANCH   5  18
ATOM     18  N   LIG d   1      -0.547  76.797 114.409  0.00  0.00     0.381 N 
ATOM     19  H   LIG d   1       0.037  76.018 114.637  0.00  0.00    -0.090 HD
ATOM     20  H   LIG d   1       0.012  77.481 113.931  0.00  0.00    -0.090 HD
ATOM     21  H   LIG d   1      -1.296  76.501 113.822  0.00  0.00    -0.090 HD
ENDBRANCH   5  18
BRANCH   3  22
ATOM     22  C   LIG d   1      -0.084  80.374 117.561  0.00  0.00     0.382 C 
ATOM     23  O   LIG d   1       0.948  80.801 116.988  0.00  0.00    -0.241 OA
ATOM     24  O   LIG d   1      -0.316  80.710 118.737  0.00  0.00    -0.241 OA
ENDBRANCH   3  22
TORSDOF 7
ENDMDL
MODEL 8
REMARK VINA RESULT:      -4.4      3.737      6.089
REMARK  7 active torsions:
REMARK  status: ('A' for Active; 'I' for Inactive)
REMARK    1  A    between atoms: C_2  and  C_3 
REMARK    2  A    between atoms: C_3  and  O_6 
REMARK    3  A    between atoms: C_3  and  C_4 
REMARK    4  A    between atoms: C_7  and  O_6 
REMARK    5  A    between atoms: C_9  and  C_10 
REMARK    6  A    between atoms: N_15  and  C_14 
REMARK    7  A    between atoms: N_20  and  C_19 
REMARK       I    between atoms: C_22  and  N_20 
ROOT
ATOM      1  C   LIG d   1      -2.865  78.754 115.978  0.00  0.00     0.161 C 
ATOM      2  C   LIG d   1      -1.651  79.180 116.542  0.00  0.00     0.016 C 
ATOM      3  C   LIG d   1      -0.759  78.313 117.214  0.00  0.00     0.038 C 
ATOM      4  C   LIG d   1      -0.951  76.924 117.237  0.00  0.00     0.028 C 
ATOM      5  C   LIG d   1      -2.415  76.512 117.118  0.00  0.00    -0.047 C 
ATOM      6  C   LIG d   1      -3.038  77.223 115.895  0.00  0.00     0.091 C 
ENDROOT
BRANCH   1   7
ATOM      7  O   LIG d   1      -3.034  79.348 114.675  0.00  0.00    -0.368 OA
BRANCH   7   8
ATOM      8  C   LIG d   1      -2.021  79.023 113.691  0.00  0.00     0.119 C 
BRANCH   8   9
ATOM      9  C   LIG d   1      -1.495  80.351 113.112  0.00  0.00     0.028 C 
ATOM     10  C   LIG d   1      -2.610  81.394 112.929  0.00  0.00     0.006 C 
ENDBRANCH   8   9
BRANCH   8  11
ATOM     11  C   LIG d   1      -2.623  78.272 112.499  0.00  0.00     0.028 C 
ATOM     12  C   LIG d   1      -1.709  78.284 111.264  0.00  0.00     0.006 C 
ENDBRANCH   8  11
ENDBRANCH   7   8
ENDBRANCH   1   7
BRANCH   6  13
ATOM     13  N   LIG d   1      -4.491  76.941 115.756  0.00  0.00    -0.311 N 
ATOM     14  C   LIG d   1      -4.983  76.022 114.927  0.00  0.00     0.210 C 
ATOM     15  C   LIG d   1      -6.511  75.907 114.923  0.00  0.00     0.109 C 
ATOM     16  O   LIG d   1      -4.298  75.269 114.218  0.00  0.00    -0.276 OA
ATOM     17  H   LIG d   1      -5.117  77.485 116.317  0.00  0.00     0.149 HD
ENDBRANCH   6  13
BRANCH   5  18
ATOM     18  N   LIG d   1      -2.457  75.041 117.016  0.00  0.00     0.381 N 
ATOM     19  H   LIG d   1      -3.210  74.685 117.571  0.00  0.00    -0.090 HD
ATOM     20  H   LIG d   1      -1.597  74.666 117.373  0.00  0.00    -0.090 HD
ATOM     21  H   LIG d   1      -2.578  74.769 116.065  0.00  0.00    -0.090 HD
ENDBRANCH   5  18
BRANCH   3  22
ATOM     22  C   LIG d   1       0.319  78.840 117.909  0.00  0.00     0.382 C 
ATOM     23  O   LIG d   1       0.181  79.895 118.574  0.00  0.00    -0.241 OA
ATOM     24  O   LIG d   1       1.439  78.299 117.842  0.00  0.00    -0.241 OA
ENDBRANCH   3  22
TORSDOF 7
ENDMDL
MODEL 9
REMARK VINA RESULT:      -4.3      3.985      5.957
REMARK  7 active torsions:
REMARK  status: ('A' for Active; 'I' for Inactive)
REMARK    1  A    between atoms: C_2  and  C_3 
REMARK    2  A    between atoms: C_3  and  O_6 
REMARK    3  A    between atoms: C_3  and  C_4 
REMARK    4  A    between atoms: C_7  and  O_6 
REMARK    5  A    between atoms: C_9  and  C_10 
REMARK    6  A    between atoms: N_15  and  C_14 
REMARK    7  A    between atoms: N_20  and  C_19 
REMARK       I    between atoms: C_22  and  N_20 
ROOT
ATOM      1  C   LIG d   1      -2.575  77.392 114.676  0.00  0.00     0.161 C 
ATOM      2  C   LIG d   1      -3.729  76.591 114.680  0.00  0.00     0.016 C 
ATOM      3  C   LIG d   1      -4.320  76.084 115.860  0.00  0.00     0.038 C 
ATOM      4  C   LIG d   1      -3.881  76.472 117.135  0.00  0.00     0.028 C 
ATOM      5  C   LIG d   1      -2.411  76.874 117.173  0.00  0.00    -0.047 C 
ATOM      6  C   LIG d   1      -2.147  77.917 116.062  0.00  0.00     0.091 C 
ENDROOT
BRANCH   1   7
ATOM      7  O   LIG d   1      -2.745  78.488 113.756  0.00  0.00    -0.368 OA
BRANCH   7   8
ATOM      8  C   LIG d   1      -1.708  78.648 112.756  0.00  0.00     0.119 C 
BRANCH   8   9
ATOM      9  C   LIG d   1      -1.298  80.133 112.748  0.00  0.00     0.028 C 
ATOM     10  C   LIG d   1      -2.505  81.076 112.888  0.00  0.00     0.006 C 
ENDBRANCH   8   9
BRANCH   8  11
ATOM     11  C   LIG d   1      -2.243  78.367 111.349  0.00  0.00     0.028 C 
ATOM     12  C   LIG d   1      -1.141  78.394 110.277  0.00  0.00     0.006 C 
ENDBRANCH   8  11
ENDBRANCH   7   8
ENDBRANCH   1   7
BRANCH   6  13
ATOM     13  N   LIG d   1      -0.715  78.302 115.975  0.00  0.00    -0.311 N 
ATOM     14  C   LIG d   1      -0.209  79.383 116.565  0.00  0.00     0.210 C 
ATOM     15  C   LIG d   1       1.289  79.607 116.331  0.00  0.00     0.109 C 
ATOM     16  O   LIG d   1      -0.851  80.160 117.287  0.00  0.00    -0.276 OA
ATOM     17  H   LIG d   1      -0.115  77.709 115.434  0.00  0.00     0.149 HD
ENDBRANCH   6  13
BRANCH   5  18
ATOM     18  N   LIG d   1      -2.123  77.386 118.526  0.00  0.00     0.381 N 
ATOM     19  H   LIG d   1      -1.804  76.638 119.110  0.00  0.00    -0.090 HD
ATOM     20  H   LIG d   1      -2.971  77.754 118.921  0.00  0.00    -0.090 HD
ATOM     21  H   LIG d   1      -1.431  78.100 118.480  0.00  0.00    -0.090 HD
ENDBRANCH   5  18
BRANCH   3  22
ATOM     22  C   LIG d   1      -5.338  75.147 115.771  0.00  0.00     0.382 C 
ATOM     23  O   LIG d   1      -6.343  75.239 116.517  0.00  0.00    -0.241 OA
ATOM     24  O   LIG d   1      -5.245  74.185 114.985  0.00  0.00    -0.241 OA
ENDBRANCH   3  22
TORSDOF 7
ENDMDL
