MODEL 1
REMARK VINA RESULT:      -4.5      0.000      0.000
REMARK  7 active torsions:
REMARK  status: ('A' for Active; 'I' for Inactive)
REMARK    1  A    between atoms: C_2  and  C_3 
REMARK    2  A    between atoms: C_3  and  O_6 
REMARK    3  A    between atoms: C_3  and  C_4 
REMARK    4  A    between atoms: C_7  and  O_6 
REMARK    5  A    between atoms: C_9  and  C_10 
REMARK    6  A    between atoms: N_15  and  C_14 
REMARK    7  A    between atoms: N_20  and  C_19 
REMARK       I    between atoms: C_22  and  N_20 
ROOT
ATOM      1  C   LIG d   1      -2.244  77.582 116.646  0.00  0.00     0.161 C 
ATOM      2  C   LIG d   1      -2.404  78.372 115.496  0.00  0.00     0.016 C 
ATOM      3  C   LIG d   1      -1.924  77.995 114.220  0.00  0.00     0.038 C 
ATOM      4  C   LIG d   1      -1.381  76.724 113.978  0.00  0.00     0.028 C 
ATOM      5  C   LIG d   1      -0.743  76.093 115.211  0.00  0.00    -0.047 C 
ATOM      6  C   LIG d   1      -1.753  76.143 116.380  0.00  0.00     0.091 C 
ENDROOT
BRANCH   1   7
ATOM      7  O   LIG d   1      -3.473  77.561 117.399  0.00  0.00    -0.368 OA
BRANCH   7   8
ATOM      8  C   LIG d   1      -4.664  77.976 116.686  0.00  0.00     0.119 C 
BRANCH   8   9
ATOM      9  C   LIG d   1      -5.403  78.996 117.574  0.00  0.00     0.028 C 
ATOM     10  C   LIG d   1      -4.550  79.463 118.766  0.00  0.00     0.006 C 
ENDBRANCH   8   9
BRANCH   8  11
ATOM     11  C   LIG d   1      -5.641  76.810 116.508  0.00  0.00     0.028 C 
ATOM     12  C   LIG d   1      -5.305  75.931 115.293  0.00  0.00     0.006 C 
ENDBRANCH   8  11
ENDBRANCH   7   8
ENDBRANCH   1   7
BRANCH   6  13
ATOM     13  N   LIG d   1      -1.178  75.622 117.648  0.00  0.00    -0.311 N 
ATOM     14  C   LIG d   1      -1.790  74.721 118.414  0.00  0.00     0.210 C 
ATOM     15  C   LIG d   1      -1.033  74.335 119.689  0.00  0.00     0.109 C 
ATOM     16  O   LIG d   1      -2.873  74.180 118.143  0.00  0.00    -0.276 OA
ATOM     17  H   LIG d   1      -0.288  75.984 117.928  0.00  0.00     0.149 HD
ENDBRANCH   6  13
BRANCH   5  18
ATOM     18  N   LIG d   1      -0.342  74.720 114.852  0.00  0.00     0.381 N 
ATOM     19  H   LIG d   1       0.381  74.406 115.467  0.00  0.00    -0.090 HD
ATOM     20  H   LIG d   1       0.020  74.721 113.914  0.00  0.00    -0.090 HD
ATOM     21  H   LIG d   1      -1.127  74.109 114.912  0.00  0.00    -0.090 HD
ENDBRANCH   5  18
BRANCH   3  22
ATOM     22  C   LIG d   1      -1.949  78.910 113.179  0.00  0.00     0.382 C 
ATOM     23  O   LIG d   1      -2.979  79.026 112.472  0.00  0.00    -0.241 OA
ATOM     24  O   LIG d   1      -0.940  79.588 112.909  0.00  0.00    -0.241 OA
ENDBRANCH   3  22
TORSDOF 7
ENDMDL
MODEL 2
REMARK VINA RESULT:      -4.4      1.979      5.131
REMARK  7 active torsions:
REMARK  status: ('A' for Active; 'I' for Inactive)
REMARK    1  A    between atoms: C_2  and  C_3 
REMARK    2  A    between atoms: C_3  and  O_6 
REMARK    3  A    between atoms: C_3  and  C_4 
REMARK    4  A    between atoms: C_7  and  O_6 
REMARK    5  A    between atoms: C_9  and  C_10 
REMARK    6  A    between atoms: N_15  and  C_14 
REMARK    7  A    between atoms: N_20  and  C_19 
REMARK       I    between atoms: C_22  and  N_20 
ROOT
ATOM      1  C   LIG d   1      -2.041  76.112 115.581  0.00  0.00     0.161 C 
ATOM      2  C   LIG d   1      -1.884  75.385 116.772  0.00  0.00     0.016 C 
ATOM      3  C   LIG d   1      -1.137  75.854 117.877  0.00  0.00     0.038 C 
ATOM      4  C   LIG d   1      -0.619  77.156 117.923  0.00  0.00     0.028 C 
ATOM      5  C   LIG d   1      -0.323  77.739 116.545  0.00  0.00    -0.047 C 
ATOM      6  C   LIG d   1      -1.577  77.581 115.654  0.00  0.00     0.091 C 
ENDROOT
BRANCH   1   7
ATOM      7  O   LIG d   1      -3.413  76.041 115.143  0.00  0.00    -0.368 OA
BRANCH   7   8
ATOM      8  C   LIG d   1      -4.404  75.846 116.181  0.00  0.00     0.119 C 
BRANCH   8   9
ATOM      9  C   LIG d   1      -5.267  74.636 115.775  0.00  0.00     0.028 C 
ATOM     10  C   LIG d   1      -6.238  74.207 116.888  0.00  0.00     0.006 C 
ENDBRANCH   8   9
BRANCH   8  11
ATOM     11  C   LIG d   1      -5.374  77.029 116.256  0.00  0.00     0.028 C 
ATOM     12  C   LIG d   1      -4.816  78.206 117.071  0.00  0.00     0.006 C 
ENDBRANCH   8  11
ENDBRANCH   7   8
ENDBRANCH   1   7
BRANCH   6  13
ATOM     13  N   LIG d   1      -1.345  78.050 114.262  0.00  0.00    -0.311 N 
ATOM     14  C   LIG d   1      -2.153  78.900 113.631  0.00  0.00     0.210 C 
ATOM     15  C   LIG d   1      -1.742  79.237 112.194  0.00  0.00     0.109 C 
ATOM     16  O   LIG d   1      -3.153  79.433 114.136  0.00  0.00    -0.276 OA
ATOM     17  H   LIG d   1      -0.539  77.692 113.789  0.00  0.00     0.149 HD
ENDBRANCH   6  13
BRANCH   5  18
ATOM     18  N   LIG d   1       0.079  79.146 116.733  0.00  0.00     0.381 N 
ATOM     19  H   LIG d   1       0.465  79.268 117.648  0.00  0.00    -0.090 HD
ATOM     20  H   LIG d   1      -0.734  79.730 116.652  0.00  0.00    -0.090 HD
ATOM     21  H   LIG d   1       0.752  79.403 116.044  0.00  0.00    -0.090 HD
ENDBRANCH   5  18
BRANCH   3  22
ATOM     22  C   LIG d   1      -0.868  75.001 118.937  0.00  0.00     0.382 C 
ATOM     23  O   LIG d   1      -1.802  74.362 119.480  0.00  0.00    -0.241 OA
ATOM     24  O   LIG d   1       0.289  74.896 119.385  0.00  0.00    -0.241 OA
ENDBRANCH   3  22
TORSDOF 7
ENDMDL
MODEL 3
REMARK VINA RESULT:      -4.1      2.560      4.709
REMARK  7 active torsions:
REMARK  status: ('A' for Active; 'I' for Inactive)
REMARK    1  A    between atoms: C_2  and  C_3 
REMARK    2  A    between atoms: C_3  and  O_6 
REMARK    3  A    between atoms: C_3  and  C_4 
REMARK    4  A    between atoms: C_7  and  O_6 
REMARK    5  A    between atoms: C_9  and  C_10 
REMARK    6  A    between atoms: N_15  and  C_14 
REMARK    7  A    between atoms: N_20  and  C_19 
REMARK       I    between atoms: C_22  and  N_20 
ROOT
ATOM      1  C   LIG d   1      -2.636  75.997 116.489  0.00  0.00     0.161 C 
ATOM      2  C   LIG d   1      -1.611  75.276 115.853  0.00  0.00     0.016 C 
ATOM      3  C   LIG d   1      -0.929  75.741 114.705  0.00  0.00     0.038 C 
ATOM      4  C   LIG d   1      -1.123  77.036 114.202  0.00  0.00     0.028 C 
ATOM      5  C   LIG d   1      -2.505  77.604 114.507  0.00  0.00    -0.047 C 
ATOM      6  C   LIG d   1      -2.785  77.459 116.020  0.00  0.00     0.091 C 
ENDROOT
BRANCH   1   7
ATOM      7  O   LIG d   1      -2.456  75.944 117.918  0.00  0.00    -0.368 OA
BRANCH   7   8
ATOM      8  C   LIG d   1      -1.094  75.776 118.383  0.00  0.00     0.119 C 
BRANCH   8   9
ATOM      9  C   LIG d   1      -1.129  74.806 119.579  0.00  0.00     0.028 C 
ATOM     10  C   LIG d   1       0.246  74.181 119.869  0.00  0.00     0.006 C 
ENDBRANCH   8   9
BRANCH   8  11
ATOM     11  C   LIG d   1      -0.529  77.086 118.940  0.00  0.00     0.028 C 
ATOM     12  C   LIG d   1       0.377  77.819 117.937  0.00  0.00     0.006 C 
ENDBRANCH   8  11
ENDBRANCH   7   8
ENDBRANCH   1   7
BRANCH   6  13
ATOM     13  N   LIG d   1      -4.150  77.914 116.391  0.00  0.00    -0.311 N 
ATOM     14  C   LIG d   1      -4.410  78.651 117.469  0.00  0.00     0.210 C 
ATOM     15  C   LIG d   1      -5.889  78.993 117.677  0.00  0.00     0.109 C 
ATOM     16  O   LIG d   1      -3.553  79.081 118.255  0.00  0.00    -0.276 OA
ATOM     17  H   LIG d   1      -4.902  77.636 115.790  0.00  0.00     0.149 HD
ENDBRANCH   6  13
BRANCH   5  18
ATOM     18  N   LIG d   1      -2.523  79.005 114.047  0.00  0.00     0.381 N 
ATOM     19  H   LIG d   1      -1.621  79.417 114.179  0.00  0.00    -0.090 HD
ATOM     20  H   LIG d   1      -3.188  79.520 114.598  0.00  0.00    -0.090 HD
ATOM     21  H   LIG d   1      -2.776  79.045 113.084  0.00  0.00    -0.090 HD
ENDBRANCH   5  18
BRANCH   3  22
ATOM     22  C   LIG d   1      -0.070  74.892 114.025  0.00  0.00     0.382 C 
ATOM     23  O   LIG d   1       1.091  74.695 114.459  0.00  0.00    -0.241 OA
ATOM     24  O   LIG d   1      -0.425  74.355 112.959  0.00  0.00    -0.241 OA
ENDBRANCH   3  22
TORSDOF 7
ENDMDL
MODEL 4
REMARK VINA RESULT:      -4.0      2.978      4.203
REMARK  7 active torsions:
REMARK  status: ('A' for Active; 'I' for Inactive)
REMARK    1  A    between atoms: C_2  and  C_3 
REMARK    2  A    between atoms: C_3  and  O_6 
REMARK    3  A    between atoms: C_3  and  C_4 
REMARK    4  A    between atoms: C_7  and  O_6 
REMARK    5  A    between atoms: C_9  and  C_10 
REMARK    6  A    between atoms: N_15  and  C_14 
REMARK    7  A    between atoms: N_20  and  C_19 
REMARK       I    between atoms: C_22  and  N_20 
ROOT
ATOM      1  C   LIG d   1      -5.339  77.826 117.642  0.00  0.00     0.161 C 
ATOM      2  C   LIG d   1      -4.437  78.461 116.772  0.00  0.00     0.016 C 
ATOM      3  C   LIG d   1      -3.658  77.768 115.818  0.00  0.00     0.038 C 
ATOM      4  C   LIG d   1      -3.841  76.400 115.563  0.00  0.00     0.028 C 
ATOM      5  C   LIG d   1      -4.378  75.628 116.763  0.00  0.00    -0.047 C 
ATOM      6  C   LIG d   1      -5.634  76.350 117.304  0.00  0.00     0.091 C 
ENDROOT
BRANCH   1   7
ATOM      7  O   LIG d   1      -6.566  78.579 117.708  0.00  0.00    -0.368 OA
BRANCH   7   8
ATOM      8  C   LIG d   1      -6.860  79.209 118.980  0.00  0.00     0.119 C 
BRANCH   8   9
ATOM      9  C   LIG d   1      -8.367  79.029 119.248  0.00  0.00     0.028 C 
ATOM     10  C   LIG d   1      -9.058  78.178 118.169  0.00  0.00     0.006 C 
ENDBRANCH   8   9
BRANCH   8  11
ATOM     11  C   LIG d   1      -6.638  80.723 118.916  0.00  0.00     0.028 C 
ATOM     12  C   LIG d   1      -7.438  81.396 117.790  0.00  0.00     0.006 C 
ENDBRANCH   8  11
ENDBRANCH   7   8
ENDBRANCH   1   7
BRANCH   6  13
ATOM     13  N   LIG d   1      -6.174  75.706 118.530  0.00  0.00    -0.311 N 
ATOM     14  C   LIG d   1      -7.320  75.029 118.558  0.00  0.00     0.210 C 
ATOM     15  C   LIG d   1      -7.703  74.463 119.929  0.00  0.00     0.109 C 
ATOM     16  O   LIG d   1      -8.040  74.816 117.571  0.00  0.00    -0.276 OA
ATOM     17  H   LIG d   1      -5.637  75.803 119.370  0.00  0.00     0.149 HD
ENDBRANCH   6  13
BRANCH   5  18
ATOM     18  N   LIG d   1      -4.651  74.248 116.319  0.00  0.00     0.381 N 
ATOM     19  H   LIG d   1      -5.578  74.188 115.948  0.00  0.00    -0.090 HD
ATOM     20  H   LIG d   1      -4.588  73.633 117.111  0.00  0.00    -0.090 HD
ATOM     21  H   LIG d   1      -3.990  73.976 115.625  0.00  0.00    -0.090 HD
ENDBRANCH   5  18
BRANCH   3  22
ATOM     22  C   LIG d   1      -2.655  78.437 115.133  0.00  0.00     0.382 C 
ATOM     23  O   LIG d   1      -1.569  78.694 115.705  0.00  0.00    -0.241 OA
ATOM     24  O   LIG d   1      -2.839  78.826 113.964  0.00  0.00    -0.241 OA
ENDBRANCH   3  22
TORSDOF 7
ENDMDL
MODEL 5
REMARK VINA RESULT:      -4.0      2.631      3.945
REMARK  7 active torsions:
REMARK  status: ('A' for Active; 'I' for Inactive)
REMARK    1  A    between atoms: C_2  and  C_3 
REMARK    2  A    between atoms: C_3  and  O_6 
REMARK    3  A    between atoms: C_3  and  C_4 
REMARK    4  A    between atoms: C_7  and  O_6 
REMARK    5  A    between atoms: C_9  and  C_10 
REMARK    6  A    between atoms: N_15  and  C_14 
REMARK    7  A    between atoms: N_20  and  C_19 
REMARK       I    between atoms: C_22  and  N_20 
ROOT
ATOM      1  C   LIG d   1      -3.505  78.180 117.659  0.00  0.00     0.161 C 
ATOM      2  C   LIG d   1      -2.521  79.120 118.008  0.00  0.00     0.016 C 
ATOM      3  C   LIG d   1      -1.183  79.049 117.559  0.00  0.00     0.038 C 
ATOM      4  C   LIG d   1      -0.771  78.110 116.601  0.00  0.00     0.028 C 
ATOM      5  C   LIG d   1      -1.606  76.834 116.607  0.00  0.00    -0.047 C 
ATOM      6  C   LIG d   1      -3.102  77.213 116.527  0.00  0.00     0.091 C 
ENDROOT
BRANCH   1   7
ATOM      7  O   LIG d   1      -4.732  78.859 117.326  0.00  0.00    -0.368 OA
BRANCH   7   8
ATOM      8  C   LIG d   1      -5.769  78.836 118.338  0.00  0.00     0.119 C 
BRANCH   8   9
ATOM      9  C   LIG d   1      -7.045  78.276 117.681  0.00  0.00     0.028 C 
ATOM     10  C   LIG d   1      -7.404  76.873 118.200  0.00  0.00     0.006 C 
ENDBRANCH   8   9
BRANCH   8  11
ATOM     11  C   LIG d   1      -6.135  80.252 118.792  0.00  0.00     0.028 C 
ATOM     12  C   LIG d   1      -7.257  80.877 117.949  0.00  0.00     0.006 C 
ENDBRANCH   8  11
ENDBRANCH   7   8
ENDBRANCH   1   7
BRANCH   6  13
ATOM     13  N   LIG d   1      -3.993  76.026 116.612  0.00  0.00    -0.311 N 
ATOM     14  C   LIG d   1      -4.840  75.675 115.646  0.00  0.00     0.210 C 
ATOM     15  C   LIG d   1      -5.680  74.429 115.945  0.00  0.00     0.109 C 
ATOM     16  O   LIG d   1      -4.954  76.258 114.558  0.00  0.00    -0.276 OA
ATOM     17  H   LIG d   1      -3.943  75.477 117.448  0.00  0.00     0.149 HD
ENDBRANCH   6  13
BRANCH   5  18
ATOM     18  N   LIG d   1      -1.158  76.004 115.472  0.00  0.00     0.381 N 
ATOM     19  H   LIG d   1      -0.523  76.525 114.902  0.00  0.00    -0.090 HD
ATOM     20  H   LIG d   1      -1.957  75.760 114.913  0.00  0.00    -0.090 HD
ATOM     21  H   LIG d   1      -0.714  75.178 115.808  0.00  0.00    -0.090 HD
ENDBRANCH   5  18
BRANCH   3  22
ATOM     22  C   LIG d   1      -0.230  79.900 118.099  0.00  0.00     0.382 C 
ATOM     23  O   LIG d   1      -0.138  80.027 119.344  0.00  0.00    -0.241 OA
ATOM     24  O   LIG d   1       0.509  80.574 117.357  0.00  0.00    -0.241 OA
ENDBRANCH   3  22
TORSDOF 7
ENDMDL
MODEL 6
REMARK VINA RESULT:      -4.0      3.485      6.114
REMARK  7 active torsions:
REMARK  status: ('A' for Active; 'I' for Inactive)
REMARK    1  A    between atoms: C_2  and  C_3 
REMARK    2  A    between atoms: C_3  and  O_6 
REMARK    3  A    between atoms: C_3  and  C_4 
REMARK    4  A    between atoms: C_7  and  O_6 
REMARK    5  A    between atoms: C_9  and  C_10 
REMARK    6  A    between atoms: N_15  and  C_14 
REMARK    7  A    between atoms: N_20  and  C_19 
REMARK       I    between atoms: C_22  and  N_20 
ROOT
ATOM      1  C   LIG d   1      -5.525  78.479 117.847  0.00  0.00     0.161 C 
ATOM      2  C   LIG d   1      -6.059  79.777 117.892  0.00  0.00     0.016 C 
ATOM      3  C   LIG d   1      -7.441  80.047 118.016  0.00  0.00     0.038 C 
ATOM      4  C   LIG d   1      -8.376  79.030 118.258  0.00  0.00     0.028 C 
ATOM      5  C   LIG d   1      -7.946  77.670 117.717  0.00  0.00    -0.047 C 
ATOM      6  C   LIG d   1      -6.518  77.359 118.222  0.00  0.00     0.091 C 
ENDROOT
BRANCH   1   7
ATOM      7  O   LIG d   1      -4.350  78.405 118.678  0.00  0.00    -0.368 OA
BRANCH   7   8
ATOM      8  C   LIG d   1      -3.089  78.693 118.026  0.00  0.00     0.119 C 
BRANCH   8   9
ATOM      9  C   LIG d   1      -2.473  77.348 117.593  0.00  0.00     0.028 C 
ATOM     10  C   LIG d   1      -2.353  77.223 116.065  0.00  0.00     0.006 C 
ENDBRANCH   8   9
BRANCH   8  11
ATOM     11  C   LIG d   1      -2.082  79.303 119.005  0.00  0.00     0.028 C 
ATOM     12  C   LIG d   1      -2.545  80.655 119.572  0.00  0.00     0.006 C 
ENDBRANCH   8  11
ENDBRANCH   7   8
ENDBRANCH   1   7
BRANCH   6  13
ATOM     13  N   LIG d   1      -5.988  76.084 117.670  0.00  0.00    -0.311 N 
ATOM     14  C   LIG d   1      -5.804  75.869 116.369  0.00  0.00     0.210 C 
ATOM     15  C   LIG d   1      -5.266  74.480 116.013  0.00  0.00     0.109 C 
ATOM     16  O   LIG d   1      -6.004  76.708 115.478  0.00  0.00    -0.276 OA
ATOM     17  H   LIG d   1      -5.769  75.360 118.325  0.00  0.00     0.149 HD
ENDBRANCH   6  13
BRANCH   5  18
ATOM     18  N   LIG d   1      -8.944  76.679 118.159  0.00  0.00     0.381 N 
ATOM     19  H   LIG d   1      -9.798  76.810 117.654  0.00  0.00    -0.090 HD
ATOM     20  H   LIG d   1      -9.131  76.818 119.136  0.00  0.00    -0.090 HD
ATOM     21  H   LIG d   1      -8.599  75.756 118.007  0.00  0.00    -0.090 HD
ENDBRANCH   5  18
BRANCH   3  22
ATOM     22  C   LIG d   1      -7.905  81.344 117.858  0.00  0.00     0.382 C 
ATOM     23  O   LIG d   1      -8.625  81.637 116.873  0.00  0.00    -0.241 OA
ATOM     24  O   LIG d   1      -7.576  82.235 118.665  0.00  0.00    -0.241 OA
ENDBRANCH   3  22
TORSDOF 7
ENDMDL
MODEL 7
REMARK VINA RESULT:      -3.9      3.591      4.978
REMARK  7 active torsions:
REMARK  status: ('A' for Active; 'I' for Inactive)
REMARK    1  A    between atoms: C_2  and  C_3 
REMARK    2  A    between atoms: C_3  and  O_6 
REMARK    3  A    between atoms: C_3  and  C_4 
REMARK    4  A    between atoms: C_7  and  O_6 
REMARK    5  A    between atoms: C_9  and  C_10 
REMARK    6  A    between atoms: N_15  and  C_14 
REMARK    7  A    between atoms: N_20  and  C_19 
REMARK       I    between atoms: C_22  and  N_20 
ROOT
ATOM      1  C   LIG d   1      -5.631  76.591 119.177  0.00  0.00     0.161 C 
ATOM      2  C   LIG d   1      -6.606  77.552 118.862  0.00  0.00     0.016 C 
ATOM      3  C   LIG d   1      -6.306  78.794 118.256  0.00  0.00     0.038 C 
ATOM      4  C   LIG d   1      -5.021  79.097 117.782  0.00  0.00     0.028 C 
ATOM      5  C   LIG d   1      -3.912  78.367 118.531  0.00  0.00    -0.047 C 
ATOM      6  C   LIG d   1      -4.239  76.857 118.567  0.00  0.00     0.091 C 
ENDROOT
BRANCH   1   7
ATOM      7  O   LIG d   1      -6.100  75.280 118.804  0.00  0.00    -0.368 OA
BRANCH   7   8
ATOM      8  C   LIG d   1      -6.816  75.193 117.547  0.00  0.00     0.119 C 
BRANCH   8   9
ATOM      9  C   LIG d   1      -7.962  74.180 117.736  0.00  0.00     0.028 C 
ATOM     10  C   LIG d   1      -9.060  74.330 116.670  0.00  0.00     0.006 C 
ENDBRANCH   8   9
BRANCH   8  11
ATOM     11  C   LIG d   1      -5.933  74.605 116.442  0.00  0.00     0.028 C 
ATOM     12  C   LIG d   1      -5.457  75.662 115.434  0.00  0.00     0.006 C 
ENDBRANCH   8  11
ENDBRANCH   7   8
ENDBRANCH   1   7
BRANCH   6  13
ATOM     13  N   LIG d   1      -3.247  76.080 119.354  0.00  0.00    -0.311 N 
ATOM     14  C   LIG d   1      -2.521  75.087 118.843  0.00  0.00     0.210 C 
ATOM     15  C   LIG d   1      -1.571  74.404 119.833  0.00  0.00     0.109 C 
ATOM     16  O   LIG d   1      -2.550  74.728 117.657  0.00  0.00    -0.276 OA
ATOM     17  H   LIG d   1      -3.137  76.325 120.319  0.00  0.00     0.149 HD
ENDBRANCH   6  13
BRANCH   5  18
ATOM     18  N   LIG d   1      -2.640  78.667 117.847  0.00  0.00     0.381 N 
ATOM     19  H   LIG d   1      -2.243  79.505 118.222  0.00  0.00    -0.090 HD
ATOM     20  H   LIG d   1      -2.823  78.814 116.870  0.00  0.00    -0.090 HD
ATOM     21  H   LIG d   1      -2.003  77.909 117.962  0.00  0.00    -0.090 HD
ENDBRANCH   5  18
BRANCH   3  22
ATOM     22  C   LIG d   1      -7.291  79.764 118.154  0.00  0.00     0.382 C 
ATOM     23  O   LIG d   1      -7.189  80.675 117.297  0.00  0.00    -0.241 OA
ATOM     24  O   LIG d   1      -8.259  79.767 118.938  0.00  0.00    -0.241 OA
ENDBRANCH   3  22
TORSDOF 7
ENDMDL
MODEL 8
REMARK VINA RESULT:      -3.8      2.596      3.730
REMARK  7 active torsions:
REMARK  status: ('A' for Active; 'I' for Inactive)
REMARK    1  A    between atoms: C_2  and  C_3 
REMARK    2  A    between atoms: C_3  and  O_6 
REMARK    3  A    between atoms: C_3  and  C_4 
REMARK    4  A    between atoms: C_7  and  O_6 
REMARK    5  A    between atoms: C_9  and  C_10 
REMARK    6  A    between atoms: N_15  and  C_14 
REMARK    7  A    between atoms: N_20  and  C_19 
REMARK       I    between atoms: C_22  and  N_20 
ROOT
ATOM      1  C   LIG d   1      -3.143  77.465 118.272  0.00  0.00     0.161 C 
ATOM      2  C   LIG d   1      -2.098  78.363 118.546  0.00  0.00     0.016 C 
ATOM      3  C   LIG d   1      -1.115  78.726 117.596  0.00  0.00     0.038 C 
ATOM      4  C   LIG d   1      -1.199  78.328 116.254  0.00  0.00     0.028 C 
ATOM      5  C   LIG d   1      -1.953  77.017 116.056  0.00  0.00    -0.047 C 
ATOM      6  C   LIG d   1      -3.315  77.107 116.781  0.00  0.00     0.091 C 
ENDROOT
BRANCH   1   7
ATOM      7  O   LIG d   1      -4.379  77.975 118.811  0.00  0.00    -0.368 OA
BRANCH   7   8
ATOM      8  C   LIG d   1      -4.698  79.349 118.483  0.00  0.00     0.119 C 
BRANCH   8   9
ATOM      9  C   LIG d   1      -5.021  80.077 119.802  0.00  0.00     0.028 C 
ATOM     10  C   LIG d   1      -6.018  81.231 119.607  0.00  0.00     0.006 C 
ENDBRANCH   8   9
BRANCH   8  11
ATOM     11  C   LIG d   1      -5.978  79.440 117.647  0.00  0.00     0.028 C 
ATOM     12  C   LIG d   1      -6.798  78.141 117.670  0.00  0.00     0.006 C 
ENDBRANCH   8  11
ENDBRANCH   7   8
ENDBRANCH   1   7
BRANCH   6  13
ATOM     13  N   LIG d   1      -4.080  75.835 116.709  0.00  0.00    -0.311 N 
ATOM     14  C   LIG d   1      -4.932  75.547 115.727  0.00  0.00     0.210 C 
ATOM     15  C   LIG d   1      -5.632  74.190 115.855  0.00  0.00     0.109 C 
ATOM     16  O   LIG d   1      -5.149  76.271 114.744  0.00  0.00    -0.276 OA
ATOM     17  H   LIG d   1      -3.941  75.176 117.450  0.00  0.00     0.149 HD
ENDBRANCH   6  13
BRANCH   5  18
ATOM     18  N   LIG d   1      -2.084  76.793 114.604  0.00  0.00     0.381 N 
ATOM     19  H   LIG d   1      -1.912  75.830 114.393  0.00  0.00    -0.090 HD
ATOM     20  H   LIG d   1      -1.396  77.348 114.126  0.00  0.00    -0.090 HD
ATOM     21  H   LIG d   1      -2.998  77.049 114.301  0.00  0.00    -0.090 HD
ENDBRANCH   5  18
BRANCH   3  22
ATOM     22  C   LIG d   1      -0.012  79.463 117.997  0.00  0.00     0.382 C 
ATOM     23  O   LIG d   1       0.622  79.133 119.028  0.00  0.00    -0.241 OA
ATOM     24  O   LIG d   1       0.331  80.481 117.366  0.00  0.00    -0.241 OA
ENDBRANCH   3  22
TORSDOF 7
ENDMDL
MODEL 9
REMARK VINA RESULT:      -3.7      2.684      5.019
REMARK  7 active torsions:
REMARK  status: ('A' for Active; 'I' for Inactive)
REMARK    1  A    between atoms: C_2  and  C_3 
REMARK    2  A    between atoms: C_3  and  O_6 
REMARK    3  A    between atoms: C_3  and  C_4 
REMARK    4  A    between atoms: C_7  and  O_6 
REMARK    5  A    between atoms: C_9  and  C_10 
REMARK    6  A    between atoms: N_15  and  C_14 
REMARK    7  A    between atoms: N_20  and  C_19 
REMARK       I    between atoms: C_22  and  N_20 
ROOT
ATOM      1  C   LIG d   1      -3.534  78.152 117.081  0.00  0.00     0.161 C 
ATOM      2  C   LIG d   1      -4.695  78.774 117.568  0.00  0.00     0.016 C 
ATOM      3  C   LIG d   1      -5.989  78.219 117.437  0.00  0.00     0.038 C 
ATOM      4  C   LIG d   1      -6.192  76.922 116.941  0.00  0.00     0.028 C 
ATOM      5  C   LIG d   1      -5.104  76.466 115.976  0.00  0.00    -0.047 C 
ATOM      6  C   LIG d   1      -3.723  76.687 116.635  0.00  0.00     0.091 C 
ENDROOT
BRANCH   1   7
ATOM      7  O   LIG d   1      -2.482  78.246 118.061  0.00  0.00    -0.368 OA
BRANCH   7   8
ATOM      8  C   LIG d   1      -1.438  79.212 117.786  0.00  0.00     0.119 C 
BRANCH   8   9
ATOM      9  C   LIG d   1      -0.097  78.453 117.772  0.00  0.00     0.028 C 
ATOM     10  C   LIG d   1      -0.019  77.379 118.869  0.00  0.00     0.006 C 
ENDBRANCH   8   9
BRANCH   8  11
ATOM     11  C   LIG d   1      -1.313  80.235 118.919  0.00  0.00     0.028 C 
ATOM     12  C   LIG d   1      -0.236  81.297 118.646  0.00  0.00     0.006 C 
ENDBRANCH   8  11
ENDBRANCH   7   8
ENDBRANCH   1   7
BRANCH   6  13
ATOM     13  N   LIG d   1      -2.599  76.344 115.726  0.00  0.00    -0.311 N 
ATOM     14  C   LIG d   1      -1.643  75.471 116.039  0.00  0.00     0.210 C 
ATOM     15  C   LIG d   1      -0.567  75.279 114.966  0.00  0.00     0.109 C 
ATOM     16  O   LIG d   1      -1.602  74.813 117.089  0.00  0.00    -0.276 OA
ATOM     17  H   LIG d   1      -2.572  76.809 114.839  0.00  0.00     0.149 HD
ENDBRANCH   6  13
BRANCH   5  18
ATOM     18  N   LIG d   1      -5.366  75.052 115.644  0.00  0.00     0.381 N 
ATOM     19  H   LIG d   1      -4.550  74.504 115.827  0.00  0.00    -0.090 HD
ATOM     20  H   LIG d   1      -5.580  74.983 114.665  0.00  0.00    -0.090 HD
ATOM     21  H   LIG d   1      -6.131  74.712 116.184  0.00  0.00    -0.090 HD
ENDBRANCH   5  18
BRANCH   3  22
ATOM     22  C   LIG d   1      -7.100  78.979 117.769  0.00  0.00     0.382 C 
ATOM     23  O   LIG d   1      -7.071  80.225 117.631  0.00  0.00    -0.241 OA
ATOM     24  O   LIG d   1      -8.115  78.438 118.247  0.00  0.00    -0.241 OA
ENDBRANCH   3  22
TORSDOF 7
ENDMDL
