MODEL 1
REMARK VINA RESULT:      -5.2      0.000      0.000
REMARK  7 active torsions:
REMARK  status: ('A' for Active; 'I' for Inactive)
REMARK    1  A    between atoms: C_2  and  C_3 
REMARK    2  A    between atoms: C_3  and  O_6 
REMARK    3  A    between atoms: C_3  and  C_4 
REMARK    4  A    between atoms: C_7  and  O_6 
REMARK    5  A    between atoms: C_9  and  C_10 
REMARK    6  A    between atoms: N_15  and  C_14 
REMARK    7  A    between atoms: N_20  and  C_19 
REMARK       I    between atoms: C_22  and  N_20 
ROOT
ATOM      1  C   LIG d   1      -1.638  79.233 116.008  0.00  0.00     0.161 C 
ATOM      2  C   LIG d   1      -2.049  80.495 115.548  0.00  0.00     0.016 C 
ATOM      3  C   LIG d   1      -2.291  80.787 114.186  0.00  0.00     0.038 C 
ATOM      4  C   LIG d   1      -2.284  79.788 113.202  0.00  0.00     0.028 C 
ATOM      5  C   LIG d   1      -1.382  78.606 113.544  0.00  0.00    -0.047 C 
ATOM      6  C   LIG d   1      -1.733  78.102 114.962  0.00  0.00     0.091 C 
ENDROOT
BRANCH   1   7
ATOM      7  O   LIG d   1      -2.375  78.881 117.195  0.00  0.00    -0.368 OA
BRANCH   7   8
ATOM      8  C   LIG d   1      -3.755  78.487 116.994  0.00  0.00     0.119 C 
BRANCH   8   9
ATOM      9  C   LIG d   1      -4.642  79.525 117.710  0.00  0.00     0.028 C 
ATOM     10  C   LIG d   1      -3.921  80.198 118.890  0.00  0.00     0.006 C 
ENDBRANCH   8   9
BRANCH   8  11
ATOM     11  C   LIG d   1      -4.059  77.152 117.681  0.00  0.00     0.028 C 
ATOM     12  C   LIG d   1      -2.913  76.673 118.586  0.00  0.00     0.006 C 
ENDBRANCH   8  11
ENDBRANCH   7   8
ENDBRANCH   1   7
BRANCH   6  13
ATOM     13  N   LIG d   1      -0.840  77.000 115.409  0.00  0.00    -0.311 N 
ATOM     14  C   LIG d   1      -1.231  75.730 115.496  0.00  0.00     0.210 C 
ATOM     15  C   LIG d   1      -0.159  74.757 115.997  0.00  0.00     0.109 C 
ATOM     16  O   LIG d   1      -2.353  75.312 115.175  0.00  0.00    -0.276 OA
ATOM     17  H   LIG d   1       0.097  77.246 115.659  0.00  0.00     0.149 HD
ENDBRANCH   6  13
BRANCH   5  18
ATOM     18  N   LIG d   1      -1.577  77.581 112.501  0.00  0.00     0.381 N 
ATOM     19  H   LIG d   1      -0.993  76.791 112.690  0.00  0.00    -0.090 HD
ATOM     20  H   LIG d   1      -1.309  77.966 111.613  0.00  0.00    -0.090 HD
ATOM     21  H   LIG d   1      -2.532  77.298 112.474  0.00  0.00    -0.090 HD
ENDBRANCH   5  18
BRANCH   3  22
ATOM     22  C   LIG d   1      -2.504  82.099 113.792  0.00  0.00     0.382 C 
ATOM     23  O   LIG d   1      -3.249  82.845 114.472  0.00  0.00    -0.241 OA
ATOM     24  O   LIG d   1      -1.996  82.533 112.740  0.00  0.00    -0.241 OA
ENDBRANCH   3  22
TORSDOF 7
ENDMDL
MODEL 2
REMARK VINA RESULT:      -5.0      0.721      1.848
REMARK  7 active torsions:
REMARK  status: ('A' for Active; 'I' for Inactive)
REMARK    1  A    between atoms: C_2  and  C_3 
REMARK    2  A    between atoms: C_3  and  O_6 
REMARK    3  A    between atoms: C_3  and  C_4 
REMARK    4  A    between atoms: C_7  and  O_6 
REMARK    5  A    between atoms: C_9  and  C_10 
REMARK    6  A    between atoms: N_15  and  C_14 
REMARK    7  A    between atoms: N_20  and  C_19 
REMARK       I    between atoms: C_22  and  N_20 
ROOT
ATOM      1  C   LIG d   1      -1.725  79.214 116.003  0.00  0.00     0.161 C 
ATOM      2  C   LIG d   1      -2.134  80.471 115.528  0.00  0.00     0.016 C 
ATOM      3  C   LIG d   1      -2.328  80.760 114.157  0.00  0.00     0.038 C 
ATOM      4  C   LIG d   1      -2.272  79.762 113.174  0.00  0.00     0.028 C 
ATOM      5  C   LIG d   1      -1.369  78.591 113.550  0.00  0.00    -0.047 C 
ATOM      6  C   LIG d   1      -1.767  78.082 114.954  0.00  0.00     0.091 C 
ENDROOT
BRANCH   1   7
ATOM      7  O   LIG d   1      -2.503  78.853 117.161  0.00  0.00    -0.368 OA
BRANCH   7   8
ATOM      8  C   LIG d   1      -1.861  79.049 118.445  0.00  0.00     0.119 C 
BRANCH   8   9
ATOM      9  C   LIG d   1      -2.098  77.775 119.280  0.00  0.00     0.028 C 
ATOM     10  C   LIG d   1      -2.993  76.756 118.555  0.00  0.00     0.006 C 
ENDBRANCH   8   9
BRANCH   8  11
ATOM     11  C   LIG d   1      -2.528  80.180 119.234  0.00  0.00     0.028 C 
ATOM     12  C   LIG d   1      -4.050  80.235 119.026  0.00  0.00     0.006 C 
ENDBRANCH   8  11
ENDBRANCH   7   8
ENDBRANCH   1   7
BRANCH   6  13
ATOM     13  N   LIG d   1      -0.878  76.992 115.434  0.00  0.00    -0.311 N 
ATOM     14  C   LIG d   1      -1.259  75.718 115.516  0.00  0.00     0.210 C 
ATOM     15  C   LIG d   1      -0.195  74.758 116.056  0.00  0.00     0.109 C 
ATOM     16  O   LIG d   1      -2.367  75.287 115.161  0.00  0.00    -0.276 OA
ATOM     17  H   LIG d   1       0.049  77.248 115.713  0.00  0.00     0.149 HD
ENDBRANCH   6  13
BRANCH   5  18
ATOM     18  N   LIG d   1      -1.512  77.564 112.501  0.00  0.00     0.381 N 
ATOM     19  H   LIG d   1      -0.671  77.026 112.437  0.00  0.00    -0.090 HD
ATOM     20  H   LIG d   1      -1.662  78.019 111.618  0.00  0.00    -0.090 HD
ATOM     21  H   LIG d   1      -2.281  76.967 112.711  0.00  0.00    -0.090 HD
ENDBRANCH   5  18
BRANCH   3  22
ATOM     22  C   LIG d   1      -2.542  82.070 113.755  0.00  0.00     0.382 C 
ATOM     23  O   LIG d   1      -1.992  82.504 112.714  0.00  0.00    -0.241 OA
ATOM     24  O   LIG d   1      -3.243  82.836 114.443  0.00  0.00    -0.241 OA
ENDBRANCH   3  22
TORSDOF 7
ENDMDL
MODEL 3
REMARK VINA RESULT:      -4.6      2.489      5.453
REMARK  7 active torsions:
REMARK  status: ('A' for Active; 'I' for Inactive)
REMARK    1  A    between atoms: C_2  and  C_3 
REMARK    2  A    between atoms: C_3  and  O_6 
REMARK    3  A    between atoms: C_3  and  C_4 
REMARK    4  A    between atoms: C_7  and  O_6 
REMARK    5  A    between atoms: C_9  and  C_10 
REMARK    6  A    between atoms: N_15  and  C_14 
REMARK    7  A    between atoms: N_20  and  C_19 
REMARK       I    between atoms: C_22  and  N_20 
ROOT
ATOM      1  C   LIG d   1      -2.679  76.645 115.551  0.00  0.00     0.161 C 
ATOM      2  C   LIG d   1      -2.315  75.789 116.604  0.00  0.00     0.016 C 
ATOM      3  C   LIG d   1      -1.197  76.016 117.440  0.00  0.00     0.038 C 
ATOM      4  C   LIG d   1      -0.451  77.202 117.375  0.00  0.00     0.028 C 
ATOM      5  C   LIG d   1      -0.475  77.858 115.998  0.00  0.00    -0.047 C 
ATOM      6  C   LIG d   1      -1.943  78.001 115.536  0.00  0.00     0.091 C 
ENDROOT
BRANCH   1   7
ATOM      7  O   LIG d   1      -4.106  76.850 115.560  0.00  0.00    -0.368 OA
BRANCH   7   8
ATOM      8  C   LIG d   1      -4.887  75.863 116.277  0.00  0.00     0.119 C 
BRANCH   8   9
ATOM      9  C   LIG d   1      -5.693  75.063 115.235  0.00  0.00     0.028 C 
ATOM     10  C   LIG d   1      -7.211  75.196 115.439  0.00  0.00     0.006 C 
ENDBRANCH   8   9
BRANCH   8  11
ATOM     11  C   LIG d   1      -5.934  76.527 117.177  0.00  0.00     0.028 C 
ATOM     12  C   LIG d   1      -5.322  77.546 118.150  0.00  0.00     0.006 C 
ENDBRANCH   8  11
ENDBRANCH   7   8
ENDBRANCH   1   7
BRANCH   6  13
ATOM     13  N   LIG d   1      -2.053  78.557 114.163  0.00  0.00    -0.311 N 
ATOM     14  C   LIG d   1      -2.382  79.823 113.908  0.00  0.00     0.210 C 
ATOM     15  C   LIG d   1      -2.459  80.184 112.421  0.00  0.00     0.109 C 
ATOM     16  O   LIG d   1      -2.587  80.688 114.773  0.00  0.00    -0.276 OA
ATOM     17  H   LIG d   1      -1.873  77.932 113.402  0.00  0.00     0.149 HD
ENDBRANCH   6  13
BRANCH   5  18
ATOM     18  N   LIG d   1       0.225  79.151 116.109  0.00  0.00     0.381 N 
ATOM     19  H   LIG d   1       0.759  79.320 115.280  0.00  0.00    -0.090 HD
ATOM     20  H   LIG d   1       0.858  79.113 116.889  0.00  0.00    -0.090 HD
ATOM     21  H   LIG d   1      -0.434  79.886 116.243  0.00  0.00    -0.090 HD
ENDBRANCH   5  18
BRANCH   3  22
ATOM     22  C   LIG d   1      -0.791  75.030 118.327  0.00  0.00     0.382 C 
ATOM     23  O   LIG d   1      -1.617  74.180 118.740  0.00  0.00    -0.241 OA
ATOM     24  O   LIG d   1       0.378  75.007 118.754  0.00  0.00    -0.241 OA
ENDBRANCH   3  22
TORSDOF 7
ENDMDL
MODEL 4
REMARK VINA RESULT:      -4.5      2.067      2.700
REMARK  7 active torsions:
REMARK  status: ('A' for Active; 'I' for Inactive)
REMARK    1  A    between atoms: C_2  and  C_3 
REMARK    2  A    between atoms: C_3  and  O_6 
REMARK    3  A    between atoms: C_3  and  C_4 
REMARK    4  A    between atoms: C_7  and  O_6 
REMARK    5  A    between atoms: C_9  and  C_10 
REMARK    6  A    between atoms: N_15  and  C_14 
REMARK    7  A    between atoms: N_20  and  C_19 
REMARK       I    between atoms: C_22  and  N_20 
ROOT
ATOM      1  C   LIG d   1      -1.964  77.647 116.750  0.00  0.00     0.161 C 
ATOM      2  C   LIG d   1      -2.315  78.601 115.780  0.00  0.00     0.016 C 
ATOM      3  C   LIG d   1      -1.864  78.551 114.441  0.00  0.00     0.038 C 
ATOM      4  C   LIG d   1      -1.150  77.453 113.940  0.00  0.00     0.028 C 
ATOM      5  C   LIG d   1      -0.346  76.715 115.006  0.00  0.00    -0.047 C 
ATOM      6  C   LIG d   1      -1.277  76.383 116.195  0.00  0.00     0.091 C 
ENDROOT
BRANCH   1   7
ATOM      7  O   LIG d   1      -3.126  77.287 117.524  0.00  0.00    -0.368 OA
BRANCH   7   8
ATOM      8  C   LIG d   1      -4.380  77.230 116.801  0.00  0.00     0.119 C 
BRANCH   8   9
ATOM      9  C   LIG d   1      -5.489  77.706 117.760  0.00  0.00     0.028 C 
ATOM     10  C   LIG d   1      -6.790  76.902 117.596  0.00  0.00     0.006 C 
ENDBRANCH   8   9
BRANCH   8  11
ATOM     11  C   LIG d   1      -4.749  75.789 116.438  0.00  0.00     0.028 C 
ATOM     12  C   LIG d   1      -4.673  75.517 114.927  0.00  0.00     0.006 C 
ENDBRANCH   8  11
ENDBRANCH   7   8
ENDBRANCH   1   7
BRANCH   6  13
ATOM     13  N   LIG d   1      -0.551  75.735 117.318  0.00  0.00    -0.311 N 
ATOM     14  C   LIG d   1      -1.051  74.725 118.028  0.00  0.00     0.210 C 
ATOM     15  C   LIG d   1      -0.146  74.217 119.155  0.00  0.00     0.109 C 
ATOM     16  O   LIG d   1      -2.144  74.181 117.811  0.00  0.00    -0.276 OA
ATOM     17  H   LIG d   1       0.356  76.093 117.542  0.00  0.00     0.149 HD
ENDBRANCH   6  13
BRANCH   5  18
ATOM     18  N   LIG d   1       0.236  75.516 114.374  0.00  0.00     0.381 N 
ATOM     19  H   LIG d   1       0.045  75.524 113.392  0.00  0.00    -0.090 HD
ATOM     20  H   LIG d   1      -0.191  74.699 114.773  0.00  0.00    -0.090 HD
ATOM     21  H   LIG d   1       1.220  75.494 114.529  0.00  0.00    -0.090 HD
ENDBRANCH   5  18
BRANCH   3  22
ATOM     22  C   LIG d   1      -2.094  79.628 113.598  0.00  0.00     0.382 C 
ATOM     23  O   LIG d   1      -3.160  80.282 113.693  0.00  0.00    -0.241 OA
ATOM     24  O   LIG d   1      -1.269  79.925 112.714  0.00  0.00    -0.241 OA
ENDBRANCH   3  22
TORSDOF 7
ENDMDL
MODEL 5
REMARK VINA RESULT:      -4.4      1.906      5.016
REMARK  7 active torsions:
REMARK  status: ('A' for Active; 'I' for Inactive)
REMARK    1  A    between atoms: C_2  and  C_3 
REMARK    2  A    between atoms: C_3  and  O_6 
REMARK    3  A    between atoms: C_3  and  C_4 
REMARK    4  A    between atoms: C_7  and  O_6 
REMARK    5  A    between atoms: C_9  and  C_10 
REMARK    6  A    between atoms: N_15  and  C_14 
REMARK    7  A    between atoms: N_20  and  C_19 
REMARK       I    between atoms: C_22  and  N_20 
ROOT
ATOM      1  C   LIG d   1      -1.733  78.583 116.392  0.00  0.00     0.161 C 
ATOM      2  C   LIG d   1      -1.548  77.346 117.032  0.00  0.00     0.016 C 
ATOM      3  C   LIG d   1      -1.263  76.146 116.339  0.00  0.00     0.038 C 
ATOM      4  C   LIG d   1      -0.993  76.131 114.963  0.00  0.00     0.028 C 
ATOM      5  C   LIG d   1      -1.665  77.269 114.201  0.00  0.00    -0.047 C 
ATOM      6  C   LIG d   1      -1.333  78.606 114.902  0.00  0.00     0.091 C 
ENDROOT
BRANCH   1   7
ATOM      7  O   LIG d   1      -1.035  79.616 117.115  0.00  0.00    -0.368 OA
BRANCH   7   8
ATOM      8  C   LIG d   1      -1.861  80.644 117.715  0.00  0.00     0.119 C 
BRANCH   8   9
ATOM      9  C   LIG d   1      -1.600  80.620 119.233  0.00  0.00     0.028 C 
ATOM     10  C   LIG d   1      -0.215  80.049 119.581  0.00  0.00     0.006 C 
ENDBRANCH   8   9
BRANCH   8  11
ATOM     11  C   LIG d   1      -3.351  80.325 117.554  0.00  0.00     0.028 C 
ATOM     12  C   LIG d   1      -4.066  80.128 118.900  0.00  0.00     0.006 C 
ENDBRANCH   8  11
ENDBRANCH   7   8
ENDBRANCH   1   7
BRANCH   6  13
ATOM     13  N   LIG d   1      -2.019  79.763 114.270  0.00  0.00    -0.311 N 
ATOM     14  C   LIG d   1      -1.384  80.697 113.565  0.00  0.00     0.210 C 
ATOM     15  C   LIG d   1      -2.278  81.814 113.017  0.00  0.00     0.109 C 
ATOM     16  O   LIG d   1      -0.169  80.689 113.313  0.00  0.00    -0.276 OA
ATOM     17  H   LIG d   1      -3.010  79.830 114.397  0.00  0.00     0.149 HD
ENDBRANCH   6  13
BRANCH   5  18
ATOM     18  N   LIG d   1      -1.189  77.213 112.806  0.00  0.00     0.381 N 
ATOM     19  H   LIG d   1      -0.220  76.963 112.788  0.00  0.00    -0.090 HD
ATOM     20  H   LIG d   1      -1.286  78.124 112.393  0.00  0.00    -0.090 HD
ATOM     21  H   LIG d   1      -1.721  76.548 112.290  0.00  0.00    -0.090 HD
ENDBRANCH   5  18
BRANCH   3  22
ATOM     22  C   LIG d   1      -1.286  74.938 117.019  0.00  0.00     0.382 C 
ATOM     23  O   LIG d   1      -0.283  74.185 116.993  0.00  0.00    -0.241 OA
ATOM     24  O   LIG d   1      -2.312  74.572 117.622  0.00  0.00    -0.241 OA
ENDBRANCH   3  22
TORSDOF 7
ENDMDL
MODEL 6
REMARK VINA RESULT:      -4.4      1.740      2.197
REMARK  7 active torsions:
REMARK  status: ('A' for Active; 'I' for Inactive)
REMARK    1  A    between atoms: C_2  and  C_3 
REMARK    2  A    between atoms: C_3  and  O_6 
REMARK    3  A    between atoms: C_3  and  C_4 
REMARK    4  A    between atoms: C_7  and  O_6 
REMARK    5  A    between atoms: C_9  and  C_10 
REMARK    6  A    between atoms: N_15  and  C_14 
REMARK    7  A    between atoms: N_20  and  C_19 
REMARK       I    between atoms: C_22  and  N_20 
ROOT
ATOM      1  C   LIG d   1      -2.131  77.564 116.316  0.00  0.00     0.161 C 
ATOM      2  C   LIG d   1      -2.334  78.942 116.503  0.00  0.00     0.016 C 
ATOM      3  C   LIG d   1      -2.334  79.879 115.444  0.00  0.00     0.038 C 
ATOM      4  C   LIG d   1      -2.282  79.479 114.100  0.00  0.00     0.028 C 
ATOM      5  C   LIG d   1      -1.571  78.146 113.892  0.00  0.00    -0.047 C 
ATOM      6  C   LIG d   1      -2.184  77.096 114.847  0.00  0.00     0.091 C 
ENDROOT
BRANCH   1   7
ATOM      7  O   LIG d   1      -3.074  76.820 117.113  0.00  0.00    -0.368 OA
BRANCH   7   8
ATOM      8  C   LIG d   1      -4.441  76.802 116.633  0.00  0.00     0.119 C 
BRANCH   8   9
ATOM      9  C   LIG d   1      -5.352  77.182 117.816  0.00  0.00     0.028 C 
ATOM     10  C   LIG d   1      -5.917  78.607 117.686  0.00  0.00     0.006 C 
ENDBRANCH   8   9
BRANCH   8  11
ATOM     11  C   LIG d   1      -4.870  75.389 116.228  0.00  0.00     0.028 C 
ATOM     12  C   LIG d   1      -6.074  75.383 115.272  0.00  0.00     0.006 C 
ENDBRANCH   8  11
ENDBRANCH   7   8
ENDBRANCH   1   7
BRANCH   6  13
ATOM     13  N   LIG d   1      -1.490  75.785 114.768  0.00  0.00    -0.311 N 
ATOM     14  C   LIG d   1      -0.215  75.608 115.110  0.00  0.00     0.210 C 
ATOM     15  C   LIG d   1       0.311  74.180 114.933  0.00  0.00     0.109 C 
ATOM     16  O   LIG d   1       0.522  76.492 115.574  0.00  0.00    -0.276 OA
ATOM     17  H   LIG d   1      -2.022  75.006 114.431  0.00  0.00     0.149 HD
ENDBRANCH   6  13
BRANCH   5  18
ATOM     18  N   LIG d   1      -1.710  77.785 112.469  0.00  0.00     0.381 N 
ATOM     19  H   LIG d   1      -1.350  76.864 112.316  0.00  0.00    -0.090 HD
ATOM     20  H   LIG d   1      -1.174  78.429 111.915  0.00  0.00    -0.090 HD
ATOM     21  H   LIG d   1      -2.669  77.822 112.199  0.00  0.00    -0.090 HD
ENDBRANCH   5  18
BRANCH   3  22
ATOM     22  C   LIG d   1      -2.347  81.236 115.727  0.00  0.00     0.382 C 
ATOM     23  O   LIG d   1      -3.360  81.924 115.455  0.00  0.00    -0.241 OA
ATOM     24  O   LIG d   1      -1.342  81.790 116.211  0.00  0.00    -0.241 OA
ENDBRANCH   3  22
TORSDOF 7
ENDMDL
MODEL 7
REMARK VINA RESULT:      -4.4      1.845      2.605
REMARK  7 active torsions:
REMARK  status: ('A' for Active; 'I' for Inactive)
REMARK    1  A    between atoms: C_2  and  C_3 
REMARK    2  A    between atoms: C_3  and  O_6 
REMARK    3  A    between atoms: C_3  and  C_4 
REMARK    4  A    between atoms: C_7  and  O_6 
REMARK    5  A    between atoms: C_9  and  C_10 
REMARK    6  A    between atoms: N_15  and  C_14 
REMARK    7  A    between atoms: N_20  and  C_19 
REMARK       I    between atoms: C_22  and  N_20 
ROOT
ATOM      1  C   LIG d   1      -0.438  79.356 115.010  0.00  0.00     0.161 C 
ATOM      2  C   LIG d   1      -0.941  80.411 114.231  0.00  0.00     0.016 C 
ATOM      3  C   LIG d   1      -2.063  80.285 113.381  0.00  0.00     0.038 C 
ATOM      4  C   LIG d   1      -2.856  79.127 113.366  0.00  0.00     0.028 C 
ATOM      5  C   LIG d   1      -2.093  77.866 113.756  0.00  0.00    -0.047 C 
ATOM      6  C   LIG d   1      -1.356  78.118 115.092  0.00  0.00     0.091 C 
ENDROOT
BRANCH   1   7
ATOM      7  O   LIG d   1      -0.121  79.832 116.333  0.00  0.00    -0.368 OA
BRANCH   7   8
ATOM      8  C   LIG d   1      -0.867  80.987 116.790  0.00  0.00     0.119 C 
BRANCH   8   9
ATOM      9  C   LIG d   1       0.093  81.859 117.622  0.00  0.00     0.028 C 
ATOM     10  C   LIG d   1       0.340  81.284 119.026  0.00  0.00     0.006 C 
ENDBRANCH   8   9
BRANCH   8  11
ATOM     11  C   LIG d   1      -1.985  80.581 117.755  0.00  0.00     0.028 C 
ATOM     12  C   LIG d   1      -3.370  80.560 117.088  0.00  0.00     0.006 C 
ENDBRANCH   8  11
ENDBRANCH   7   8
ENDBRANCH   1   7
BRANCH   6  13
ATOM     13  N   LIG d   1      -0.517  76.962 115.503  0.00  0.00    -0.311 N 
ATOM     14  C   LIG d   1      -0.968  75.960 116.256  0.00  0.00     0.210 C 
ATOM     15  C   LIG d   1       0.068  74.879 116.581  0.00  0.00     0.109 C 
ATOM     16  O   LIG d   1      -2.135  75.848 116.658  0.00  0.00    -0.276 OA
ATOM     17  H   LIG d   1       0.436  76.957 115.194  0.00  0.00     0.149 HD
ENDBRANCH   6  13
BRANCH   5  18
ATOM     18  N   LIG d   1      -3.067  76.761 113.834  0.00  0.00     0.381 N 
ATOM     19  H   LIG d   1      -2.847  76.169 114.609  0.00  0.00    -0.090 HD
ATOM     20  H   LIG d   1      -3.007  76.215 112.992  0.00  0.00    -0.090 HD
ATOM     21  H   LIG d   1      -3.989  77.126 113.936  0.00  0.00    -0.090 HD
ENDBRANCH   5  18
BRANCH   3  22
ATOM     22  C   LIG d   1      -2.379  81.310 112.503  0.00  0.00     0.382 C 
ATOM     23  O   LIG d   1      -1.480  81.838 111.805  0.00  0.00    -0.241 OA
ATOM     24  O   LIG d   1      -3.544  81.745 112.432  0.00  0.00    -0.241 OA
ENDBRANCH   3  22
TORSDOF 7
ENDMDL
MODEL 8
REMARK VINA RESULT:      -4.3      2.506      4.891
REMARK  7 active torsions:
REMARK  status: ('A' for Active; 'I' for Inactive)
REMARK    1  A    between atoms: C_2  and  C_3 
REMARK    2  A    between atoms: C_3  and  O_6 
REMARK    3  A    between atoms: C_3  and  C_4 
REMARK    4  A    between atoms: C_7  and  O_6 
REMARK    5  A    between atoms: C_9  and  C_10 
REMARK    6  A    between atoms: N_15  and  C_14 
REMARK    7  A    between atoms: N_20  and  C_19 
REMARK       I    between atoms: C_22  and  N_20 
ROOT
ATOM      1  C   LIG d   1      -1.753  80.236 115.173  0.00  0.00     0.161 C 
ATOM      2  C   LIG d   1      -2.154  78.897 115.312  0.00  0.00     0.016 C 
ATOM      3  C   LIG d   1      -2.242  77.994 114.227  0.00  0.00     0.038 C 
ATOM      4  C   LIG d   1      -1.786  78.331 112.944  0.00  0.00     0.028 C 
ATOM      5  C   LIG d   1      -1.847  79.826 112.653  0.00  0.00    -0.047 C 
ATOM      6  C   LIG d   1      -1.146  80.590 113.800  0.00  0.00     0.091 C 
ENDROOT
BRANCH   1   7
ATOM      7  O   LIG d   1      -0.838  80.584 116.230  0.00  0.00    -0.368 OA
BRANCH   7   8
ATOM      8  C   LIG d   1      -0.878  79.744 117.410  0.00  0.00     0.119 C 
BRANCH   8   9
ATOM      9  C   LIG d   1      -1.407  80.605 118.574  0.00  0.00     0.028 C 
ATOM     10  C   LIG d   1      -2.889  80.330 118.880  0.00  0.00     0.006 C 
ENDBRANCH   8   9
BRANCH   8  11
ATOM     11  C   LIG d   1       0.529  79.311 117.834  0.00  0.00     0.028 C 
ATOM     12  C   LIG d   1       0.931  77.945 117.257  0.00  0.00     0.006 C 
ENDBRANCH   8  11
ENDBRANCH   7   8
ENDBRANCH   1   7
BRANCH   6  13
ATOM     13  N   LIG d   1      -1.233  82.064 113.635  0.00  0.00    -0.311 N 
ATOM     14  C   LIG d   1      -0.292  82.793 113.039  0.00  0.00     0.210 C 
ATOM     15  C   LIG d   1      -0.571  84.299 112.994  0.00  0.00     0.109 C 
ATOM     16  O   LIG d   1       0.733  82.332 112.515  0.00  0.00    -0.276 OA
ATOM     17  H   LIG d   1      -2.047  82.517 114.004  0.00  0.00     0.149 HD
ENDBRANCH   6  13
BRANCH   5  18
ATOM     18  N   LIG d   1      -1.215  80.050 111.338  0.00  0.00     0.381 N 
ATOM     19  H   LIG d   1      -1.911  80.026 110.620  0.00  0.00    -0.090 HD
ATOM     20  H   LIG d   1      -0.556  79.312 111.165  0.00  0.00    -0.090 HD
ATOM     21  H   LIG d   1      -0.749  80.931 111.330  0.00  0.00    -0.090 HD
ENDBRANCH   5  18
BRANCH   3  22
ATOM     22  C   LIG d   1      -2.828  76.751 114.413  0.00  0.00     0.382 C 
ATOM     23  O   LIG d   1      -2.256  75.889 115.123  0.00  0.00    -0.241 OA
ATOM     24  O   LIG d   1      -3.899  76.466 113.845  0.00  0.00    -0.241 OA
ENDBRANCH   3  22
TORSDOF 7
ENDMDL
MODEL 9
REMARK VINA RESULT:      -4.3      2.372      3.605
REMARK  7 active torsions:
REMARK  status: ('A' for Active; 'I' for Inactive)
REMARK    1  A    between atoms: C_2  and  C_3 
REMARK    2  A    between atoms: C_3  and  O_6 
REMARK    3  A    between atoms: C_3  and  C_4 
REMARK    4  A    between atoms: C_7  and  O_6 
REMARK    5  A    between atoms: C_9  and  C_10 
REMARK    6  A    between atoms: N_15  and  C_14 
REMARK    7  A    between atoms: N_20  and  C_19 
REMARK       I    between atoms: C_22  and  N_20 
ROOT
ATOM      1  C   LIG d   1      -1.703  78.757 115.121  0.00  0.00     0.161 C 
ATOM      2  C   LIG d   1      -2.084  79.410 113.937  0.00  0.00     0.016 C 
ATOM      3  C   LIG d   1      -1.916  80.797 113.724  0.00  0.00     0.038 C 
ATOM      4  C   LIG d   1      -1.211  81.606 114.628  0.00  0.00     0.028 C 
ATOM      5  C   LIG d   1      -1.254  81.090 116.062  0.00  0.00    -0.047 C 
ATOM      6  C   LIG d   1      -0.832  79.603 116.073  0.00  0.00     0.091 C 
ENDROOT
BRANCH   1   7
ATOM      7  O   LIG d   1      -1.041  77.517 114.804  0.00  0.00    -0.368 OA
BRANCH   7   8
ATOM      8  C   LIG d   1      -1.780  76.306 115.098  0.00  0.00     0.119 C 
BRANCH   8   9
ATOM      9  C   LIG d   1      -3.071  76.719 115.831  0.00  0.00     0.028 C 
ATOM     10  C   LIG d   1      -4.247  75.777 115.523  0.00  0.00     0.006 C 
ENDBRANCH   8   9
BRANCH   8  11
ATOM     11  C   LIG d   1      -1.020  75.415 116.085  0.00  0.00     0.028 C 
ATOM     12  C   LIG d   1      -0.074  74.425 115.387  0.00  0.00     0.006 C 
ENDBRANCH   8  11
ENDBRANCH   7   8
ENDBRANCH   1   7
BRANCH   6  13
ATOM     13  N   LIG d   1      -0.928  78.997 117.427  0.00  0.00    -0.311 N 
ATOM     14  C   LIG d   1       0.075  78.341 118.009  0.00  0.00     0.210 C 
ATOM     15  C   LIG d   1      -0.241  77.778 119.398  0.00  0.00     0.109 C 
ATOM     16  O   LIG d   1       1.206  78.199 117.520  0.00  0.00    -0.276 OA
ATOM     17  H   LIG d   1      -1.800  79.092 117.909  0.00  0.00     0.149 HD
ENDBRANCH   6  13
BRANCH   5  18
ATOM     18  N   LIG d   1      -0.368  81.948 116.871  0.00  0.00     0.381 N 
ATOM     19  H   LIG d   1       0.576  81.857 116.552  0.00  0.00    -0.090 HD
ATOM     20  H   LIG d   1      -0.408  81.646 117.828  0.00  0.00    -0.090 HD
ATOM     21  H   LIG d   1      -0.658  82.899 116.803  0.00  0.00    -0.090 HD
ENDBRANCH   5  18
BRANCH   3  22
ATOM     22  C   LIG d   1      -2.490  81.397 112.613  0.00  0.00     0.382 C 
ATOM     23  O   LIG d   1      -1.782  81.683 111.618  0.00  0.00    -0.241 OA
ATOM     24  O   LIG d   1      -3.699  81.696 112.611  0.00  0.00    -0.241 OA
ENDBRANCH   3  22
TORSDOF 7
ENDMDL
