MODEL 1
REMARK VINA RESULT:      -5.2      0.000      0.000
REMARK  7 active torsions:
REMARK  status: ('A' for Active; 'I' for Inactive)
REMARK    1  A    between atoms: C_2  and  C_3 
REMARK    2  A    between atoms: C_3  and  O_6 
REMARK    3  A    between atoms: C_3  and  C_4 
REMARK    4  A    between atoms: C_7  and  O_6 
REMARK    5  A    between atoms: C_9  and  C_10 
REMARK    6  A    between atoms: N_15  and  C_14 
REMARK    7  A    between atoms: N_20  and  C_19 
REMARK       I    between atoms: C_22  and  N_20 
ROOT
ATOM      1  C   LIG d   1      -1.792  80.771 114.223  0.00  0.00     0.161 C 
ATOM      2  C   LIG d   1      -1.554  82.137 114.001  0.00  0.00     0.016 C 
ATOM      3  C   LIG d   1      -0.924  82.638 112.838  0.00  0.00     0.038 C 
ATOM      4  C   LIG d   1      -0.624  81.814 111.743  0.00  0.00     0.028 C 
ATOM      5  C   LIG d   1      -0.387  80.358 112.129  0.00  0.00    -0.047 C 
ATOM      6  C   LIG d   1      -1.573  79.867 112.991  0.00  0.00     0.091 C 
ENDROOT
BRANCH   1   7
ATOM      7  O   LIG d   1      -3.122  80.586 114.749  0.00  0.00    -0.368 OA
BRANCH   7   8
ATOM      8  C   LIG d   1      -3.207  80.177 116.136  0.00  0.00     0.119 C 
BRANCH   8   9
ATOM      9  C   LIG d   1      -3.647  81.405 116.955  0.00  0.00     0.028 C 
ATOM     10  C   LIG d   1      -2.524  81.943 117.857  0.00  0.00     0.006 C 
ENDBRANCH   8   9
BRANCH   8  11
ATOM     11  C   LIG d   1      -1.831  79.793 116.689  0.00  0.00     0.028 C 
ATOM     12  C   LIG d   1      -1.762  78.329 117.153  0.00  0.00     0.006 C 
ENDBRANCH   8  11
ENDBRANCH   7   8
ENDBRANCH   1   7
BRANCH   6  13
ATOM     13  N   LIG d   1      -1.381  78.478 113.481  0.00  0.00    -0.311 N 
ATOM     14  C   LIG d   1      -2.345  77.558 113.475  0.00  0.00     0.210 C 
ATOM     15  C   LIG d   1      -1.941  76.194 114.044  0.00  0.00     0.109 C 
ATOM     16  O   LIG d   1      -3.486  77.733 113.023  0.00  0.00    -0.276 OA
ATOM     17  H   LIG d   1      -0.475  78.240 113.837  0.00  0.00     0.149 HD
ENDBRANCH   6  13
BRANCH   5  18
ATOM     18  N   LIG d   1      -0.222  79.588 110.882  0.00  0.00     0.381 N 
ATOM     19  H   LIG d   1      -0.654  80.076 110.122  0.00  0.00    -0.090 HD
ATOM     20  H   LIG d   1      -0.680  78.699 110.985  0.00  0.00    -0.090 HD
ATOM     21  H   LIG d   1       0.746  79.451 110.691  0.00  0.00    -0.090 HD
ENDBRANCH   5  18
BRANCH   3  22
ATOM     22  C   LIG d   1      -0.552  83.973 112.779  0.00  0.00     0.382 C 
ATOM     23  O   LIG d   1      -0.904  84.680 111.805  0.00  0.00    -0.241 OA
ATOM     24  O   LIG d   1       0.170  84.467 113.666  0.00  0.00    -0.241 OA
ENDBRANCH   3  22
TORSDOF 7
ENDMDL
MODEL 2
REMARK VINA RESULT:      -5.2      0.517      1.639
REMARK  7 active torsions:
REMARK  status: ('A' for Active; 'I' for Inactive)
REMARK    1  A    between atoms: C_2  and  C_3 
REMARK    2  A    between atoms: C_3  and  O_6 
REMARK    3  A    between atoms: C_3  and  C_4 
REMARK    4  A    between atoms: C_7  and  O_6 
REMARK    5  A    between atoms: C_9  and  C_10 
REMARK    6  A    between atoms: N_15  and  C_14 
REMARK    7  A    between atoms: N_20  and  C_19 
REMARK       I    between atoms: C_22  and  N_20 
ROOT
ATOM      1  C   LIG d   1      -1.677  80.770 114.368  0.00  0.00     0.161 C 
ATOM      2  C   LIG d   1      -1.452  82.135 114.129  0.00  0.00     0.016 C 
ATOM      3  C   LIG d   1      -0.913  82.635 112.921  0.00  0.00     0.038 C 
ATOM      4  C   LIG d   1      -0.702  81.810 111.806  0.00  0.00     0.028 C 
ATOM      5  C   LIG d   1      -0.441  80.353 112.172  0.00  0.00    -0.047 C 
ATOM      6  C   LIG d   1      -1.557  79.866 113.123  0.00  0.00     0.091 C 
ENDROOT
BRANCH   1   7
ATOM      7  O   LIG d   1      -2.962  80.590 114.996  0.00  0.00    -0.368 OA
BRANCH   7   8
ATOM      8  C   LIG d   1      -2.941  80.242 116.403  0.00  0.00     0.119 C 
BRANCH   8   9
ATOM      9  C   LIG d   1      -3.963  79.109 116.615  0.00  0.00     0.028 C 
ATOM     10  C   LIG d   1      -3.322  77.844 117.210  0.00  0.00     0.006 C 
ENDBRANCH   8   9
BRANCH   8  11
ATOM     11  C   LIG d   1      -3.436  81.403 117.271  0.00  0.00     0.028 C 
ATOM     12  C   LIG d   1      -2.310  82.064 118.081  0.00  0.00     0.006 C 
ENDBRANCH   8  11
ENDBRANCH   7   8
ENDBRANCH   1   7
BRANCH   6  13
ATOM     13  N   LIG d   1      -1.333  78.475 113.597  0.00  0.00    -0.311 N 
ATOM     14  C   LIG d   1      -2.281  77.540 113.601  0.00  0.00     0.210 C 
ATOM     15  C   LIG d   1      -1.843  76.178 114.149  0.00  0.00     0.109 C 
ATOM     16  O   LIG d   1      -3.434  77.700 113.173  0.00  0.00    -0.276 OA
ATOM     17  H   LIG d   1      -0.417  78.250 113.933  0.00  0.00     0.149 HD
ENDBRANCH   6  13
BRANCH   5  18
ATOM     18  N   LIG d   1      -0.376  79.583 110.915  0.00  0.00     0.381 N 
ATOM     19  H   LIG d   1      -0.766  80.121 110.168  0.00  0.00    -0.090 HD
ATOM     20  H   LIG d   1      -0.921  78.745 111.019  0.00  0.00    -0.090 HD
ATOM     21  H   LIG d   1       0.570  79.349 110.707  0.00  0.00    -0.090 HD
ENDBRANCH   5  18
BRANCH   3  22
ATOM     22  C   LIG d   1      -0.541  83.968 112.833  0.00  0.00     0.382 C 
ATOM     23  O   LIG d   1       0.075  84.511 113.782  0.00  0.00    -0.241 OA
ATOM     24  O   LIG d   1      -0.853  84.646 111.837  0.00  0.00    -0.241 OA
ENDBRANCH   3  22
TORSDOF 7
ENDMDL
MODEL 3
REMARK VINA RESULT:      -4.9      4.820      6.779
REMARK  7 active torsions:
REMARK  status: ('A' for Active; 'I' for Inactive)
REMARK    1  A    between atoms: C_2  and  C_3 
REMARK    2  A    between atoms: C_3  and  O_6 
REMARK    3  A    between atoms: C_3  and  C_4 
REMARK    4  A    between atoms: C_7  and  O_6 
REMARK    5  A    between atoms: C_9  and  C_10 
REMARK    6  A    between atoms: N_15  and  C_14 
REMARK    7  A    between atoms: N_20  and  C_19 
REMARK       I    between atoms: C_22  and  N_20 
ROOT
ATOM      1  C   LIG d   1      -3.111  77.195 114.715  0.00  0.00     0.161 C 
ATOM      2  C   LIG d   1      -2.324  76.199 114.112  0.00  0.00     0.016 C 
ATOM      3  C   LIG d   1      -1.211  75.598 114.743  0.00  0.00     0.038 C 
ATOM      4  C   LIG d   1      -0.899  75.845 116.089  0.00  0.00     0.028 C 
ATOM      5  C   LIG d   1      -1.359  77.215 116.575  0.00  0.00    -0.047 C 
ATOM      6  C   LIG d   1      -2.853  77.397 116.223  0.00  0.00     0.091 C 
ENDROOT
BRANCH   1   7
ATOM      7  O   LIG d   1      -4.506  76.925 114.477  0.00  0.00    -0.368 OA
BRANCH   7   8
ATOM      8  C   LIG d   1      -4.915  75.539 114.580  0.00  0.00     0.119 C 
BRANCH   8   9
ATOM      9  C   LIG d   1      -5.340  75.076 113.173  0.00  0.00     0.028 C 
ATOM     10  C   LIG d   1      -6.086  76.174 112.395  0.00  0.00     0.006 C 
ENDBRANCH   8   9
BRANCH   8  11
ATOM     11  C   LIG d   1      -6.165  75.389 115.451  0.00  0.00     0.028 C 
ATOM     12  C   LIG d   1      -6.585  76.707 116.122  0.00  0.00     0.006 C 
ENDBRANCH   8  11
ENDBRANCH   7   8
ENDBRANCH   1   7
BRANCH   6  13
ATOM     13  N   LIG d   1      -3.361  78.745 116.589  0.00  0.00    -0.311 N 
ATOM     14  C   LIG d   1      -3.975  79.009 117.741  0.00  0.00     0.210 C 
ATOM     15  C   LIG d   1      -4.438  80.460 117.909  0.00  0.00     0.109 C 
ATOM     16  O   LIG d   1      -4.152  78.187 118.652  0.00  0.00    -0.276 OA
ATOM     17  H   LIG d   1      -3.232  79.479 115.919  0.00  0.00     0.149 HD
ENDBRANCH   6  13
BRANCH   5  18
ATOM     18  N   LIG d   1      -1.094  77.285 118.024  0.00  0.00     0.381 N 
ATOM     19  H   LIG d   1      -0.139  77.539 118.182  0.00  0.00    -0.090 HD
ATOM     20  H   LIG d   1      -1.251  76.378 118.428  0.00  0.00    -0.090 HD
ATOM     21  H   LIG d   1      -1.698  77.954 118.449  0.00  0.00    -0.090 HD
ENDBRANCH   5  18
BRANCH   3  22
ATOM     22  C   LIG d   1      -0.373  74.767 114.015  0.00  0.00     0.382 C 
ATOM     23  O   LIG d   1       0.578  74.180 114.585  0.00  0.00    -0.241 OA
ATOM     24  O   LIG d   1      -0.529  74.633 112.786  0.00  0.00    -0.241 OA
ENDBRANCH   3  22
TORSDOF 7
ENDMDL
MODEL 4
REMARK VINA RESULT:      -4.9      2.012      4.878
REMARK  7 active torsions:
REMARK  status: ('A' for Active; 'I' for Inactive)
REMARK    1  A    between atoms: C_2  and  C_3 
REMARK    2  A    between atoms: C_3  and  O_6 
REMARK    3  A    between atoms: C_3  and  C_4 
REMARK    4  A    between atoms: C_7  and  O_6 
REMARK    5  A    between atoms: C_9  and  C_10 
REMARK    6  A    between atoms: N_15  and  C_14 
REMARK    7  A    between atoms: N_20  and  C_19 
REMARK       I    between atoms: C_22  and  N_20 
ROOT
ATOM      1  C   LIG d   1      -2.079  81.043 114.305  0.00  0.00     0.161 C 
ATOM      2  C   LIG d   1      -2.517  79.906 115.005  0.00  0.00     0.016 C 
ATOM      3  C   LIG d   1      -2.503  78.602 114.459  0.00  0.00     0.038 C 
ATOM      4  C   LIG d   1      -1.905  78.323 113.221  0.00  0.00     0.028 C 
ATOM      5  C   LIG d   1      -1.906  79.512 112.266  0.00  0.00    -0.047 C 
ATOM      6  C   LIG d   1      -1.320  80.743 112.995  0.00  0.00     0.091 C 
ENDROOT
BRANCH   1   7
ATOM      7  O   LIG d   1      -1.277  81.871 115.170  0.00  0.00    -0.368 OA
BRANCH   7   8
ATOM      8  C   LIG d   1      -1.999  82.814 115.999  0.00  0.00     0.119 C 
BRANCH   8   9
ATOM      9  C   LIG d   1      -1.581  84.231 115.560  0.00  0.00     0.028 C 
ATOM     10  C   LIG d   1      -0.223  84.650 116.147  0.00  0.00     0.006 C 
ENDBRANCH   8   9
BRANCH   8  11
ATOM     11  C   LIG d   1      -1.578  82.704 117.467  0.00  0.00     0.028 C 
ATOM     12  C   LIG d   1      -2.501  81.786 118.285  0.00  0.00     0.006 C 
ENDBRANCH   8  11
ENDBRANCH   7   8
ENDBRANCH   1   7
BRANCH   6  13
ATOM     13  N   LIG d   1      -1.363  81.971 112.159  0.00  0.00    -0.311 N 
ATOM     14  C   LIG d   1      -0.330  82.402 111.436  0.00  0.00     0.210 C 
ATOM     15  C   LIG d   1      -0.580  83.700 110.663  0.00  0.00     0.109 C 
ATOM     16  O   LIG d   1       0.758  81.815 111.337  0.00  0.00    -0.276 OA
ATOM     17  H   LIG d   1      -2.218  82.491 112.157  0.00  0.00     0.149 HD
ENDBRANCH   6  13
BRANCH   5  18
ATOM     18  N   LIG d   1      -1.132  79.125 111.072  0.00  0.00     0.381 N 
ATOM     19  H   LIG d   1      -1.645  79.360 110.245  0.00  0.00    -0.090 HD
ATOM     20  H   LIG d   1      -0.992  78.130 111.084  0.00  0.00    -0.090 HD
ATOM     21  H   LIG d   1      -0.252  79.592 111.069  0.00  0.00    -0.090 HD
ENDBRANCH   5  18
BRANCH   3  22
ATOM     22  C   LIG d   1      -3.128  77.567 115.137  0.00  0.00     0.382 C 
ATOM     23  O   LIG d   1      -2.532  76.981 116.073  0.00  0.00    -0.241 OA
ATOM     24  O   LIG d   1      -4.262  77.182 114.795  0.00  0.00    -0.241 OA
ENDBRANCH   3  22
TORSDOF 7
ENDMDL
MODEL 5
REMARK VINA RESULT:      -4.8      2.673      4.903
REMARK  7 active torsions:
REMARK  status: ('A' for Active; 'I' for Inactive)
REMARK    1  A    between atoms: C_2  and  C_3 
REMARK    2  A    between atoms: C_3  and  O_6 
REMARK    3  A    between atoms: C_3  and  C_4 
REMARK    4  A    between atoms: C_7  and  O_6 
REMARK    5  A    between atoms: C_9  and  C_10 
REMARK    6  A    between atoms: N_15  and  C_14 
REMARK    7  A    between atoms: N_20  and  C_19 
REMARK       I    between atoms: C_22  and  N_20 
ROOT
ATOM      1  C   LIG d   1      -2.114  78.207 114.767  0.00  0.00     0.161 C 
ATOM      2  C   LIG d   1      -2.327  79.099 113.703  0.00  0.00     0.016 C 
ATOM      3  C   LIG d   1      -2.331  80.505 113.855  0.00  0.00     0.038 C 
ATOM      4  C   LIG d   1      -1.969  81.121 115.062  0.00  0.00     0.028 C 
ATOM      5  C   LIG d   1      -2.240  80.255 116.288  0.00  0.00    -0.047 C 
ATOM      6  C   LIG d   1      -1.608  78.862 116.069  0.00  0.00     0.091 C 
ENDROOT
BRANCH   1   7
ATOM      7  O   LIG d   1      -1.217  77.157 114.352  0.00  0.00    -0.368 OA
BRANCH   7   8
ATOM      8  C   LIG d   1      -1.716  75.803 114.484  0.00  0.00     0.119 C 
BRANCH   8   9
ATOM      9  C   LIG d   1      -0.772  74.883 113.686  0.00  0.00     0.028 C 
ATOM     10  C   LIG d   1       0.483  74.494 114.485  0.00  0.00     0.006 C 
ENDBRANCH   8   9
BRANCH   8  11
ATOM     11  C   LIG d   1      -3.089  75.648 113.823  0.00  0.00     0.028 C 
ATOM     12  C   LIG d   1      -4.163  75.136 114.795  0.00  0.00     0.006 C 
ENDBRANCH   8  11
ENDBRANCH   7   8
ENDBRANCH   1   7
BRANCH   6  13
ATOM     13  N   LIG d   1      -1.899  77.925 117.186  0.00  0.00    -0.311 N 
ATOM     14  C   LIG d   1      -0.963  77.201 117.797  0.00  0.00     0.210 C 
ATOM     15  C   LIG d   1      -1.480  76.284 118.910  0.00  0.00     0.109 C 
ATOM     16  O   LIG d   1       0.250  77.254 117.545  0.00  0.00    -0.276 OA
ATOM     17  H   LIG d   1      -2.854  77.844 117.476  0.00  0.00     0.149 HD
ENDBRANCH   6  13
BRANCH   5  18
ATOM     18  N   LIG d   1      -1.691  80.961 117.462  0.00  0.00     0.381 N 
ATOM     19  H   LIG d   1      -2.253  80.768 118.267  0.00  0.00    -0.090 HD
ATOM     20  H   LIG d   1      -1.718  81.950 117.288  0.00  0.00    -0.090 HD
ATOM     21  H   LIG d   1      -0.752  80.671 117.625  0.00  0.00    -0.090 HD
ENDBRANCH   5  18
BRANCH   3  22
ATOM     22  C   LIG d   1      -2.738  81.309 112.801  0.00  0.00     0.382 C 
ATOM     23  O   LIG d   1      -3.934  81.289 112.423  0.00  0.00    -0.241 OA
ATOM     24  O   LIG d   1      -1.915  82.021 112.195  0.00  0.00    -0.241 OA
ENDBRANCH   3  22
TORSDOF 7
ENDMDL
MODEL 6
REMARK VINA RESULT:      -4.7      4.040      5.097
REMARK  7 active torsions:
REMARK  status: ('A' for Active; 'I' for Inactive)
REMARK    1  A    between atoms: C_2  and  C_3 
REMARK    2  A    between atoms: C_3  and  O_6 
REMARK    3  A    between atoms: C_3  and  C_4 
REMARK    4  A    between atoms: C_7  and  O_6 
REMARK    5  A    between atoms: C_9  and  C_10 
REMARK    6  A    between atoms: N_15  and  C_14 
REMARK    7  A    between atoms: N_20  and  C_19 
REMARK       I    between atoms: C_22  and  N_20 
ROOT
ATOM      1  C   LIG d   1      -3.930  77.729 116.719  0.00  0.00     0.161 C 
ATOM      2  C   LIG d   1      -3.156  78.586 117.518  0.00  0.00     0.016 C 
ATOM      3  C   LIG d   1      -1.815  78.924 117.225  0.00  0.00     0.038 C 
ATOM      4  C   LIG d   1      -1.200  78.543 116.022  0.00  0.00     0.028 C 
ATOM      5  C   LIG d   1      -1.775  77.262 115.428  0.00  0.00    -0.047 C 
ATOM      6  C   LIG d   1      -3.313  77.393 115.345  0.00  0.00     0.091 C 
ENDROOT
BRANCH   1   7
ATOM      7  O   LIG d   1      -5.253  78.276 116.553  0.00  0.00    -0.368 OA
BRANCH   7   8
ATOM      8  C   LIG d   1      -5.994  78.531 117.772  0.00  0.00     0.119 C 
BRANCH   8   9
ATOM      9  C   LIG d   1      -7.146  77.510 117.835  0.00  0.00     0.028 C 
ATOM     10  C   LIG d   1      -7.246  76.658 116.558  0.00  0.00     0.006 C 
ENDBRANCH   8   9
BRANCH   8  11
ATOM     11  C   LIG d   1      -6.671  79.904 117.735  0.00  0.00     0.028 C 
ATOM     12  C   LIG d   1      -5.718  81.048 118.117  0.00  0.00     0.006 C 
ENDBRANCH   8  11
ENDBRANCH   7   8
ENDBRANCH   1   7
BRANCH   6  13
ATOM     13  N   LIG d   1      -3.961  76.150 114.853  0.00  0.00    -0.311 N 
ATOM     14  C   LIG d   1      -4.510  76.038 113.644  0.00  0.00     0.210 C 
ATOM     15  C   LIG d   1      -5.143  74.676 113.344  0.00  0.00     0.109 C 
ATOM     16  O   LIG d   1      -4.503  76.928 112.779  0.00  0.00    -0.276 OA
ATOM     17  H   LIG d   1      -3.984  75.368 115.478  0.00  0.00     0.149 HD
ENDBRANCH   6  13
BRANCH   5  18
ATOM     18  N   LIG d   1      -1.140  77.058 114.112  0.00  0.00     0.381 N 
ATOM     19  H   LIG d   1      -0.192  77.376 114.140  0.00  0.00    -0.090 HD
ATOM     20  H   LIG d   1      -1.634  77.600 113.425  0.00  0.00    -0.090 HD
ATOM     21  H   LIG d   1      -1.167  76.092 113.866  0.00  0.00    -0.090 HD
ENDBRANCH   5  18
BRANCH   3  22
ATOM     22  C   LIG d   1      -1.060  79.618 118.159  0.00  0.00     0.382 C 
ATOM     23  O   LIG d   1      -1.627  80.364 118.993  0.00  0.00    -0.241 OA
ATOM     24  O   LIG d   1       0.183  79.541 118.150  0.00  0.00    -0.241 OA
ENDBRANCH   3  22
TORSDOF 7
ENDMDL
MODEL 7
REMARK VINA RESULT:      -4.7      2.364      3.600
REMARK  7 active torsions:
REMARK  status: ('A' for Active; 'I' for Inactive)
REMARK    1  A    between atoms: C_2  and  C_3 
REMARK    2  A    between atoms: C_3  and  O_6 
REMARK    3  A    between atoms: C_3  and  C_4 
REMARK    4  A    between atoms: C_7  and  O_6 
REMARK    5  A    between atoms: C_9  and  C_10 
REMARK    6  A    between atoms: N_15  and  C_14 
REMARK    7  A    between atoms: N_20  and  C_19 
REMARK       I    between atoms: C_22  and  N_20 
ROOT
ATOM      1  C   LIG d   1      -0.780  80.061 115.877  0.00  0.00     0.161 C 
ATOM      2  C   LIG d   1      -1.408  80.912 114.952  0.00  0.00     0.016 C 
ATOM      3  C   LIG d   1      -2.217  80.445 113.890  0.00  0.00     0.038 C 
ATOM      4  C   LIG d   1      -2.578  79.095 113.771  0.00  0.00     0.028 C 
ATOM      5  C   LIG d   1      -1.560  78.139 114.383  0.00  0.00    -0.047 C 
ATOM      6  C   LIG d   1      -1.253  78.592 115.829  0.00  0.00     0.091 C 
ENDROOT
BRANCH   1   7
ATOM      7  O   LIG d   1      -0.929  80.592 117.208  0.00  0.00    -0.368 OA
BRANCH   7   8
ATOM      8  C   LIG d   1      -1.981  81.570 117.390  0.00  0.00     0.119 C 
BRANCH   8   9
ATOM      9  C   LIG d   1      -1.436  82.668 118.324  0.00  0.00     0.028 C 
ATOM     10  C   LIG d   1      -0.211  83.386 117.733  0.00  0.00     0.006 C 
ENDBRANCH   8   9
BRANCH   8  11
ATOM     11  C   LIG d   1      -3.181  80.969 118.129  0.00  0.00     0.028 C 
ATOM     12  C   LIG d   1      -4.422  80.827 117.234  0.00  0.00     0.006 C 
ENDBRANCH   8  11
ENDBRANCH   7   8
ENDBRANCH   1   7
BRANCH   6  13
ATOM     13  N   LIG d   1      -0.202  77.761 116.472  0.00  0.00    -0.311 N 
ATOM     14  C   LIG d   1      -0.377  77.126 117.630  0.00  0.00     0.210 C 
ATOM     15  C   LIG d   1       0.840  76.340 118.127  0.00  0.00     0.109 C 
ATOM     16  O   LIG d   1      -1.435  77.113 118.277  0.00  0.00    -0.276 OA
ATOM     17  H   LIG d   1       0.677  77.691 116.000  0.00  0.00     0.149 HD
ENDBRANCH   6  13
BRANCH   5  18
ATOM     18  N   LIG d   1      -2.126  76.779 114.311  0.00  0.00     0.381 N 
ATOM     19  H   LIG d   1      -2.687  76.603 115.121  0.00  0.00    -0.090 HD
ATOM     20  H   LIG d   1      -1.373  76.114 114.299  0.00  0.00    -0.090 HD
ATOM     21  H   LIG d   1      -2.678  76.683 113.488  0.00  0.00    -0.090 HD
ENDBRANCH   5  18
BRANCH   3  22
ATOM     22  C   LIG d   1      -2.641  81.330 112.910  0.00  0.00     0.382 C 
ATOM     23  O   LIG d   1      -1.854  82.201 112.469  0.00  0.00    -0.241 OA
ATOM     24  O   LIG d   1      -3.814  81.296 112.493  0.00  0.00    -0.241 OA
ENDBRANCH   3  22
TORSDOF 7
ENDMDL
MODEL 8
REMARK VINA RESULT:      -4.7      2.468      3.544
REMARK  7 active torsions:
REMARK  status: ('A' for Active; 'I' for Inactive)
REMARK    1  A    between atoms: C_2  and  C_3 
REMARK    2  A    between atoms: C_3  and  O_6 
REMARK    3  A    between atoms: C_3  and  C_4 
REMARK    4  A    between atoms: C_7  and  O_6 
REMARK    5  A    between atoms: C_9  and  C_10 
REMARK    6  A    between atoms: N_15  and  C_14 
REMARK    7  A    between atoms: N_20  and  C_19 
REMARK       I    between atoms: C_22  and  N_20 
ROOT
ATOM      1  C   LIG d   1      -2.261  78.679 116.379  0.00  0.00     0.161 C 
ATOM      2  C   LIG d   1      -2.714  80.007 116.452  0.00  0.00     0.016 C 
ATOM      3  C   LIG d   1      -2.616  80.923 115.380  0.00  0.00     0.038 C 
ATOM      4  C   LIG d   1      -2.192  80.526 114.103  0.00  0.00     0.028 C 
ATOM      5  C   LIG d   1      -1.253  79.325 114.122  0.00  0.00    -0.047 C 
ATOM      6  C   LIG d   1      -1.898  78.197 114.959  0.00  0.00     0.091 C 
ENDROOT
BRANCH   1   7
ATOM      7  O   LIG d   1      -3.234  77.797 116.973  0.00  0.00    -0.368 OA
BRANCH   7   8
ATOM      8  C   LIG d   1      -4.557  77.817 116.383  0.00  0.00     0.119 C 
BRANCH   8   9
ATOM      9  C   LIG d   1      -5.575  77.945 117.533  0.00  0.00     0.028 C 
ATOM     10  C   LIG d   1      -6.199  79.349 117.610  0.00  0.00     0.006 C 
ENDBRANCH   8   9
BRANCH   8  11
ATOM     11  C   LIG d   1      -4.882  76.485 115.700  0.00  0.00     0.028 C 
ATOM     12  C   LIG d   1      -6.387  76.174 115.688  0.00  0.00     0.006 C 
ENDBRANCH   8  11
ENDBRANCH   7   8
ENDBRANCH   1   7
BRANCH   6  13
ATOM     13  N   LIG d   1      -1.008  77.015 115.099  0.00  0.00    -0.311 N 
ATOM     14  C   LIG d   1      -1.113  75.924 114.342  0.00  0.00     0.210 C 
ATOM     15  C   LIG d   1      -0.108  74.814 114.665  0.00  0.00     0.109 C 
ATOM     16  O   LIG d   1      -1.922  75.783 113.413  0.00  0.00    -0.276 OA
ATOM     17  H   LIG d   1      -0.302  77.057 115.808  0.00  0.00     0.149 HD
ENDBRANCH   6  13
BRANCH   5  18
ATOM     18  N   LIG d   1      -1.000  78.934 112.722  0.00  0.00     0.381 N 
ATOM     19  H   LIG d   1      -1.599  78.174 112.469  0.00  0.00    -0.090 HD
ATOM     20  H   LIG d   1      -0.047  78.627 112.637  0.00  0.00    -0.090 HD
ATOM     21  H   LIG d   1      -1.162  79.709 112.117  0.00  0.00    -0.090 HD
ENDBRANCH   5  18
BRANCH   3  22
ATOM     22  C   LIG d   1      -2.906  82.262 115.591  0.00  0.00     0.382 C 
ATOM     23  O   LIG d   1      -2.275  82.911 116.459  0.00  0.00    -0.241 OA
ATOM     24  O   LIG d   1      -3.822  82.818 114.956  0.00  0.00    -0.241 OA
ENDBRANCH   3  22
TORSDOF 7
ENDMDL
MODEL 9
REMARK VINA RESULT:      -4.7      2.614      4.416
REMARK  7 active torsions:
REMARK  status: ('A' for Active; 'I' for Inactive)
REMARK    1  A    between atoms: C_2  and  C_3 
REMARK    2  A    between atoms: C_3  and  O_6 
REMARK    3  A    between atoms: C_3  and  C_4 
REMARK    4  A    between atoms: C_7  and  O_6 
REMARK    5  A    between atoms: C_9  and  C_10 
REMARK    6  A    between atoms: N_15  and  C_14 
REMARK    7  A    between atoms: N_20  and  C_19 
REMARK       I    between atoms: C_22  and  N_20 
ROOT
ATOM      1  C   LIG d   1      -2.296  79.068 115.723  0.00  0.00     0.161 C 
ATOM      2  C   LIG d   1      -2.731  79.688 114.540  0.00  0.00     0.016 C 
ATOM      3  C   LIG d   1      -1.959  80.632 113.826  0.00  0.00     0.038 C 
ATOM      4  C   LIG d   1      -0.627  80.910 114.167  0.00  0.00     0.028 C 
ATOM      5  C   LIG d   1      -0.321  80.688 115.644  0.00  0.00    -0.047 C 
ATOM      6  C   LIG d   1      -0.802  79.275 116.049  0.00  0.00     0.091 C 
ENDROOT
BRANCH   1   7
ATOM      7  O   LIG d   1      -2.609  77.662 115.681  0.00  0.00    -0.368 OA
BRANCH   7   8
ATOM      8  C   LIG d   1      -2.273  76.969 114.454  0.00  0.00     0.119 C 
BRANCH   8   9
ATOM      9  C   LIG d   1      -3.433  76.008 114.132  0.00  0.00     0.028 C 
ATOM     10  C   LIG d   1      -4.610  76.160 115.111  0.00  0.00     0.006 C 
ENDBRANCH   8   9
BRANCH   8  11
ATOM     11  C   LIG d   1      -1.044  76.074 114.638  0.00  0.00     0.028 C 
ATOM     12  C   LIG d   1      -0.957  74.958 113.585  0.00  0.00     0.006 C 
ENDBRANCH   8  11
ENDBRANCH   7   8
ENDBRANCH   1   7
BRANCH   6  13
ATOM     13  N   LIG d   1      -0.617  79.007 117.499  0.00  0.00    -0.311 N 
ATOM     14  C   LIG d   1       0.220  78.086 117.973  0.00  0.00     0.210 C 
ATOM     15  C   LIG d   1       0.243  77.958 119.500  0.00  0.00     0.109 C 
ATOM     16  O   LIG d   1       0.969  77.385 117.276  0.00  0.00    -0.276 OA
ATOM     17  H   LIG d   1      -1.162  79.553 118.137  0.00  0.00     0.149 HD
ENDBRANCH   6  13
BRANCH   5  18
ATOM     18  N   LIG d   1       1.129  80.881 115.833  0.00  0.00     0.381 N 
ATOM     19  H   LIG d   1       1.401  81.775 115.477  0.00  0.00    -0.090 HD
ATOM     20  H   LIG d   1       1.622  80.173 115.316  0.00  0.00    -0.090 HD
ATOM     21  H   LIG d   1       1.359  80.816 116.800  0.00  0.00    -0.090 HD
ENDBRANCH   5  18
BRANCH   3  22
ATOM     22  C   LIG d   1      -2.532  81.340 112.780  0.00  0.00     0.382 C 
ATOM     23  O   LIG d   1      -3.763  81.240 112.556  0.00  0.00    -0.241 OA
ATOM     24  O   LIG d   1      -1.828  82.042 112.031  0.00  0.00    -0.241 OA
ENDBRANCH   3  22
TORSDOF 7
ENDMDL
