MODEL 1
REMARK VINA RESULT:      -4.9      0.000      0.000
REMARK  7 active torsions:
REMARK  status: ('A' for Active; 'I' for Inactive)
REMARK    1  A    between atoms: C_2  and  C_3 
REMARK    2  A    between atoms: C_3  and  O_6 
REMARK    3  A    between atoms: C_3  and  C_4 
REMARK    4  A    between atoms: C_7  and  O_6 
REMARK    5  A    between atoms: C_9  and  C_10 
REMARK    6  A    between atoms: N_15  and  C_14 
REMARK    7  A    between atoms: N_20  and  C_19 
REMARK       I    between atoms: C_22  and  N_20 
ROOT
ATOM      1  C   LIG d   1      -2.213  79.995 114.556  0.00  0.00     0.161 C 
ATOM      2  C   LIG d   1      -1.707  81.121 113.886  0.00  0.00     0.016 C 
ATOM      3  C   LIG d   1      -1.193  81.079 112.570  0.00  0.00     0.038 C 
ATOM      4  C   LIG d   1      -1.291  79.929 111.772  0.00  0.00     0.028 C 
ATOM      5  C   LIG d   1      -1.334  78.635 112.578  0.00  0.00    -0.047 C 
ATOM      6  C   LIG d   1      -2.430  78.755 113.662  0.00  0.00     0.091 C 
ENDROOT
BRANCH   1   7
ATOM      7  O   LIG d   1      -3.434  80.340 115.239  0.00  0.00    -0.368 OA
BRANCH   7   8
ATOM      8  C   LIG d   1      -3.301  80.712 116.633  0.00  0.00     0.119 C 
BRANCH   8   9
ATOM      9  C   LIG d   1      -2.217  79.808 117.252  0.00  0.00     0.028 C 
ATOM     10  C   LIG d   1      -2.812  78.592 117.981  0.00  0.00     0.006 C 
ENDBRANCH   8   9
BRANCH   8  11
ATOM     11  C   LIG d   1      -4.581  80.404 117.416  0.00  0.00     0.028 C 
ATOM     12  C   LIG d   1      -5.439  81.653 117.671  0.00  0.00     0.006 C 
ENDBRANCH   8  11
ENDBRANCH   7   8
ENDBRANCH   1   7
BRANCH   6  13
ATOM     13  N   LIG d   1      -2.482  77.565 114.550  0.00  0.00    -0.311 N 
ATOM     14  C   LIG d   1      -3.512  76.721 114.585  0.00  0.00     0.210 C 
ATOM     15  C   LIG d   1      -3.371  75.570 115.586  0.00  0.00     0.109 C 
ATOM     16  O   LIG d   1      -4.515  76.798 113.859  0.00  0.00    -0.276 OA
ATOM     17  H   LIG d   1      -1.696  77.409 115.150  0.00  0.00     0.149 HD
ENDBRANCH   6  13
BRANCH   5  18
ATOM     18  N   LIG d   1      -1.575  77.529 111.633  0.00  0.00     0.381 N 
ATOM     19  H   LIG d   1      -1.831  76.703 112.136  0.00  0.00    -0.090 HD
ATOM     20  H   LIG d   1      -0.727  77.341 111.129  0.00  0.00    -0.090 HD
ATOM     21  H   LIG d   1      -2.301  77.776 110.996  0.00  0.00    -0.090 HD
ENDBRANCH   5  18
BRANCH   3  22
ATOM     22  C   LIG d   1      -0.538  82.186 112.052  0.00  0.00     0.382 C 
ATOM     23  O   LIG d   1       0.588  82.514 112.499  0.00  0.00    -0.241 OA
ATOM     24  O   LIG d   1      -1.077  82.886 111.174  0.00  0.00    -0.241 OA
ENDBRANCH   3  22
TORSDOF 7
ENDMDL
MODEL 2
REMARK VINA RESULT:      -4.9      2.355      5.215
REMARK  7 active torsions:
REMARK  status: ('A' for Active; 'I' for Inactive)
REMARK    1  A    between atoms: C_2  and  C_3 
REMARK    2  A    between atoms: C_3  and  O_6 
REMARK    3  A    between atoms: C_3  and  C_4 
REMARK    4  A    between atoms: C_7  and  O_6 
REMARK    5  A    between atoms: C_9  and  C_10 
REMARK    6  A    between atoms: N_15  and  C_14 
REMARK    7  A    between atoms: N_20  and  C_19 
REMARK       I    between atoms: C_22  and  N_20 
ROOT
ATOM      1  C   LIG d   1      -1.769  80.704 113.994  0.00  0.00     0.161 C 
ATOM      2  C   LIG d   1      -2.281  79.473 114.435  0.00  0.00     0.016 C 
ATOM      3  C   LIG d   1      -2.310  78.309 113.632  0.00  0.00     0.038 C 
ATOM      4  C   LIG d   1      -1.686  78.259 112.377  0.00  0.00     0.028 C 
ATOM      5  C   LIG d   1      -1.601  79.617 111.688  0.00  0.00    -0.047 C 
ATOM      6  C   LIG d   1      -0.983  80.640 112.668  0.00  0.00     0.091 C 
ENDROOT
BRANCH   1   7
ATOM      7  O   LIG d   1      -0.958  81.295 115.029  0.00  0.00    -0.368 OA
BRANCH   7   8
ATOM      8  C   LIG d   1      -0.745  80.486 116.212  0.00  0.00     0.119 C 
BRANCH   8   9
ATOM      9  C   LIG d   1      -0.789  81.427 117.431  0.00  0.00     0.028 C 
ATOM     10  C   LIG d   1       0.312  82.500 117.384  0.00  0.00     0.006 C 
ENDBRANCH   8   9
BRANCH   8  11
ATOM     11  C   LIG d   1       0.659  79.873 116.222  0.00  0.00     0.028 C 
ATOM     12  C   LIG d   1       0.655  78.380 116.584  0.00  0.00     0.006 C 
ENDBRANCH   8  11
ENDBRANCH   7   8
ENDBRANCH   1   7
BRANCH   6  13
ATOM     13  N   LIG d   1      -0.942  82.014 112.102  0.00  0.00    -0.311 N 
ATOM     14  C   LIG d   1       0.091  82.490 111.409  0.00  0.00     0.210 C 
ATOM     15  C   LIG d   1      -0.063  83.938 110.933  0.00  0.00     0.109 C 
ATOM     16  O   LIG d   1       1.106  81.841 111.115  0.00  0.00    -0.276 OA
ATOM     17  H   LIG d   1      -1.738  82.598 112.266  0.00  0.00     0.149 HD
ENDBRANCH   6  13
BRANCH   5  18
ATOM     18  N   LIG d   1      -0.808  79.443 110.456  0.00  0.00     0.381 N 
ATOM     19  H   LIG d   1       0.162  79.362 110.687  0.00  0.00    -0.090 HD
ATOM     20  H   LIG d   1      -0.927  80.254 109.876  0.00  0.00    -0.090 HD
ATOM     21  H   LIG d   1      -1.110  78.629 109.968  0.00  0.00    -0.090 HD
ENDBRANCH   5  18
BRANCH   3  22
ATOM     22  C   LIG d   1      -3.004  77.191 114.068  0.00  0.00     0.382 C 
ATOM     23  O   LIG d   1      -2.485  76.421 114.912  0.00  0.00    -0.241 OA
ATOM     24  O   LIG d   1      -4.123  76.917 113.594  0.00  0.00    -0.241 OA
ENDBRANCH   3  22
TORSDOF 7
ENDMDL
MODEL 3
REMARK VINA RESULT:      -4.8      2.615      3.874
REMARK  7 active torsions:
REMARK  status: ('A' for Active; 'I' for Inactive)
REMARK    1  A    between atoms: C_2  and  C_3 
REMARK    2  A    between atoms: C_3  and  O_6 
REMARK    3  A    between atoms: C_3  and  C_4 
REMARK    4  A    between atoms: C_7  and  O_6 
REMARK    5  A    between atoms: C_9  and  C_10 
REMARK    6  A    between atoms: N_15  and  C_14 
REMARK    7  A    between atoms: N_20  and  C_19 
REMARK       I    between atoms: C_22  and  N_20 
ROOT
ATOM      1  C   LIG d   1      -2.321  78.248 114.986  0.00  0.00     0.161 C 
ATOM      2  C   LIG d   1      -2.714  79.255 114.088  0.00  0.00     0.016 C 
ATOM      3  C   LIG d   1      -1.844  80.271 113.630  0.00  0.00     0.038 C 
ATOM      4  C   LIG d   1      -0.472  80.261 113.923  0.00  0.00     0.028 C 
ATOM      5  C   LIG d   1      -0.138  79.552 115.231  0.00  0.00    -0.047 C 
ATOM      6  C   LIG d   1      -0.800  78.155 115.229  0.00  0.00     0.091 C 
ENDROOT
BRANCH   1   7
ATOM      7  O   LIG d   1      -2.836  76.975 114.547  0.00  0.00    -0.368 OA
BRANCH   7   8
ATOM      8  C   LIG d   1      -4.009  76.488 115.245  0.00  0.00     0.119 C 
BRANCH   8   9
ATOM      9  C   LIG d   1      -3.574  75.271 116.086  0.00  0.00     0.028 C 
ATOM     10  C   LIG d   1      -3.704  75.526 117.597  0.00  0.00     0.006 C 
ENDBRANCH   8   9
BRANCH   8  11
ATOM     11  C   LIG d   1      -5.057  75.951 114.267  0.00  0.00     0.028 C 
ATOM     12  C   LIG d   1      -5.449  74.493 114.554  0.00  0.00     0.006 C 
ENDBRANCH   8  11
ENDBRANCH   7   8
ENDBRANCH   1   7
BRANCH   6  13
ATOM     13  N   LIG d   1      -0.593  77.427 116.508  0.00  0.00    -0.311 N 
ATOM     14  C   LIG d   1      -0.163  76.168 116.573  0.00  0.00     0.210 C 
ATOM     15  C   LIG d   1      -0.037  75.601 117.991  0.00  0.00     0.109 C 
ATOM     16  O   LIG d   1       0.157  75.478 115.593  0.00  0.00    -0.276 OA
ATOM     17  H   LIG d   1      -0.798  77.923 117.353  0.00  0.00     0.149 HD
ENDBRANCH   6  13
BRANCH   5  18
ATOM     18  N   LIG d   1       1.332  79.495 115.344  0.00  0.00     0.381 N 
ATOM     19  H   LIG d   1       1.750  79.824 114.496  0.00  0.00    -0.090 HD
ATOM     20  H   LIG d   1       1.610  78.539 115.481  0.00  0.00    -0.090 HD
ATOM     21  H   LIG d   1       1.637  80.051 116.111  0.00  0.00    -0.090 HD
ENDBRANCH   5  18
BRANCH   3  22
ATOM     22  C   LIG d   1      -2.354  81.336 112.903  0.00  0.00     0.382 C 
ATOM     23  O   LIG d   1      -1.631  82.330 112.655  0.00  0.00    -0.241 OA
ATOM     24  O   LIG d   1      -3.542  81.333 112.528  0.00  0.00    -0.241 OA
ENDBRANCH   3  22
TORSDOF 7
ENDMDL
MODEL 4
REMARK VINA RESULT:      -4.7      4.243      6.143
REMARK  7 active torsions:
REMARK  status: ('A' for Active; 'I' for Inactive)
REMARK    1  A    between atoms: C_2  and  C_3 
REMARK    2  A    between atoms: C_3  and  O_6 
REMARK    3  A    between atoms: C_3  and  C_4 
REMARK    4  A    between atoms: C_7  and  O_6 
REMARK    5  A    between atoms: C_9  and  C_10 
REMARK    6  A    between atoms: N_15  and  C_14 
REMARK    7  A    between atoms: N_20  and  C_19 
REMARK       I    between atoms: C_22  and  N_20 
ROOT
ATOM      1  C   LIG d   1      -5.593  77.258 117.290  0.00  0.00     0.161 C 
ATOM      2  C   LIG d   1      -6.330  78.397 117.659  0.00  0.00     0.016 C 
ATOM      3  C   LIG d   1      -5.774  79.695 117.723  0.00  0.00     0.038 C 
ATOM      4  C   LIG d   1      -4.474  79.968 117.274  0.00  0.00     0.028 C 
ATOM      5  C   LIG d   1      -3.535  78.770 117.371  0.00  0.00    -0.047 C 
ATOM      6  C   LIG d   1      -4.203  77.554 116.690  0.00  0.00     0.091 C 
ENDROOT
BRANCH   1   7
ATOM      7  O   LIG d   1      -6.368  76.448 116.384  0.00  0.00    -0.368 OA
BRANCH   7   8
ATOM      8  C   LIG d   1      -6.570  75.068 116.777  0.00  0.00     0.119 C 
BRANCH   8   9
ATOM      9  C   LIG d   1      -6.110  74.181 115.604  0.00  0.00     0.028 C 
ATOM     10  C   LIG d   1      -5.790  74.997 114.341  0.00  0.00     0.006 C 
ENDBRANCH   8   9
BRANCH   8  11
ATOM     11  C   LIG d   1      -8.057  74.753 116.965  0.00  0.00     0.028 C 
ATOM     12  C   LIG d   1      -8.972  75.734 116.215  0.00  0.00     0.006 C 
ENDBRANCH   8  11
ENDBRANCH   7   8
ENDBRANCH   1   7
BRANCH   6  13
ATOM     13  N   LIG d   1      -3.388  76.317 116.814  0.00  0.00    -0.311 N 
ATOM     14  C   LIG d   1      -2.604  75.855 115.841  0.00  0.00     0.210 C 
ATOM     15  C   LIG d   1      -1.866  74.554 116.168  0.00  0.00     0.109 C 
ATOM     16  O   LIG d   1      -2.426  76.417 114.749  0.00  0.00    -0.276 OA
ATOM     17  H   LIG d   1      -3.449  75.815 117.678  0.00  0.00     0.149 HD
ENDBRANCH   6  13
BRANCH   5  18
ATOM     18  N   LIG d   1      -2.256  79.154 116.744  0.00  0.00     0.381 N 
ATOM     19  H   LIG d   1      -1.737  78.333 116.504  0.00  0.00    -0.090 HD
ATOM     20  H   LIG d   1      -1.717  79.686 117.405  0.00  0.00    -0.090 HD
ATOM     21  H   LIG d   1      -2.427  79.699 115.928  0.00  0.00    -0.090 HD
ENDBRANCH   5  18
BRANCH   3  22
ATOM     22  C   LIG d   1      -6.510  80.731 118.279  0.00  0.00     0.382 C 
ATOM     23  O   LIG d   1      -6.318  81.066 119.472  0.00  0.00    -0.241 OA
ATOM     24  O   LIG d   1      -7.396  81.303 117.616  0.00  0.00    -0.241 OA
ENDBRANCH   3  22
TORSDOF 7
ENDMDL
MODEL 5
REMARK VINA RESULT:      -4.7      3.009      4.414
REMARK  7 active torsions:
REMARK  status: ('A' for Active; 'I' for Inactive)
REMARK    1  A    between atoms: C_2  and  C_3 
REMARK    2  A    between atoms: C_3  and  O_6 
REMARK    3  A    between atoms: C_3  and  C_4 
REMARK    4  A    between atoms: C_7  and  O_6 
REMARK    5  A    between atoms: C_9  and  C_10 
REMARK    6  A    between atoms: N_15  and  C_14 
REMARK    7  A    between atoms: N_20  and  C_19 
REMARK       I    between atoms: C_22  and  N_20 
ROOT
ATOM      1  C   LIG d   1      -2.873  76.836 115.178  0.00  0.00     0.161 C 
ATOM      2  C   LIG d   1      -3.051  77.694 114.080  0.00  0.00     0.016 C 
ATOM      3  C   LIG d   1      -2.088  78.645 113.670  0.00  0.00     0.038 C 
ATOM      4  C   LIG d   1      -0.809  78.698 114.243  0.00  0.00     0.028 C 
ATOM      5  C   LIG d   1      -0.768  78.195 115.682  0.00  0.00    -0.047 C 
ATOM      6  C   LIG d   1      -1.438  76.803 115.746  0.00  0.00     0.091 C 
ENDROOT
BRANCH   1   7
ATOM      7  O   LIG d   1      -3.306  75.506 114.833  0.00  0.00    -0.368 OA
BRANCH   7   8
ATOM      8  C   LIG d   1      -4.448  74.998 115.566  0.00  0.00     0.119 C 
BRANCH   8   9
ATOM      9  C   LIG d   1      -5.541  74.651 114.536  0.00  0.00     0.028 C 
ATOM     10  C   LIG d   1      -6.444  75.853 114.212  0.00  0.00     0.006 C 
ENDBRANCH   8   9
BRANCH   8  11
ATOM     11  C   LIG d   1      -5.062  76.079 116.461  0.00  0.00     0.028 C 
ATOM     12  C   LIG d   1      -5.089  75.679 117.944  0.00  0.00     0.006 C 
ENDBRANCH   8  11
ENDBRANCH   7   8
ENDBRANCH   1   7
BRANCH   6  13
ATOM     13  N   LIG d   1      -1.516  76.275 117.133  0.00  0.00    -0.311 N 
ATOM     14  C   LIG d   1      -1.189  75.027 117.461  0.00  0.00     0.210 C 
ATOM     15  C   LIG d   1      -1.361  74.682 118.944  0.00  0.00     0.109 C 
ATOM     16  O   LIG d   1      -0.742  74.182 116.671  0.00  0.00    -0.276 OA
ATOM     17  H   LIG d   1      -1.839  76.903 117.843  0.00  0.00     0.149 HD
ENDBRANCH   6  13
BRANCH   5  18
ATOM     18  N   LIG d   1       0.644  78.176 116.107  0.00  0.00     0.381 N 
ATOM     19  H   LIG d   1       1.206  78.664 115.439  0.00  0.00    -0.090 HD
ATOM     20  H   LIG d   1       0.959  77.223 116.148  0.00  0.00    -0.090 HD
ATOM     21  H   LIG d   1       0.736  78.602 117.003  0.00  0.00    -0.090 HD
ENDBRANCH   5  18
BRANCH   3  22
ATOM     22  C   LIG d   1      -2.416  79.582 112.702  0.00  0.00     0.382 C 
ATOM     23  O   LIG d   1      -1.783  79.614 111.620  0.00  0.00    -0.241 OA
ATOM     24  O   LIG d   1      -3.307  80.425 112.916  0.00  0.00    -0.241 OA
ENDBRANCH   3  22
TORSDOF 7
ENDMDL
MODEL 6
REMARK VINA RESULT:      -4.6      4.385      6.378
REMARK  7 active torsions:
REMARK  status: ('A' for Active; 'I' for Inactive)
REMARK    1  A    between atoms: C_2  and  C_3 
REMARK    2  A    between atoms: C_3  and  O_6 
REMARK    3  A    between atoms: C_3  and  C_4 
REMARK    4  A    between atoms: C_7  and  O_6 
REMARK    5  A    between atoms: C_9  and  C_10 
REMARK    6  A    between atoms: N_15  and  C_14 
REMARK    7  A    between atoms: N_20  and  C_19 
REMARK       I    between atoms: C_22  and  N_20 
ROOT
ATOM      1  C   LIG d   1      -5.377  76.878 117.552  0.00  0.00     0.161 C 
ATOM      2  C   LIG d   1      -6.274  77.903 117.897  0.00  0.00     0.016 C 
ATOM      3  C   LIG d   1      -5.947  79.277 117.837  0.00  0.00     0.038 C 
ATOM      4  C   LIG d   1      -4.741  79.728 117.280  0.00  0.00     0.028 C 
ATOM      5  C   LIG d   1      -3.607  78.714 117.388  0.00  0.00    -0.047 C 
ATOM      6  C   LIG d   1      -4.095  77.355 116.837  0.00  0.00     0.091 C 
ENDROOT
BRANCH   1   7
ATOM      7  O   LIG d   1      -6.053  75.883 116.758  0.00  0.00    -0.368 OA
BRANCH   7   8
ATOM      8  C   LIG d   1      -6.607  76.341 115.500  0.00  0.00     0.119 C 
BRANCH   8   9
ATOM      9  C   LIG d   1      -8.107  75.987 115.498  0.00  0.00     0.028 C 
ATOM     10  C   LIG d   1      -8.479  75.002 116.620  0.00  0.00     0.006 C 
ENDBRANCH   8   9
BRANCH   8  11
ATOM     11  C   LIG d   1      -6.009  75.574 114.316  0.00  0.00     0.028 C 
ATOM     12  C   LIG d   1      -5.491  74.181 114.709  0.00  0.00     0.006 C 
ENDBRANCH   8  11
ENDBRANCH   7   8
ENDBRANCH   1   7
BRANCH   6  13
ATOM     13  N   LIG d   1      -3.075  76.285 116.982  0.00  0.00    -0.311 N 
ATOM     14  C   LIG d   1      -2.427  75.745 115.951  0.00  0.00     0.210 C 
ATOM     15  C   LIG d   1      -1.430  74.642 116.320  0.00  0.00     0.109 C 
ATOM     16  O   LIG d   1      -2.560  76.096 114.769  0.00  0.00    -0.276 OA
ATOM     17  H   LIG d   1      -2.882  75.961 117.909  0.00  0.00     0.149 HD
ENDBRANCH   6  13
BRANCH   5  18
ATOM     18  N   LIG d   1      -2.452  79.257 116.648  0.00  0.00     0.381 N 
ATOM     19  H   LIG d   1      -2.735  80.058 116.119  0.00  0.00    -0.090 HD
ATOM     20  H   LIG d   1      -2.119  78.558 116.008  0.00  0.00    -0.090 HD
ATOM     21  H   LIG d   1      -1.728  79.509 117.283  0.00  0.00    -0.090 HD
ENDBRANCH   5  18
BRANCH   3  22
ATOM     22  C   LIG d   1      -6.815  80.214 118.376  0.00  0.00     0.382 C 
ATOM     23  O   LIG d   1      -7.337  81.082 117.636  0.00  0.00    -0.241 OA
ATOM     24  O   LIG d   1      -7.049  80.230 119.599  0.00  0.00    -0.241 OA
ENDBRANCH   3  22
TORSDOF 7
ENDMDL
MODEL 7
REMARK VINA RESULT:      -4.5      2.008      2.499
REMARK  7 active torsions:
REMARK  status: ('A' for Active; 'I' for Inactive)
REMARK    1  A    between atoms: C_2  and  C_3 
REMARK    2  A    between atoms: C_3  and  O_6 
REMARK    3  A    between atoms: C_3  and  C_4 
REMARK    4  A    between atoms: C_7  and  O_6 
REMARK    5  A    between atoms: C_9  and  C_10 
REMARK    6  A    between atoms: N_15  and  C_14 
REMARK    7  A    between atoms: N_20  and  C_19 
REMARK       I    between atoms: C_22  and  N_20 
ROOT
ATOM      1  C   LIG d   1      -2.701  79.602 116.130  0.00  0.00     0.161 C 
ATOM      2  C   LIG d   1      -2.805  80.482 115.040  0.00  0.00     0.016 C 
ATOM      3  C   LIG d   1      -2.262  80.208 113.764  0.00  0.00     0.038 C 
ATOM      4  C   LIG d   1      -1.704  78.960 113.448  0.00  0.00     0.028 C 
ATOM      5  C   LIG d   1      -1.127  78.231 114.657  0.00  0.00    -0.047 C 
ATOM      6  C   LIG d   1      -2.194  78.189 115.774  0.00  0.00     0.091 C 
ENDROOT
BRANCH   1   7
ATOM      7  O   LIG d   1      -3.966  79.523 116.816  0.00  0.00    -0.368 OA
BRANCH   7   8
ATOM      8  C   LIG d   1      -4.421  80.740 117.458  0.00  0.00     0.119 C 
BRANCH   8   9
ATOM      9  C   LIG d   1      -3.735  80.821 118.835  0.00  0.00     0.028 C 
ATOM     10  C   LIG d   1      -2.844  82.067 118.975  0.00  0.00     0.006 C 
ENDBRANCH   8   9
BRANCH   8  11
ATOM     11  C   LIG d   1      -5.922  80.685 117.755  0.00  0.00     0.028 C 
ATOM     12  C   LIG d   1      -6.584  82.073 117.738  0.00  0.00     0.006 C 
ENDBRANCH   8  11
ENDBRANCH   7   8
ENDBRANCH   1   7
BRANCH   6  13
ATOM     13  N   LIG d   1      -1.683  77.567 117.024  0.00  0.00    -0.311 N 
ATOM     14  C   LIG d   1      -1.836  76.277 117.316  0.00  0.00     0.210 C 
ATOM     15  C   LIG d   1      -1.250  75.845 118.664  0.00  0.00     0.109 C 
ATOM     16  O   LIG d   1      -2.373  75.442 116.572  0.00  0.00    -0.276 OA
ATOM     17  H   LIG d   1      -1.207  78.166 117.669  0.00  0.00     0.149 HD
ENDBRANCH   6  13
BRANCH   5  18
ATOM     18  N   LIG d   1      -0.706  76.890 114.209  0.00  0.00     0.381 N 
ATOM     19  H   LIG d   1       0.293  76.840 114.184  0.00  0.00    -0.090 HD
ATOM     20  H   LIG d   1      -1.053  76.733 113.280  0.00  0.00    -0.090 HD
ATOM     21  H   LIG d   1      -1.065  76.196 114.827  0.00  0.00    -0.090 HD
ENDBRANCH   5  18
BRANCH   3  22
ATOM     22  C   LIG d   1      -2.237  81.203 112.799  0.00  0.00     0.382 C 
ATOM     23  O   LIG d   1      -3.115  82.099 112.800  0.00  0.00    -0.241 OA
ATOM     24  O   LIG d   1      -1.373  81.192 111.901  0.00  0.00    -0.241 OA
ENDBRANCH   3  22
TORSDOF 7
ENDMDL
MODEL 8
REMARK VINA RESULT:      -4.4      2.389      3.116
REMARK  7 active torsions:
REMARK  status: ('A' for Active; 'I' for Inactive)
REMARK    1  A    between atoms: C_2  and  C_3 
REMARK    2  A    between atoms: C_3  and  O_6 
REMARK    3  A    between atoms: C_3  and  C_4 
REMARK    4  A    between atoms: C_7  and  O_6 
REMARK    5  A    between atoms: C_9  and  C_10 
REMARK    6  A    between atoms: N_15  and  C_14 
REMARK    7  A    between atoms: N_20  and  C_19 
REMARK       I    between atoms: C_22  and  N_20 
ROOT
ATOM      1  C   LIG d   1      -3.064  78.980 116.657  0.00  0.00     0.161 C 
ATOM      2  C   LIG d   1      -2.232  80.099 116.831  0.00  0.00     0.016 C 
ATOM      3  C   LIG d   1      -1.006  80.271 116.147  0.00  0.00     0.038 C 
ATOM      4  C   LIG d   1      -0.600  79.401 115.124  0.00  0.00     0.028 C 
ATOM      5  C   LIG d   1      -1.160  77.990 115.270  0.00  0.00    -0.047 C 
ATOM      6  C   LIG d   1      -2.691  78.076 115.464  0.00  0.00     0.091 C 
ENDROOT
BRANCH   1   7
ATOM      7  O   LIG d   1      -4.438  79.404 116.555  0.00  0.00    -0.368 OA
BRANCH   7   8
ATOM      8  C   LIG d   1      -5.272  79.146 117.711  0.00  0.00     0.119 C 
BRANCH   8   9
ATOM      9  C   LIG d   1      -6.229  77.995 117.343  0.00  0.00     0.028 C 
ATOM     10  C   LIG d   1      -7.505  77.996 118.202  0.00  0.00     0.006 C 
ENDBRANCH   8   9
BRANCH   8  11
ATOM     11  C   LIG d   1      -6.177  80.341 118.024  0.00  0.00     0.028 C 
ATOM     12  C   LIG d   1      -5.535  81.687 117.651  0.00  0.00     0.006 C 
ENDBRANCH   8  11
ENDBRANCH   7   8
ENDBRANCH   1   7
BRANCH   6  13
ATOM     13  N   LIG d   1      -3.308  76.745 115.698  0.00  0.00    -0.311 N 
ATOM     14  C   LIG d   1      -4.124  76.151 114.828  0.00  0.00     0.210 C 
ATOM     15  C   LIG d   1      -4.666  74.790 115.275  0.00  0.00     0.109 C 
ATOM     16  O   LIG d   1      -4.425  76.608 113.715  0.00  0.00    -0.276 OA
ATOM     17  H   LIG d   1      -3.093  76.288 116.563  0.00  0.00     0.149 HD
ENDBRANCH   6  13
BRANCH   5  18
ATOM     18  N   LIG d   1      -0.771  77.230 114.067  0.00  0.00     0.381 N 
ATOM     19  H   LIG d   1      -0.825  77.821 113.261  0.00  0.00    -0.090 HD
ATOM     20  H   LIG d   1      -1.414  76.468 113.942  0.00  0.00    -0.090 HD
ATOM     21  H   LIG d   1       0.155  76.880 114.170  0.00  0.00    -0.090 HD
ENDBRANCH   5  18
BRANCH   3  22
ATOM     22  C   LIG d   1      -0.153  81.300 116.514  0.00  0.00     0.382 C 
ATOM     23  O   LIG d   1      -0.058  81.636 117.719  0.00  0.00    -0.241 OA
ATOM     24  O   LIG d   1       0.488  81.927 115.650  0.00  0.00    -0.241 OA
ENDBRANCH   3  22
TORSDOF 7
ENDMDL
MODEL 9
REMARK VINA RESULT:      -4.2      4.011      7.667
REMARK  7 active torsions:
REMARK  status: ('A' for Active; 'I' for Inactive)
REMARK    1  A    between atoms: C_2  and  C_3 
REMARK    2  A    between atoms: C_3  and  O_6 
REMARK    3  A    between atoms: C_3  and  C_4 
REMARK    4  A    between atoms: C_7  and  O_6 
REMARK    5  A    between atoms: C_9  and  C_10 
REMARK    6  A    between atoms: N_15  and  C_14 
REMARK    7  A    between atoms: N_20  and  C_19 
REMARK       I    between atoms: C_22  and  N_20 
ROOT
ATOM      1  C   LIG d   1      -5.420  78.000 117.435  0.00  0.00     0.161 C 
ATOM      2  C   LIG d   1      -5.953  76.720 117.210  0.00  0.00     0.016 C 
ATOM      3  C   LIG d   1      -7.309  76.391 117.437  0.00  0.00     0.038 C 
ATOM      4  C   LIG d   1      -8.264  77.366 117.761  0.00  0.00     0.028 C 
ATOM      5  C   LIG d   1      -7.677  78.571 118.488  0.00  0.00    -0.047 C 
ATOM      6  C   LIG d   1      -6.470  79.103 117.682  0.00  0.00     0.091 C 
ENDROOT
BRANCH   1   7
ATOM      7  O   LIG d   1      -4.555  78.367 116.342  0.00  0.00    -0.368 OA
BRANCH   7   8
ATOM      8  C   LIG d   1      -3.159  78.010 116.486  0.00  0.00     0.119 C 
BRANCH   8   9
ATOM      9  C   LIG d   1      -2.321  79.207 115.995  0.00  0.00     0.028 C 
ATOM     10  C   LIG d   1      -3.076  80.541 116.117  0.00  0.00     0.006 C 
ENDBRANCH   8   9
BRANCH   8  11
ATOM     11  C   LIG d   1      -2.783  76.846 115.563  0.00  0.00     0.028 C 
ATOM     12  C   LIG d   1      -2.114  77.311 114.260  0.00  0.00     0.006 C 
ENDBRANCH   8  11
ENDBRANCH   7   8
ENDBRANCH   1   7
BRANCH   6  13
ATOM     13  N   LIG d   1      -5.785  80.231 118.366  0.00  0.00    -0.311 N 
ATOM     14  C   LIG d   1      -6.021  81.511 118.086  0.00  0.00     0.210 C 
ATOM     15  C   LIG d   1      -5.192  82.514 118.894  0.00  0.00     0.109 C 
ATOM     16  O   LIG d   1      -6.862  81.912 117.267  0.00  0.00    -0.276 OA
ATOM     17  H   LIG d   1      -5.109  79.996 119.067  0.00  0.00     0.149 HD
ENDBRANCH   6  13
BRANCH   5  18
ATOM     18  N   LIG d   1      -8.754  79.567 118.642  0.00  0.00     0.381 N 
ATOM     19  H   LIG d   1      -8.458  80.292 119.264  0.00  0.00    -0.090 HD
ATOM     20  H   LIG d   1      -9.558  79.117 119.042  0.00  0.00    -0.090 HD
ATOM     21  H   LIG d   1      -8.989  79.955 117.755  0.00  0.00    -0.090 HD
ENDBRANCH   5  18
BRANCH   3  22
ATOM     22  C   LIG d   1      -7.714  75.066 117.378  0.00  0.00     0.382 C 
ATOM     23  O   LIG d   1      -8.765  74.758 116.765  0.00  0.00    -0.241 OA
ATOM     24  O   LIG d   1      -7.066  74.180 117.966  0.00  0.00    -0.241 OA
ENDBRANCH   3  22
TORSDOF 7
ENDMDL
