MODEL 1
REMARK VINA RESULT:      -5.5      0.000      0.000
REMARK  7 active torsions:
REMARK  status: ('A' for Active; 'I' for Inactive)
REMARK    1  A    between atoms: C_2  and  C_3 
REMARK    2  A    between atoms: C_3  and  O_6 
REMARK    3  A    between atoms: C_3  and  C_4 
REMARK    4  A    between atoms: C_7  and  O_6 
REMARK    5  A    between atoms: C_9  and  C_10 
REMARK    6  A    between atoms: N_15  and  C_14 
REMARK    7  A    between atoms: N_20  and  C_19 
REMARK       I    between atoms: C_22  and  N_20 
ROOT
ATOM      1  C   LIG d   1      -3.070  78.332 115.674  0.00  0.00     0.161 C 
ATOM      2  C   LIG d   1      -3.197  79.378 114.744  0.00  0.00     0.016 C 
ATOM      3  C   LIG d   1      -2.457  79.444 113.541  0.00  0.00     0.038 C 
ATOM      4  C   LIG d   1      -1.644  78.384 113.112  0.00  0.00     0.028 C 
ATOM      5  C   LIG d   1      -1.097  77.538 114.257  0.00  0.00    -0.047 C 
ATOM      6  C   LIG d   1      -2.270  77.113 115.170  0.00  0.00     0.091 C 
ENDROOT
BRANCH   1   7
ATOM      7  O   LIG d   1      -4.374  77.923 116.130  0.00  0.00    -0.368 OA
BRANCH   7   8
ATOM      8  C   LIG d   1      -4.743  78.342 117.467  0.00  0.00     0.119 C 
BRANCH   8   9
ATOM      9  C   LIG d   1      -4.805  77.079 118.347  0.00  0.00     0.028 C 
ATOM     10  C   LIG d   1      -3.663  77.024 119.376  0.00  0.00     0.006 C 
ENDBRANCH   8   9
BRANCH   8  11
ATOM     11  C   LIG d   1      -6.157  78.927 117.497  0.00  0.00     0.028 C 
ATOM     12  C   LIG d   1      -6.170  80.442 117.760  0.00  0.00     0.006 C 
ENDBRANCH   8  11
ENDBRANCH   7   8
ENDBRANCH   1   7
BRANCH   6  13
ATOM     13  N   LIG d   1      -1.813  76.352 116.362  0.00  0.00    -0.311 N 
ATOM     14  C   LIG d   1      -1.726  75.023 116.394  0.00  0.00     0.210 C 
ATOM     15  C   LIG d   1      -1.251  74.438 117.728  0.00  0.00     0.109 C 
ATOM     16  O   LIG d   1      -1.966  74.275 115.435  0.00  0.00    -0.276 OA
ATOM     17  H   LIG d   1      -1.568  76.882 117.175  0.00  0.00     0.149 HD
ENDBRANCH   6  13
BRANCH   5  18
ATOM     18  N   LIG d   1      -0.383  76.392 113.662  0.00  0.00     0.381 N 
ATOM     19  H   LIG d   1      -1.036  75.779 113.217  0.00  0.00    -0.090 HD
ATOM     20  H   LIG d   1       0.079  75.882 114.395  0.00  0.00    -0.090 HD
ATOM     21  H   LIG d   1       0.286  76.715 112.999  0.00  0.00    -0.090 HD
ENDBRANCH   5  18
BRANCH   3  22
ATOM     22  C   LIG d   1      -2.496  80.597 112.772  0.00  0.00     0.382 C 
ATOM     23  O   LIG d   1      -3.424  81.426 112.932  0.00  0.00    -0.241 OA
ATOM     24  O   LIG d   1      -1.639  80.798 111.891  0.00  0.00    -0.241 OA
ENDBRANCH   3  22
TORSDOF 7
ENDMDL
MODEL 2
REMARK VINA RESULT:      -5.4      2.306      2.873
REMARK  7 active torsions:
REMARK  status: ('A' for Active; 'I' for Inactive)
REMARK    1  A    between atoms: C_2  and  C_3 
REMARK    2  A    between atoms: C_3  and  O_6 
REMARK    3  A    between atoms: C_3  and  C_4 
REMARK    4  A    between atoms: C_7  and  O_6 
REMARK    5  A    between atoms: C_9  and  C_10 
REMARK    6  A    between atoms: N_15  and  C_14 
REMARK    7  A    between atoms: N_20  and  C_19 
REMARK       I    between atoms: C_22  and  N_20 
ROOT
ATOM      1  C   LIG d   1      -3.558  76.476 115.044  0.00  0.00     0.161 C 
ATOM      2  C   LIG d   1      -3.619  76.851 113.691  0.00  0.00     0.016 C 
ATOM      3  C   LIG d   1      -2.495  77.289 112.954  0.00  0.00     0.038 C 
ATOM      4  C   LIG d   1      -1.196  77.237 113.481  0.00  0.00     0.028 C 
ATOM      5  C   LIG d   1      -1.155  77.344 115.002  0.00  0.00    -0.047 C 
ATOM      6  C   LIG d   1      -2.131  76.307 115.604  0.00  0.00     0.091 C 
ENDROOT
BRANCH   1   7
ATOM      7  O   LIG d   1      -4.324  75.273 115.252  0.00  0.00    -0.368 OA
BRANCH   7   8
ATOM      8  C   LIG d   1      -5.448  75.382 116.159  0.00  0.00     0.119 C 
BRANCH   8   9
ATOM      9  C   LIG d   1      -6.705  74.916 115.397  0.00  0.00     0.028 C 
ATOM     10  C   LIG d   1      -7.112  75.896 114.284  0.00  0.00     0.006 C 
ENDBRANCH   8   9
BRANCH   8  11
ATOM     11  C   LIG d   1      -5.720  76.841 116.536  0.00  0.00     0.028 C 
ATOM     12  C   LIG d   1      -5.869  77.047 118.052  0.00  0.00     0.006 C 
ENDBRANCH   8  11
ENDBRANCH   7   8
ENDBRANCH   1   7
BRANCH   6  13
ATOM     13  N   LIG d   1      -2.215  76.402 117.085  0.00  0.00    -0.311 N 
ATOM     14  C   LIG d   1      -2.137  75.346 117.893  0.00  0.00     0.210 C 
ATOM     15  C   LIG d   1      -2.268  75.663 119.386  0.00  0.00     0.109 C 
ATOM     16  O   LIG d   1      -1.940  74.181 117.517  0.00  0.00    -0.276 OA
ATOM     17  H   LIG d   1      -2.344  77.314 117.477  0.00  0.00     0.149 HD
ENDBRANCH   6  13
BRANCH   5  18
ATOM     18  N   LIG d   1       0.242  77.138 115.426  0.00  0.00     0.381 N 
ATOM     19  H   LIG d   1       0.857  77.657 114.831  0.00  0.00    -0.090 HD
ATOM     20  H   LIG d   1       0.468  76.163 115.339  0.00  0.00    -0.090 HD
ATOM     21  H   LIG d   1       0.358  77.430 116.372  0.00  0.00    -0.090 HD
ENDBRANCH   5  18
BRANCH   3  22
ATOM     22  C   LIG d   1      -2.670  77.823 111.686  0.00  0.00     0.382 C 
ATOM     23  O   LIG d   1      -2.079  78.882 111.365  0.00  0.00    -0.241 OA
ATOM     24  O   LIG d   1      -3.445  77.283 110.875  0.00  0.00    -0.241 OA
ENDBRANCH   3  22
TORSDOF 7
ENDMDL
MODEL 3
REMARK VINA RESULT:      -5.4      1.246      2.054
REMARK  7 active torsions:
REMARK  status: ('A' for Active; 'I' for Inactive)
REMARK    1  A    between atoms: C_2  and  C_3 
REMARK    2  A    between atoms: C_3  and  O_6 
REMARK    3  A    between atoms: C_3  and  C_4 
REMARK    4  A    between atoms: C_7  and  O_6 
REMARK    5  A    between atoms: C_9  and  C_10 
REMARK    6  A    between atoms: N_15  and  C_14 
REMARK    7  A    between atoms: N_20  and  C_19 
REMARK       I    between atoms: C_22  and  N_20 
ROOT
ATOM      1  C   LIG d   1      -2.483  78.235 116.288  0.00  0.00     0.161 C 
ATOM      2  C   LIG d   1      -2.858  79.093 115.241  0.00  0.00     0.016 C 
ATOM      3  C   LIG d   1      -2.357  78.978 113.924  0.00  0.00     0.038 C 
ATOM      4  C   LIG d   1      -1.558  77.896 113.526  0.00  0.00     0.028 C 
ATOM      5  C   LIG d   1      -0.748  77.289 114.667  0.00  0.00    -0.047 C 
ATOM      6  C   LIG d   1      -1.698  76.981 115.848  0.00  0.00     0.091 C 
ENDROOT
BRANCH   1   7
ATOM      7  O   LIG d   1      -3.647  77.855 117.049  0.00  0.00    -0.368 OA
BRANCH   7   8
ATOM      8  C   LIG d   1      -4.903  77.841 116.328  0.00  0.00     0.119 C 
BRANCH   8   9
ATOM      9  C   LIG d   1      -5.976  78.443 117.256  0.00  0.00     0.028 C 
ATOM     10  C   LIG d   1      -5.718  79.926 117.569  0.00  0.00     0.006 C 
ENDBRANCH   8   9
BRANCH   8  11
ATOM     11  C   LIG d   1      -5.368  76.410 116.045  0.00  0.00     0.028 C 
ATOM     12  C   LIG d   1      -5.109  75.976 114.593  0.00  0.00     0.006 C 
ENDBRANCH   8  11
ENDBRANCH   7   8
ENDBRANCH   1   7
BRANCH   6  13
ATOM     13  N   LIG d   1      -0.974  76.463 117.037  0.00  0.00    -0.311 N 
ATOM     14  C   LIG d   1      -0.861  75.166 117.320  0.00  0.00     0.210 C 
ATOM     15  C   LIG d   1      -0.091  74.849 118.605  0.00  0.00     0.109 C 
ATOM     16  O   LIG d   1      -1.299  74.248 116.611  0.00  0.00    -0.276 OA
ATOM     17  H   LIG d   1      -0.561  77.139 117.650  0.00  0.00     0.149 HD
ENDBRANCH   6  13
BRANCH   5  18
ATOM     18  N   LIG d   1      -0.069  76.090 114.143  0.00  0.00     0.381 N 
ATOM     19  H   LIG d   1       0.919  76.242 114.123  0.00  0.00    -0.090 HD
ATOM     20  H   LIG d   1      -0.382  75.923 113.203  0.00  0.00    -0.090 HD
ATOM     21  H   LIG d   1      -0.279  75.301 114.715  0.00  0.00    -0.090 HD
ENDBRANCH   5  18
BRANCH   3  22
ATOM     22  C   LIG d   1      -2.624  79.975 112.998  0.00  0.00     0.382 C 
ATOM     23  O   LIG d   1      -2.109  79.924 111.855  0.00  0.00    -0.241 OA
ATOM     24  O   LIG d   1      -3.338  80.948 113.306  0.00  0.00    -0.241 OA
ENDBRANCH   3  22
TORSDOF 7
ENDMDL
MODEL 4
REMARK VINA RESULT:      -5.2      2.487      5.222
REMARK  7 active torsions:
REMARK  status: ('A' for Active; 'I' for Inactive)
REMARK    1  A    between atoms: C_2  and  C_3 
REMARK    2  A    between atoms: C_3  and  O_6 
REMARK    3  A    between atoms: C_3  and  C_4 
REMARK    4  A    between atoms: C_7  and  O_6 
REMARK    5  A    between atoms: C_9  and  C_10 
REMARK    6  A    between atoms: N_15  and  C_14 
REMARK    7  A    between atoms: N_20  and  C_19 
REMARK       I    between atoms: C_22  and  N_20 
ROOT
ATOM      1  C   LIG d   1      -2.394  75.261 115.060  0.00  0.00     0.161 C 
ATOM      2  C   LIG d   1      -2.216  74.786 116.370  0.00  0.00     0.016 C 
ATOM      3  C   LIG d   1      -1.424  75.447 117.336  0.00  0.00     0.038 C 
ATOM      4  C   LIG d   1      -0.874  76.717 117.102  0.00  0.00     0.028 C 
ATOM      5  C   LIG d   1      -0.609  76.999 115.627  0.00  0.00    -0.047 C 
ATOM      6  C   LIG d   1      -1.893  76.701 114.820  0.00  0.00     0.091 C 
ENDROOT
BRANCH   1   7
ATOM      7  O   LIG d   1      -3.780  75.144 114.681  0.00  0.00    -0.368 OA
BRANCH   7   8
ATOM      8  C   LIG d   1      -4.743  75.217 115.760  0.00  0.00     0.119 C 
BRANCH   8   9
ATOM      9  C   LIG d   1      -5.904  74.265 115.410  0.00  0.00     0.028 C 
ATOM     10  C   LIG d   1      -7.184  74.585 116.200  0.00  0.00     0.006 C 
ENDBRANCH   8   9
BRANCH   8  11
ATOM     11  C   LIG d   1      -5.374  76.609 115.851  0.00  0.00     0.028 C 
ATOM     12  C   LIG d   1      -4.850  77.425 117.043  0.00  0.00     0.006 C 
ENDBRANCH   8  11
ENDBRANCH   7   8
ENDBRANCH   1   7
BRANCH   6  13
ATOM     13  N   LIG d   1      -1.695  76.871 113.357  0.00  0.00    -0.311 N 
ATOM     14  C   LIG d   1      -2.484  77.624 112.593  0.00  0.00     0.210 C 
ATOM     15  C   LIG d   1      -2.115  77.646 111.106  0.00  0.00     0.109 C 
ATOM     16  O   LIG d   1      -3.435  78.302 113.011  0.00  0.00    -0.276 OA
ATOM     17  H   LIG d   1      -0.927  76.381 112.941  0.00  0.00     0.149 HD
ENDBRANCH   6  13
BRANCH   5  18
ATOM     18  N   LIG d   1      -0.168  78.402 115.515  0.00  0.00     0.381 N 
ATOM     19  H   LIG d   1      -0.016  78.633 114.553  0.00  0.00    -0.090 HD
ATOM     20  H   LIG d   1       0.702  78.510 116.007  0.00  0.00    -0.090 HD
ATOM     21  H   LIG d   1      -0.856  79.008 115.905  0.00  0.00    -0.090 HD
ENDBRANCH   5  18
BRANCH   3  22
ATOM     22  C   LIG d   1      -1.142  74.819 118.540  0.00  0.00     0.382 C 
ATOM     23  O   LIG d   1      -2.040  74.180 119.139  0.00  0.00    -0.241 OA
ATOM     24  O   LIG d   1      -0.013  74.920 119.056  0.00  0.00    -0.241 OA
ENDBRANCH   3  22
TORSDOF 7
ENDMDL
MODEL 5
REMARK VINA RESULT:      -4.8      2.734      5.141
REMARK  7 active torsions:
REMARK  status: ('A' for Active; 'I' for Inactive)
REMARK    1  A    between atoms: C_2  and  C_3 
REMARK    2  A    between atoms: C_3  and  O_6 
REMARK    3  A    between atoms: C_3  and  C_4 
REMARK    4  A    between atoms: C_7  and  O_6 
REMARK    5  A    between atoms: C_9  and  C_10 
REMARK    6  A    between atoms: N_15  and  C_14 
REMARK    7  A    between atoms: N_20  and  C_19 
REMARK       I    between atoms: C_22  and  N_20 
ROOT
ATOM      1  C   LIG d   1      -3.070  75.587 115.241  0.00  0.00     0.161 C 
ATOM      2  C   LIG d   1      -4.329  75.676 114.623  0.00  0.00     0.016 C 
ATOM      3  C   LIG d   1      -5.482  76.171 115.274  0.00  0.00     0.038 C 
ATOM      4  C   LIG d   1      -5.421  76.755 116.548  0.00  0.00     0.028 C 
ATOM      5  C   LIG d   1      -4.274  76.226 117.403  0.00  0.00    -0.047 C 
ATOM      6  C   LIG d   1      -2.960  76.322 116.593  0.00  0.00     0.091 C 
ENDROOT
BRANCH   1   7
ATOM      7  O   LIG d   1      -2.048  76.047 114.336  0.00  0.00    -0.368 OA
BRANCH   7   8
ATOM      8  C   LIG d   1      -2.374  77.219 113.549  0.00  0.00     0.119 C 
BRANCH   8   9
ATOM      9  C   LIG d   1      -1.767  77.018 112.147  0.00  0.00     0.028 C 
ATOM     10  C   LIG d   1      -2.485  77.851 111.072  0.00  0.00     0.006 C 
ENDBRANCH   8   9
BRANCH   8  11
ATOM     11  C   LIG d   1      -1.695  78.472 114.108  0.00  0.00     0.028 C 
ATOM     12  C   LIG d   1      -2.686  79.437 114.779  0.00  0.00     0.006 C 
ENDBRANCH   8  11
ENDBRANCH   7   8
ENDBRANCH   1   7
BRANCH   6  13
ATOM     13  N   LIG d   1      -1.801  75.747 117.325  0.00  0.00    -0.311 N 
ATOM     14  C   LIG d   1      -0.714  76.448 117.642  0.00  0.00     0.210 C 
ATOM     15  C   LIG d   1       0.373  75.658 118.378  0.00  0.00     0.109 C 
ATOM     16  O   LIG d   1      -0.560  77.657 117.412  0.00  0.00    -0.276 OA
ATOM     17  H   LIG d   1      -1.855  74.780 117.578  0.00  0.00     0.149 HD
ENDBRANCH   6  13
BRANCH   5  18
ATOM     18  N   LIG d   1      -4.245  77.016 118.648  0.00  0.00     0.381 N 
ATOM     19  H   LIG d   1      -3.662  77.820 118.525  0.00  0.00    -0.090 HD
ATOM     20  H   LIG d   1      -3.853  76.452 119.382  0.00  0.00    -0.090 HD
ATOM     21  H   LIG d   1      -5.167  77.300 118.894  0.00  0.00    -0.090 HD
ENDBRANCH   5  18
BRANCH   3  22
ATOM     22  C   LIG d   1      -6.721  76.048 114.665  0.00  0.00     0.382 C 
ATOM     23  O   LIG d   1      -6.864  76.376 113.462  0.00  0.00    -0.241 OA
ATOM     24  O   LIG d   1      -7.709  75.655 115.315  0.00  0.00    -0.241 OA
ENDBRANCH   3  22
TORSDOF 7
ENDMDL
MODEL 6
REMARK VINA RESULT:      -4.5      3.142      4.789
REMARK  7 active torsions:
REMARK  status: ('A' for Active; 'I' for Inactive)
REMARK    1  A    between atoms: C_2  and  C_3 
REMARK    2  A    between atoms: C_3  and  O_6 
REMARK    3  A    between atoms: C_3  and  C_4 
REMARK    4  A    between atoms: C_7  and  O_6 
REMARK    5  A    between atoms: C_9  and  C_10 
REMARK    6  A    between atoms: N_15  and  C_14 
REMARK    7  A    between atoms: N_20  and  C_19 
REMARK       I    between atoms: C_22  and  N_20 
ROOT
ATOM      1  C   LIG d   1      -5.457  76.844 117.909  0.00  0.00     0.161 C 
ATOM      2  C   LIG d   1      -6.301  77.958 117.764  0.00  0.00     0.016 C 
ATOM      3  C   LIG d   1      -5.847  79.294 117.847  0.00  0.00     0.038 C 
ATOM      4  C   LIG d   1      -4.483  79.610 117.931  0.00  0.00     0.028 C 
ATOM      5  C   LIG d   1      -3.647  78.516 118.587  0.00  0.00    -0.047 C 
ATOM      6  C   LIG d   1      -3.949  77.169 117.890  0.00  0.00     0.091 C 
ENDROOT
BRANCH   1   7
ATOM      7  O   LIG d   1      -5.770  75.860 116.903  0.00  0.00    -0.368 OA
BRANCH   7   8
ATOM      8  C   LIG d   1      -5.789  76.332 115.534  0.00  0.00     0.119 C 
BRANCH   8   9
ATOM      9  C   LIG d   1      -7.098  75.833 114.891  0.00  0.00     0.028 C 
ATOM     10  C   LIG d   1      -8.172  75.489 115.937  0.00  0.00     0.006 C 
ENDBRANCH   8   9
BRANCH   8  11
ATOM     11  C   LIG d   1      -4.665  75.697 114.710  0.00  0.00     0.028 C 
ATOM     12  C   LIG d   1      -3.732  76.739 114.072  0.00  0.00     0.006 C 
ENDBRANCH   8  11
ENDBRANCH   7   8
ENDBRANCH   1   7
BRANCH   6  13
ATOM     13  N   LIG d   1      -3.235  76.031 118.525  0.00  0.00    -0.311 N 
ATOM     14  C   LIG d   1      -2.286  75.327 117.912  0.00  0.00     0.210 C 
ATOM     15  C   LIG d   1      -1.693  74.182 118.740  0.00  0.00     0.109 C 
ATOM     16  O   LIG d   1      -1.855  75.562 116.773  0.00  0.00    -0.276 OA
ATOM     17  H   LIG d   1      -3.501  75.791 119.461  0.00  0.00     0.149 HD
ENDBRANCH   6  13
BRANCH   5  18
ATOM     18  N   LIG d   1      -2.231  78.916 118.485  0.00  0.00     0.381 N 
ATOM     19  H   LIG d   1      -1.931  78.859 117.532  0.00  0.00    -0.090 HD
ATOM     20  H   LIG d   1      -1.674  78.281 119.029  0.00  0.00    -0.090 HD
ATOM     21  H   LIG d   1      -2.114  79.845 118.823  0.00  0.00    -0.090 HD
ENDBRANCH   5  18
BRANCH   3  22
ATOM     22  C   LIG d   1      -6.767  80.331 117.886  0.00  0.00     0.382 C 
ATOM     23  O   LIG d   1      -6.622  81.327 117.137  0.00  0.00    -0.241 OA
ATOM     24  O   LIG d   1      -7.716  80.304 118.693  0.00  0.00    -0.241 OA
ENDBRANCH   3  22
TORSDOF 7
ENDMDL
MODEL 7
REMARK VINA RESULT:      -4.4      2.817      5.485
REMARK  7 active torsions:
REMARK  status: ('A' for Active; 'I' for Inactive)
REMARK    1  A    between atoms: C_2  and  C_3 
REMARK    2  A    between atoms: C_3  and  O_6 
REMARK    3  A    between atoms: C_3  and  C_4 
REMARK    4  A    between atoms: C_7  and  O_6 
REMARK    5  A    between atoms: C_9  and  C_10 
REMARK    6  A    between atoms: N_15  and  C_14 
REMARK    7  A    between atoms: N_20  and  C_19 
REMARK       I    between atoms: C_22  and  N_20 
ROOT
ATOM      1  C   LIG d   1      -4.563  77.741 116.720  0.00  0.00     0.161 C 
ATOM      2  C   LIG d   1      -5.910  77.990 117.030  0.00  0.00     0.016 C 
ATOM      3  C   LIG d   1      -6.325  78.949 117.982  0.00  0.00     0.038 C 
ATOM      4  C   LIG d   1      -5.420  79.836 118.584  0.00  0.00     0.028 C 
ATOM      5  C   LIG d   1      -4.002  79.283 118.679  0.00  0.00    -0.047 C 
ATOM      6  C   LIG d   1      -3.567  78.775 117.285  0.00  0.00     0.091 C 
ENDROOT
BRANCH   1   7
ATOM      7  O   LIG d   1      -4.404  77.620 115.293  0.00  0.00    -0.368 OA
BRANCH   7   8
ATOM      8  C   LIG d   1      -4.155  76.284 114.790  0.00  0.00     0.119 C 
BRANCH   8   9
ATOM      9  C   LIG d   1      -5.482  75.750 114.216  0.00  0.00     0.028 C 
ATOM     10  C   LIG d   1      -5.983  74.502 114.962  0.00  0.00     0.006 C 
ENDBRANCH   8   9
BRANCH   8  11
ATOM     11  C   LIG d   1      -3.786  75.322 115.923  0.00  0.00     0.028 C 
ATOM     12  C   LIG d   1      -2.331  74.834 115.841  0.00  0.00     0.006 C 
ENDBRANCH   8  11
ENDBRANCH   7   8
ENDBRANCH   1   7
BRANCH   6  13
ATOM     13  N   LIG d   1      -2.223  78.141 117.306  0.00  0.00    -0.311 N 
ATOM     14  C   LIG d   1      -1.192  78.583 116.589  0.00  0.00     0.210 C 
ATOM     15  C   LIG d   1       0.098  77.772 116.743  0.00  0.00     0.109 C 
ATOM     16  O   LIG d   1      -1.214  79.590 115.865  0.00  0.00    -0.276 OA
ATOM     17  H   LIG d   1      -2.108  77.336 117.892  0.00  0.00     0.149 HD
ENDBRANCH   6  13
BRANCH   5  18
ATOM     18  N   LIG d   1      -3.137  80.359 119.198  0.00  0.00     0.381 N 
ATOM     19  H   LIG d   1      -3.555  81.249 119.011  0.00  0.00    -0.090 HD
ATOM     20  H   LIG d   1      -2.252  80.321 118.724  0.00  0.00    -0.090 HD
ATOM     21  H   LIG d   1      -3.003  80.246 120.178  0.00  0.00    -0.090 HD
ENDBRANCH   5  18
BRANCH   3  22
ATOM     22  C   LIG d   1      -7.655  79.001 118.371  0.00  0.00     0.382 C 
ATOM     23  O   LIG d   1      -8.300  80.072 118.259  0.00  0.00    -0.241 OA
ATOM     24  O   LIG d   1      -8.206  78.004 118.874  0.00  0.00    -0.241 OA
ENDBRANCH   3  22
TORSDOF 7
ENDMDL
MODEL 8
REMARK VINA RESULT:      -4.4      2.497      5.194
REMARK  7 active torsions:
REMARK  status: ('A' for Active; 'I' for Inactive)
REMARK    1  A    between atoms: C_2  and  C_3 
REMARK    2  A    between atoms: C_3  and  O_6 
REMARK    3  A    between atoms: C_3  and  C_4 
REMARK    4  A    between atoms: C_7  and  O_6 
REMARK    5  A    between atoms: C_9  and  C_10 
REMARK    6  A    between atoms: N_15  and  C_14 
REMARK    7  A    between atoms: N_20  and  C_19 
REMARK       I    between atoms: C_22  and  N_20 
ROOT
ATOM      1  C   LIG d   1      -3.744  76.232 115.921  0.00  0.00     0.161 C 
ATOM      2  C   LIG d   1      -3.430  75.818 117.226  0.00  0.00     0.016 C 
ATOM      3  C   LIG d   1      -2.108  75.731 117.718  0.00  0.00     0.038 C 
ATOM      4  C   LIG d   1      -1.010  76.201 116.981  0.00  0.00     0.028 C 
ATOM      5  C   LIG d   1      -1.230  76.156 115.472  0.00  0.00    -0.047 C 
ATOM      6  C   LIG d   1      -2.568  76.854 115.139  0.00  0.00     0.091 C 
ENDROOT
BRANCH   1   7
ATOM      7  O   LIG d   1      -4.862  77.142 115.953  0.00  0.00    -0.368 OA
BRANCH   7   8
ATOM      8  C   LIG d   1      -6.174  76.544 115.814  0.00  0.00     0.119 C 
BRANCH   8   9
ATOM      9  C   LIG d   1      -6.839  76.557 117.204  0.00  0.00     0.028 C 
ATOM     10  C   LIG d   1      -6.793  77.945 117.864  0.00  0.00     0.006 C 
ENDBRANCH   8   9
BRANCH   8  11
ATOM     11  C   LIG d   1      -6.075  75.066 115.425  0.00  0.00     0.028 C 
ATOM     12  C   LIG d   1      -7.069  74.180 116.193  0.00  0.00     0.006 C 
ENDBRANCH   8  11
ENDBRANCH   7   8
ENDBRANCH   1   7
BRANCH   6  13
ATOM     13  N   LIG d   1      -2.901  76.781 113.693  0.00  0.00    -0.311 N 
ATOM     14  C   LIG d   1      -3.066  77.856 112.923  0.00  0.00     0.210 C 
ATOM     15  C   LIG d   1      -3.425  77.557 111.464  0.00  0.00     0.109 C 
ATOM     16  O   LIG d   1      -2.918  79.027 113.303  0.00  0.00    -0.276 OA
ATOM     17  H   LIG d   1      -3.009  75.869 113.295  0.00  0.00     0.149 HD
ENDBRANCH   6  13
BRANCH   5  18
ATOM     18  N   LIG d   1      -0.067  76.801 114.833  0.00  0.00     0.381 N 
ATOM     19  H   LIG d   1       0.457  76.121 114.320  0.00  0.00    -0.090 HD
ATOM     20  H   LIG d   1       0.526  77.183 115.548  0.00  0.00    -0.090 HD
ATOM     21  H   LIG d   1      -0.372  77.526 114.222  0.00  0.00    -0.090 HD
ENDBRANCH   5  18
BRANCH   3  22
ATOM     22  C   LIG d   1      -1.869  75.133 118.945  0.00  0.00     0.382 C 
ATOM     23  O   LIG d   1      -0.882  74.371 119.090  0.00  0.00    -0.241 OA
ATOM     24  O   LIG d   1      -2.652  75.309 119.898  0.00  0.00    -0.241 OA
ENDBRANCH   3  22
TORSDOF 7
ENDMDL
MODEL 9
REMARK VINA RESULT:      -4.3      2.643      5.521
REMARK  7 active torsions:
REMARK  status: ('A' for Active; 'I' for Inactive)
REMARK    1  A    between atoms: C_2  and  C_3 
REMARK    2  A    between atoms: C_3  and  O_6 
REMARK    3  A    between atoms: C_3  and  C_4 
REMARK    4  A    between atoms: C_7  and  O_6 
REMARK    5  A    between atoms: C_9  and  C_10 
REMARK    6  A    between atoms: N_15  and  C_14 
REMARK    7  A    between atoms: N_20  and  C_19 
REMARK       I    between atoms: C_22  and  N_20 
ROOT
ATOM      1  C   LIG d   1      -1.889  76.737 114.845  0.00  0.00     0.161 C 
ATOM      2  C   LIG d   1      -3.064  76.024 114.553  0.00  0.00     0.016 C 
ATOM      3  C   LIG d   1      -4.135  75.882 115.465  0.00  0.00     0.038 C 
ATOM      4  C   LIG d   1      -4.167  76.575 116.685  0.00  0.00     0.028 C 
ATOM      5  C   LIG d   1      -2.782  76.899 117.234  0.00  0.00    -0.047 C 
ATOM      6  C   LIG d   1      -1.953  77.591 116.128  0.00  0.00     0.091 C 
ENDROOT
BRANCH   1   7
ATOM      7  O   LIG d   1      -1.519  77.554 113.717  0.00  0.00    -0.368 OA
BRANCH   7   8
ATOM      8  C   LIG d   1      -2.592  78.300 113.092  0.00  0.00     0.119 C 
BRANCH   8   9
ATOM      9  C   LIG d   1      -2.559  77.983 111.584  0.00  0.00     0.028 C 
ATOM     10  C   LIG d   1      -1.534  76.891 111.236  0.00  0.00     0.006 C 
ENDBRANCH   8   9
BRANCH   8  11
ATOM     11  C   LIG d   1      -2.354  79.809 113.194  0.00  0.00     0.028 C 
ATOM     12  C   LIG d   1      -1.019  80.246 112.571  0.00  0.00     0.006 C 
ENDBRANCH   8  11
ENDBRANCH   7   8
ENDBRANCH   1   7
BRANCH   6  13
ATOM     13  N   LIG d   1      -0.556  77.867 116.556  0.00  0.00    -0.311 N 
ATOM     14  C   LIG d   1      -0.026  79.089 116.585  0.00  0.00     0.210 C 
ATOM     15  C   LIG d   1       1.436  79.148 117.037  0.00  0.00     0.109 C 
ATOM     16  O   LIG d   1      -0.638  80.132 116.309  0.00  0.00    -0.276 OA
ATOM     17  H   LIG d   1       0.002  77.081 116.826  0.00  0.00     0.149 HD
ENDBRANCH   6  13
BRANCH   5  18
ATOM     18  N   LIG d   1      -2.963  77.739 118.433  0.00  0.00     0.381 N 
ATOM     19  H   LIG d   1      -3.926  77.740 118.703  0.00  0.00    -0.090 HD
ATOM     20  H   LIG d   1      -2.696  78.682 118.212  0.00  0.00    -0.090 HD
ATOM     21  H   LIG d   1      -2.401  77.393 119.180  0.00  0.00    -0.090 HD
ENDBRANCH   5  18
BRANCH   3  22
ATOM     22  C   LIG d   1      -5.171  75.007 115.177  0.00  0.00     0.382 C 
ATOM     23  O   LIG d   1      -5.261  74.496 114.035  0.00  0.00    -0.241 OA
ATOM     24  O   LIG d   1      -6.042  74.757 116.031  0.00  0.00    -0.241 OA
ENDBRANCH   3  22
TORSDOF 7
ENDMDL
