MODEL 1
REMARK VINA RESULT:      -5.6      0.000      0.000
REMARK  7 active torsions:
REMARK  status: ('A' for Active; 'I' for Inactive)
REMARK    1  A    between atoms: C_2  and  C_3 
REMARK    2  A    between atoms: C_3  and  O_6 
REMARK    3  A    between atoms: C_3  and  C_4 
REMARK    4  A    between atoms: C_7  and  O_6 
REMARK    5  A    between atoms: C_9  and  C_10 
REMARK    6  A    between atoms: N_15  and  C_14 
REMARK    7  A    between atoms: N_20  and  C_19 
REMARK       I    between atoms: C_22  and  N_20 
ROOT
ATOM      1  C   LIG d   1      -2.522  80.322 114.429  0.00  0.00     0.161 C 
ATOM      2  C   LIG d   1      -2.201  81.542 113.811  0.00  0.00     0.016 C 
ATOM      3  C   LIG d   1      -1.660  81.636 112.509  0.00  0.00     0.038 C 
ATOM      4  C   LIG d   1      -1.544  80.516 111.672  0.00  0.00     0.028 C 
ATOM      5  C   LIG d   1      -1.383  79.205 112.433  0.00  0.00    -0.047 C 
ATOM      6  C   LIG d   1      -2.506  79.098 113.490  0.00  0.00     0.091 C 
ENDROOT
BRANCH   1   7
ATOM      7  O   LIG d   1      -3.799  80.431 115.090  0.00  0.00    -0.368 OA
BRANCH   7   8
ATOM      8  C   LIG d   1      -3.773  80.389 116.538  0.00  0.00     0.119 C 
BRANCH   8   9
ATOM      9  C   LIG d   1      -5.075  79.711 117.005  0.00  0.00     0.028 C 
ATOM     10  C   LIG d   1      -5.004  78.177 116.913  0.00  0.00     0.006 C 
ENDBRANCH   8   9
BRANCH   8  11
ATOM     11  C   LIG d   1      -3.812  81.798 117.137  0.00  0.00     0.028 C 
ATOM     12  C   LIG d   1      -2.496  82.188 117.828  0.00  0.00     0.006 C 
ENDBRANCH   8  11
ENDBRANCH   7   8
ENDBRANCH   1   7
BRANCH   6  13
ATOM     13  N   LIG d   1      -2.374  77.884 114.337  0.00  0.00    -0.311 N 
ATOM     14  C   LIG d   1      -3.022  76.746 114.093  0.00  0.00     0.210 C 
ATOM     15  C   LIG d   1      -2.759  75.623 115.101  0.00  0.00     0.109 C 
ATOM     16  O   LIG d   1      -3.765  76.550 113.119  0.00  0.00    -0.276 OA
ATOM     17  H   LIG d   1      -1.768  77.945 115.131  0.00  0.00     0.149 HD
ENDBRANCH   6  13
BRANCH   5  18
ATOM     18  N   LIG d   1      -1.412  78.110 111.446  0.00  0.00     0.381 N 
ATOM     19  H   LIG d   1      -1.427  77.228 111.918  0.00  0.00    -0.090 HD
ATOM     20  H   LIG d   1      -0.579  78.154 110.887  0.00  0.00    -0.090 HD
ATOM     21  H   LIG d   1      -2.217  78.196 110.864  0.00  0.00    -0.090 HD
ENDBRANCH   5  18
BRANCH   3  22
ATOM     22  C   LIG d   1      -1.191  82.856 112.045  0.00  0.00     0.382 C 
ATOM     23  O   LIG d   1      -1.004  83.802 112.848  0.00  0.00    -0.241 OA
ATOM     24  O   LIG d   1      -0.995  83.037 110.829  0.00  0.00    -0.241 OA
ENDBRANCH   3  22
TORSDOF 7
ENDMDL
MODEL 2
REMARK VINA RESULT:      -5.4      0.806      1.561
REMARK  7 active torsions:
REMARK  status: ('A' for Active; 'I' for Inactive)
REMARK    1  A    between atoms: C_2  and  C_3 
REMARK    2  A    between atoms: C_3  and  O_6 
REMARK    3  A    between atoms: C_3  and  C_4 
REMARK    4  A    between atoms: C_7  and  O_6 
REMARK    5  A    between atoms: C_9  and  C_10 
REMARK    6  A    between atoms: N_15  and  C_14 
REMARK    7  A    between atoms: N_20  and  C_19 
REMARK       I    between atoms: C_22  and  N_20 
ROOT
ATOM      1  C   LIG d   1      -2.483  80.339 114.478  0.00  0.00     0.161 C 
ATOM      2  C   LIG d   1      -2.176  81.554 113.843  0.00  0.00     0.016 C 
ATOM      3  C   LIG d   1      -1.668  81.637 112.526  0.00  0.00     0.038 C 
ATOM      4  C   LIG d   1      -1.575  80.511 111.695  0.00  0.00     0.028 C 
ATOM      5  C   LIG d   1      -1.397  79.205 112.462  0.00  0.00    -0.047 C 
ATOM      6  C   LIG d   1      -2.493  79.108 113.548  0.00  0.00     0.091 C 
ENDROOT
BRANCH   1   7
ATOM      7  O   LIG d   1      -3.742  80.454 115.170  0.00  0.00    -0.368 OA
BRANCH   7   8
ATOM      8  C   LIG d   1      -3.776  81.383 116.281  0.00  0.00     0.119 C 
BRANCH   8   9
ATOM      9  C   LIG d   1      -2.539  81.102 117.157  0.00  0.00     0.028 C 
ATOM     10  C   LIG d   1      -2.291  82.210 118.195  0.00  0.00     0.006 C 
ENDBRANCH   8   9
BRANCH   8  11
ATOM     11  C   LIG d   1      -4.982  81.123 117.188  0.00  0.00     0.028 C 
ATOM     12  C   LIG d   1      -5.932  82.328 117.276  0.00  0.00     0.006 C 
ENDBRANCH   8  11
ENDBRANCH   7   8
ENDBRANCH   1   7
BRANCH   6  13
ATOM     13  N   LIG d   1      -2.341  77.900 114.400  0.00  0.00    -0.311 N 
ATOM     14  C   LIG d   1      -2.958  76.746 114.152  0.00  0.00     0.210 C 
ATOM     15  C   LIG d   1      -2.679  75.633 115.167  0.00  0.00     0.109 C 
ATOM     16  O   LIG d   1      -3.684  76.528 113.171  0.00  0.00    -0.276 OA
ATOM     17  H   LIG d   1      -1.745  77.978 115.200  0.00  0.00     0.149 HD
ENDBRANCH   6  13
BRANCH   5  18
ATOM     18  N   LIG d   1      -1.453  78.102 111.484  0.00  0.00     0.381 N 
ATOM     19  H   LIG d   1      -2.244  77.521 111.674  0.00  0.00    -0.090 HD
ATOM     20  H   LIG d   1      -0.622  77.544 111.575  0.00  0.00    -0.090 HD
ATOM     21  H   LIG d   1      -1.515  78.469 110.560  0.00  0.00    -0.090 HD
ENDBRANCH   5  18
BRANCH   3  22
ATOM     22  C   LIG d   1      -1.209  82.853 112.042  0.00  0.00     0.382 C 
ATOM     23  O   LIG d   1      -1.023  83.812 112.829  0.00  0.00    -0.241 OA
ATOM     24  O   LIG d   1      -1.022  83.017 110.821  0.00  0.00    -0.241 OA
ENDBRANCH   3  22
TORSDOF 7
ENDMDL
MODEL 3
REMARK VINA RESULT:      -5.2      2.271      4.959
REMARK  7 active torsions:
REMARK  status: ('A' for Active; 'I' for Inactive)
REMARK    1  A    between atoms: C_2  and  C_3 
REMARK    2  A    between atoms: C_3  and  O_6 
REMARK    3  A    between atoms: C_3  and  C_4 
REMARK    4  A    between atoms: C_7  and  O_6 
REMARK    5  A    between atoms: C_9  and  C_10 
REMARK    6  A    between atoms: N_15  and  C_14 
REMARK    7  A    between atoms: N_20  and  C_19 
REMARK       I    between atoms: C_22  and  N_20 
ROOT
ATOM      1  C   LIG d   1      -2.284  80.790 112.895  0.00  0.00     0.161 C 
ATOM      2  C   LIG d   1      -2.919  79.612 113.322  0.00  0.00     0.016 C 
ATOM      3  C   LIG d   1      -2.691  78.347 112.733  0.00  0.00     0.038 C 
ATOM      4  C   LIG d   1      -1.693  78.148 111.768  0.00  0.00     0.028 C 
ATOM      5  C   LIG d   1      -1.381  79.398 110.952  0.00  0.00    -0.047 C 
ATOM      6  C   LIG d   1      -1.109  80.574 111.918  0.00  0.00     0.091 C 
ENDROOT
BRANCH   1   7
ATOM      7  O   LIG d   1      -1.851  81.554 114.038  0.00  0.00    -0.368 OA
BRANCH   7   8
ATOM      8  C   LIG d   1      -2.273  81.058 115.333  0.00  0.00     0.119 C 
BRANCH   8   9
ATOM      9  C   LIG d   1      -3.139  82.151 115.987  0.00  0.00     0.028 C 
ATOM     10  C   LIG d   1      -3.010  82.164 117.519  0.00  0.00     0.006 C 
ENDBRANCH   8   9
BRANCH   8  11
ATOM     11  C   LIG d   1      -1.079  80.870 116.273  0.00  0.00     0.028 C 
ATOM     12  C   LIG d   1      -0.010  79.926 115.698  0.00  0.00     0.006 C 
ENDBRANCH   8  11
ENDBRANCH   7   8
ENDBRANCH   1   7
BRANCH   6  13
ATOM     13  N   LIG d   1      -0.879  81.855 111.201  0.00  0.00    -0.311 N 
ATOM     14  C   LIG d   1       0.330  82.293 110.853  0.00  0.00     0.210 C 
ATOM     15  C   LIG d   1       0.346  83.648 110.140  0.00  0.00     0.109 C 
ATOM     16  O   LIG d   1       1.388  81.673 111.040  0.00  0.00    -0.276 OA
ATOM     17  H   LIG d   1      -1.685  82.407 110.983  0.00  0.00     0.149 HD
ENDBRANCH   6  13
BRANCH   5  18
ATOM     18  N   LIG d   1      -0.231  79.087 110.082  0.00  0.00     0.381 N 
ATOM     19  H   LIG d   1       0.466  79.799 110.174  0.00  0.00    -0.090 HD
ATOM     20  H   LIG d   1      -0.541  79.071 109.126  0.00  0.00    -0.090 HD
ATOM     21  H   LIG d   1       0.154  78.202 110.329  0.00  0.00    -0.090 HD
ENDBRANCH   5  18
BRANCH   3  22
ATOM     22  C   LIG d   1      -3.496  77.272 113.080  0.00  0.00     0.382 C 
ATOM     23  O   LIG d   1      -4.696  77.244 112.716  0.00  0.00    -0.241 OA
ATOM     24  O   LIG d   1      -3.048  76.352 113.789  0.00  0.00    -0.241 OA
ENDBRANCH   3  22
TORSDOF 7
ENDMDL
MODEL 4
REMARK VINA RESULT:      -5.0      1.744      2.626
REMARK  7 active torsions:
REMARK  status: ('A' for Active; 'I' for Inactive)
REMARK    1  A    between atoms: C_2  and  C_3 
REMARK    2  A    between atoms: C_3  and  O_6 
REMARK    3  A    between atoms: C_3  and  C_4 
REMARK    4  A    between atoms: C_7  and  O_6 
REMARK    5  A    between atoms: C_9  and  C_10 
REMARK    6  A    between atoms: N_15  and  C_14 
REMARK    7  A    between atoms: N_20  and  C_19 
REMARK       I    between atoms: C_22  and  N_20 
ROOT
ATOM      1  C   LIG d   1      -1.486  78.905 115.092  0.00  0.00     0.161 C 
ATOM      2  C   LIG d   1      -1.974  80.215 114.948  0.00  0.00     0.016 C 
ATOM      3  C   LIG d   1      -2.262  80.805 113.696  0.00  0.00     0.038 C 
ATOM      4  C   LIG d   1      -2.224  80.069 112.503  0.00  0.00     0.028 C 
ATOM      5  C   LIG d   1      -1.254  78.893 112.547  0.00  0.00    -0.047 C 
ATOM      6  C   LIG d   1      -1.545  78.049 113.809  0.00  0.00     0.091 C 
ENDROOT
BRANCH   1   7
ATOM      7  O   LIG d   1      -2.177  78.242 116.169  0.00  0.00    -0.368 OA
BRANCH   7   8
ATOM      8  C   LIG d   1      -3.585  78.552 116.309  0.00  0.00     0.119 C 
BRANCH   8   9
ATOM      9  C   LIG d   1      -3.879  78.699 117.815  0.00  0.00     0.028 C 
ATOM     10  C   LIG d   1      -3.478  80.081 118.358  0.00  0.00     0.006 C 
ENDBRANCH   8   9
BRANCH   8  11
ATOM     11  C   LIG d   1      -4.462  77.389 115.837  0.00  0.00     0.028 C 
ATOM     12  C   LIG d   1      -5.892  77.455 116.396  0.00  0.00     0.006 C 
ENDBRANCH   8  11
ENDBRANCH   7   8
ENDBRANCH   1   7
BRANCH   6  13
ATOM     13  N   LIG d   1      -0.585  76.926 113.974  0.00  0.00    -0.311 N 
ATOM     14  C   LIG d   1      -0.961  75.660 114.140  0.00  0.00     0.210 C 
ATOM     15  C   LIG d   1       0.188  74.661 114.311  0.00  0.00     0.109 C 
ATOM     16  O   LIG d   1      -2.136  75.263 114.131  0.00  0.00    -0.276 OA
ATOM     17  H   LIG d   1       0.390  77.154 113.962  0.00  0.00     0.149 HD
ENDBRANCH   6  13
BRANCH   5  18
ATOM     18  N   LIG d   1      -1.417  78.134 111.293  0.00  0.00     0.381 N 
ATOM     19  H   LIG d   1      -2.049  77.372 111.438  0.00  0.00    -0.090 HD
ATOM     20  H   LIG d   1      -0.525  77.756 111.023  0.00  0.00    -0.090 HD
ATOM     21  H   LIG d   1      -1.764  78.731 110.575  0.00  0.00    -0.090 HD
ENDBRANCH   5  18
BRANCH   3  22
ATOM     22  C   LIG d   1      -2.553  82.159 113.626  0.00  0.00     0.382 C 
ATOM     23  O   LIG d   1      -3.418  82.655 114.388  0.00  0.00    -0.241 OA
ATOM     24  O   LIG d   1      -1.995  82.883 112.780  0.00  0.00    -0.241 OA
ENDBRANCH   3  22
TORSDOF 7
ENDMDL
MODEL 5
REMARK VINA RESULT:      -5.0      3.767      6.206
REMARK  7 active torsions:
REMARK  status: ('A' for Active; 'I' for Inactive)
REMARK    1  A    between atoms: C_2  and  C_3 
REMARK    2  A    between atoms: C_3  and  O_6 
REMARK    3  A    between atoms: C_3  and  C_4 
REMARK    4  A    between atoms: C_7  and  O_6 
REMARK    5  A    between atoms: C_9  and  C_10 
REMARK    6  A    between atoms: N_15  and  C_14 
REMARK    7  A    between atoms: N_20  and  C_19 
REMARK       I    between atoms: C_22  and  N_20 
ROOT
ATOM      1  C   LIG d   1      -4.850  78.758 116.632  0.00  0.00     0.161 C 
ATOM      2  C   LIG d   1      -4.236  77.859 115.744  0.00  0.00     0.016 C 
ATOM      3  C   LIG d   1      -4.867  76.689 115.262  0.00  0.00     0.038 C 
ATOM      4  C   LIG d   1      -6.219  76.416 115.518  0.00  0.00     0.028 C 
ATOM      5  C   LIG d   1      -6.726  77.033 116.817  0.00  0.00    -0.047 C 
ATOM      6  C   LIG d   1      -6.363  78.535 116.834  0.00  0.00     0.091 C 
ENDROOT
BRANCH   1   7
ATOM      7  O   LIG d   1      -4.595  80.112 116.210  0.00  0.00    -0.368 OA
BRANCH   7   8
ATOM      8  C   LIG d   1      -3.594  80.838 116.965  0.00  0.00     0.119 C 
BRANCH   8   9
ATOM      9  C   LIG d   1      -4.254  82.127 117.490  0.00  0.00     0.028 C 
ATOM     10  C   LIG d   1      -3.798  82.482 118.915  0.00  0.00     0.006 C 
ENDBRANCH   8   9
BRANCH   8  11
ATOM     11  C   LIG d   1      -2.447  81.307 116.064  0.00  0.00     0.028 C 
ATOM     12  C   LIG d   1      -2.877  82.403 115.076  0.00  0.00     0.006 C 
ENDBRANCH   8  11
ENDBRANCH   7   8
ENDBRANCH   1   7
BRANCH   6  13
ATOM     13  N   LIG d   1      -6.749  79.197 118.108  0.00  0.00    -0.311 N 
ATOM     14  C   LIG d   1      -7.415  80.349 118.164  0.00  0.00     0.210 C 
ATOM     15  C   LIG d   1      -7.694  80.867 119.578  0.00  0.00     0.109 C 
ATOM     16  O   LIG d   1      -7.829  80.975 117.176  0.00  0.00    -0.276 OA
ATOM     17  H   LIG d   1      -6.480  78.742 118.958  0.00  0.00     0.149 HD
ENDBRANCH   6  13
BRANCH   5  18
ATOM     18  N   LIG d   1      -8.178  76.787 116.890  0.00  0.00     0.381 N 
ATOM     19  H   LIG d   1      -8.354  75.942 117.395  0.00  0.00    -0.090 HD
ATOM     20  H   LIG d   1      -8.537  76.678 115.957  0.00  0.00    -0.090 HD
ATOM     21  H   LIG d   1      -8.631  77.552 117.340  0.00  0.00    -0.090 HD
ENDBRANCH   5  18
BRANCH   3  22
ATOM     22  C   LIG d   1      -4.130  75.757 114.546  0.00  0.00     0.382 C 
ATOM     23  O   LIG d   1      -4.492  75.425 113.392  0.00  0.00    -0.241 OA
ATOM     24  O   LIG d   1      -3.135  75.211 115.058  0.00  0.00    -0.241 OA
ENDBRANCH   3  22
TORSDOF 7
ENDMDL
MODEL 6
REMARK VINA RESULT:      -4.9      2.013      4.654
REMARK  7 active torsions:
REMARK  status: ('A' for Active; 'I' for Inactive)
REMARK    1  A    between atoms: C_2  and  C_3 
REMARK    2  A    between atoms: C_3  and  O_6 
REMARK    3  A    between atoms: C_3  and  C_4 
REMARK    4  A    between atoms: C_7  and  O_6 
REMARK    5  A    between atoms: C_9  and  C_10 
REMARK    6  A    between atoms: N_15  and  C_14 
REMARK    7  A    between atoms: N_20  and  C_19 
REMARK       I    between atoms: C_22  and  N_20 
ROOT
ATOM      1  C   LIG d   1      -1.870  79.894 114.142  0.00  0.00     0.161 C 
ATOM      2  C   LIG d   1      -2.720  78.778 114.220  0.00  0.00     0.016 C 
ATOM      3  C   LIG d   1      -2.897  77.859 113.160  0.00  0.00     0.038 C 
ATOM      4  C   LIG d   1      -2.115  77.909 111.997  0.00  0.00     0.028 C 
ATOM      5  C   LIG d   1      -1.607  79.309 111.668  0.00  0.00    -0.047 C 
ATOM      6  C   LIG d   1      -0.925  79.902 112.922  0.00  0.00     0.091 C 
ENDROOT
BRANCH   1   7
ATOM      7  O   LIG d   1      -1.113  80.018 115.362  0.00  0.00    -0.368 OA
BRANCH   7   8
ATOM      8  C   LIG d   1      -1.597  80.996 116.315  0.00  0.00     0.119 C 
BRANCH   8   9
ATOM      9  C   LIG d   1      -2.693  81.822 115.614  0.00  0.00     0.028 C 
ATOM     10  C   LIG d   1      -3.943  82.003 116.492  0.00  0.00     0.006 C 
ENDBRANCH   8   9
BRANCH   8  11
ATOM     11  C   LIG d   1      -0.504  82.003 116.685  0.00  0.00     0.028 C 
ATOM     12  C   LIG d   1      -0.374  82.212 118.202  0.00  0.00     0.006 C 
ENDBRANCH   8  11
ENDBRANCH   7   8
ENDBRANCH   1   7
BRANCH   6  13
ATOM     13  N   LIG d   1      -0.474  81.303 112.712  0.00  0.00    -0.311 N 
ATOM     14  C   LIG d   1      -1.269  82.269 112.256  0.00  0.00     0.210 C 
ATOM     15  C   LIG d   1      -0.598  83.636 112.094  0.00  0.00     0.109 C 
ATOM     16  O   LIG d   1      -2.475  82.130 112.001  0.00  0.00    -0.276 OA
ATOM     17  H   LIG d   1       0.483  81.510 112.924  0.00  0.00     0.149 HD
ENDBRANCH   6  13
BRANCH   5  18
ATOM     18  N   LIG d   1      -0.696  79.192 110.514  0.00  0.00     0.381 N 
ATOM     19  H   LIG d   1      -0.520  78.227 110.317  0.00  0.00    -0.090 HD
ATOM     20  H   LIG d   1       0.179  79.631 110.745  0.00  0.00    -0.090 HD
ATOM     21  H   LIG d   1      -1.097  79.635 109.717  0.00  0.00    -0.090 HD
ENDBRANCH   5  18
BRANCH   3  22
ATOM     22  C   LIG d   1      -3.894  76.899 113.243  0.00  0.00     0.382 C 
ATOM     23  O   LIG d   1      -3.680  75.823 113.853  0.00  0.00    -0.241 OA
ATOM     24  O   LIG d   1      -4.990  77.076 112.678  0.00  0.00    -0.241 OA
ENDBRANCH   3  22
TORSDOF 7
ENDMDL
MODEL 7
REMARK VINA RESULT:      -4.8      2.472      2.940
REMARK  7 active torsions:
REMARK  status: ('A' for Active; 'I' for Inactive)
REMARK    1  A    between atoms: C_2  and  C_3 
REMARK    2  A    between atoms: C_3  and  O_6 
REMARK    3  A    between atoms: C_3  and  C_4 
REMARK    4  A    between atoms: C_7  and  O_6 
REMARK    5  A    between atoms: C_9  and  C_10 
REMARK    6  A    between atoms: N_15  and  C_14 
REMARK    7  A    between atoms: N_20  and  C_19 
REMARK       I    between atoms: C_22  and  N_20 
ROOT
ATOM      1  C   LIG d   1      -1.402  78.865 115.036  0.00  0.00     0.161 C 
ATOM      2  C   LIG d   1      -1.903  80.173 114.925  0.00  0.00     0.016 C 
ATOM      3  C   LIG d   1      -2.243  80.774 113.691  0.00  0.00     0.038 C 
ATOM      4  C   LIG d   1      -2.248  80.049 112.490  0.00  0.00     0.028 C 
ATOM      5  C   LIG d   1      -1.270  78.879 112.484  0.00  0.00    -0.047 C 
ATOM      6  C   LIG d   1      -1.506  78.021 113.748  0.00  0.00     0.091 C 
ENDROOT
BRANCH   1   7
ATOM      7  O   LIG d   1      -2.047  78.186 116.133  0.00  0.00    -0.368 OA
BRANCH   7   8
ATOM      8  C   LIG d   1      -1.180  77.740 117.204  0.00  0.00     0.119 C 
BRANCH   8   9
ATOM      9  C   LIG d   1      -1.729  78.328 118.519  0.00  0.00     0.028 C 
ATOM     10  C   LIG d   1      -3.136  78.926 118.352  0.00  0.00     0.006 C 
ENDBRANCH   8   9
BRANCH   8  11
ATOM     11  C   LIG d   1       0.230  78.321 117.058  0.00  0.00     0.028 C 
ATOM     12  C   LIG d   1       1.318  77.237 117.001  0.00  0.00     0.006 C 
ENDBRANCH   8  11
ENDBRANCH   7   8
ENDBRANCH   1   7
BRANCH   6  13
ATOM     13  N   LIG d   1      -0.535  76.902 113.864  0.00  0.00    -0.311 N 
ATOM     14  C   LIG d   1      -0.893  75.642 114.102  0.00  0.00     0.210 C 
ATOM     15  C   LIG d   1       0.268  74.648 114.203  0.00  0.00     0.109 C 
ATOM     16  O   LIG d   1      -2.064  75.247 114.207  0.00  0.00    -0.276 OA
ATOM     17  H   LIG d   1       0.435  77.128 113.761  0.00  0.00     0.149 HD
ENDBRANCH   6  13
BRANCH   5  18
ATOM     18  N   LIG d   1      -1.478  78.131 111.230  0.00  0.00     0.381 N 
ATOM     19  H   LIG d   1      -0.722  77.490 111.089  0.00  0.00    -0.090 HD
ATOM     20  H   LIG d   1      -1.489  78.779 110.463  0.00  0.00    -0.090 HD
ATOM     21  H   LIG d   1      -2.341  77.635 111.268  0.00  0.00    -0.090 HD
ENDBRANCH   5  18
BRANCH   3  22
ATOM     22  C   LIG d   1      -2.545  82.126 113.646  0.00  0.00     0.382 C 
ATOM     23  O   LIG d   1      -3.408  82.602 114.422  0.00  0.00    -0.241 OA
ATOM     24  O   LIG d   1      -1.997  82.868 112.809  0.00  0.00    -0.241 OA
ENDBRANCH   3  22
TORSDOF 7
ENDMDL
MODEL 8
REMARK VINA RESULT:      -4.7      2.380      5.170
REMARK  7 active torsions:
REMARK  status: ('A' for Active; 'I' for Inactive)
REMARK    1  A    between atoms: C_2  and  C_3 
REMARK    2  A    between atoms: C_3  and  O_6 
REMARK    3  A    between atoms: C_3  and  C_4 
REMARK    4  A    between atoms: C_7  and  O_6 
REMARK    5  A    between atoms: C_9  and  C_10 
REMARK    6  A    between atoms: N_15  and  C_14 
REMARK    7  A    between atoms: N_20  and  C_19 
REMARK       I    between atoms: C_22  and  N_20 
ROOT
ATOM      1  C   LIG d   1      -1.877  79.588 114.247  0.00  0.00     0.161 C 
ATOM      2  C   LIG d   1      -2.752  78.490 114.274  0.00  0.00     0.016 C 
ATOM      3  C   LIG d   1      -3.096  77.740 113.126  0.00  0.00     0.038 C 
ATOM      4  C   LIG d   1      -2.466  77.945 111.890  0.00  0.00     0.028 C 
ATOM      5  C   LIG d   1      -1.950  79.368 111.702  0.00  0.00    -0.047 C 
ATOM      6  C   LIG d   1      -1.093  79.758 112.928  0.00  0.00     0.091 C 
ENDROOT
BRANCH   1   7
ATOM      7  O   LIG d   1      -0.969  79.517 115.364  0.00  0.00    -0.368 OA
BRANCH   7   8
ATOM      8  C   LIG d   1      -0.899  78.242 116.048  0.00  0.00     0.119 C 
BRANCH   8   9
ATOM      9  C   LIG d   1      -0.884  78.529 117.562  0.00  0.00     0.028 C 
ATOM     10  C   LIG d   1      -0.767  80.030 117.873  0.00  0.00     0.006 C 
ENDBRANCH   8   9
BRANCH   8  11
ATOM     11  C   LIG d   1       0.424  77.525 115.758  0.00  0.00     0.028 C 
ATOM     12  C   LIG d   1       0.239  76.248 114.923  0.00  0.00     0.006 C 
ENDBRANCH   8  11
ENDBRANCH   7   8
ENDBRANCH   1   7
BRANCH   6  13
ATOM     13  N   LIG d   1      -0.619  81.165 112.865  0.00  0.00    -0.311 N 
ATOM     14  C   LIG d   1      -1.370  82.172 112.421  0.00  0.00     0.210 C 
ATOM     15  C   LIG d   1      -0.681  83.540 112.421  0.00  0.00     0.109 C 
ATOM     16  O   LIG d   1      -2.551  82.067 112.058  0.00  0.00    -0.276 OA
ATOM     17  H   LIG d   1       0.317  81.345 113.169  0.00  0.00     0.149 HD
ENDBRANCH   6  13
BRANCH   5  18
ATOM     18  N   LIG d   1      -1.197  79.406 110.435  0.00  0.00     0.381 N 
ATOM     19  H   LIG d   1      -1.250  78.515 109.982  0.00  0.00    -0.090 HD
ATOM     20  H   LIG d   1      -0.231  79.600 110.636  0.00  0.00    -0.090 HD
ATOM     21  H   LIG d   1      -1.568  80.112 109.838  0.00  0.00    -0.090 HD
ENDBRANCH   5  18
BRANCH   3  22
ATOM     22  C   LIG d   1      -4.111  76.797 113.199  0.00  0.00     0.382 C 
ATOM     23  O   LIG d   1      -5.228  77.037 112.680  0.00  0.00    -0.241 OA
ATOM     24  O   LIG d   1      -3.937  75.729 113.815  0.00  0.00    -0.241 OA
ENDBRANCH   3  22
TORSDOF 7
ENDMDL
MODEL 9
REMARK VINA RESULT:      -4.7      3.244      4.669
REMARK  7 active torsions:
REMARK  status: ('A' for Active; 'I' for Inactive)
REMARK    1  A    between atoms: C_2  and  C_3 
REMARK    2  A    between atoms: C_3  and  O_6 
REMARK    3  A    between atoms: C_3  and  C_4 
REMARK    4  A    between atoms: C_7  and  O_6 
REMARK    5  A    between atoms: C_9  and  C_10 
REMARK    6  A    between atoms: N_15  and  C_14 
REMARK    7  A    between atoms: N_20  and  C_19 
REMARK       I    between atoms: C_22  and  N_20 
ROOT
ATOM      1  C   LIG d   1      -4.053  78.473 116.058  0.00  0.00     0.161 C 
ATOM      2  C   LIG d   1      -4.677  79.638 116.532  0.00  0.00     0.016 C 
ATOM      3  C   LIG d   1      -3.994  80.860 116.733  0.00  0.00     0.038 C 
ATOM      4  C   LIG d   1      -2.664  81.041 116.328  0.00  0.00     0.028 C 
ATOM      5  C   LIG d   1      -1.854  79.749 116.313  0.00  0.00    -0.047 C 
ATOM      6  C   LIG d   1      -2.627  78.681 115.506  0.00  0.00     0.091 C 
ENDROOT
BRANCH   1   7
ATOM      7  O   LIG d   1      -4.887  77.840 115.067  0.00  0.00    -0.368 OA
BRANCH   7   8
ATOM      8  C   LIG d   1      -5.477  76.573 115.446  0.00  0.00     0.119 C 
BRANCH   8   9
ATOM      9  C   LIG d   1      -5.474  75.669 114.198  0.00  0.00     0.028 C 
ATOM     10  C   LIG d   1      -5.318  74.180 114.552  0.00  0.00     0.006 C 
ENDBRANCH   8   9
BRANCH   8  11
ATOM     11  C   LIG d   1      -6.953  76.736 115.824  0.00  0.00     0.028 C 
ATOM     12  C   LIG d   1      -7.177  76.782 117.343  0.00  0.00     0.006 C 
ENDBRANCH   8  11
ENDBRANCH   7   8
ENDBRANCH   1   7
BRANCH   6  13
ATOM     13  N   LIG d   1      -1.945  77.361 115.513  0.00  0.00    -0.311 N 
ATOM     14  C   LIG d   1      -1.760  76.626 114.418  0.00  0.00     0.210 C 
ATOM     15  C   LIG d   1      -1.051  75.287 114.649  0.00  0.00     0.109 C 
ATOM     16  O   LIG d   1      -2.087  76.969 113.272  0.00  0.00    -0.276 OA
ATOM     17  H   LIG d   1      -1.619  77.020 116.396  0.00  0.00     0.149 HD
ENDBRANCH   6  13
BRANCH   5  18
ATOM     18  N   LIG d   1      -0.530  80.059 115.741  0.00  0.00     0.381 N 
ATOM     19  H   LIG d   1      -0.473  79.705 114.807  0.00  0.00    -0.090 HD
ATOM     20  H   LIG d   1       0.177  79.606 116.294  0.00  0.00    -0.090 HD
ATOM     21  H   LIG d   1      -0.381  81.044 115.741  0.00  0.00    -0.090 HD
ENDBRANCH   5  18
BRANCH   3  22
ATOM     22  C   LIG d   1      -4.633  81.906 117.382  0.00  0.00     0.382 C 
ATOM     23  O   LIG d   1      -5.708  82.364 116.926  0.00  0.00    -0.241 OA
ATOM     24  O   LIG d   1      -4.125  82.426 118.393  0.00  0.00    -0.241 OA
ENDBRANCH   3  22
TORSDOF 7
ENDMDL
