MODEL 1
REMARK VINA RESULT:      -5.3      0.000      0.000
REMARK  7 active torsions:
REMARK  status: ('A' for Active; 'I' for Inactive)
REMARK    1  A    between atoms: C_2  and  C_3 
REMARK    2  A    between atoms: C_3  and  O_6 
REMARK    3  A    between atoms: C_3  and  C_4 
REMARK    4  A    between atoms: C_7  and  O_6 
REMARK    5  A    between atoms: C_9  and  C_10 
REMARK    6  A    between atoms: N_15  and  C_14 
REMARK    7  A    between atoms: N_20  and  C_19 
REMARK       I    between atoms: C_22  and  N_20 
ROOT
ATOM      1  C   LIG d   1      -1.792  78.611 114.857  0.00  0.00     0.161 C 
ATOM      2  C   LIG d   1      -2.204  79.820 114.272  0.00  0.00     0.016 C 
ATOM      3  C   LIG d   1      -2.538  79.949 112.905  0.00  0.00     0.038 C 
ATOM      4  C   LIG d   1      -2.629  78.836 112.056  0.00  0.00     0.028 C 
ATOM      5  C   LIG d   1      -1.735  77.675 112.480  0.00  0.00    -0.047 C 
ATOM      6  C   LIG d   1      -1.993  77.363 113.972  0.00  0.00     0.091 C 
ENDROOT
BRANCH   1   7
ATOM      7  O   LIG d   1      -2.449  78.434 116.128  0.00  0.00    -0.368 OA
BRANCH   7   8
ATOM      8  C   LIG d   1      -3.898  78.443 116.103  0.00  0.00     0.119 C 
BRANCH   8   9
ATOM      9  C   LIG d   1      -4.367  79.691 116.876  0.00  0.00     0.028 C 
ATOM     10  C   LIG d   1      -3.519  79.957 118.131  0.00  0.00     0.006 C 
ENDBRANCH   8   9
BRANCH   8  11
ATOM     11  C   LIG d   1      -4.475  77.250 116.871  0.00  0.00     0.028 C 
ATOM     12  C   LIG d   1      -5.958  76.999 116.555  0.00  0.00     0.006 C 
ENDBRANCH   8  11
ENDBRANCH   7   8
ENDBRANCH   1   7
BRANCH   6  13
ATOM     13  N   LIG d   1      -1.098  76.295 114.490  0.00  0.00    -0.311 N 
ATOM     14  C   LIG d   1      -1.545  75.173 115.052  0.00  0.00     0.210 C 
ATOM     15  C   LIG d   1      -0.453  74.214 115.537  0.00  0.00     0.109 C 
ATOM     16  O   LIG d   1      -2.741  74.867 115.166  0.00  0.00    -0.276 OA
ATOM     17  H   LIG d   1      -0.112  76.448 114.410  0.00  0.00     0.149 HD
ENDBRANCH   6  13
BRANCH   5  18
ATOM     18  N   LIG d   1      -2.032  76.536 111.591  0.00  0.00     0.381 N 
ATOM     19  H   LIG d   1      -3.021  76.455 111.463  0.00  0.00    -0.090 HD
ATOM     20  H   LIG d   1      -1.700  75.692 112.023  0.00  0.00    -0.090 HD
ATOM     21  H   LIG d   1      -1.585  76.665 110.711  0.00  0.00    -0.090 HD
ENDBRANCH   5  18
BRANCH   3  22
ATOM     22  C   LIG d   1      -2.746  81.208 112.364  0.00  0.00     0.382 C 
ATOM     23  O   LIG d   1      -1.767  81.912 112.017  0.00  0.00    -0.241 OA
ATOM     24  O   LIG d   1      -3.899  81.668 112.259  0.00  0.00    -0.241 OA
ENDBRANCH   3  22
TORSDOF 7
ENDMDL
MODEL 2
REMARK VINA RESULT:      -5.1      2.597      4.803
REMARK  7 active torsions:
REMARK  status: ('A' for Active; 'I' for Inactive)
REMARK    1  A    between atoms: C_2  and  C_3 
REMARK    2  A    between atoms: C_3  and  O_6 
REMARK    3  A    between atoms: C_3  and  C_4 
REMARK    4  A    between atoms: C_7  and  O_6 
REMARK    5  A    between atoms: C_9  and  C_10 
REMARK    6  A    between atoms: N_15  and  C_14 
REMARK    7  A    between atoms: N_20  and  C_19 
REMARK       I    between atoms: C_22  and  N_20 
ROOT
ATOM      1  C   LIG d   1      -1.821  79.774 114.099  0.00  0.00     0.161 C 
ATOM      2  C   LIG d   1      -2.520  78.590 114.386  0.00  0.00     0.016 C 
ATOM      3  C   LIG d   1      -2.815  77.606 113.415  0.00  0.00     0.038 C 
ATOM      4  C   LIG d   1      -2.296  77.669 112.113  0.00  0.00     0.028 C 
ATOM      5  C   LIG d   1      -2.011  79.092 111.644  0.00  0.00    -0.047 C 
ATOM      6  C   LIG d   1      -1.151  79.809 112.710  0.00  0.00     0.091 C 
ENDROOT
BRANCH   1   7
ATOM      7  O   LIG d   1      -0.848  80.030 115.132  0.00  0.00    -0.368 OA
BRANCH   7   8
ATOM      8  C   LIG d   1      -1.106  79.414 116.417  0.00  0.00     0.119 C 
BRANCH   8   9
ATOM      9  C   LIG d   1      -1.203  80.543 117.461  0.00  0.00     0.028 C 
ATOM     10  C   LIG d   1      -2.494  80.464 118.293  0.00  0.00     0.006 C 
ENDBRANCH   8   9
BRANCH   8  11
ATOM     11  C   LIG d   1       0.074  78.547 116.866  0.00  0.00     0.028 C 
ATOM     12  C   LIG d   1      -0.281  77.053 116.949  0.00  0.00     0.006 C 
ENDBRANCH   8  11
ENDBRANCH   7   8
ENDBRANCH   1   7
BRANCH   6  13
ATOM     13  N   LIG d   1      -0.897  81.233 112.369  0.00  0.00    -0.311 N 
ATOM     14  C   LIG d   1       0.178  81.646 111.699  0.00  0.00     0.210 C 
ATOM     15  C   LIG d   1       0.256  83.159 111.471  0.00  0.00     0.109 C 
ATOM     16  O   LIG d   1       1.059  80.900 111.245  0.00  0.00    -0.276 OA
ATOM     17  H   LIG d   1      -1.576  81.903 112.672  0.00  0.00     0.149 HD
ENDBRANCH   6  13
BRANCH   5  18
ATOM     18  N   LIG d   1      -1.347  79.003 110.330  0.00  0.00     0.381 N 
ATOM     19  H   LIG d   1      -1.568  79.811 109.783  0.00  0.00    -0.090 HD
ATOM     20  H   LIG d   1      -1.690  78.192 109.847  0.00  0.00    -0.090 HD
ATOM     21  H   LIG d   1      -0.360  78.935 110.450  0.00  0.00    -0.090 HD
ENDBRANCH   5  18
BRANCH   3  22
ATOM     22  C   LIG d   1      -3.671  76.562 113.732  0.00  0.00     0.382 C 
ATOM     23  O   LIG d   1      -3.388  75.783 114.674  0.00  0.00    -0.241 OA
ATOM     24  O   LIG d   1      -4.701  76.363 113.060  0.00  0.00    -0.241 OA
ENDBRANCH   3  22
TORSDOF 7
ENDMDL
MODEL 3
REMARK VINA RESULT:      -4.8      2.650      4.267
REMARK  7 active torsions:
REMARK  status: ('A' for Active; 'I' for Inactive)
REMARK    1  A    between atoms: C_2  and  C_3 
REMARK    2  A    between atoms: C_3  and  O_6 
REMARK    3  A    between atoms: C_3  and  C_4 
REMARK    4  A    between atoms: C_7  and  O_6 
REMARK    5  A    between atoms: C_9  and  C_10 
REMARK    6  A    between atoms: N_15  and  C_14 
REMARK    7  A    between atoms: N_20  and  C_19 
REMARK       I    between atoms: C_22  and  N_20 
ROOT
ATOM      1  C   LIG d   1      -1.983  76.798 114.018  0.00  0.00     0.161 C 
ATOM      2  C   LIG d   1      -1.451  77.205 115.253  0.00  0.00     0.016 C 
ATOM      3  C   LIG d   1      -1.254  78.560 115.607  0.00  0.00     0.038 C 
ATOM      4  C   LIG d   1      -1.719  79.611 114.803  0.00  0.00     0.028 C 
ATOM      5  C   LIG d   1      -1.803  79.250 113.323  0.00  0.00    -0.047 C 
ATOM      6  C   LIG d   1      -2.598  77.933 113.173  0.00  0.00     0.091 C 
ENDROOT
BRANCH   1   7
ATOM      7  O   LIG d   1      -2.947  75.747 114.224  0.00  0.00    -0.368 OA
BRANCH   7   8
ATOM      8  C   LIG d   1      -3.727  75.827 115.442  0.00  0.00     0.119 C 
BRANCH   8   9
ATOM      9  C   LIG d   1      -3.735  74.425 116.080  0.00  0.00     0.028 C 
ATOM     10  C   LIG d   1      -3.819  74.478 117.615  0.00  0.00     0.006 C 
ENDBRANCH   8   9
BRANCH   8  11
ATOM     11  C   LIG d   1      -5.196  76.146 115.144  0.00  0.00     0.028 C 
ATOM     12  C   LIG d   1      -5.957  74.947 114.555  0.00  0.00     0.006 C 
ENDBRANCH   8  11
ENDBRANCH   7   8
ENDBRANCH   1   7
BRANCH   6  13
ATOM     13  N   LIG d   1      -2.656  77.464 111.764  0.00  0.00    -0.311 N 
ATOM     14  C   LIG d   1      -3.774  77.039 111.178  0.00  0.00     0.210 C 
ATOM     15  C   LIG d   1      -3.609  76.580 109.726  0.00  0.00     0.109 C 
ATOM     16  O   LIG d   1      -4.893  77.028 111.713  0.00  0.00    -0.276 OA
ATOM     17  H   LIG d   1      -1.799  77.469 111.246  0.00  0.00     0.149 HD
ENDBRANCH   6  13
BRANCH   5  18
ATOM     18  N   LIG d   1      -2.430  80.387 112.623  0.00  0.00     0.381 N 
ATOM     19  H   LIG d   1      -3.135  80.796 113.203  0.00  0.00    -0.090 HD
ATOM     20  H   LIG d   1      -2.869  80.050 111.784  0.00  0.00    -0.090 HD
ATOM     21  H   LIG d   1      -1.741  81.069 112.394  0.00  0.00    -0.090 HD
ENDBRANCH   5  18
BRANCH   3  22
ATOM     22  C   LIG d   1      -0.550  78.874 116.759  0.00  0.00     0.382 C 
ATOM     23  O   LIG d   1       0.032  77.969 117.404  0.00  0.00    -0.241 OA
ATOM     24  O   LIG d   1      -0.526  80.044 117.186  0.00  0.00    -0.241 OA
ENDBRANCH   3  22
TORSDOF 7
ENDMDL
MODEL 4
REMARK VINA RESULT:      -4.8      1.383      2.157
REMARK  7 active torsions:
REMARK  status: ('A' for Active; 'I' for Inactive)
REMARK    1  A    between atoms: C_2  and  C_3 
REMARK    2  A    between atoms: C_3  and  O_6 
REMARK    3  A    between atoms: C_3  and  C_4 
REMARK    4  A    between atoms: C_7  and  O_6 
REMARK    5  A    between atoms: C_9  and  C_10 
REMARK    6  A    between atoms: N_15  and  C_14 
REMARK    7  A    between atoms: N_20  and  C_19 
REMARK       I    between atoms: C_22  and  N_20 
ROOT
ATOM      1  C   LIG d   1      -3.184  78.840 115.445  0.00  0.00     0.161 C 
ATOM      2  C   LIG d   1      -3.201  79.867 114.487  0.00  0.00     0.016 C 
ATOM      3  C   LIG d   1      -2.639  79.737 113.196  0.00  0.00     0.038 C 
ATOM      4  C   LIG d   1      -2.152  78.511 112.720  0.00  0.00     0.028 C 
ATOM      5  C   LIG d   1      -1.656  77.586 113.825  0.00  0.00    -0.047 C 
ATOM      6  C   LIG d   1      -2.756  77.459 114.905  0.00  0.00     0.091 C 
ENDROOT
BRANCH   1   7
ATOM      7  O   LIG d   1      -4.471  78.749 116.088  0.00  0.00    -0.368 OA
BRANCH   7   8
ATOM      8  C   LIG d   1      -4.550  79.280 117.433  0.00  0.00     0.119 C 
BRANCH   8   9
ATOM      9  C   LIG d   1      -5.567  80.438 117.415  0.00  0.00     0.028 C 
ATOM     10  C   LIG d   1      -7.005  79.959 117.680  0.00  0.00     0.006 C 
ENDBRANCH   8   9
BRANCH   8  11
ATOM     11  C   LIG d   1      -3.223  79.914 117.861  0.00  0.00     0.028 C 
ATOM     12  C   LIG d   1      -3.399  80.993 118.941  0.00  0.00     0.006 C 
ENDBRANCH   8  11
ENDBRANCH   7   8
ENDBRANCH   1   7
BRANCH   6  13
ATOM     13  N   LIG d   1      -2.320  76.638 116.064  0.00  0.00    -0.311 N 
ATOM     14  C   LIG d   1      -2.555  75.331 116.166  0.00  0.00     0.210 C 
ATOM     15  C   LIG d   1      -2.038  74.680 117.453  0.00  0.00     0.109 C 
ATOM     16  O   LIG d   1      -3.114  74.643 115.299  0.00  0.00    -0.276 OA
ATOM     17  H   LIG d   1      -1.832  77.110 116.800  0.00  0.00     0.149 HD
ENDBRANCH   6  13
BRANCH   5  18
ATOM     18  N   LIG d   1      -1.306  76.295 113.203  0.00  0.00     0.381 N 
ATOM     19  H   LIG d   1      -1.135  76.426 112.226  0.00  0.00    -0.090 HD
ATOM     20  H   LIG d   1      -2.081  75.664 113.306  0.00  0.00    -0.090 HD
ATOM     21  H   LIG d   1      -0.497  75.914 113.641  0.00  0.00    -0.090 HD
ENDBRANCH   5  18
BRANCH   3  22
ATOM     22  C   LIG d   1      -2.525  80.853 112.381  0.00  0.00     0.382 C 
ATOM     23  O   LIG d   1      -3.485  81.654 112.276  0.00  0.00    -0.241 OA
ATOM     24  O   LIG d   1      -1.490  81.046 111.715  0.00  0.00    -0.241 OA
ENDBRANCH   3  22
TORSDOF 7
ENDMDL
MODEL 5
REMARK VINA RESULT:      -4.8      2.669      4.448
REMARK  7 active torsions:
REMARK  status: ('A' for Active; 'I' for Inactive)
REMARK    1  A    between atoms: C_2  and  C_3 
REMARK    2  A    between atoms: C_3  and  O_6 
REMARK    3  A    between atoms: C_3  and  C_4 
REMARK    4  A    between atoms: C_7  and  O_6 
REMARK    5  A    between atoms: C_9  and  C_10 
REMARK    6  A    between atoms: N_15  and  C_14 
REMARK    7  A    between atoms: N_20  and  C_19 
REMARK       I    between atoms: C_22  and  N_20 
ROOT
ATOM      1  C   LIG d   1      -2.668  77.525 115.079  0.00  0.00     0.161 C 
ATOM      2  C   LIG d   1      -3.266  76.937 113.952  0.00  0.00     0.016 C 
ATOM      3  C   LIG d   1      -3.227  77.513 112.661  0.00  0.00     0.038 C 
ATOM      4  C   LIG d   1      -2.452  78.647 112.378  0.00  0.00     0.028 C 
ATOM      5  C   LIG d   1      -2.243  79.555 113.586  0.00  0.00    -0.047 C 
ATOM      6  C   LIG d   1      -1.723  78.705 114.768  0.00  0.00     0.091 C 
ENDROOT
BRANCH   1   7
ATOM      7  O   LIG d   1      -1.977  76.518 115.845  0.00  0.00    -0.368 OA
BRANCH   7   8
ATOM      8  C   LIG d   1      -2.443  75.157 115.677  0.00  0.00     0.119 C 
BRANCH   8   9
ATOM      9  C   LIG d   1      -3.144  74.743 116.986  0.00  0.00     0.028 C 
ATOM     10  C   LIG d   1      -4.586  74.262 116.753  0.00  0.00     0.006 C 
ENDBRANCH   8   9
BRANCH   8  11
ATOM     11  C   LIG d   1      -1.273  74.182 115.518  0.00  0.00     0.028 C 
ATOM     12  C   LIG d   1      -0.189  74.704 114.562  0.00  0.00     0.006 C 
ENDBRANCH   8  11
ENDBRANCH   7   8
ENDBRANCH   1   7
BRANCH   6  13
ATOM     13  N   LIG d   1      -1.572  79.500 116.014  0.00  0.00    -0.311 N 
ATOM     14  C   LIG d   1      -0.461  80.164 116.330  0.00  0.00     0.210 C 
ATOM     15  C   LIG d   1      -0.509  80.903 117.671  0.00  0.00     0.109 C 
ATOM     16  O   LIG d   1       0.547  80.237 115.612  0.00  0.00    -0.276 OA
ATOM     17  H   LIG d   1      -2.354  79.521 116.640  0.00  0.00     0.149 HD
ENDBRANCH   6  13
BRANCH   5  18
ATOM     18  N   LIG d   1      -1.306  80.621 113.185  0.00  0.00     0.381 N 
ATOM     19  H   LIG d   1      -0.776  80.325 112.390  0.00  0.00    -0.090 HD
ATOM     20  H   LIG d   1      -0.669  80.796 113.942  0.00  0.00    -0.090 HD
ATOM     21  H   LIG d   1      -1.810  81.453 112.967  0.00  0.00    -0.090 HD
ENDBRANCH   5  18
BRANCH   3  22
ATOM     22  C   LIG d   1      -4.002  76.975 111.645  0.00  0.00     0.382 C 
ATOM     23  O   LIG d   1      -3.478  76.687 110.542  0.00  0.00    -0.241 OA
ATOM     24  O   LIG d   1      -5.227  76.814 111.802  0.00  0.00    -0.241 OA
ENDBRANCH   3  22
TORSDOF 7
ENDMDL
MODEL 6
REMARK VINA RESULT:      -4.7      2.851      4.154
REMARK  7 active torsions:
REMARK  status: ('A' for Active; 'I' for Inactive)
REMARK    1  A    between atoms: C_2  and  C_3 
REMARK    2  A    between atoms: C_3  and  O_6 
REMARK    3  A    between atoms: C_3  and  C_4 
REMARK    4  A    between atoms: C_7  and  O_6 
REMARK    5  A    between atoms: C_9  and  C_10 
REMARK    6  A    between atoms: N_15  and  C_14 
REMARK    7  A    between atoms: N_20  and  C_19 
REMARK       I    between atoms: C_22  and  N_20 
ROOT
ATOM      1  C   LIG d   1      -2.307  77.352 114.637  0.00  0.00     0.161 C 
ATOM      2  C   LIG d   1      -2.998  76.818 113.537  0.00  0.00     0.016 C 
ATOM      3  C   LIG d   1      -3.227  77.534 112.340  0.00  0.00     0.038 C 
ATOM      4  C   LIG d   1      -2.646  78.789 112.104  0.00  0.00     0.028 C 
ATOM      5  C   LIG d   1      -2.363  79.575 113.380  0.00  0.00    -0.047 C 
ATOM      6  C   LIG d   1      -1.570  78.678 114.357  0.00  0.00     0.091 C 
ENDROOT
BRANCH   1   7
ATOM      7  O   LIG d   1      -1.390  76.370 115.162  0.00  0.00    -0.368 OA
BRANCH   7   8
ATOM      8  C   LIG d   1      -1.695  75.855 116.481  0.00  0.00     0.119 C 
BRANCH   8   9
ATOM      9  C   LIG d   1      -0.363  75.723 117.245  0.00  0.00     0.028 C 
ATOM     10  C   LIG d   1      -0.340  76.563 118.533  0.00  0.00     0.006 C 
ENDBRANCH   8   9
BRANCH   8  11
ATOM     11  C   LIG d   1      -2.262  74.434 116.407  0.00  0.00     0.028 C 
ATOM     12  C   LIG d   1      -3.796  74.400 116.485  0.00  0.00     0.006 C 
ENDBRANCH   8  11
ENDBRANCH   7   8
ENDBRANCH   1   7
BRANCH   6  13
ATOM     13  N   LIG d   1      -1.324  79.341 115.664  0.00  0.00    -0.311 N 
ATOM     14  C   LIG d   1      -0.252  80.091 115.915  0.00  0.00     0.210 C 
ATOM     15  C   LIG d   1      -0.184  80.666 117.334  0.00  0.00     0.109 C 
ATOM     16  O   LIG d   1       0.632  80.361 115.089  0.00  0.00    -0.276 OA
ATOM     17  H   LIG d   1      -2.007  79.201 116.382  0.00  0.00     0.149 HD
ENDBRANCH   6  13
BRANCH   5  18
ATOM     18  N   LIG d   1      -1.634  80.799 112.997  0.00  0.00     0.381 N 
ATOM     19  H   LIG d   1      -1.059  81.103 113.757  0.00  0.00    -0.090 HD
ATOM     20  H   LIG d   1      -2.300  81.525 112.796  0.00  0.00    -0.090 HD
ATOM     21  H   LIG d   1      -1.071  80.624 112.194  0.00  0.00    -0.090 HD
ENDBRANCH   5  18
BRANCH   3  22
ATOM     22  C   LIG d   1      -4.080  77.012 111.379  0.00  0.00     0.382 C 
ATOM     23  O   LIG d   1      -3.633  76.694 110.251  0.00  0.00    -0.241 OA
ATOM     24  O   LIG d   1      -5.298  76.897 111.611  0.00  0.00    -0.241 OA
ENDBRANCH   3  22
TORSDOF 7
ENDMDL
MODEL 7
REMARK VINA RESULT:      -4.6      2.441      3.306
REMARK  7 active torsions:
REMARK  status: ('A' for Active; 'I' for Inactive)
REMARK    1  A    between atoms: C_2  and  C_3 
REMARK    2  A    between atoms: C_3  and  O_6 
REMARK    3  A    between atoms: C_3  and  C_4 
REMARK    4  A    between atoms: C_7  and  O_6 
REMARK    5  A    between atoms: C_9  and  C_10 
REMARK    6  A    between atoms: N_15  and  C_14 
REMARK    7  A    between atoms: N_20  and  C_19 
REMARK       I    between atoms: C_22  and  N_20 
ROOT
ATOM      1  C   LIG d   1      -2.727  77.763 115.173  0.00  0.00     0.161 C 
ATOM      2  C   LIG d   1      -2.955  78.467 113.979  0.00  0.00     0.016 C 
ATOM      3  C   LIG d   1      -2.089  79.473 113.491  0.00  0.00     0.038 C 
ATOM      4  C   LIG d   1      -0.850  79.740 114.092  0.00  0.00     0.028 C 
ATOM      5  C   LIG d   1      -0.814  79.407 115.580  0.00  0.00    -0.047 C 
ATOM      6  C   LIG d   1      -1.324  77.962 115.783  0.00  0.00     0.091 C 
ENDROOT
BRANCH   1   7
ATOM      7  O   LIG d   1      -2.991  76.361 114.971  0.00  0.00    -0.368 OA
BRANCH   7   8
ATOM      8  C   LIG d   1      -4.181  75.837 115.611  0.00  0.00     0.119 C 
BRANCH   8   9
ATOM      9  C   LIG d   1      -3.824  74.456 116.194  0.00  0.00     0.028 C 
ATOM     10  C   LIG d   1      -3.891  74.433 117.730  0.00  0.00     0.006 C 
ENDBRANCH   8   9
BRANCH   8  11
ATOM     11  C   LIG d   1      -5.291  75.572 114.590  0.00  0.00     0.028 C 
ATOM     12  C   LIG d   1      -6.029  74.247 114.842  0.00  0.00     0.006 C 
ENDBRANCH   8  11
ENDBRANCH   7   8
ENDBRANCH   1   7
BRANCH   6  13
ATOM     13  N   LIG d   1      -1.400  77.585 117.219  0.00  0.00    -0.311 N 
ATOM     14  C   LIG d   1      -0.810  76.504 117.725  0.00  0.00     0.210 C 
ATOM     15  C   LIG d   1      -1.031  76.289 119.226  0.00  0.00     0.109 C 
ATOM     16  O   LIG d   1      -0.097  75.720 117.081  0.00  0.00    -0.276 OA
ATOM     17  H   LIG d   1      -1.933  78.183 117.820  0.00  0.00     0.149 HD
ENDBRANCH   6  13
BRANCH   5  18
ATOM     18  N   LIG d   1       0.572  79.603 116.047  0.00  0.00     0.381 N 
ATOM     19  H   LIG d   1       0.941  78.736 116.383  0.00  0.00    -0.090 HD
ATOM     20  H   LIG d   1       0.570  80.261 116.806  0.00  0.00    -0.090 HD
ATOM     21  H   LIG d   1       1.138  79.946 115.302  0.00  0.00    -0.090 HD
ENDBRANCH   5  18
BRANCH   3  22
ATOM     22  C   LIG d   1      -2.480  80.253 112.413  0.00  0.00     0.382 C 
ATOM     23  O   LIG d   1      -3.539  80.923 112.475  0.00  0.00    -0.241 OA
ATOM     24  O   LIG d   1      -1.810  80.261 111.363  0.00  0.00    -0.241 OA
ENDBRANCH   3  22
TORSDOF 7
ENDMDL
MODEL 8
REMARK VINA RESULT:      -4.5      2.586      5.384
REMARK  7 active torsions:
REMARK  status: ('A' for Active; 'I' for Inactive)
REMARK    1  A    between atoms: C_2  and  C_3 
REMARK    2  A    between atoms: C_3  and  O_6 
REMARK    3  A    between atoms: C_3  and  C_4 
REMARK    4  A    between atoms: C_7  and  O_6 
REMARK    5  A    between atoms: C_9  and  C_10 
REMARK    6  A    between atoms: N_15  and  C_14 
REMARK    7  A    between atoms: N_20  and  C_19 
REMARK       I    between atoms: C_22  and  N_20 
ROOT
ATOM      1  C   LIG d   1      -2.188  76.976 114.608  0.00  0.00     0.161 C 
ATOM      2  C   LIG d   1      -3.372  76.376 114.147  0.00  0.00     0.016 C 
ATOM      3  C   LIG d   1      -4.571  76.345 114.896  0.00  0.00     0.038 C 
ATOM      4  C   LIG d   1      -4.710  77.048 116.102  0.00  0.00     0.028 C 
ATOM      5  C   LIG d   1      -3.393  77.243 116.845  0.00  0.00    -0.047 C 
ATOM      6  C   LIG d   1      -2.353  77.844 115.872  0.00  0.00     0.091 C 
ENDROOT
BRANCH   1   7
ATOM      7  O   LIG d   1      -1.585  77.744 113.548  0.00  0.00    -0.368 OA
BRANCH   7   8
ATOM      8  C   LIG d   1      -2.460  78.663 112.849  0.00  0.00     0.119 C 
BRANCH   8   9
ATOM      9  C   LIG d   1      -2.311  78.387 111.340  0.00  0.00     0.028 C 
ATOM     10  C   LIG d   1      -3.249  77.269 110.853  0.00  0.00     0.006 C 
ENDBRANCH   8   9
BRANCH   8  11
ATOM     11  C   LIG d   1      -2.012  80.115 113.042  0.00  0.00     0.028 C 
ATOM     12  C   LIG d   1      -3.019  81.129 112.476  0.00  0.00     0.006 C 
ENDBRANCH   8  11
ENDBRANCH   7   8
ENDBRANCH   1   7
BRANCH   6  13
ATOM     13  N   LIG d   1      -1.011  77.989 116.496  0.00  0.00    -0.311 N 
ATOM     14  C   LIG d   1      -0.382  79.157 116.618  0.00  0.00     0.210 C 
ATOM     15  C   LIG d   1       1.001  79.080 117.273  0.00  0.00     0.109 C 
ATOM     16  O   LIG d   1      -0.851  80.252 116.275  0.00  0.00    -0.276 OA
ATOM     17  H   LIG d   1      -0.571  77.154 116.831  0.00  0.00     0.149 HD
ENDBRANCH   6  13
BRANCH   5  18
ATOM     18  N   LIG d   1      -3.663  78.107 118.010  0.00  0.00     0.381 N 
ATOM     19  H   LIG d   1      -4.229  77.616 118.672  0.00  0.00    -0.090 HD
ATOM     20  H   LIG d   1      -4.169  78.919 117.702  0.00  0.00    -0.090 HD
ATOM     21  H   LIG d   1      -2.805  78.384 118.435  0.00  0.00    -0.090 HD
ENDBRANCH   5  18
BRANCH   3  22
ATOM     22  C   LIG d   1      -5.634  75.570 114.458  0.00  0.00     0.382 C 
ATOM     23  O   LIG d   1      -6.733  76.111 114.184  0.00  0.00    -0.241 OA
ATOM     24  O   LIG d   1      -5.523  74.332 114.377  0.00  0.00    -0.241 OA
ENDBRANCH   3  22
TORSDOF 7
ENDMDL
MODEL 9
REMARK VINA RESULT:      -4.5      2.676      5.528
REMARK  7 active torsions:
REMARK  status: ('A' for Active; 'I' for Inactive)
REMARK    1  A    between atoms: C_2  and  C_3 
REMARK    2  A    between atoms: C_3  and  O_6 
REMARK    3  A    between atoms: C_3  and  C_4 
REMARK    4  A    between atoms: C_7  and  O_6 
REMARK    5  A    between atoms: C_9  and  C_10 
REMARK    6  A    between atoms: N_15  and  C_14 
REMARK    7  A    between atoms: N_20  and  C_19 
REMARK       I    between atoms: C_22  and  N_20 
ROOT
ATOM      1  C   LIG d   1      -1.542  75.965 115.277  0.00  0.00     0.161 C 
ATOM      2  C   LIG d   1      -1.230  75.498 116.564  0.00  0.00     0.016 C 
ATOM      3  C   LIG d   1      -0.860  76.349 117.631  0.00  0.00     0.038 C 
ATOM      4  C   LIG d   1      -0.924  77.746 117.523  0.00  0.00     0.028 C 
ATOM      5  C   LIG d   1      -0.747  78.251 116.095  0.00  0.00    -0.047 C 
ATOM      6  C   LIG d   1      -1.726  77.494 115.170  0.00  0.00     0.091 C 
ENDROOT
BRANCH   1   7
ATOM      7  O   LIG d   1      -2.712  75.284 114.780  0.00  0.00    -0.368 OA
BRANCH   7   8
ATOM      8  C   LIG d   1      -3.975  75.671 115.375  0.00  0.00     0.119 C 
BRANCH   8   9
ATOM      9  C   LIG d   1      -4.559  74.427 116.072  0.00  0.00     0.028 C 
ATOM     10  C   LIG d   1      -4.550  74.555 117.605  0.00  0.00     0.006 C 
ENDBRANCH   8   9
BRANCH   8  11
ATOM     11  C   LIG d   1      -5.001  76.055 114.304  0.00  0.00     0.028 C 
ATOM     12  C   LIG d   1      -6.393  75.461 114.572  0.00  0.00     0.006 C 
ENDBRANCH   8  11
ENDBRANCH   7   8
ENDBRANCH   1   7
BRANCH   6  13
ATOM     13  N   LIG d   1      -1.560  77.868 113.741  0.00  0.00    -0.311 N 
ATOM     14  C   LIG d   1      -2.247  78.847 113.155  0.00  0.00     0.210 C 
ATOM     15  C   LIG d   1      -1.937  79.055 111.669  0.00  0.00     0.109 C 
ATOM     16  O   LIG d   1      -3.060  79.584 113.732  0.00  0.00    -0.276 OA
ATOM     17  H   LIG d   1      -0.898  77.342 113.206  0.00  0.00     0.149 HD
ENDBRANCH   6  13
BRANCH   5  18
ATOM     18  N   LIG d   1      -0.974  79.709 116.108  0.00  0.00     0.381 N 
ATOM     19  H   LIG d   1      -0.608  80.116 115.270  0.00  0.00    -0.090 HD
ATOM     20  H   LIG d   1      -0.487  80.107 116.891  0.00  0.00    -0.090 HD
ATOM     21  H   LIG d   1      -1.949  79.902 116.181  0.00  0.00    -0.090 HD
ENDBRANCH   5  18
BRANCH   3  22
ATOM     22  C   LIG d   1      -0.381  75.801 118.812  0.00  0.00     0.382 C 
ATOM     23  O   LIG d   1      -0.770  74.667 119.180  0.00  0.00    -0.241 OA
ATOM     24  O   LIG d   1       0.402  76.445 119.535  0.00  0.00    -0.241 OA
ENDBRANCH   3  22
TORSDOF 7
ENDMDL
