MODEL 1
REMARK VINA RESULT:      -5.7      0.000      0.000
REMARK  7 active torsions:
REMARK  status: ('A' for Active; 'I' for Inactive)
REMARK    1  A    between atoms: C_2  and  C_3 
REMARK    2  A    between atoms: C_3  and  O_6 
REMARK    3  A    between atoms: C_3  and  C_4 
REMARK    4  A    between atoms: C_7  and  O_6 
REMARK    5  A    between atoms: C_9  and  C_10 
REMARK    6  A    between atoms: N_15  and  C_14 
REMARK    7  A    between atoms: N_20  and  C_19 
REMARK       I    between atoms: C_22  and  N_20 
ROOT
ATOM      1  C   LIG d   1      -2.818  78.281 115.331  0.00  0.00     0.161 C 
ATOM      2  C   LIG d   1      -2.986  79.446 114.564  0.00  0.00     0.016 C 
ATOM      3  C   LIG d   1      -2.228  79.731 113.405  0.00  0.00     0.038 C 
ATOM      4  C   LIG d   1      -1.349  78.793 112.845  0.00  0.00     0.028 C 
ATOM      5  C   LIG d   1      -0.777  77.814 113.865  0.00  0.00    -0.047 C 
ATOM      6  C   LIG d   1      -1.941  77.195 114.673  0.00  0.00     0.091 C 
ENDROOT
BRANCH   1   7
ATOM      7  O   LIG d   1      -4.105  77.739 115.685  0.00  0.00    -0.368 OA
BRANCH   7   8
ATOM      8  C   LIG d   1      -4.777  78.370 116.803  0.00  0.00     0.119 C 
BRANCH   8   9
ATOM      9  C   LIG d   1      -4.238  77.720 118.093  0.00  0.00     0.028 C 
ATOM     10  C   LIG d   1      -4.881  78.310 119.359  0.00  0.00     0.006 C 
ENDBRANCH   8   9
BRANCH   8  11
ATOM     11  C   LIG d   1      -6.278  78.068 116.794  0.00  0.00     0.028 C 
ATOM     12  C   LIG d   1      -6.608  76.703 116.168  0.00  0.00     0.006 C 
ENDBRANCH   8  11
ENDBRANCH   7   8
ENDBRANCH   1   7
BRANCH   6  13
ATOM     13  N   LIG d   1      -1.464  76.289 115.750  0.00  0.00    -0.311 N 
ATOM     14  C   LIG d   1      -1.228  74.991 115.565  0.00  0.00     0.210 C 
ATOM     15  C   LIG d   1      -0.762  74.234 116.812  0.00  0.00     0.109 C 
ATOM     16  O   LIG d   1      -1.330  74.401 114.478  0.00  0.00    -0.276 OA
ATOM     17  H   LIG d   1      -1.325  76.691 116.656  0.00  0.00     0.149 HD
ENDBRANCH   6  13
BRANCH   5  18
ATOM     18  N   LIG d   1       0.012  76.811 113.126  0.00  0.00     0.381 N 
ATOM     19  H   LIG d   1       0.265  77.172 112.228  0.00  0.00    -0.090 HD
ATOM     20  H   LIG d   1      -0.552  75.991 112.989  0.00  0.00    -0.090 HD
ATOM     21  H   LIG d   1       0.832  76.576 113.641  0.00  0.00    -0.090 HD
ENDBRANCH   5  18
BRANCH   3  22
ATOM     22  C   LIG d   1      -2.318  80.984 112.816  0.00  0.00     0.382 C 
ATOM     23  O   LIG d   1      -1.280  81.566 112.420  0.00  0.00    -0.241 OA
ATOM     24  O   LIG d   1      -3.419  81.558 112.717  0.00  0.00    -0.241 OA
ENDBRANCH   3  22
TORSDOF 7
ENDMDL
MODEL 2
REMARK VINA RESULT:      -5.6      0.571      1.451
REMARK  7 active torsions:
REMARK  status: ('A' for Active; 'I' for Inactive)
REMARK    1  A    between atoms: C_2  and  C_3 
REMARK    2  A    between atoms: C_3  and  O_6 
REMARK    3  A    between atoms: C_3  and  C_4 
REMARK    4  A    between atoms: C_7  and  O_6 
REMARK    5  A    between atoms: C_9  and  C_10 
REMARK    6  A    between atoms: N_15  and  C_14 
REMARK    7  A    between atoms: N_20  and  C_19 
REMARK       I    between atoms: C_22  and  N_20 
ROOT
ATOM      1  C   LIG d   1      -2.843  78.288 115.317  0.00  0.00     0.161 C 
ATOM      2  C   LIG d   1      -2.991  79.448 114.538  0.00  0.00     0.016 C 
ATOM      3  C   LIG d   1      -2.209  79.721 113.393  0.00  0.00     0.038 C 
ATOM      4  C   LIG d   1      -1.322  78.775 112.858  0.00  0.00     0.028 C 
ATOM      5  C   LIG d   1      -0.776  77.801 113.897  0.00  0.00    -0.047 C 
ATOM      6  C   LIG d   1      -1.958  77.193 114.685  0.00  0.00     0.091 C 
ENDROOT
BRANCH   1   7
ATOM      7  O   LIG d   1      -4.140  77.754 115.649  0.00  0.00    -0.368 OA
BRANCH   7   8
ATOM      8  C   LIG d   1      -4.505  77.791 117.051  0.00  0.00     0.119 C 
BRANCH   8   9
ATOM      9  C   LIG d   1      -6.030  77.588 117.138  0.00  0.00     0.028 C 
ATOM     10  C   LIG d   1      -6.542  76.543 116.132  0.00  0.00     0.006 C 
ENDBRANCH   8   9
BRANCH   8  11
ATOM     11  C   LIG d   1      -4.244  79.172 117.658  0.00  0.00     0.028 C 
ATOM     12  C   LIG d   1      -5.361  80.181 117.346  0.00  0.00     0.006 C 
ENDBRANCH   8  11
ENDBRANCH   7   8
ENDBRANCH   1   7
BRANCH   6  13
ATOM     13  N   LIG d   1      -1.507  76.293 115.778  0.00  0.00    -0.311 N 
ATOM     14  C   LIG d   1      -1.272  74.993 115.607  0.00  0.00     0.210 C 
ATOM     15  C   LIG d   1      -0.834  74.244 116.870  0.00  0.00     0.109 C 
ATOM     16  O   LIG d   1      -1.353  74.396 114.523  0.00  0.00    -0.276 OA
ATOM     17  H   LIG d   1      -1.386  76.701 116.684  0.00  0.00     0.149 HD
ENDBRANCH   6  13
BRANCH   5  18
ATOM     18  N   LIG d   1       0.024  76.789 113.181  0.00  0.00     0.381 N 
ATOM     19  H   LIG d   1      -0.066  76.922 112.194  0.00  0.00    -0.090 HD
ATOM     20  H   LIG d   1      -0.329  75.876 113.410  0.00  0.00    -0.090 HD
ATOM     21  H   LIG d   1       0.981  76.860 113.448  0.00  0.00    -0.090 HD
ENDBRANCH   5  18
BRANCH   3  22
ATOM     22  C   LIG d   1      -2.281  80.969 112.793  0.00  0.00     0.382 C 
ATOM     23  O   LIG d   1      -1.234  81.533 112.392  0.00  0.00    -0.241 OA
ATOM     24  O   LIG d   1      -3.374  81.558 112.688  0.00  0.00    -0.241 OA
ENDBRANCH   3  22
TORSDOF 7
ENDMDL
MODEL 3
REMARK VINA RESULT:      -5.4      1.586      1.967
REMARK  7 active torsions:
REMARK  status: ('A' for Active; 'I' for Inactive)
REMARK    1  A    between atoms: C_2  and  C_3 
REMARK    2  A    between atoms: C_3  and  O_6 
REMARK    3  A    between atoms: C_3  and  C_4 
REMARK    4  A    between atoms: C_7  and  O_6 
REMARK    5  A    between atoms: C_9  and  C_10 
REMARK    6  A    between atoms: N_15  and  C_14 
REMARK    7  A    between atoms: N_20  and  C_19 
REMARK       I    between atoms: C_22  and  N_20 
ROOT
ATOM      1  C   LIG d   1      -2.386  77.643 116.064  0.00  0.00     0.161 C 
ATOM      2  C   LIG d   1      -2.744  78.476 114.991  0.00  0.00     0.016 C 
ATOM      3  C   LIG d   1      -2.020  78.536 113.777  0.00  0.00     0.038 C 
ATOM      4  C   LIG d   1      -0.970  77.650 113.496  0.00  0.00     0.028 C 
ATOM      5  C   LIG d   1      -0.257  77.140 114.744  0.00  0.00    -0.047 C 
ATOM      6  C   LIG d   1      -1.310  76.589 115.733  0.00  0.00     0.091 C 
ENDROOT
BRANCH   1   7
ATOM      7  O   LIG d   1      -3.563  77.007 116.601  0.00  0.00    -0.368 OA
BRANCH   7   8
ATOM      8  C   LIG d   1      -4.633  76.746 115.660  0.00  0.00     0.119 C 
BRANCH   8   9
ATOM      9  C   LIG d   1      -5.965  76.972 116.399  0.00  0.00     0.028 C 
ATOM     10  C   LIG d   1      -6.114  78.414 116.913  0.00  0.00     0.006 C 
ENDBRANCH   8   9
BRANCH   8  11
ATOM     11  C   LIG d   1      -4.651  75.276 115.231  0.00  0.00     0.028 C 
ATOM     12  C   LIG d   1      -6.074  74.701 115.135  0.00  0.00     0.006 C 
ENDBRANCH   8  11
ENDBRANCH   7   8
ENDBRANCH   1   7
BRANCH   6  13
ATOM     13  N   LIG d   1      -0.704  76.146 117.016  0.00  0.00    -0.311 N 
ATOM     14  C   LIG d   1      -1.038  75.013 117.632  0.00  0.00     0.210 C 
ATOM     15  C   LIG d   1      -0.308  74.756 118.954  0.00  0.00     0.109 C 
ATOM     16  O   LIG d   1      -1.845  74.180 117.192  0.00  0.00    -0.276 OA
ATOM     17  H   LIG d   1      -0.017  76.747 117.427  0.00  0.00     0.149 HD
ENDBRANCH   6  13
BRANCH   5  18
ATOM     18  N   LIG d   1       0.721  76.122 114.314  0.00  0.00     0.381 N 
ATOM     19  H   LIG d   1       0.259  75.412 113.782  0.00  0.00    -0.090 HD
ATOM     20  H   LIG d   1       1.124  75.694 115.128  0.00  0.00    -0.090 HD
ATOM     21  H   LIG d   1       1.435  76.547 113.764  0.00  0.00    -0.090 HD
ENDBRANCH   5  18
BRANCH   3  22
ATOM     22  C   LIG d   1      -2.321  79.519 112.846  0.00  0.00     0.382 C 
ATOM     23  O   LIG d   1      -1.787  79.490 111.711  0.00  0.00    -0.241 OA
ATOM     24  O   LIG d   1      -3.084  80.457 113.142  0.00  0.00    -0.241 OA
ENDBRANCH   3  22
TORSDOF 7
ENDMDL
MODEL 4
REMARK VINA RESULT:      -5.2      1.940      2.726
REMARK  7 active torsions:
REMARK  status: ('A' for Active; 'I' for Inactive)
REMARK    1  A    between atoms: C_2  and  C_3 
REMARK    2  A    between atoms: C_3  and  O_6 
REMARK    3  A    between atoms: C_3  and  C_4 
REMARK    4  A    between atoms: C_7  and  O_6 
REMARK    5  A    between atoms: C_9  and  C_10 
REMARK    6  A    between atoms: N_15  and  C_14 
REMARK    7  A    between atoms: N_20  and  C_19 
REMARK       I    between atoms: C_22  and  N_20 
ROOT
ATOM      1  C   LIG d   1      -3.143  77.048 115.357  0.00  0.00     0.161 C 
ATOM      2  C   LIG d   1      -3.175  77.509 114.030  0.00  0.00     0.016 C 
ATOM      3  C   LIG d   1      -2.020  77.644 113.226  0.00  0.00     0.038 C 
ATOM      4  C   LIG d   1      -0.764  77.181 113.648  0.00  0.00     0.028 C 
ATOM      5  C   LIG d   1      -0.599  77.176 115.164  0.00  0.00    -0.047 C 
ATOM      6  C   LIG d   1      -1.798  76.433 115.797  0.00  0.00     0.091 C 
ENDROOT
BRANCH   1   7
ATOM      7  O   LIG d   1      -4.217  76.111 115.574  0.00  0.00    -0.368 OA
BRANCH   7   8
ATOM      8  C   LIG d   1      -5.255  76.532 116.492  0.00  0.00     0.119 C 
BRANCH   8   9
ATOM      9  C   LIG d   1      -6.555  76.690 115.680  0.00  0.00     0.028 C 
ATOM     10  C   LIG d   1      -6.703  75.611 114.593  0.00  0.00     0.006 C 
ENDBRANCH   8   9
BRANCH   8  11
ATOM     11  C   LIG d   1      -4.963  77.923 117.063  0.00  0.00     0.028 C 
ATOM     12  C   LIG d   1      -4.862  77.928 118.597  0.00  0.00     0.006 C 
ENDBRANCH   8  11
ENDBRANCH   7   8
ENDBRANCH   1   7
BRANCH   6  13
ATOM     13  N   LIG d   1      -1.758  76.455 117.282  0.00  0.00    -0.311 N 
ATOM     14  C   LIG d   1      -1.672  75.355 118.029  0.00  0.00     0.210 C 
ATOM     15  C   LIG d   1      -1.665  75.600 119.541  0.00  0.00     0.109 C 
ATOM     16  O   LIG d   1      -1.569  74.203 117.582  0.00  0.00    -0.276 OA
ATOM     17  H   LIG d   1      -1.805  77.351 117.727  0.00  0.00     0.149 HD
ENDBRANCH   6  13
BRANCH   5  18
ATOM     18  N   LIG d   1       0.699  76.543 115.468  0.00  0.00     0.381 N 
ATOM     19  H   LIG d   1       1.388  77.248 115.635  0.00  0.00    -0.090 HD
ATOM     20  H   LIG d   1       0.989  76.000 114.674  0.00  0.00    -0.090 HD
ATOM     21  H   LIG d   1       0.612  75.956 116.268  0.00  0.00    -0.090 HD
ENDBRANCH   5  18
BRANCH   3  22
ATOM     22  C   LIG d   1      -2.107  78.285 112.000  0.00  0.00     0.382 C 
ATOM     23  O   LIG d   1      -1.871  79.514 111.916  0.00  0.00    -0.241 OA
ATOM     24  O   LIG d   1      -2.463  77.659 110.984  0.00  0.00    -0.241 OA
ENDBRANCH   3  22
TORSDOF 7
ENDMDL
MODEL 5
REMARK VINA RESULT:      -5.1      2.323      5.255
REMARK  7 active torsions:
REMARK  status: ('A' for Active; 'I' for Inactive)
REMARK    1  A    between atoms: C_2  and  C_3 
REMARK    2  A    between atoms: C_3  and  O_6 
REMARK    3  A    between atoms: C_3  and  C_4 
REMARK    4  A    between atoms: C_7  and  O_6 
REMARK    5  A    between atoms: C_9  and  C_10 
REMARK    6  A    between atoms: N_15  and  C_14 
REMARK    7  A    between atoms: N_20  and  C_19 
REMARK       I    between atoms: C_22  and  N_20 
ROOT
ATOM      1  C   LIG d   1      -1.982  75.533 115.029  0.00  0.00     0.161 C 
ATOM      2  C   LIG d   1      -1.798  74.916 116.277  0.00  0.00     0.016 C 
ATOM      3  C   LIG d   1      -0.969  75.446 117.292  0.00  0.00     0.038 C 
ATOM      4  C   LIG d   1      -0.383  76.716 117.183  0.00  0.00     0.028 C 
ATOM      5  C   LIG d   1      -0.133  77.145 115.741  0.00  0.00    -0.047 C 
ATOM      6  C   LIG d   1      -1.439  76.974 114.933  0.00  0.00     0.091 C 
ENDROOT
BRANCH   1   7
ATOM      7  O   LIG d   1      -3.377  75.498 114.668  0.00  0.00    -0.368 OA
BRANCH   7   8
ATOM      8  C   LIG d   1      -4.319  75.446 115.768  0.00  0.00     0.119 C 
BRANCH   8   9
ATOM      9  C   LIG d   1      -5.507  74.572 115.320  0.00  0.00     0.028 C 
ATOM     10  C   LIG d   1      -6.807  75.381 115.170  0.00  0.00     0.006 C 
ENDBRANCH   8   9
BRANCH   8  11
ATOM     11  C   LIG d   1      -4.917  76.827 116.054  0.00  0.00     0.028 C 
ATOM     12  C   LIG d   1      -4.366  77.459 117.342  0.00  0.00     0.006 C 
ENDBRANCH   8  11
ENDBRANCH   7   8
ENDBRANCH   1   7
BRANCH   6  13
ATOM     13  N   LIG d   1      -1.261  77.292 113.492  0.00  0.00    -0.311 N 
ATOM     14  C   LIG d   1      -2.062  78.116 112.818  0.00  0.00     0.210 C 
ATOM     15  C   LIG d   1      -1.712  78.290 111.337  0.00  0.00     0.109 C 
ATOM     16  O   LIG d   1      -3.009  78.744 113.315  0.00  0.00    -0.276 OA
ATOM     17  H   LIG d   1      -0.497  76.850 113.019  0.00  0.00     0.149 HD
ENDBRANCH   6  13
BRANCH   5  18
ATOM     18  N   LIG d   1       0.351  78.539 115.769  0.00  0.00     0.381 N 
ATOM     19  H   LIG d   1      -0.417  79.161 115.921  0.00  0.00    -0.090 HD
ATOM     20  H   LIG d   1       0.762  78.757 114.878  0.00  0.00    -0.090 HD
ATOM     21  H   LIG d   1       1.027  78.651 116.492  0.00  0.00    -0.090 HD
ENDBRANCH   5  18
BRANCH   3  22
ATOM     22  C   LIG d   1      -0.687  74.685 118.417  0.00  0.00     0.382 C 
ATOM     23  O   LIG d   1      -1.623  74.180 119.083  0.00  0.00    -0.241 OA
ATOM     24  O   LIG d   1       0.489  74.535 118.799  0.00  0.00    -0.241 OA
ENDBRANCH   3  22
TORSDOF 7
ENDMDL
MODEL 6
REMARK VINA RESULT:      -5.0      3.151      6.436
REMARK  7 active torsions:
REMARK  status: ('A' for Active; 'I' for Inactive)
REMARK    1  A    between atoms: C_2  and  C_3 
REMARK    2  A    between atoms: C_3  and  O_6 
REMARK    3  A    between atoms: C_3  and  C_4 
REMARK    4  A    between atoms: C_7  and  O_6 
REMARK    5  A    between atoms: C_9  and  C_10 
REMARK    6  A    between atoms: N_15  and  C_14 
REMARK    7  A    between atoms: N_20  and  C_19 
REMARK       I    between atoms: C_22  and  N_20 
ROOT
ATOM      1  C   LIG d   1      -4.188  78.745 116.492  0.00  0.00     0.161 C 
ATOM      2  C   LIG d   1      -4.076  77.477 115.898  0.00  0.00     0.016 C 
ATOM      3  C   LIG d   1      -5.159  76.577 115.775  0.00  0.00     0.038 C 
ATOM      4  C   LIG d   1      -6.472  76.948 116.103  0.00  0.00     0.028 C 
ATOM      5  C   LIG d   1      -6.545  78.033 117.172  0.00  0.00    -0.047 C 
ATOM      6  C   LIG d   1      -5.635  79.210 116.755  0.00  0.00     0.091 C 
ENDROOT
BRANCH   1   7
ATOM      7  O   LIG d   1      -3.485  79.720 115.696  0.00  0.00    -0.368 OA
BRANCH   7   8
ATOM      8  C   LIG d   1      -2.426  79.209 114.851  0.00  0.00     0.119 C 
BRANCH   8   9
ATOM      9  C   LIG d   1      -1.088  79.492 115.562  0.00  0.00     0.028 C 
ATOM     10  C   LIG d   1      -0.228  78.227 115.719  0.00  0.00     0.006 C 
ENDBRANCH   8   9
BRANCH   8  11
ATOM     11  C   LIG d   1      -2.351  79.976 113.527  0.00  0.00     0.028 C 
ATOM     12  C   LIG d   1      -2.282  79.047 112.304  0.00  0.00     0.006 C 
ENDBRANCH   8  11
ENDBRANCH   7   8
ENDBRANCH   1   7
BRANCH   6  13
ATOM     13  N   LIG d   1      -5.583  80.279 117.786  0.00  0.00    -0.311 N 
ATOM     14  C   LIG d   1      -6.337  81.377 117.743  0.00  0.00     0.210 C 
ATOM     15  C   LIG d   1      -6.112  82.361 118.895  0.00  0.00     0.109 C 
ATOM     16  O   LIG d   1      -7.193  81.613 116.877  0.00  0.00    -0.276 OA
ATOM     17  H   LIG d   1      -4.938  80.154 118.541  0.00  0.00     0.149 HD
ENDBRANCH   6  13
BRANCH   5  18
ATOM     18  N   LIG d   1      -7.961  78.420 117.318  0.00  0.00     0.381 N 
ATOM     19  H   LIG d   1      -8.270  78.893 116.492  0.00  0.00    -0.090 HD
ATOM     20  H   LIG d   1      -8.048  79.052 118.094  0.00  0.00    -0.090 HD
ATOM     21  H   LIG d   1      -8.522  77.611 117.475  0.00  0.00    -0.090 HD
ENDBRANCH   5  18
BRANCH   3  22
ATOM     22  C   LIG d   1      -4.928  75.276 115.355  0.00  0.00     0.382 C 
ATOM     23  O   LIG d   1      -3.905  75.008 114.680  0.00  0.00    -0.241 OA
ATOM     24  O   LIG d   1      -5.751  74.375 115.605  0.00  0.00    -0.241 OA
ENDBRANCH   3  22
TORSDOF 7
ENDMDL
MODEL 7
REMARK VINA RESULT:      -4.9      2.944      5.271
REMARK  7 active torsions:
REMARK  status: ('A' for Active; 'I' for Inactive)
REMARK    1  A    between atoms: C_2  and  C_3 
REMARK    2  A    between atoms: C_3  and  O_6 
REMARK    3  A    between atoms: C_3  and  C_4 
REMARK    4  A    between atoms: C_7  and  O_6 
REMARK    5  A    between atoms: C_9  and  C_10 
REMARK    6  A    between atoms: N_15  and  C_14 
REMARK    7  A    between atoms: N_20  and  C_19 
REMARK       I    between atoms: C_22  and  N_20 
ROOT
ATOM      1  C   LIG d   1      -4.584  77.780 116.461  0.00  0.00     0.161 C 
ATOM      2  C   LIG d   1      -5.942  78.117 116.590  0.00  0.00     0.016 C 
ATOM      3  C   LIG d   1      -6.405  79.187 117.389  0.00  0.00     0.038 C 
ATOM      4  C   LIG d   1      -5.524  80.093 117.999  0.00  0.00     0.028 C 
ATOM      5  C   LIG d   1      -4.156  79.493 118.308  0.00  0.00    -0.047 C 
ATOM      6  C   LIG d   1      -3.601  78.825 117.029  0.00  0.00     0.091 C 
ENDROOT
BRANCH   1   7
ATOM      7  O   LIG d   1      -4.278  77.504 115.079  0.00  0.00    -0.368 OA
BRANCH   7   8
ATOM      8  C   LIG d   1      -4.051  76.114 114.742  0.00  0.00     0.119 C 
BRANCH   8   9
ATOM      9  C   LIG d   1      -5.355  75.566 114.130  0.00  0.00     0.028 C 
ATOM     10  C   LIG d   1      -6.056  74.555 115.051  0.00  0.00     0.006 C 
ENDBRANCH   8   9
BRANCH   8  11
ATOM     11  C   LIG d   1      -3.806  75.269 115.996  0.00  0.00     0.028 C 
ATOM     12  C   LIG d   1      -2.359  74.760 116.098  0.00  0.00     0.006 C 
ENDBRANCH   8  11
ENDBRANCH   7   8
ENDBRANCH   1   7
BRANCH   6  13
ATOM     13  N   LIG d   1      -2.304  78.140 117.266  0.00  0.00    -0.311 N 
ATOM     14  C   LIG d   1      -1.187  78.437 116.604  0.00  0.00     0.210 C 
ATOM     15  C   LIG d   1       0.035  77.596 116.987  0.00  0.00     0.109 C 
ATOM     16  O   LIG d   1      -1.084  79.338 115.758  0.00  0.00    -0.276 OA
ATOM     17  H   LIG d   1      -2.289  77.416 117.957  0.00  0.00     0.149 HD
ENDBRANCH   6  13
BRANCH   5  18
ATOM     18  N   LIG d   1      -3.296  80.580 118.812  0.00  0.00     0.381 N 
ATOM     19  H   LIG d   1      -3.281  80.563 119.813  0.00  0.00    -0.090 HD
ATOM     20  H   LIG d   1      -3.680  81.461 118.518  0.00  0.00    -0.090 HD
ATOM     21  H   LIG d   1      -2.372  80.476 118.456  0.00  0.00    -0.090 HD
ENDBRANCH   5  18
BRANCH   3  22
ATOM     22  C   LIG d   1      -7.764  79.335 117.618  0.00  0.00     0.382 C 
ATOM     23  O   LIG d   1      -8.383  80.304 117.114  0.00  0.00    -0.241 OA
ATOM     24  O   LIG d   1      -8.371  78.538 118.358  0.00  0.00    -0.241 OA
ENDBRANCH   3  22
TORSDOF 7
ENDMDL
MODEL 8
REMARK VINA RESULT:      -4.8      3.428      5.178
REMARK  7 active torsions:
REMARK  status: ('A' for Active; 'I' for Inactive)
REMARK    1  A    between atoms: C_2  and  C_3 
REMARK    2  A    between atoms: C_3  and  O_6 
REMARK    3  A    between atoms: C_3  and  C_4 
REMARK    4  A    between atoms: C_7  and  O_6 
REMARK    5  A    between atoms: C_9  and  C_10 
REMARK    6  A    between atoms: N_15  and  C_14 
REMARK    7  A    between atoms: N_20  and  C_19 
REMARK       I    between atoms: C_22  and  N_20 
ROOT
ATOM      1  C   LIG d   1      -5.568  78.109 117.177  0.00  0.00     0.161 C 
ATOM      2  C   LIG d   1      -6.547  79.101 117.001  0.00  0.00     0.016 C 
ATOM      3  C   LIG d   1      -6.508  80.357 117.651  0.00  0.00     0.038 C 
ATOM      4  C   LIG d   1      -5.401  80.765 118.409  0.00  0.00     0.028 C 
ATOM      5  C   LIG d   1      -4.625  79.604 119.022  0.00  0.00    -0.047 C 
ATOM      6  C   LIG d   1      -4.296  78.579 117.913  0.00  0.00     0.091 C 
ENDROOT
BRANCH   1   7
ATOM      7  O   LIG d   1      -5.224  77.530 115.903  0.00  0.00    -0.368 OA
BRANCH   7   8
ATOM      8  C   LIG d   1      -5.329  76.088 115.809  0.00  0.00     0.119 C 
BRANCH   8   9
ATOM      9  C   LIG d   1      -4.018  75.568 115.189  0.00  0.00     0.028 C 
ATOM     10  C   LIG d   1      -3.112  76.707 114.690  0.00  0.00     0.006 C 
ENDBRANCH   8   9
BRANCH   8  11
ATOM     11  C   LIG d   1      -6.432  75.672 114.831  0.00  0.00     0.028 C 
ATOM     12  C   LIG d   1      -7.838  75.759 115.446  0.00  0.00     0.006 C 
ENDBRANCH   8  11
ENDBRANCH   7   8
ENDBRANCH   1   7
BRANCH   6  13
ATOM     13  N   LIG d   1      -3.611  77.371 118.443  0.00  0.00    -0.311 N 
ATOM     14  C   LIG d   1      -2.316  77.121 118.257  0.00  0.00     0.210 C 
ATOM     15  C   LIG d   1      -1.816  75.810 118.871  0.00  0.00     0.109 C 
ATOM     16  O   LIG d   1      -1.528  77.877 117.670  0.00  0.00    -0.276 OA
ATOM     17  H   LIG d   1      -4.170  76.719 118.959  0.00  0.00     0.149 HD
ENDBRANCH   6  13
BRANCH   5  18
ATOM     18  N   LIG d   1      -3.423  80.163 119.668  0.00  0.00     0.381 N 
ATOM     19  H   LIG d   1      -3.613  80.353 120.632  0.00  0.00    -0.090 HD
ATOM     20  H   LIG d   1      -3.185  81.029 119.218  0.00  0.00    -0.090 HD
ATOM     21  H   LIG d   1      -2.665  79.521 119.592  0.00  0.00    -0.090 HD
ENDBRANCH   5  18
BRANCH   3  22
ATOM     22  C   LIG d   1      -7.604  81.203 117.577  0.00  0.00     0.382 C 
ATOM     23  O   LIG d   1      -8.365  81.331 118.566  0.00  0.00    -0.241 OA
ATOM     24  O   LIG d   1      -7.867  81.805 116.519  0.00  0.00    -0.241 OA
ENDBRANCH   3  22
TORSDOF 7
ENDMDL
MODEL 9
REMARK VINA RESULT:      -4.6      2.528      4.508
REMARK  7 active torsions:
REMARK  status: ('A' for Active; 'I' for Inactive)
REMARK    1  A    between atoms: C_2  and  C_3 
REMARK    2  A    between atoms: C_3  and  O_6 
REMARK    3  A    between atoms: C_3  and  C_4 
REMARK    4  A    between atoms: C_7  and  O_6 
REMARK    5  A    between atoms: C_9  and  C_10 
REMARK    6  A    between atoms: N_15  and  C_14 
REMARK    7  A    between atoms: N_20  and  C_19 
REMARK       I    between atoms: C_22  and  N_20 
ROOT
ATOM      1  C   LIG d   1      -2.498  77.642 115.360  0.00  0.00     0.161 C 
ATOM      2  C   LIG d   1      -2.300  77.782 116.744  0.00  0.00     0.016 C 
ATOM      3  C   LIG d   1      -1.263  78.562 117.306  0.00  0.00     0.038 C 
ATOM      4  C   LIG d   1      -0.441  79.382 116.518  0.00  0.00     0.028 C 
ATOM      5  C   LIG d   1      -0.280  78.880 115.087  0.00  0.00    -0.047 C 
ATOM      6  C   LIG d   1      -1.680  78.616 114.487  0.00  0.00     0.091 C 
ENDROOT
BRANCH   1   7
ATOM      7  O   LIG d   1      -3.902  77.752 115.054  0.00  0.00    -0.368 OA
BRANCH   7   8
ATOM      8  C   LIG d   1      -4.762  76.740 115.631  0.00  0.00     0.119 C 
BRANCH   8   9
ATOM      9  C   LIG d   1      -5.518  76.060 114.473  0.00  0.00     0.028 C 
ATOM     10  C   LIG d   1      -5.185  74.563 114.353  0.00  0.00     0.006 C 
ENDBRANCH   8   9
BRANCH   8  11
ATOM     11  C   LIG d   1      -5.847  77.366 116.511  0.00  0.00     0.028 C 
ATOM     12  C   LIG d   1      -7.241  76.771 116.254  0.00  0.00     0.006 C 
ENDBRANCH   8  11
ENDBRANCH   7   8
ENDBRANCH   1   7
BRANCH   6  13
ATOM     13  N   LIG d   1      -1.611  78.044 113.117  0.00  0.00    -0.311 N 
ATOM     14  C   LIG d   1      -1.684  78.780 112.010  0.00  0.00     0.210 C 
ATOM     15  C   LIG d   1      -1.612  77.989 110.701  0.00  0.00     0.109 C 
ATOM     16  O   LIG d   1      -1.769  80.017 111.988  0.00  0.00    -0.276 OA
ATOM     17  H   LIG d   1      -1.510  77.050 113.043  0.00  0.00     0.149 HD
ENDBRANCH   6  13
BRANCH   5  18
ATOM     18  N   LIG d   1       0.486  79.898 114.342  0.00  0.00     0.381 N 
ATOM     19  H   LIG d   1       1.362  79.515 114.049  0.00  0.00    -0.090 HD
ATOM     20  H   LIG d   1       0.669  80.676 114.950  0.00  0.00    -0.090 HD
ATOM     21  H   LIG d   1      -0.034  80.202 113.549  0.00  0.00    -0.090 HD
ENDBRANCH   5  18
BRANCH   3  22
ATOM     22  C   LIG d   1      -1.016  78.497 118.669  0.00  0.00     0.382 C 
ATOM     23  O   LIG d   1      -0.754  79.543 119.310  0.00  0.00    -0.241 OA
ATOM     24  O   LIG d   1      -1.007  77.399 119.257  0.00  0.00    -0.241 OA
ENDBRANCH   3  22
TORSDOF 7
ENDMDL
