MODEL 1
REMARK VINA RESULT:      -5.3      0.000      0.000
REMARK  7 active torsions:
REMARK  status: ('A' for Active; 'I' for Inactive)
REMARK    1  A    between atoms: C_2  and  C_3 
REMARK    2  A    between atoms: C_3  and  O_6 
REMARK    3  A    between atoms: C_3  and  C_4 
REMARK    4  A    between atoms: C_7  and  O_6 
REMARK    5  A    between atoms: C_9  and  C_10 
REMARK    6  A    between atoms: N_15  and  C_14 
REMARK    7  A    between atoms: N_20  and  C_19 
REMARK       I    between atoms: C_22  and  N_20 
ROOT
ATOM      1  C   LIG d   1      -2.864  81.187 112.584  0.00  0.00     0.161 C 
ATOM      2  C   LIG d   1      -3.161  79.950 113.180  0.00  0.00     0.016 C 
ATOM      3  C   LIG d   1      -2.259  78.862 113.204  0.00  0.00     0.038 C 
ATOM      4  C   LIG d   1      -0.933  78.988 112.763  0.00  0.00     0.028 C 
ATOM      5  C   LIG d   1      -0.749  80.061 111.696  0.00  0.00    -0.047 C 
ATOM      6  C   LIG d   1      -1.383  81.380 112.196  0.00  0.00     0.091 C 
ENDROOT
BRANCH   1   7
ATOM      7  O   LIG d   1      -3.301  82.260 113.441  0.00  0.00    -0.368 OA
BRANCH   7   8
ATOM      8  C   LIG d   1      -2.574  82.419 114.684  0.00  0.00     0.119 C 
BRANCH   8   9
ATOM      9  C   LIG d   1      -3.602  82.374 115.831  0.00  0.00     0.028 C 
ATOM     10  C   LIG d   1      -3.045  81.695 117.093  0.00  0.00     0.006 C 
ENDBRANCH   8   9
BRANCH   8  11
ATOM     11  C   LIG d   1      -1.924  83.802 114.777  0.00  0.00     0.028 C 
ATOM     12  C   LIG d   1      -0.465  83.744 115.259  0.00  0.00     0.006 C 
ENDBRANCH   8  11
ENDBRANCH   7   8
ENDBRANCH   1   7
BRANCH   6  13
ATOM     13  N   LIG d   1      -1.321  82.460 111.178  0.00  0.00    -0.311 N 
ATOM     14  C   LIG d   1      -0.364  83.386 111.148  0.00  0.00     0.210 C 
ATOM     15  C   LIG d   1      -0.499  84.420 110.026  0.00  0.00     0.109 C 
ATOM     16  O   LIG d   1       0.602  83.429 111.924  0.00  0.00    -0.276 OA
ATOM     17  H   LIG d   1      -2.049  82.481 110.490  0.00  0.00     0.149 HD
ENDBRANCH   6  13
BRANCH   5  18
ATOM     18  N   LIG d   1       0.696  80.180 111.428  0.00  0.00     0.381 N 
ATOM     19  H   LIG d   1       0.958  81.146 111.400  0.00  0.00    -0.090 HD
ATOM     20  H   LIG d   1       0.895  79.773 110.531  0.00  0.00    -0.090 HD
ATOM     21  H   LIG d   1       1.214  79.709 112.137  0.00  0.00    -0.090 HD
ENDBRANCH   5  18
BRANCH   3  22
ATOM     22  C   LIG d   1      -2.694  77.619 113.637  0.00  0.00     0.382 C 
ATOM     23  O   LIG d   1      -2.049  76.587 113.331  0.00  0.00    -0.241 OA
ATOM     24  O   LIG d   1      -3.748  77.511 114.293  0.00  0.00    -0.241 OA
ENDBRANCH   3  22
TORSDOF 7
ENDMDL
MODEL 2
REMARK VINA RESULT:      -5.0      1.788      4.923
REMARK  7 active torsions:
REMARK  status: ('A' for Active; 'I' for Inactive)
REMARK    1  A    between atoms: C_2  and  C_3 
REMARK    2  A    between atoms: C_3  and  O_6 
REMARK    3  A    between atoms: C_3  and  C_4 
REMARK    4  A    between atoms: C_7  and  O_6 
REMARK    5  A    between atoms: C_9  and  C_10 
REMARK    6  A    between atoms: N_15  and  C_14 
REMARK    7  A    between atoms: N_20  and  C_19 
REMARK       I    between atoms: C_22  and  N_20 
ROOT
ATOM      1  C   LIG d   1      -1.872  80.554 113.804  0.00  0.00     0.161 C 
ATOM      2  C   LIG d   1      -1.695  81.915 113.501  0.00  0.00     0.016 C 
ATOM      3  C   LIG d   1      -1.065  82.374 112.321  0.00  0.00     0.038 C 
ATOM      4  C   LIG d   1      -0.702  81.500 111.286  0.00  0.00     0.028 C 
ATOM      5  C   LIG d   1      -0.404  80.083 111.766  0.00  0.00    -0.047 C 
ATOM      6  C   LIG d   1      -1.582  79.589 112.635  0.00  0.00     0.091 C 
ENDROOT
BRANCH   1   7
ATOM      7  O   LIG d   1      -3.202  80.337 114.316  0.00  0.00    -0.368 OA
BRANCH   7   8
ATOM      8  C   LIG d   1      -3.301  80.056 115.734  0.00  0.00     0.119 C 
BRANCH   8   9
ATOM      9  C   LIG d   1      -3.690  81.369 116.440  0.00  0.00     0.028 C 
ATOM     10  C   LIG d   1      -2.544  81.940 117.292  0.00  0.00     0.006 C 
ENDBRANCH   8   9
BRANCH   8  11
ATOM     11  C   LIG d   1      -1.940  79.668 116.321  0.00  0.00     0.028 C 
ATOM     12  C   LIG d   1      -1.943  78.268 116.955  0.00  0.00     0.006 C 
ENDBRANCH   8  11
ENDBRANCH   7   8
ENDBRANCH   1   7
BRANCH   6  13
ATOM     13  N   LIG d   1      -1.334  78.243 113.215  0.00  0.00    -0.311 N 
ATOM     14  C   LIG d   1      -2.273  77.305 113.318  0.00  0.00     0.210 C 
ATOM     15  C   LIG d   1      -1.811  75.995 113.964  0.00  0.00     0.109 C 
ATOM     16  O   LIG d   1      -3.437  77.421 112.906  0.00  0.00    -0.276 OA
ATOM     17  H   LIG d   1      -0.408  78.053 113.546  0.00  0.00     0.149 HD
ENDBRANCH   6  13
BRANCH   5  18
ATOM     18  N   LIG d   1      -0.175  79.247 110.573  0.00  0.00     0.381 N 
ATOM     19  H   LIG d   1       0.269  78.391 110.839  0.00  0.00    -0.090 HD
ATOM     20  H   LIG d   1       0.438  79.737 109.945  0.00  0.00    -0.090 HD
ATOM     21  H   LIG d   1      -1.041  79.055 110.120  0.00  0.00    -0.090 HD
ENDBRANCH   5  18
BRANCH   3  22
ATOM     22  C   LIG d   1      -0.756  83.719 112.186  0.00  0.00     0.382 C 
ATOM     23  O   LIG d   1      -0.133  84.314 113.098  0.00  0.00    -0.241 OA
ATOM     24  O   LIG d   1      -1.132  84.356 111.183  0.00  0.00    -0.241 OA
ENDBRANCH   3  22
TORSDOF 7
ENDMDL
MODEL 3
REMARK VINA RESULT:      -4.9      1.834      4.976
REMARK  7 active torsions:
REMARK  status: ('A' for Active; 'I' for Inactive)
REMARK    1  A    between atoms: C_2  and  C_3 
REMARK    2  A    between atoms: C_3  and  O_6 
REMARK    3  A    between atoms: C_3  and  C_4 
REMARK    4  A    between atoms: C_7  and  O_6 
REMARK    5  A    between atoms: C_9  and  C_10 
REMARK    6  A    between atoms: N_15  and  C_14 
REMARK    7  A    between atoms: N_20  and  C_19 
REMARK       I    between atoms: C_22  and  N_20 
ROOT
ATOM      1  C   LIG d   1      -1.800  80.703 113.792  0.00  0.00     0.161 C 
ATOM      2  C   LIG d   1      -1.619  82.056 113.460  0.00  0.00     0.016 C 
ATOM      3  C   LIG d   1      -1.058  82.489 112.236  0.00  0.00     0.038 C 
ATOM      4  C   LIG d   1      -0.777  81.595 111.192  0.00  0.00     0.028 C 
ATOM      5  C   LIG d   1      -0.473  80.180 111.671  0.00  0.00    -0.047 C 
ATOM      6  C   LIG d   1      -1.603  79.718 112.620  0.00  0.00     0.091 C 
ENDROOT
BRANCH   1   7
ATOM      7  O   LIG d   1      -3.098  80.516 114.390  0.00  0.00    -0.368 OA
BRANCH   7   8
ATOM      8  C   LIG d   1      -3.122  80.390 115.833  0.00  0.00     0.119 C 
BRANCH   8   9
ATOM      9  C   LIG d   1      -4.036  79.199 116.179  0.00  0.00     0.028 C 
ATOM     10  C   LIG d   1      -3.270  78.049 116.856  0.00  0.00     0.006 C 
ENDBRANCH   8   9
BRANCH   8  11
ATOM     11  C   LIG d   1      -3.779  81.609 116.488  0.00  0.00     0.028 C 
ATOM     12  C   LIG d   1      -5.110  81.270 117.177  0.00  0.00     0.006 C 
ENDBRANCH   8  11
ENDBRANCH   7   8
ENDBRANCH   1   7
BRANCH   6  13
ATOM     13  N   LIG d   1      -1.341  78.375 113.201  0.00  0.00    -0.311 N 
ATOM     14  C   LIG d   1      -2.275  77.433 113.319  0.00  0.00     0.210 C 
ATOM     15  C   LIG d   1      -1.799  76.127 113.963  0.00  0.00     0.109 C 
ATOM     16  O   LIG d   1      -3.445  77.542 112.921  0.00  0.00    -0.276 OA
ATOM     17  H   LIG d   1      -0.411  78.189 113.521  0.00  0.00     0.149 HD
ENDBRANCH   6  13
BRANCH   5  18
ATOM     18  N   LIG d   1      -0.336  79.325 110.477  0.00  0.00     0.381 N 
ATOM     19  H   LIG d   1       0.393  79.678 109.889  0.00  0.00    -0.090 HD
ATOM     20  H   LIG d   1      -1.197  79.347 109.960  0.00  0.00    -0.090 HD
ATOM     21  H   LIG d   1      -0.128  78.389 110.749  0.00  0.00    -0.090 HD
ENDBRANCH   5  18
BRANCH   3  22
ATOM     22  C   LIG d   1      -0.735  83.826 112.064  0.00  0.00     0.382 C 
ATOM     23  O   LIG d   1      -1.133  84.440 111.045  0.00  0.00    -0.241 OA
ATOM     24  O   LIG d   1      -0.013  84.414 112.892  0.00  0.00    -0.241 OA
ENDBRANCH   3  22
TORSDOF 7
ENDMDL
MODEL 4
REMARK VINA RESULT:      -4.7      5.872      8.256
REMARK  7 active torsions:
REMARK  status: ('A' for Active; 'I' for Inactive)
REMARK    1  A    between atoms: C_2  and  C_3 
REMARK    2  A    between atoms: C_3  and  O_6 
REMARK    3  A    between atoms: C_3  and  C_4 
REMARK    4  A    between atoms: C_7  and  O_6 
REMARK    5  A    between atoms: C_9  and  C_10 
REMARK    6  A    between atoms: N_15  and  C_14 
REMARK    7  A    between atoms: N_20  and  C_19 
REMARK       I    between atoms: C_22  and  N_20 
ROOT
ATOM      1  C   LIG d   1      -5.691  76.471 117.665  0.00  0.00     0.161 C 
ATOM      2  C   LIG d   1      -6.589  77.551 117.714  0.00  0.00     0.016 C 
ATOM      3  C   LIG d   1      -6.220  78.884 117.423  0.00  0.00     0.038 C 
ATOM      4  C   LIG d   1      -4.954  79.208 116.913  0.00  0.00     0.028 C 
ATOM      5  C   LIG d   1      -3.864  78.226 117.328  0.00  0.00    -0.047 C 
ATOM      6  C   LIG d   1      -4.334  76.789 117.003  0.00  0.00     0.091 C 
ENDROOT
BRANCH   1   7
ATOM      7  O   LIG d   1      -6.314  75.346 117.014  0.00  0.00    -0.368 OA
BRANCH   7   8
ATOM      8  C   LIG d   1      -6.654  75.526 115.617  0.00  0.00     0.119 C 
BRANCH   8   9
ATOM      9  C   LIG d   1      -8.120  75.087 115.437  0.00  0.00     0.028 C 
ATOM     10  C   LIG d   1      -8.700  74.444 116.708  0.00  0.00     0.006 C 
ENDBRANCH   8   9
BRANCH   8  11
ATOM     11  C   LIG d   1      -5.837  74.590 114.720  0.00  0.00     0.028 C 
ATOM     12  C   LIG d   1      -5.148  75.327 113.562  0.00  0.00     0.006 C 
ENDBRANCH   8  11
ENDBRANCH   7   8
ENDBRANCH   1   7
BRANCH   6  13
ATOM     13  N   LIG d   1      -3.362  75.760 117.455  0.00  0.00    -0.311 N 
ATOM     14  C   LIG d   1      -2.421  75.243 116.665  0.00  0.00     0.210 C 
ATOM     15  C   LIG d   1      -1.536  74.180 117.324  0.00  0.00     0.109 C 
ATOM     16  O   LIG d   1      -2.216  75.588 115.492  0.00  0.00    -0.276 OA
ATOM     17  H   LIG d   1      -3.437  75.446 118.402  0.00  0.00     0.149 HD
ENDBRANCH   6  13
BRANCH   5  18
ATOM     18  N   LIG d   1      -2.629  78.605 116.617  0.00  0.00     0.381 N 
ATOM     19  H   LIG d   1      -1.834  78.422 117.197  0.00  0.00    -0.090 HD
ATOM     20  H   LIG d   1      -2.655  79.590 116.421  0.00  0.00    -0.090 HD
ATOM     21  H   LIG d   1      -2.553  78.091 115.767  0.00  0.00    -0.090 HD
ENDBRANCH   5  18
BRANCH   3  22
ATOM     22  C   LIG d   1      -7.111  79.915 117.680  0.00  0.00     0.382 C 
ATOM     23  O   LIG d   1      -7.909  79.829 118.644  0.00  0.00    -0.241 OA
ATOM     24  O   LIG d   1      -7.156  80.911 116.933  0.00  0.00    -0.241 OA
ENDBRANCH   3  22
TORSDOF 7
ENDMDL
MODEL 5
REMARK VINA RESULT:      -4.7      2.762      5.990
REMARK  7 active torsions:
REMARK  status: ('A' for Active; 'I' for Inactive)
REMARK    1  A    between atoms: C_2  and  C_3 
REMARK    2  A    between atoms: C_3  and  O_6 
REMARK    3  A    between atoms: C_3  and  C_4 
REMARK    4  A    between atoms: C_7  and  O_6 
REMARK    5  A    between atoms: C_9  and  C_10 
REMARK    6  A    between atoms: N_15  and  C_14 
REMARK    7  A    between atoms: N_20  and  C_19 
REMARK       I    between atoms: C_22  and  N_20 
ROOT
ATOM      1  C   LIG d   1      -2.885  78.678 115.219  0.00  0.00     0.161 C 
ATOM      2  C   LIG d   1      -3.203  80.041 115.342  0.00  0.00     0.016 C 
ATOM      3  C   LIG d   1      -2.788  81.023 114.413  0.00  0.00     0.038 C 
ATOM      4  C   LIG d   1      -2.151  80.684 113.210  0.00  0.00     0.028 C 
ATOM      5  C   LIG d   1      -1.366  79.379 113.287  0.00  0.00    -0.047 C 
ATOM      6  C   LIG d   1      -2.286  78.274 113.856  0.00  0.00     0.091 C 
ENDROOT
BRANCH   1   7
ATOM      7  O   LIG d   1      -4.047  77.877 115.513  0.00  0.00    -0.368 OA
BRANCH   7   8
ATOM      8  C   LIG d   1      -4.192  77.446 116.889  0.00  0.00     0.119 C 
BRANCH   8   9
ATOM      9  C   LIG d   1      -3.758  75.969 116.959  0.00  0.00     0.028 C 
ATOM     10  C   LIG d   1      -4.781  75.024 116.307  0.00  0.00     0.006 C 
ENDBRANCH   8   9
BRANCH   8  11
ATOM     11  C   LIG d   1      -5.661  77.458 117.324  0.00  0.00     0.028 C 
ATOM     12  C   LIG d   1      -6.299  78.853 117.231  0.00  0.00     0.006 C 
ENDBRANCH   8  11
ENDBRANCH   7   8
ENDBRANCH   1   7
BRANCH   6  13
ATOM     13  N   LIG d   1      -1.572  76.984 114.043  0.00  0.00    -0.311 N 
ATOM     14  C   LIG d   1      -2.094  75.803 113.714  0.00  0.00     0.210 C 
ATOM     15  C   LIG d   1      -1.198  74.596 114.009  0.00  0.00     0.109 C 
ATOM     16  O   LIG d   1      -3.200  75.644 113.176  0.00  0.00    -0.276 OA
ATOM     17  H   LIG d   1      -0.656  77.023 114.445  0.00  0.00     0.149 HD
ENDBRANCH   6  13
BRANCH   5  18
ATOM     18  N   LIG d   1      -0.870  79.077 111.932  0.00  0.00     0.381 N 
ATOM     19  H   LIG d   1      -0.100  78.440 111.987  0.00  0.00    -0.090 HD
ATOM     20  H   LIG d   1      -0.545  79.928 111.507  0.00  0.00    -0.090 HD
ATOM     21  H   LIG d   1      -1.599  78.680 111.382  0.00  0.00    -0.090 HD
ENDBRANCH   5  18
BRANCH   3  22
ATOM     22  C   LIG d   1      -2.975  82.366 114.704  0.00  0.00     0.382 C 
ATOM     23  O   LIG d   1      -3.765  82.706 115.617  0.00  0.00    -0.241 OA
ATOM     24  O   LIG d   1      -2.398  83.244 114.034  0.00  0.00    -0.241 OA
ENDBRANCH   3  22
TORSDOF 7
ENDMDL
MODEL 6
REMARK VINA RESULT:      -4.7      4.855      7.762
REMARK  7 active torsions:
REMARK  status: ('A' for Active; 'I' for Inactive)
REMARK    1  A    between atoms: C_2  and  C_3 
REMARK    2  A    between atoms: C_3  and  O_6 
REMARK    3  A    between atoms: C_3  and  C_4 
REMARK    4  A    between atoms: C_7  and  O_6 
REMARK    5  A    between atoms: C_9  and  C_10 
REMARK    6  A    between atoms: N_15  and  C_14 
REMARK    7  A    between atoms: N_20  and  C_19 
REMARK       I    between atoms: C_22  and  N_20 
ROOT
ATOM      1  C   LIG d   1      -5.805  77.711 116.719  0.00  0.00     0.161 C 
ATOM      2  C   LIG d   1      -6.946  78.273 117.314  0.00  0.00     0.016 C 
ATOM      3  C   LIG d   1      -7.023  79.621 117.731  0.00  0.00     0.038 C 
ATOM      4  C   LIG d   1      -6.008  80.546 117.442  0.00  0.00     0.028 C 
ATOM      5  C   LIG d   1      -4.631  79.907 117.293  0.00  0.00    -0.047 C 
ATOM      6  C   LIG d   1      -4.728  78.731 116.294  0.00  0.00     0.091 C 
ENDROOT
BRANCH   1   7
ATOM      7  O   LIG d   1      -6.191  76.893 115.597  0.00  0.00    -0.368 OA
BRANCH   7   8
ATOM      8  C   LIG d   1      -6.416  75.490 115.878  0.00  0.00     0.119 C 
BRANCH   8   9
ATOM      9  C   LIG d   1      -5.441  74.680 115.001  0.00  0.00     0.028 C 
ATOM     10  C   LIG d   1      -5.139  75.375 113.663  0.00  0.00     0.006 C 
ENDBRANCH   8   9
BRANCH   8  11
ATOM     11  C   LIG d   1      -7.816  75.051 115.439  0.00  0.00     0.028 C 
ATOM     12  C   LIG d   1      -8.828  75.043 116.596  0.00  0.00     0.006 C 
ENDBRANCH   8  11
ENDBRANCH   7   8
ENDBRANCH   1   7
BRANCH   6  13
ATOM     13  N   LIG d   1      -3.443  77.998 116.155  0.00  0.00    -0.311 N 
ATOM     14  C   LIG d   1      -2.802  77.855 114.996  0.00  0.00     0.210 C 
ATOM     15  C   LIG d   1      -1.504  77.046 115.071  0.00  0.00     0.109 C 
ATOM     16  O   LIG d   1      -3.170  78.349 113.919  0.00  0.00    -0.276 OA
ATOM     17  H   LIG d   1      -3.058  77.592 116.985  0.00  0.00     0.149 HD
ENDBRANCH   6  13
BRANCH   5  18
ATOM     18  N   LIG d   1      -3.696  80.961 116.857  0.00  0.00     0.381 N 
ATOM     19  H   LIG d   1      -2.764  80.721 117.132  0.00  0.00    -0.090 HD
ATOM     20  H   LIG d   1      -3.945  81.824 117.308  0.00  0.00    -0.090 HD
ATOM     21  H   LIG d   1      -3.740  81.068 115.868  0.00  0.00    -0.090 HD
ENDBRANCH   5  18
BRANCH   3  22
ATOM     22  C   LIG d   1      -8.108  80.048 118.482  0.00  0.00     0.382 C 
ATOM     23  O   LIG d   1      -8.156  79.801 119.711  0.00  0.00    -0.241 OA
ATOM     24  O   LIG d   1      -9.060  80.638 117.937  0.00  0.00    -0.241 OA
ENDBRANCH   3  22
TORSDOF 7
ENDMDL
MODEL 7
REMARK VINA RESULT:      -4.6      3.899      5.848
REMARK  7 active torsions:
REMARK  status: ('A' for Active; 'I' for Inactive)
REMARK    1  A    between atoms: C_2  and  C_3 
REMARK    2  A    between atoms: C_3  and  O_6 
REMARK    3  A    between atoms: C_3  and  C_4 
REMARK    4  A    between atoms: C_7  and  O_6 
REMARK    5  A    between atoms: C_9  and  C_10 
REMARK    6  A    between atoms: N_15  and  C_14 
REMARK    7  A    between atoms: N_20  and  C_19 
REMARK       I    between atoms: C_22  and  N_20 
ROOT
ATOM      1  C   LIG d   1      -3.770  78.929 115.889  0.00  0.00     0.161 C 
ATOM      2  C   LIG d   1      -3.296  77.868 115.100  0.00  0.00     0.016 C 
ATOM      3  C   LIG d   1      -3.833  76.561 115.150  0.00  0.00     0.038 C 
ATOM      4  C   LIG d   1      -4.988  76.261 115.889  0.00  0.00     0.028 C 
ATOM      5  C   LIG d   1      -5.194  77.179 117.089  0.00  0.00    -0.047 C 
ATOM      6  C   LIG d   1      -5.100  78.649 116.619  0.00  0.00     0.091 C 
ENDROOT
BRANCH   1   7
ATOM      7  O   LIG d   1      -3.879  80.123 115.089  0.00  0.00    -0.368 OA
BRANCH   7   8
ATOM      8  C   LIG d   1      -2.741  81.019 115.121  0.00  0.00     0.119 C 
BRANCH   8   9
ATOM      9  C   LIG d   1      -3.051  82.122 116.151  0.00  0.00     0.028 C 
ATOM     10  C   LIG d   1      -2.344  81.884 117.497  0.00  0.00     0.006 C 
ENDBRANCH   8   9
BRANCH   8  11
ATOM     11  C   LIG d   1      -2.568  81.748 113.786  0.00  0.00     0.028 C 
ATOM     12  C   LIG d   1      -2.898  80.861 112.575  0.00  0.00     0.006 C 
ENDBRANCH   8  11
ENDBRANCH   7   8
ENDBRANCH   1   7
BRANCH   6  13
ATOM     13  N   LIG d   1      -5.207  79.612 117.746  0.00  0.00    -0.311 N 
ATOM     14  C   LIG d   1      -6.071  80.625 117.765  0.00  0.00     0.210 C 
ATOM     15  C   LIG d   1      -6.002  81.510 119.013  0.00  0.00     0.109 C 
ATOM     16  O   LIG d   1      -6.911  80.855 116.882  0.00  0.00    -0.276 OA
ATOM     17  H   LIG d   1      -4.584  79.481 118.518  0.00  0.00     0.149 HD
ENDBRANCH   6  13
BRANCH   5  18
ATOM     18  N   LIG d   1      -6.501  76.845 117.686  0.00  0.00     0.381 N 
ATOM     19  H   LIG d   1      -7.016  76.255 117.064  0.00  0.00    -0.090 HD
ATOM     20  H   LIG d   1      -7.022  77.693 117.822  0.00  0.00    -0.090 HD
ATOM     21  H   LIG d   1      -6.369  76.384 118.559  0.00  0.00    -0.090 HD
ENDBRANCH   5  18
BRANCH   3  22
ATOM     22  C   LIG d   1      -3.189  75.528 114.486  0.00  0.00     0.382 C 
ATOM     23  O   LIG d   1      -3.275  75.434 113.238  0.00  0.00    -0.241 OA
ATOM     24  O   LIG d   1      -2.561  74.662 115.124  0.00  0.00    -0.241 OA
ENDBRANCH   3  22
TORSDOF 7
ENDMDL
MODEL 8
REMARK VINA RESULT:      -4.6      2.859      5.667
REMARK  7 active torsions:
REMARK  status: ('A' for Active; 'I' for Inactive)
REMARK    1  A    between atoms: C_2  and  C_3 
REMARK    2  A    between atoms: C_3  and  O_6 
REMARK    3  A    between atoms: C_3  and  C_4 
REMARK    4  A    between atoms: C_7  and  O_6 
REMARK    5  A    between atoms: C_9  and  C_10 
REMARK    6  A    between atoms: N_15  and  C_14 
REMARK    7  A    between atoms: N_20  and  C_19 
REMARK       I    between atoms: C_22  and  N_20 
ROOT
ATOM      1  C   LIG d   1      -3.148  79.179 115.274  0.00  0.00     0.161 C 
ATOM      2  C   LIG d   1      -3.832  78.851 116.457  0.00  0.00     0.016 C 
ATOM      3  C   LIG d   1      -4.460  79.811 117.284  0.00  0.00     0.038 C 
ATOM      4  C   LIG d   1      -4.578  81.155 116.902  0.00  0.00     0.028 C 
ATOM      5  C   LIG d   1      -3.468  81.618 115.964  0.00  0.00    -0.047 C 
ATOM      6  C   LIG d   1      -3.362  80.626 114.784  0.00  0.00     0.091 C 
ENDROOT
BRANCH   1   7
ATOM      7  O   LIG d   1      -3.494  78.242 114.235  0.00  0.00    -0.368 OA
BRANCH   7   8
ATOM      8  C   LIG d   1      -3.298  76.841 114.549  0.00  0.00     0.119 C 
BRANCH   8   9
ATOM      9  C   LIG d   1      -1.797  76.535 114.383  0.00  0.00     0.028 C 
ATOM     10  C   LIG d   1      -1.545  75.143 113.779  0.00  0.00     0.006 C 
ENDBRANCH   8   9
BRANCH   8  11
ATOM     11  C   LIG d   1      -4.010  75.938 113.537  0.00  0.00     0.028 C 
ATOM     12  C   LIG d   1      -5.323  75.353 114.082  0.00  0.00     0.006 C 
ENDBRANCH   8  11
ENDBRANCH   7   8
ENDBRANCH   1   7
BRANCH   6  13
ATOM     13  N   LIG d   1      -2.243  80.959 113.863  0.00  0.00    -0.311 N 
ATOM     14  C   LIG d   1      -2.423  81.354 112.604  0.00  0.00     0.210 C 
ATOM     15  C   LIG d   1      -1.134  81.627 111.822  0.00  0.00     0.109 C 
ATOM     16  O   LIG d   1      -3.528  81.537 112.071  0.00  0.00    -0.276 OA
ATOM     17  H   LIG d   1      -1.313  80.868 114.223  0.00  0.00     0.149 HD
ENDBRANCH   6  13
BRANCH   5  18
ATOM     18  N   LIG d   1      -3.789  82.993 115.537  0.00  0.00     0.381 N 
ATOM     19  H   LIG d   1      -3.080  83.622 115.857  0.00  0.00    -0.090 HD
ATOM     20  H   LIG d   1      -4.663  83.266 115.952  0.00  0.00    -0.090 HD
ATOM     21  H   LIG d   1      -3.857  83.035 114.544  0.00  0.00    -0.090 HD
ENDBRANCH   5  18
BRANCH   3  22
ATOM     22  C   LIG d   1      -4.945  79.434 118.527  0.00  0.00     0.382 C 
ATOM     23  O   LIG d   1      -6.025  79.912 118.950  0.00  0.00    -0.241 OA
ATOM     24  O   LIG d   1      -4.293  78.657 119.250  0.00  0.00    -0.241 OA
ENDBRANCH   3  22
TORSDOF 7
ENDMDL
MODEL 9
REMARK VINA RESULT:      -4.5      3.154      5.753
REMARK  7 active torsions:
REMARK  status: ('A' for Active; 'I' for Inactive)
REMARK    1  A    between atoms: C_2  and  C_3 
REMARK    2  A    between atoms: C_3  and  O_6 
REMARK    3  A    between atoms: C_3  and  C_4 
REMARK    4  A    between atoms: C_7  and  O_6 
REMARK    5  A    between atoms: C_9  and  C_10 
REMARK    6  A    between atoms: N_15  and  C_14 
REMARK    7  A    between atoms: N_20  and  C_19 
REMARK       I    between atoms: C_22  and  N_20 
ROOT
ATOM      1  C   LIG d   1      -2.251  79.539 115.853  0.00  0.00     0.161 C 
ATOM      2  C   LIG d   1      -2.641  80.405 114.817  0.00  0.00     0.016 C 
ATOM      3  C   LIG d   1      -2.648  80.033 113.453  0.00  0.00     0.038 C 
ATOM      4  C   LIG d   1      -2.408  78.713 113.043  0.00  0.00     0.028 C 
ATOM      5  C   LIG d   1      -1.519  77.932 114.006  0.00  0.00    -0.047 C 
ATOM      6  C   LIG d   1      -2.092  78.062 115.436  0.00  0.00     0.091 C 
ENDROOT
BRANCH   1   7
ATOM      7  O   LIG d   1      -3.171  79.652 116.956  0.00  0.00    -0.368 OA
BRANCH   7   8
ATOM      8  C   LIG d   1      -4.562  79.860 116.608  0.00  0.00     0.119 C 
BRANCH   8   9
ATOM      9  C   LIG d   1      -5.109  80.968 117.529  0.00  0.00     0.028 C 
ATOM     10  C   LIG d   1      -4.163  81.276 118.702  0.00  0.00     0.006 C 
ENDBRANCH   8   9
BRANCH   8  11
ATOM     11  C   LIG d   1      -5.406  78.621 116.920  0.00  0.00     0.028 C 
ATOM     12  C   LIG d   1      -6.814  78.971 117.427  0.00  0.00     0.006 C 
ENDBRANCH   8  11
ENDBRANCH   7   8
ENDBRANCH   1   7
BRANCH   6  13
ATOM     13  N   LIG d   1      -1.236  77.397 116.452  0.00  0.00    -0.311 N 
ATOM     14  C   LIG d   1      -1.423  76.143 116.861  0.00  0.00     0.210 C 
ATOM     15  C   LIG d   1      -0.439  75.659 117.931  0.00  0.00     0.109 C 
ATOM     16  O   LIG d   1      -2.289  75.376 116.416  0.00  0.00    -0.276 OA
ATOM     17  H   LIG d   1      -0.489  77.937 116.843  0.00  0.00     0.149 HD
ENDBRANCH   6  13
BRANCH   5  18
ATOM     18  N   LIG d   1      -1.464  76.537 113.530  0.00  0.00     0.381 N 
ATOM     19  H   LIG d   1      -1.702  76.501 112.558  0.00  0.00    -0.090 HD
ATOM     20  H   LIG d   1      -2.137  75.992 114.040  0.00  0.00    -0.090 HD
ATOM     21  H   LIG d   1      -0.551  76.165 113.669  0.00  0.00    -0.090 HD
ENDBRANCH   5  18
BRANCH   3  22
ATOM     22  C   LIG d   1      -2.859  80.997 112.479  0.00  0.00     0.382 C 
ATOM     23  O   LIG d   1      -1.933  81.302 111.689  0.00  0.00    -0.241 OA
ATOM     24  O   LIG d   1      -3.948  81.596 112.409  0.00  0.00    -0.241 OA
ENDBRANCH   3  22
TORSDOF 7
ENDMDL
