MODEL 1
REMARK VINA RESULT:      -5.3      0.000      0.000
REMARK  7 active torsions:
REMARK  status: ('A' for Active; 'I' for Inactive)
REMARK    1  A    between atoms: C_2  and  C_3 
REMARK    2  A    between atoms: C_3  and  O_6 
REMARK    3  A    between atoms: C_3  and  C_4 
REMARK    4  A    between atoms: C_7  and  O_6 
REMARK    5  A    between atoms: C_9  and  C_10 
REMARK    6  A    between atoms: N_15  and  C_14 
REMARK    7  A    between atoms: N_20  and  C_19 
REMARK       I    between atoms: C_22  and  N_20 
ROOT
ATOM      1  C   LIG d   1      -2.342  80.580 114.799  0.00  0.00     0.161 C 
ATOM      2  C   LIG d   1      -1.965  81.711 114.056  0.00  0.00     0.016 C 
ATOM      3  C   LIG d   1      -1.376  81.638 112.773  0.00  0.00     0.038 C 
ATOM      4  C   LIG d   1      -1.262  80.425 112.077  0.00  0.00     0.028 C 
ATOM      5  C   LIG d   1      -1.165  79.209 112.993  0.00  0.00    -0.047 C 
ATOM      6  C   LIG d   1      -2.327  79.254 114.011  0.00  0.00     0.091 C 
ENDROOT
BRANCH   1   7
ATOM      7  O   LIG d   1      -3.637  80.795 115.393  0.00  0.00    -0.368 OA
BRANCH   7   8
ATOM      8  C   LIG d   1      -3.644  81.429 116.696  0.00  0.00     0.119 C 
BRANCH   8   9
ATOM      9  C   LIG d   1      -2.504  80.802 117.522  0.00  0.00     0.028 C 
ATOM     10  C   LIG d   1      -1.616  81.861 118.197  0.00  0.00     0.006 C 
ENDBRANCH   8   9
BRANCH   8  11
ATOM     11  C   LIG d   1      -4.927  81.106 117.467  0.00  0.00     0.028 C 
ATOM     12  C   LIG d   1      -5.328  82.219 118.449  0.00  0.00     0.006 C 
ENDBRANCH   8  11
ENDBRANCH   7   8
ENDBRANCH   1   7
BRANCH   6  13
ATOM     13  N   LIG d   1      -2.259  78.144 114.998  0.00  0.00    -0.311 N 
ATOM     14  C   LIG d   1      -2.942  77.008 114.872  0.00  0.00     0.210 C 
ATOM     15  C   LIG d   1      -2.743  76.004 116.012  0.00  0.00     0.109 C 
ATOM     16  O   LIG d   1      -3.668  76.722 113.908  0.00  0.00    -0.276 OA
ATOM     17  H   LIG d   1      -1.669  78.279 115.796  0.00  0.00     0.149 HD
ENDBRANCH   6  13
BRANCH   5  18
ATOM     18  N   LIG d   1      -1.190  78.006 112.139  0.00  0.00     0.381 N 
ATOM     19  H   LIG d   1      -1.633  77.253 112.628  0.00  0.00    -0.090 HD
ATOM     20  H   LIG d   1      -0.245  77.734 111.932  0.00  0.00    -0.090 HD
ATOM     21  H   LIG d   1      -1.681  78.197 111.294  0.00  0.00    -0.090 HD
ENDBRANCH   5  18
BRANCH   3  22
ATOM     22  C   LIG d   1      -0.857  82.783 112.189  0.00  0.00     0.382 C 
ATOM     23  O   LIG d   1       0.173  83.319 112.665  0.00  0.00    -0.241 OA
ATOM     24  O   LIG d   1      -1.431  83.313 111.218  0.00  0.00    -0.241 OA
ENDBRANCH   3  22
TORSDOF 7
ENDMDL
MODEL 2
REMARK VINA RESULT:      -5.3      0.489      1.615
REMARK  7 active torsions:
REMARK  status: ('A' for Active; 'I' for Inactive)
REMARK    1  A    between atoms: C_2  and  C_3 
REMARK    2  A    between atoms: C_3  and  O_6 
REMARK    3  A    between atoms: C_3  and  C_4 
REMARK    4  A    between atoms: C_7  and  O_6 
REMARK    5  A    between atoms: C_9  and  C_10 
REMARK    6  A    between atoms: N_15  and  C_14 
REMARK    7  A    between atoms: N_20  and  C_19 
REMARK       I    between atoms: C_22  and  N_20 
ROOT
ATOM      1  C   LIG d   1      -2.285  80.594 114.771  0.00  0.00     0.161 C 
ATOM      2  C   LIG d   1      -1.899  81.715 114.018  0.00  0.00     0.016 C 
ATOM      3  C   LIG d   1      -1.332  81.627 112.726  0.00  0.00     0.038 C 
ATOM      4  C   LIG d   1      -1.250  80.410 112.033  0.00  0.00     0.028 C 
ATOM      5  C   LIG d   1      -1.162  79.195 112.951  0.00  0.00    -0.047 C 
ATOM      6  C   LIG d   1      -2.307  79.265 113.987  0.00  0.00     0.091 C 
ENDROOT
BRANCH   1   7
ATOM      7  O   LIG d   1      -3.567  80.835 115.385  0.00  0.00    -0.368 OA
BRANCH   7   8
ATOM      8  C   LIG d   1      -3.590  80.834 116.833  0.00  0.00     0.119 C 
BRANCH   8   9
ATOM      9  C   LIG d   1      -4.874  81.562 117.276  0.00  0.00     0.028 C 
ATOM     10  C   LIG d   1      -5.980  80.588 117.714  0.00  0.00     0.006 C 
ENDBRANCH   8   9
BRANCH   8  11
ATOM     11  C   LIG d   1      -2.436  81.659 117.410  0.00  0.00     0.028 C 
ATOM     12  C   LIG d   1      -2.460  81.725 118.945  0.00  0.00     0.006 C 
ENDBRANCH   8  11
ENDBRANCH   7   8
ENDBRANCH   1   7
BRANCH   6  13
ATOM     13  N   LIG d   1      -2.243  78.158 114.977  0.00  0.00    -0.311 N 
ATOM     14  C   LIG d   1      -2.940  77.029 114.860  0.00  0.00     0.210 C 
ATOM     15  C   LIG d   1      -2.744  76.027 116.002  0.00  0.00     0.109 C 
ATOM     16  O   LIG d   1      -3.678  76.749 113.903  0.00  0.00    -0.276 OA
ATOM     17  H   LIG d   1      -1.645  78.288 115.769  0.00  0.00     0.149 HD
ENDBRANCH   6  13
BRANCH   5  18
ATOM     18  N   LIG d   1      -1.222  77.990 112.103  0.00  0.00     0.381 N 
ATOM     19  H   LIG d   1      -1.450  77.193 112.662  0.00  0.00    -0.090 HD
ATOM     20  H   LIG d   1      -0.318  77.838 111.690  0.00  0.00    -0.090 HD
ATOM     21  H   LIG d   1      -1.905  78.110 111.388  0.00  0.00    -0.090 HD
ENDBRANCH   5  18
BRANCH   3  22
ATOM     22  C   LIG d   1      -0.801  82.761 112.130  0.00  0.00     0.382 C 
ATOM     23  O   LIG d   1      -1.422  83.328 111.199  0.00  0.00    -0.241 OA
ATOM     24  O   LIG d   1       0.311  83.198 112.481  0.00  0.00    -0.241 OA
ENDBRANCH   3  22
TORSDOF 7
ENDMDL
MODEL 3
REMARK VINA RESULT:      -5.3      2.266      5.092
REMARK  7 active torsions:
REMARK  status: ('A' for Active; 'I' for Inactive)
REMARK    1  A    between atoms: C_2  and  C_3 
REMARK    2  A    between atoms: C_3  and  O_6 
REMARK    3  A    between atoms: C_3  and  C_4 
REMARK    4  A    between atoms: C_7  and  O_6 
REMARK    5  A    between atoms: C_9  and  C_10 
REMARK    6  A    between atoms: N_15  and  C_14 
REMARK    7  A    between atoms: N_20  and  C_19 
REMARK       I    between atoms: C_22  and  N_20 
ROOT
ATOM      1  C   LIG d   1      -1.006  80.964 112.720  0.00  0.00     0.161 C 
ATOM      2  C   LIG d   1      -0.793  80.210 111.554  0.00  0.00     0.016 C 
ATOM      3  C   LIG d   1      -1.191  78.860 111.417  0.00  0.00     0.038 C 
ATOM      4  C   LIG d   1      -1.971  78.215 112.388  0.00  0.00     0.028 C 
ATOM      5  C   LIG d   1      -1.775  78.776 113.793  0.00  0.00    -0.047 C 
ATOM      6  C   LIG d   1      -1.953  80.311 113.749  0.00  0.00     0.091 C 
ENDROOT
BRANCH   1   7
ATOM      7  O   LIG d   1      -1.477  82.281 112.371  0.00  0.00    -0.368 OA
BRANCH   7   8
ATOM      8  C   LIG d   1      -0.457  83.288 112.162  0.00  0.00     0.119 C 
BRANCH   8   9
ATOM      9  C   LIG d   1      -0.484  84.234 113.378  0.00  0.00     0.028 C 
ATOM     10  C   LIG d   1       0.926  84.614 113.858  0.00  0.00     0.006 C 
ENDBRANCH   8   9
BRANCH   8  11
ATOM     11  C   LIG d   1      -0.784  84.170 110.954  0.00  0.00     0.028 C 
ATOM     12  C   LIG d   1       0.382  84.273 109.958  0.00  0.00     0.006 C 
ENDBRANCH   8  11
ENDBRANCH   7   8
ENDBRANCH   1   7
BRANCH   6  13
ATOM     13  N   LIG d   1      -1.696  80.949 115.066  0.00  0.00    -0.311 N 
ATOM     14  C   LIG d   1      -2.642  81.148 115.982  0.00  0.00     0.210 C 
ATOM     15  C   LIG d   1      -2.167  81.841 117.263  0.00  0.00     0.109 C 
ATOM     16  O   LIG d   1      -3.823  80.788 115.868  0.00  0.00    -0.276 OA
ATOM     17  H   LIG d   1      -0.757  81.244 115.254  0.00  0.00     0.149 HD
ENDBRANCH   6  13
BRANCH   5  18
ATOM     18  N   LIG d   1      -2.746  78.107 114.679  0.00  0.00     0.381 N 
ATOM     19  H   LIG d   1      -3.653  78.512 114.556  0.00  0.00    -0.090 HD
ATOM     20  H   LIG d   1      -2.465  78.247 115.634  0.00  0.00    -0.090 HD
ATOM     21  H   LIG d   1      -2.779  77.132 114.475  0.00  0.00    -0.090 HD
ENDBRANCH   5  18
BRANCH   3  22
ATOM     22  C   LIG d   1      -0.775  78.130 110.314  0.00  0.00     0.382 C 
ATOM     23  O   LIG d   1      -0.072  78.675 109.430  0.00  0.00    -0.241 OA
ATOM     24  O   LIG d   1      -1.132  76.945 110.170  0.00  0.00    -0.241 OA
ENDBRANCH   3  22
TORSDOF 7
ENDMDL
MODEL 4
REMARK VINA RESULT:      -5.0      2.303      4.709
REMARK  7 active torsions:
REMARK  status: ('A' for Active; 'I' for Inactive)
REMARK    1  A    between atoms: C_2  and  C_3 
REMARK    2  A    between atoms: C_3  and  O_6 
REMARK    3  A    between atoms: C_3  and  C_4 
REMARK    4  A    between atoms: C_7  and  O_6 
REMARK    5  A    between atoms: C_9  and  C_10 
REMARK    6  A    between atoms: N_15  and  C_14 
REMARK    7  A    between atoms: N_20  and  C_19 
REMARK       I    between atoms: C_22  and  N_20 
ROOT
ATOM      1  C   LIG d   1      -2.384  78.169 113.782  0.00  0.00     0.161 C 
ATOM      2  C   LIG d   1      -2.840  79.074 114.755  0.00  0.00     0.016 C 
ATOM      3  C   LIG d   1      -2.695  80.476 114.643  0.00  0.00     0.038 C 
ATOM      4  C   LIG d   1      -2.215  81.080 113.472  0.00  0.00     0.028 C 
ATOM      5  C   LIG d   1      -1.276  80.185 112.669  0.00  0.00    -0.047 C 
ATOM      6  C   LIG d   1      -1.957  78.815 112.447  0.00  0.00     0.091 C 
ENDROOT
BRANCH   1   7
ATOM      7  O   LIG d   1      -3.381  77.155 113.552  0.00  0.00    -0.368 OA
BRANCH   7   8
ATOM      8  C   LIG d   1      -3.765  76.365 114.704  0.00  0.00     0.119 C 
BRANCH   8   9
ATOM      9  C   LIG d   1      -2.534  75.542 115.132  0.00  0.00     0.028 C 
ATOM     10  C   LIG d   1      -2.161  75.769 116.606  0.00  0.00     0.006 C 
ENDBRANCH   8   9
BRANCH   8  11
ATOM     11  C   LIG d   1      -4.836  75.332 114.340  0.00  0.00     0.028 C 
ATOM     12  C   LIG d   1      -6.186  75.608 115.020  0.00  0.00     0.006 C 
ENDBRANCH   8  11
ENDBRANCH   7   8
ENDBRANCH   1   7
BRANCH   6  13
ATOM     13  N   LIG d   1      -1.073  77.850 111.743  0.00  0.00    -0.311 N 
ATOM     14  C   LIG d   1      -1.066  77.694 110.420  0.00  0.00     0.210 C 
ATOM     15  C   LIG d   1      -0.093  76.631 109.900  0.00  0.00     0.109 C 
ATOM     16  O   LIG d   1      -1.750  78.356 109.626  0.00  0.00    -0.276 OA
ATOM     17  H   LIG d   1      -0.463  77.294 112.308  0.00  0.00     0.149 HD
ENDBRANCH   6  13
BRANCH   5  18
ATOM     18  N   LIG d   1      -0.962  80.885 111.410  0.00  0.00     0.381 N 
ATOM     19  H   LIG d   1      -1.070  80.258 110.637  0.00  0.00    -0.090 HD
ATOM     20  H   LIG d   1      -0.004  81.189 111.437  0.00  0.00    -0.090 HD
ATOM     21  H   LIG d   1      -1.564  81.671 111.296  0.00  0.00    -0.090 HD
ENDBRANCH   5  18
BRANCH   3  22
ATOM     22  C   LIG d   1      -2.996  81.287 115.727  0.00  0.00     0.382 C 
ATOM     23  O   LIG d   1      -4.126  81.219 116.266  0.00  0.00    -0.241 OA
ATOM     24  O   LIG d   1      -2.166  82.116 116.145  0.00  0.00    -0.241 OA
ENDBRANCH   3  22
TORSDOF 7
ENDMDL
MODEL 5
REMARK VINA RESULT:      -5.0      1.540      1.934
REMARK  7 active torsions:
REMARK  status: ('A' for Active; 'I' for Inactive)
REMARK    1  A    between atoms: C_2  and  C_3 
REMARK    2  A    between atoms: C_3  and  O_6 
REMARK    3  A    between atoms: C_3  and  C_4 
REMARK    4  A    between atoms: C_7  and  O_6 
REMARK    5  A    between atoms: C_9  and  C_10 
REMARK    6  A    between atoms: N_15  and  C_14 
REMARK    7  A    between atoms: N_20  and  C_19 
REMARK       I    between atoms: C_22  and  N_20 
ROOT
ATOM      1  C   LIG d   1      -1.029  79.845 115.272  0.00  0.00     0.161 C 
ATOM      2  C   LIG d   1      -1.169  81.136 114.735  0.00  0.00     0.016 C 
ATOM      3  C   LIG d   1      -1.481  81.384 113.379  0.00  0.00     0.038 C 
ATOM      4  C   LIG d   1      -1.825  80.350 112.495  0.00  0.00     0.028 C 
ATOM      5  C   LIG d   1      -1.205  79.007 112.865  0.00  0.00    -0.047 C 
ATOM      6  C   LIG d   1      -1.509  78.705 114.350  0.00  0.00     0.091 C 
ENDROOT
BRANCH   1   7
ATOM      7  O   LIG d   1      -1.695  79.772 116.548  0.00  0.00    -0.368 OA
BRANCH   7   8
ATOM      8  C   LIG d   1      -3.126  79.551 116.508  0.00  0.00     0.119 C 
BRANCH   8   9
ATOM      9  C   LIG d   1      -3.810  80.870 116.914  0.00  0.00     0.028 C 
ATOM     10  C   LIG d   1      -3.026  81.629 117.999  0.00  0.00     0.006 C 
ENDBRANCH   8   9
BRANCH   8  11
ATOM     11  C   LIG d   1      -3.561  78.528 117.562  0.00  0.00     0.028 C 
ATOM     12  C   LIG d   1      -2.386  77.706 118.116  0.00  0.00     0.006 C 
ENDBRANCH   8  11
ENDBRANCH   7   8
ENDBRANCH   1   7
BRANCH   6  13
ATOM     13  N   LIG d   1      -0.868  77.449 114.817  0.00  0.00    -0.311 N 
ATOM     14  C   LIG d   1      -1.492  76.272 114.843  0.00  0.00     0.210 C 
ATOM     15  C   LIG d   1      -0.654  75.107 115.378  0.00  0.00     0.109 C 
ATOM     16  O   LIG d   1      -2.649  76.077 114.443  0.00  0.00    -0.276 OA
ATOM     17  H   LIG d   1       0.082  77.510 115.130  0.00  0.00     0.149 HD
ENDBRANCH   6  13
BRANCH   5  18
ATOM     18  N   LIG d   1      -1.755  77.994 111.945  0.00  0.00     0.381 N 
ATOM     19  H   LIG d   1      -2.481  78.400 111.389  0.00  0.00    -0.090 HD
ATOM     20  H   LIG d   1      -2.153  77.246 112.485  0.00  0.00    -0.090 HD
ATOM     21  H   LIG d   1      -1.034  77.641 111.355  0.00  0.00    -0.090 HD
ENDBRANCH   5  18
BRANCH   3  22
ATOM     22  C   LIG d   1      -1.411  82.678 112.883  0.00  0.00     0.382 C 
ATOM     23  O   LIG d   1      -1.220  83.639 113.666  0.00  0.00    -0.241 OA
ATOM     24  O   LIG d   1      -1.581  82.899 111.670  0.00  0.00    -0.241 OA
ENDBRANCH   3  22
TORSDOF 7
ENDMDL
MODEL 6
REMARK VINA RESULT:      -4.9      2.374      5.078
REMARK  7 active torsions:
REMARK  status: ('A' for Active; 'I' for Inactive)
REMARK    1  A    between atoms: C_2  and  C_3 
REMARK    2  A    between atoms: C_3  and  O_6 
REMARK    3  A    between atoms: C_3  and  C_4 
REMARK    4  A    between atoms: C_7  and  O_6 
REMARK    5  A    between atoms: C_9  and  C_10 
REMARK    6  A    between atoms: N_15  and  C_14 
REMARK    7  A    between atoms: N_20  and  C_19 
REMARK       I    between atoms: C_22  and  N_20 
ROOT
ATOM      1  C   LIG d   1      -2.236  78.385 114.066  0.00  0.00     0.161 C 
ATOM      2  C   LIG d   1      -1.866  77.957 112.780  0.00  0.00     0.016 C 
ATOM      3  C   LIG d   1      -1.474  78.840 111.748  0.00  0.00     0.038 C 
ATOM      4  C   LIG d   1      -1.280  80.210 111.980  0.00  0.00     0.028 C 
ATOM      5  C   LIG d   1      -2.126  80.757 113.124  0.00  0.00    -0.047 C 
ATOM      6  C   LIG d   1      -1.924  79.865 114.370  0.00  0.00     0.091 C 
ENDROOT
BRANCH   1   7
ATOM      7  O   LIG d   1      -1.633  77.531 115.058  0.00  0.00    -0.368 OA
BRANCH   7   8
ATOM      8  C   LIG d   1      -2.154  76.182 115.141  0.00  0.00     0.119 C 
BRANCH   8   9
ATOM      9  C   LIG d   1      -3.231  76.169 116.242  0.00  0.00     0.028 C 
ATOM     10  C   LIG d   1      -4.536  75.498 115.780  0.00  0.00     0.006 C 
ENDBRANCH   8   9
BRANCH   8  11
ATOM     11  C   LIG d   1      -1.080  75.197 115.612  0.00  0.00     0.028 C 
ATOM     12  C   LIG d   1      -0.112  74.790 114.490  0.00  0.00     0.006 C 
ENDBRANCH   8  11
ENDBRANCH   7   8
ENDBRANCH   1   7
BRANCH   6  13
ATOM     13  N   LIG d   1      -2.781  80.280 115.510  0.00  0.00    -0.311 N 
ATOM     14  C   LIG d   1      -2.395  81.156 116.437  0.00  0.00     0.210 C 
ATOM     15  C   LIG d   1      -3.425  81.429 117.537  0.00  0.00     0.109 C 
ATOM     16  O   LIG d   1      -1.310  81.757 116.433  0.00  0.00    -0.276 OA
ATOM     17  H   LIG d   1      -3.690  79.865 115.573  0.00  0.00     0.149 HD
ENDBRANCH   6  13
BRANCH   5  18
ATOM     18  N   LIG d   1      -1.724  82.159 113.346  0.00  0.00     0.381 N 
ATOM     19  H   LIG d   1      -1.518  82.303 114.314  0.00  0.00    -0.090 HD
ATOM     20  H   LIG d   1      -2.489  82.761 113.093  0.00  0.00    -0.090 HD
ATOM     21  H   LIG d   1      -0.925  82.376 112.792  0.00  0.00    -0.090 HD
ENDBRANCH   5  18
BRANCH   3  22
ATOM     22  C   LIG d   1      -1.310  78.361 110.458  0.00  0.00     0.382 C 
ATOM     23  O   LIG d   1      -1.328  79.155 109.487  0.00  0.00    -0.241 OA
ATOM     24  O   LIG d   1      -1.190  77.139 110.248  0.00  0.00    -0.241 OA
ENDBRANCH   3  22
TORSDOF 7
ENDMDL
MODEL 7
REMARK VINA RESULT:      -4.9      2.778      5.407
REMARK  7 active torsions:
REMARK  status: ('A' for Active; 'I' for Inactive)
REMARK    1  A    between atoms: C_2  and  C_3 
REMARK    2  A    between atoms: C_3  and  O_6 
REMARK    3  A    between atoms: C_3  and  C_4 
REMARK    4  A    between atoms: C_7  and  O_6 
REMARK    5  A    between atoms: C_9  and  C_10 
REMARK    6  A    between atoms: N_15  and  C_14 
REMARK    7  A    between atoms: N_20  and  C_19 
REMARK       I    between atoms: C_22  and  N_20 
ROOT
ATOM      1  C   LIG d   1      -0.207  80.742 113.043  0.00  0.00     0.161 C 
ATOM      2  C   LIG d   1      -1.149  79.845 113.572  0.00  0.00     0.016 C 
ATOM      3  C   LIG d   1      -1.759  78.820 112.813  0.00  0.00     0.038 C 
ATOM      4  C   LIG d   1      -1.353  78.526 111.503  0.00  0.00     0.028 C 
ATOM      5  C   LIG d   1      -0.767  79.726 110.767  0.00  0.00    -0.047 C 
ATOM      6  C   LIG d   1       0.331  80.367 111.647  0.00  0.00     0.091 C 
ENDROOT
BRANCH   1   7
ATOM      7  O   LIG d   1       0.883  80.909 113.971  0.00  0.00    -0.368 OA
BRANCH   7   8
ATOM      8  C   LIG d   1       0.911  82.159 114.704  0.00  0.00     0.119 C 
BRANCH   8   9
ATOM      9  C   LIG d   1       0.666  81.830 116.190  0.00  0.00     0.028 C 
ATOM     10  C   LIG d   1      -0.802  82.033 116.601  0.00  0.00     0.006 C 
ENDBRANCH   8   9
BRANCH   8  11
ATOM     11  C   LIG d   1      -0.249  83.071 114.294  0.00  0.00     0.028 C 
ATOM     12  C   LIG d   1       0.218  84.467 113.851  0.00  0.00     0.006 C 
ENDBRANCH   8  11
ENDBRANCH   7   8
ENDBRANCH   1   7
BRANCH   6  13
ATOM     13  N   LIG d   1       0.898  81.598 111.037  0.00  0.00    -0.311 N 
ATOM     14  C   LIG d   1       0.162  82.654 110.697  0.00  0.00     0.210 C 
ATOM     15  C   LIG d   1       0.943  83.811 110.065  0.00  0.00     0.109 C 
ATOM     16  O   LIG d   1      -1.060  82.756 110.887  0.00  0.00    -0.276 OA
ATOM     17  H   LIG d   1       1.886  81.614 110.876  0.00  0.00     0.149 HD
ENDBRANCH   6  13
BRANCH   5  18
ATOM     18  N   LIG d   1      -0.260  79.248 109.467  0.00  0.00     0.381 N 
ATOM     19  H   LIG d   1      -0.713  79.742 108.724  0.00  0.00    -0.090 HD
ATOM     20  H   LIG d   1      -0.477  78.271 109.373  0.00  0.00    -0.090 HD
ATOM     21  H   LIG d   1       0.725  79.383 109.414  0.00  0.00    -0.090 HD
ENDBRANCH   5  18
BRANCH   3  22
ATOM     22  C   LIG d   1      -2.817  78.102 113.352  0.00  0.00     0.382 C 
ATOM     23  O   LIG d   1      -3.638  77.533 112.594  0.00  0.00    -0.241 OA
ATOM     24  O   LIG d   1      -2.984  78.054 114.585  0.00  0.00    -0.241 OA
ENDBRANCH   3  22
TORSDOF 7
ENDMDL
MODEL 8
REMARK VINA RESULT:      -4.8      1.559      1.994
REMARK  7 active torsions:
REMARK  status: ('A' for Active; 'I' for Inactive)
REMARK    1  A    between atoms: C_2  and  C_3 
REMARK    2  A    between atoms: C_3  and  O_6 
REMARK    3  A    between atoms: C_3  and  C_4 
REMARK    4  A    between atoms: C_7  and  O_6 
REMARK    5  A    between atoms: C_9  and  C_10 
REMARK    6  A    between atoms: N_15  and  C_14 
REMARK    7  A    between atoms: N_20  and  C_19 
REMARK       I    between atoms: C_22  and  N_20 
ROOT
ATOM      1  C   LIG d   1      -0.387  80.230 115.270  0.00  0.00     0.161 C 
ATOM      2  C   LIG d   1      -0.495  81.446 114.573  0.00  0.00     0.016 C 
ATOM      3  C   LIG d   1      -1.220  81.590 113.368  0.00  0.00     0.038 C 
ATOM      4  C   LIG d   1      -2.017  80.557 112.854  0.00  0.00     0.028 C 
ATOM      5  C   LIG d   1      -1.536  79.166 113.251  0.00  0.00    -0.047 C 
ATOM      6  C   LIG d   1      -1.342  79.120 114.784  0.00  0.00     0.091 C 
ENDROOT
BRANCH   1   7
ATOM      7  O   LIG d   1      -0.563  80.460 116.682  0.00  0.00    -0.368 OA
BRANCH   7   8
ATOM      8  C   LIG d   1      -1.217  81.699 117.050  0.00  0.00     0.119 C 
BRANCH   8   9
ATOM      9  C   LIG d   1      -0.422  82.312 118.219  0.00  0.00     0.028 C 
ATOM     10  C   LIG d   1       1.028  82.647 117.831  0.00  0.00     0.006 C 
ENDBRANCH   8   9
BRANCH   8  11
ATOM     11  C   LIG d   1      -2.622  81.445 117.604  0.00  0.00     0.028 C 
ATOM     12  C   LIG d   1      -3.701  81.436 116.510  0.00  0.00     0.006 C 
ENDBRANCH   8  11
ENDBRANCH   7   8
ENDBRANCH   1   7
BRANCH   6  13
ATOM     13  N   LIG d   1      -0.792  77.819 115.247  0.00  0.00    -0.311 N 
ATOM     14  C   LIG d   1      -1.552  76.809 115.664  0.00  0.00     0.210 C 
ATOM     15  C   LIG d   1      -0.782  75.564 116.118  0.00  0.00     0.109 C 
ATOM     16  O   LIG d   1      -2.793  76.813 115.672  0.00  0.00    -0.276 OA
ATOM     17  H   LIG d   1       0.204  77.718 115.244  0.00  0.00     0.149 HD
ENDBRANCH   6  13
BRANCH   5  18
ATOM     18  N   LIG d   1      -2.533  78.194 112.765  0.00  0.00     0.381 N 
ATOM     19  H   LIG d   1      -2.153  77.671 112.002  0.00  0.00    -0.090 HD
ATOM     20  H   LIG d   1      -3.340  78.693 112.434  0.00  0.00    -0.090 HD
ATOM     21  H   LIG d   1      -2.795  77.576 113.502  0.00  0.00    -0.090 HD
ENDBRANCH   5  18
BRANCH   3  22
ATOM     22  C   LIG d   1      -1.119  82.768 112.642  0.00  0.00     0.382 C 
ATOM     23  O   LIG d   1      -1.665  82.859 111.517  0.00  0.00    -0.241 OA
ATOM     24  O   LIG d   1      -0.451  83.724 113.079  0.00  0.00    -0.241 OA
ENDBRANCH   3  22
TORSDOF 7
ENDMDL
MODEL 9
REMARK VINA RESULT:      -4.7      2.213      4.828
REMARK  7 active torsions:
REMARK  status: ('A' for Active; 'I' for Inactive)
REMARK    1  A    between atoms: C_2  and  C_3 
REMARK    2  A    between atoms: C_3  and  O_6 
REMARK    3  A    between atoms: C_3  and  C_4 
REMARK    4  A    between atoms: C_7  and  O_6 
REMARK    5  A    between atoms: C_9  and  C_10 
REMARK    6  A    between atoms: N_15  and  C_14 
REMARK    7  A    between atoms: N_20  and  C_19 
REMARK       I    between atoms: C_22  and  N_20 
ROOT
ATOM      1  C   LIG d   1      -0.894  80.210 114.199  0.00  0.00     0.161 C 
ATOM      2  C   LIG d   1      -1.634  79.070 114.555  0.00  0.00     0.016 C 
ATOM      3  C   LIG d   1      -2.128  78.138 113.614  0.00  0.00     0.038 C 
ATOM      4  C   LIG d   1      -1.783  78.202 112.256  0.00  0.00     0.028 C 
ATOM      5  C   LIG d   1      -1.458  79.614 111.779  0.00  0.00    -0.047 C 
ATOM      6  C   LIG d   1      -0.413  80.237 112.733  0.00  0.00     0.091 C 
ENDROOT
BRANCH   1   7
ATOM      7  O   LIG d   1       0.224  80.366 115.096  0.00  0.00    -0.368 OA
BRANCH   7   8
ATOM      8  C   LIG d   1       0.191  81.530 115.958  0.00  0.00     0.119 C 
BRANCH   8   9
ATOM      9  C   LIG d   1       0.536  81.059 117.384  0.00  0.00     0.028 C 
ATOM     10  C   LIG d   1       1.160  79.653 117.403  0.00  0.00     0.006 C 
ENDBRANCH   8   9
BRANCH   8  11
ATOM     11  C   LIG d   1      -1.222  82.113 116.054  0.00  0.00     0.028 C 
ATOM     12  C   LIG d   1      -1.898  81.816 117.402  0.00  0.00     0.006 C 
ENDBRANCH   8  11
ENDBRANCH   7   8
ENDBRANCH   1   7
BRANCH   6  13
ATOM     13  N   LIG d   1      -0.102  81.649 112.388  0.00  0.00    -0.311 N 
ATOM     14  C   LIG d   1      -1.032  82.591 112.245  0.00  0.00     0.210 C 
ATOM     15  C   LIG d   1      -0.498  83.976 111.867  0.00  0.00     0.109 C 
ATOM     16  O   LIG d   1      -2.247  82.419 112.426  0.00  0.00    -0.276 OA
ATOM     17  H   LIG d   1       0.862  81.883 112.253  0.00  0.00     0.149 HD
ENDBRANCH   6  13
BRANCH   5  18
ATOM     18  N   LIG d   1      -0.983  79.516 110.386  0.00  0.00     0.381 N 
ATOM     19  H   LIG d   1      -1.718  79.775 109.759  0.00  0.00    -0.090 HD
ATOM     20  H   LIG d   1      -0.728  78.563 110.196  0.00  0.00    -0.090 HD
ATOM     21  H   LIG d   1      -0.196  80.112 110.251  0.00  0.00    -0.090 HD
ENDBRANCH   5  18
BRANCH   3  22
ATOM     22  C   LIG d   1      -3.009  77.149 114.024  0.00  0.00     0.382 C 
ATOM     23  O   LIG d   1      -2.787  76.510 115.081  0.00  0.00    -0.241 OA
ATOM     24  O   LIG d   1      -4.000  76.858 113.327  0.00  0.00    -0.241 OA
ENDBRANCH   3  22
TORSDOF 7
ENDMDL
