MODEL 1
REMARK VINA RESULT:      -5.1      0.000      0.000
REMARK  7 active torsions:
REMARK  status: ('A' for Active; 'I' for Inactive)
REMARK    1  A    between atoms: C_2  and  C_3 
REMARK    2  A    between atoms: C_3  and  O_6 
REMARK    3  A    between atoms: C_3  and  C_4 
REMARK    4  A    between atoms: C_7  and  O_6 
REMARK    5  A    between atoms: C_9  and  C_10 
REMARK    6  A    between atoms: N_15  and  C_14 
REMARK    7  A    between atoms: N_20  and  C_19 
REMARK       I    between atoms: C_22  and  N_20 
ROOT
ATOM      1  C   LIG d   1      -2.793  76.683 115.688  0.00  0.00     0.161 C 
ATOM      2  C   LIG d   1      -3.072  77.674 114.732  0.00  0.00     0.016 C 
ATOM      3  C   LIG d   1      -2.314  77.852 113.552  0.00  0.00     0.038 C 
ATOM      4  C   LIG d   1      -1.311  76.948 113.171  0.00  0.00     0.028 C 
ATOM      5  C   LIG d   1      -0.664  76.230 114.350  0.00  0.00    -0.047 C 
ATOM      6  C   LIG d   1      -1.773  75.618 115.236  0.00  0.00     0.091 C 
ENDROOT
BRANCH   1   7
ATOM      7  O   LIG d   1      -4.019  76.055 116.112  0.00  0.00    -0.368 OA
BRANCH   7   8
ATOM      8  C   LIG d   1      -5.244  76.642 115.607  0.00  0.00     0.119 C 
BRANCH   8   9
ATOM      9  C   LIG d   1      -6.150  76.936 116.819  0.00  0.00     0.028 C 
ATOM     10  C   LIG d   1      -6.133  78.422 117.217  0.00  0.00     0.006 C 
ENDBRANCH   8   9
BRANCH   8  11
ATOM     11  C   LIG d   1      -6.027  75.645 114.748  0.00  0.00     0.028 C 
ATOM     12  C   LIG d   1      -5.174  74.450 114.294  0.00  0.00     0.006 C 
ENDBRANCH   8  11
ENDBRANCH   7   8
ENDBRANCH   1   7
BRANCH   6  13
ATOM     13  N   LIG d   1      -1.229  74.969 116.457  0.00  0.00    -0.311 N 
ATOM     14  C   LIG d   1      -0.527  75.620 117.383  0.00  0.00     0.210 C 
ATOM     15  C   LIG d   1      -0.044  74.758 118.553  0.00  0.00     0.109 C 
ATOM     16  O   LIG d   1      -0.287  76.837 117.362  0.00  0.00    -0.276 OA
ATOM     17  H   LIG d   1      -1.405  73.990 116.570  0.00  0.00     0.149 HD
ENDBRANCH   6  13
BRANCH   5  18
ATOM     18  N   LIG d   1       0.263  75.221 113.804  0.00  0.00     0.381 N 
ATOM     19  H   LIG d   1      -0.121  74.826 112.969  0.00  0.00    -0.090 HD
ATOM     20  H   LIG d   1       0.376  74.485 114.478  0.00  0.00    -0.090 HD
ATOM     21  H   LIG d   1       1.145  75.640 113.607  0.00  0.00    -0.090 HD
ENDBRANCH   5  18
BRANCH   3  22
ATOM     22  C   LIG d   1      -2.530  78.968 112.758  0.00  0.00     0.382 C 
ATOM     23  O   LIG d   1      -3.077  79.987 113.244  0.00  0.00    -0.241 OA
ATOM     24  O   LIG d   1      -2.226  78.953 111.550  0.00  0.00    -0.241 OA
ENDBRANCH   3  22
TORSDOF 7
ENDMDL
MODEL 2
REMARK VINA RESULT:      -4.9      2.326      5.392
REMARK  7 active torsions:
REMARK  status: ('A' for Active; 'I' for Inactive)
REMARK    1  A    between atoms: C_2  and  C_3 
REMARK    2  A    between atoms: C_3  and  O_6 
REMARK    3  A    between atoms: C_3  and  C_4 
REMARK    4  A    between atoms: C_7  and  O_6 
REMARK    5  A    between atoms: C_9  and  C_10 
REMARK    6  A    between atoms: N_15  and  C_14 
REMARK    7  A    between atoms: N_20  and  C_19 
REMARK       I    between atoms: C_22  and  N_20 
ROOT
ATOM      1  C   LIG d   1      -1.911  77.364 114.443  0.00  0.00     0.161 C 
ATOM      2  C   LIG d   1      -0.730  77.461 115.198  0.00  0.00     0.016 C 
ATOM      3  C   LIG d   1      -0.473  76.674 116.344  0.00  0.00     0.038 C 
ATOM      4  C   LIG d   1      -1.319  75.623 116.726  0.00  0.00     0.028 C 
ATOM      5  C   LIG d   1      -2.767  75.822 116.291  0.00  0.00    -0.047 C 
ATOM      6  C   LIG d   1      -2.796  76.147 114.780  0.00  0.00     0.091 C 
ENDROOT
BRANCH   1   7
ATOM      7  O   LIG d   1      -1.594  77.379 113.037  0.00  0.00    -0.368 OA
BRANCH   7   8
ATOM      8  C   LIG d   1      -1.507  78.686 112.417  0.00  0.00     0.119 C 
BRANCH   8   9
ATOM      9  C   LIG d   1      -2.771  79.473 112.815  0.00  0.00     0.028 C 
ATOM     10  C   LIG d   1      -2.637  80.979 112.536  0.00  0.00     0.006 C 
ENDBRANCH   8   9
BRANCH   8  11
ATOM     11  C   LIG d   1      -1.558  78.583 110.890  0.00  0.00     0.028 C 
ATOM     12  C   LIG d   1      -0.456  79.403 110.200  0.00  0.00     0.006 C 
ENDBRANCH   8  11
ENDBRANCH   7   8
ENDBRANCH   1   7
BRANCH   6  13
ATOM     13  N   LIG d   1      -4.169  76.439 114.290  0.00  0.00    -0.311 N 
ATOM     14  C   LIG d   1      -4.995  75.504 113.822  0.00  0.00     0.210 C 
ATOM     15  C   LIG d   1      -6.356  76.023 113.349  0.00  0.00     0.109 C 
ATOM     16  O   LIG d   1      -4.741  74.291 113.785  0.00  0.00    -0.276 OA
ATOM     17  H   LIG d   1      -4.468  77.394 114.314  0.00  0.00     0.149 HD
ENDBRANCH   6  13
BRANCH   5  18
ATOM     18  N   LIG d   1      -3.508  74.593 116.633  0.00  0.00     0.381 N 
ATOM     19  H   LIG d   1      -3.612  74.525 117.626  0.00  0.00    -0.090 HD
ATOM     20  H   LIG d   1      -2.983  73.797 116.315  0.00  0.00    -0.090 HD
ATOM     21  H   LIG d   1      -4.404  74.603 116.198  0.00  0.00    -0.090 HD
ENDBRANCH   5  18
BRANCH   3  22
ATOM     22  C   LIG d   1       0.623  76.961 117.143  0.00  0.00     0.382 C 
ATOM     23  O   LIG d   1       1.390  77.906 116.839  0.00  0.00    -0.241 OA
ATOM     24  O   LIG d   1       0.880  76.260 118.140  0.00  0.00    -0.241 OA
ENDBRANCH   3  22
TORSDOF 7
ENDMDL
MODEL 3
REMARK VINA RESULT:      -4.7      2.618      4.893
REMARK  7 active torsions:
REMARK  status: ('A' for Active; 'I' for Inactive)
REMARK    1  A    between atoms: C_2  and  C_3 
REMARK    2  A    between atoms: C_3  and  O_6 
REMARK    3  A    between atoms: C_3  and  C_4 
REMARK    4  A    between atoms: C_7  and  O_6 
REMARK    5  A    between atoms: C_9  and  C_10 
REMARK    6  A    between atoms: N_15  and  C_14 
REMARK    7  A    between atoms: N_20  and  C_19 
REMARK       I    between atoms: C_22  and  N_20 
ROOT
ATOM      1  C   LIG d   1      -4.809  77.286 116.554  0.00  0.00     0.161 C 
ATOM      2  C   LIG d   1      -6.028  77.942 116.793  0.00  0.00     0.016 C 
ATOM      3  C   LIG d   1      -6.303  78.667 117.976  0.00  0.00     0.038 C 
ATOM      4  C   LIG d   1      -5.315  78.912 118.941  0.00  0.00     0.028 C 
ATOM      5  C   LIG d   1      -4.225  77.846 118.978  0.00  0.00    -0.047 C 
ATOM      6  C   LIG d   1      -3.681  77.635 117.546  0.00  0.00     0.091 C 
ENDROOT
BRANCH   1   7
ATOM      7  O   LIG d   1      -4.379  77.531 115.200  0.00  0.00    -0.368 OA
BRANCH   7   8
ATOM      8  C   LIG d   1      -3.967  76.368 114.442  0.00  0.00     0.119 C 
BRANCH   8   9
ATOM      9  C   LIG d   1      -3.230  76.871 113.185  0.00  0.00     0.028 C 
ATOM     10  C   LIG d   1      -2.634  78.276 113.378  0.00  0.00     0.006 C 
ENDBRANCH   8   9
BRANCH   8  11
ATOM     11  C   LIG d   1      -5.175  75.587 113.917  0.00  0.00     0.028 C 
ATOM     12  C   LIG d   1      -5.355  74.228 114.613  0.00  0.00     0.006 C 
ENDBRANCH   8  11
ENDBRANCH   7   8
ENDBRANCH   1   7
BRANCH   6  13
ATOM     13  N   LIG d   1      -2.669  76.548 117.479  0.00  0.00    -0.311 N 
ATOM     14  C   LIG d   1      -1.436  76.723 117.008  0.00  0.00     0.210 C 
ATOM     15  C   LIG d   1      -0.560  75.466 117.009  0.00  0.00     0.109 C 
ATOM     16  O   LIG d   1      -0.974  77.806 116.620  0.00  0.00    -0.276 OA
ATOM     17  H   LIG d   1      -2.950  75.644 117.803  0.00  0.00     0.149 HD
ENDBRANCH   6  13
BRANCH   5  18
ATOM     18  N   LIG d   1      -3.192  78.297 119.929  0.00  0.00     0.381 N 
ATOM     19  H   LIG d   1      -3.370  79.244 120.198  0.00  0.00    -0.090 HD
ATOM     20  H   LIG d   1      -2.296  78.260 119.477  0.00  0.00    -0.090 HD
ATOM     21  H   LIG d   1      -3.191  77.710 120.734  0.00  0.00    -0.090 HD
ENDBRANCH   5  18
BRANCH   3  22
ATOM     22  C   LIG d   1      -7.590  79.121 118.220  0.00  0.00     0.382 C 
ATOM     23  O   LIG d   1      -8.092  80.007 117.487  0.00  0.00    -0.241 OA
ATOM     24  O   LIG d   1      -8.239  78.688 119.191  0.00  0.00    -0.241 OA
ENDBRANCH   3  22
TORSDOF 7
ENDMDL
MODEL 4
REMARK VINA RESULT:      -4.6      2.184      4.689
REMARK  7 active torsions:
REMARK  status: ('A' for Active; 'I' for Inactive)
REMARK    1  A    between atoms: C_2  and  C_3 
REMARK    2  A    between atoms: C_3  and  O_6 
REMARK    3  A    between atoms: C_3  and  C_4 
REMARK    4  A    between atoms: C_7  and  O_6 
REMARK    5  A    between atoms: C_9  and  C_10 
REMARK    6  A    between atoms: N_15  and  C_14 
REMARK    7  A    between atoms: N_20  and  C_19 
REMARK       I    between atoms: C_22  and  N_20 
ROOT
ATOM      1  C   LIG d   1      -2.168  77.049 114.651  0.00  0.00     0.161 C 
ATOM      2  C   LIG d   1      -3.287  76.264 114.326  0.00  0.00     0.016 C 
ATOM      3  C   LIG d   1      -3.973  75.460 115.266  0.00  0.00     0.038 C 
ATOM      4  C   LIG d   1      -3.676  75.504 116.636  0.00  0.00     0.028 C 
ATOM      5  C   LIG d   1      -2.232  75.895 116.931  0.00  0.00    -0.047 C 
ATOM      6  C   LIG d   1      -1.898  77.195 116.163  0.00  0.00     0.091 C 
ENDROOT
BRANCH   1   7
ATOM      7  O   LIG d   1      -2.286  78.346 114.035  0.00  0.00    -0.368 OA
BRANCH   7   8
ATOM      8  C   LIG d   1      -1.492  78.560 112.843  0.00  0.00     0.119 C 
BRANCH   8   9
ATOM      9  C   LIG d   1      -1.924  79.908 112.234  0.00  0.00     0.028 C 
ATOM     10  C   LIG d   1      -0.735  80.854 111.998  0.00  0.00     0.006 C 
ENDBRANCH   8   9
BRANCH   8  11
ATOM     11  C   LIG d   1      -1.803  77.512 111.770  0.00  0.00     0.028 C 
ATOM     12  C   LIG d   1      -3.065  77.847 110.959  0.00  0.00     0.006 C 
ENDBRANCH   8  11
ENDBRANCH   7   8
ENDBRANCH   1   7
BRANCH   6  13
ATOM     13  N   LIG d   1      -0.478  77.602 116.329  0.00  0.00    -0.311 N 
ATOM     14  C   LIG d   1      -0.062  78.440 117.278  0.00  0.00     0.210 C 
ATOM     15  C   LIG d   1       1.440  78.742 117.259  0.00  0.00     0.109 C 
ATOM     16  O   LIG d   1      -0.788  78.936 118.152  0.00  0.00    -0.276 OA
ATOM     17  H   LIG d   1       0.184  77.222 115.682  0.00  0.00     0.149 HD
ENDBRANCH   6  13
BRANCH   5  18
ATOM     18  N   LIG d   1      -2.098  76.036 118.393  0.00  0.00     0.381 N 
ATOM     19  H   LIG d   1      -2.335  75.173 118.839  0.00  0.00    -0.090 HD
ATOM     20  H   LIG d   1      -2.737  76.742 118.711  0.00  0.00    -0.090 HD
ATOM     21  H   LIG d   1      -1.164  76.293 118.626  0.00  0.00    -0.090 HD
ENDBRANCH   5  18
BRANCH   3  22
ATOM     22  C   LIG d   1      -4.943  74.570 114.830  0.00  0.00     0.382 C 
ATOM     23  O   LIG d   1      -4.951  74.187 113.635  0.00  0.00    -0.241 OA
ATOM     24  O   LIG d   1      -5.837  74.180 115.605  0.00  0.00    -0.241 OA
ENDBRANCH   3  22
TORSDOF 7
ENDMDL
MODEL 5
REMARK VINA RESULT:      -4.6      0.833      1.816
REMARK  7 active torsions:
REMARK  status: ('A' for Active; 'I' for Inactive)
REMARK    1  A    between atoms: C_2  and  C_3 
REMARK    2  A    between atoms: C_3  and  O_6 
REMARK    3  A    between atoms: C_3  and  C_4 
REMARK    4  A    between atoms: C_7  and  O_6 
REMARK    5  A    between atoms: C_9  and  C_10 
REMARK    6  A    between atoms: N_15  and  C_14 
REMARK    7  A    between atoms: N_20  and  C_19 
REMARK       I    between atoms: C_22  and  N_20 
ROOT
ATOM      1  C   LIG d   1      -3.050  76.258 115.327  0.00  0.00     0.161 C 
ATOM      2  C   LIG d   1      -3.275  77.319 114.434  0.00  0.00     0.016 C 
ATOM      3  C   LIG d   1      -2.370  77.681 113.410  0.00  0.00     0.038 C 
ATOM      4  C   LIG d   1      -1.241  76.904 113.111  0.00  0.00     0.028 C 
ATOM      5  C   LIG d   1      -0.711  76.120 114.307  0.00  0.00    -0.047 C 
ATOM      6  C   LIG d   1      -1.877  75.331 114.946  0.00  0.00     0.091 C 
ENDROOT
BRANCH   1   7
ATOM      7  O   LIG d   1      -4.260  75.493 115.492  0.00  0.00    -0.368 OA
BRANCH   7   8
ATOM      8  C   LIG d   1      -5.002  75.729 116.714  0.00  0.00     0.119 C 
BRANCH   8   9
ATOM      9  C   LIG d   1      -6.362  76.337 116.319  0.00  0.00     0.028 C 
ATOM     10  C   LIG d   1      -6.766  75.984 114.878  0.00  0.00     0.006 C 
ENDBRANCH   8   9
BRANCH   8  11
ATOM     11  C   LIG d   1      -4.321  76.791 117.583  0.00  0.00     0.028 C 
ATOM     12  C   LIG d   1      -5.323  77.735 118.265  0.00  0.00     0.006 C 
ENDBRANCH   8  11
ENDBRANCH   7   8
ENDBRANCH   1   7
BRANCH   6  13
ATOM     13  N   LIG d   1      -1.463  74.602 116.173  0.00  0.00    -0.311 N 
ATOM     14  C   LIG d   1      -0.923  75.200 117.234  0.00  0.00     0.210 C 
ATOM     15  C   LIG d   1      -0.550  74.261 118.385  0.00  0.00     0.109 C 
ATOM     16  O   LIG d   1      -0.747  76.423 117.343  0.00  0.00    -0.276 OA
ATOM     17  H   LIG d   1      -1.598  73.610 116.182  0.00  0.00     0.149 HD
ENDBRANCH   6  13
BRANCH   5  18
ATOM     18  N   LIG d   1       0.379  75.251 113.823  0.00  0.00     0.381 N 
ATOM     19  H   LIG d   1       0.190  74.963 112.884  0.00  0.00    -0.090 HD
ATOM     20  H   LIG d   1       0.422  74.431 114.402  0.00  0.00    -0.090 HD
ATOM     21  H   LIG d   1       1.246  75.740 113.861  0.00  0.00    -0.090 HD
ENDBRANCH   5  18
BRANCH   3  22
ATOM     22  C   LIG d   1      -2.571  78.853 112.698  0.00  0.00     0.382 C 
ATOM     23  O   LIG d   1      -2.225  78.922 111.494  0.00  0.00    -0.241 OA
ATOM     24  O   LIG d   1      -3.052  79.857 113.257  0.00  0.00    -0.241 OA
ENDBRANCH   3  22
TORSDOF 7
ENDMDL
MODEL 6
REMARK VINA RESULT:      -4.4      2.843      4.945
REMARK  7 active torsions:
REMARK  status: ('A' for Active; 'I' for Inactive)
REMARK    1  A    between atoms: C_2  and  C_3 
REMARK    2  A    between atoms: C_3  and  O_6 
REMARK    3  A    between atoms: C_3  and  C_4 
REMARK    4  A    between atoms: C_7  and  O_6 
REMARK    5  A    between atoms: C_9  and  C_10 
REMARK    6  A    between atoms: N_15  and  C_14 
REMARK    7  A    between atoms: N_20  and  C_19 
REMARK       I    between atoms: C_22  and  N_20 
ROOT
ATOM      1  C   LIG d   1      -2.018  78.427 114.080  0.00  0.00     0.161 C 
ATOM      2  C   LIG d   1      -3.064  77.491 114.031  0.00  0.00     0.016 C 
ATOM      3  C   LIG d   1      -3.605  76.991 112.824  0.00  0.00     0.038 C 
ATOM      4  C   LIG d   1      -3.031  77.282 111.578  0.00  0.00     0.028 C 
ATOM      5  C   LIG d   1      -2.294  78.617 111.547  0.00  0.00    -0.047 C 
ATOM      6  C   LIG d   1      -1.305  78.672 112.734  0.00  0.00     0.091 C 
ENDROOT
BRANCH   1   7
ATOM      7  O   LIG d   1      -1.064  78.042 115.090  0.00  0.00    -0.368 OA
BRANCH   7   8
ATOM      8  C   LIG d   1      -1.435  76.913 115.919  0.00  0.00     0.119 C 
BRANCH   8   9
ATOM      9  C   LIG d   1      -1.171  77.309 117.384  0.00  0.00     0.028 C 
ATOM     10  C   LIG d   1      -2.398  77.958 118.047  0.00  0.00     0.006 C 
ENDBRANCH   8   9
BRANCH   8  11
ATOM     11  C   LIG d   1      -0.529  75.706 115.655  0.00  0.00     0.028 C 
ATOM     12  C   LIG d   1      -1.263  74.365 115.813  0.00  0.00     0.006 C 
ENDBRANCH   8  11
ENDBRANCH   7   8
ENDBRANCH   1   7
BRANCH   6  13
ATOM     13  N   LIG d   1      -0.603  79.978 112.827  0.00  0.00    -0.311 N 
ATOM     14  C   LIG d   1      -1.154  81.134 112.460  0.00  0.00     0.210 C 
ATOM     15  C   LIG d   1      -0.250  82.361 112.619  0.00  0.00     0.109 C 
ATOM     16  O   LIG d   1      -2.316  81.264 112.047  0.00  0.00    -0.276 OA
ATOM     17  H   LIG d   1       0.334  79.969 113.181  0.00  0.00     0.149 HD
ENDBRANCH   6  13
BRANCH   5  18
ATOM     18  N   LIG d   1      -1.629  78.729 110.235  0.00  0.00     0.381 N 
ATOM     19  H   LIG d   1      -0.772  79.235 110.332  0.00  0.00    -0.090 HD
ATOM     20  H   LIG d   1      -2.228  79.239 109.610  0.00  0.00    -0.090 HD
ATOM     21  H   LIG d   1      -1.448  77.821 109.866  0.00  0.00    -0.090 HD
ENDBRANCH   5  18
BRANCH   3  22
ATOM     22  C   LIG d   1      -4.758  76.222 112.855  0.00  0.00     0.382 C 
ATOM     23  O   LIG d   1      -5.779  76.598 112.229  0.00  0.00    -0.241 OA
ATOM     24  O   LIG d   1      -4.805  75.180 113.535  0.00  0.00    -0.241 OA
ENDBRANCH   3  22
TORSDOF 7
ENDMDL
MODEL 7
REMARK VINA RESULT:      -4.4      1.879      2.285
REMARK  7 active torsions:
REMARK  status: ('A' for Active; 'I' for Inactive)
REMARK    1  A    between atoms: C_2  and  C_3 
REMARK    2  A    between atoms: C_3  and  O_6 
REMARK    3  A    between atoms: C_3  and  C_4 
REMARK    4  A    between atoms: C_7  and  O_6 
REMARK    5  A    between atoms: C_9  and  C_10 
REMARK    6  A    between atoms: N_15  and  C_14 
REMARK    7  A    between atoms: N_20  and  C_19 
REMARK       I    between atoms: C_22  and  N_20 
ROOT
ATOM      1  C   LIG d   1      -3.083  77.637 116.714  0.00  0.00     0.161 C 
ATOM      2  C   LIG d   1      -3.436  77.593 115.355  0.00  0.00     0.016 C 
ATOM      3  C   LIG d   1      -2.892  76.664 114.439  0.00  0.00     0.038 C 
ATOM      4  C   LIG d   1      -2.065  75.610 114.856  0.00  0.00     0.028 C 
ATOM      5  C   LIG d   1      -1.284  75.920 116.129  0.00  0.00    -0.047 C 
ATOM      6  C   LIG d   1      -2.267  76.425 117.209  0.00  0.00     0.091 C 
ENDROOT
BRANCH   1   7
ATOM      7  O   LIG d   1      -4.266  77.808 117.520  0.00  0.00    -0.368 OA
BRANCH   7   8
ATOM      8  C   LIG d   1      -5.533  77.690 116.827  0.00  0.00     0.119 C 
BRANCH   8   9
ATOM      9  C   LIG d   1      -6.549  78.582 117.565  0.00  0.00     0.028 C 
ATOM     10  C   LIG d   1      -6.055  79.006 118.959  0.00  0.00     0.006 C 
ENDBRANCH   8   9
BRANCH   8  11
ATOM     11  C   LIG d   1      -6.093  76.268 116.929  0.00  0.00     0.028 C 
ATOM     12  C   LIG d   1      -6.737  75.786 115.619  0.00  0.00     0.006 C 
ENDBRANCH   8  11
ENDBRANCH   7   8
ENDBRANCH   1   7
BRANCH   6  13
ATOM     13  N   LIG d   1      -1.575  76.830 118.460  0.00  0.00    -0.311 N 
ATOM     14  C   LIG d   1      -0.714  77.844 118.526  0.00  0.00     0.210 C 
ATOM     15  C   LIG d   1      -0.097  78.080 119.909  0.00  0.00     0.109 C 
ATOM     16  O   LIG d   1      -0.427  78.591 117.579  0.00  0.00    -0.276 OA
ATOM     17  H   LIG d   1      -1.773  76.298 119.285  0.00  0.00     0.149 HD
ENDBRANCH   6  13
BRANCH   5  18
ATOM     18  N   LIG d   1      -0.572  74.690 116.524  0.00  0.00     0.381 N 
ATOM     19  H   LIG d   1      -0.960  74.333 117.375  0.00  0.00    -0.090 HD
ATOM     20  H   LIG d   1       0.394  74.912 116.688  0.00  0.00    -0.090 HD
ATOM     21  H   LIG d   1      -0.646  74.006 115.804  0.00  0.00    -0.090 HD
ENDBRANCH   5  18
BRANCH   3  22
ATOM     22  C   LIG d   1      -3.142  76.808 113.083  0.00  0.00     0.382 C 
ATOM     23  O   LIG d   1      -4.324  76.894 112.669  0.00  0.00    -0.241 OA
ATOM     24  O   LIG d   1      -2.204  76.808 112.264  0.00  0.00    -0.241 OA
ENDBRANCH   3  22
TORSDOF 7
ENDMDL
MODEL 8
REMARK VINA RESULT:      -4.2      1.834      2.782
REMARK  7 active torsions:
REMARK  status: ('A' for Active; 'I' for Inactive)
REMARK    1  A    between atoms: C_2  and  C_3 
REMARK    2  A    between atoms: C_3  and  O_6 
REMARK    3  A    between atoms: C_3  and  C_4 
REMARK    4  A    between atoms: C_7  and  O_6 
REMARK    5  A    between atoms: C_9  and  C_10 
REMARK    6  A    between atoms: N_15  and  C_14 
REMARK    7  A    between atoms: N_20  and  C_19 
REMARK       I    between atoms: C_22  and  N_20 
ROOT
ATOM      1  C   LIG d   1      -2.976  77.942 114.220  0.00  0.00     0.161 C 
ATOM      2  C   LIG d   1      -3.043  79.281 113.802  0.00  0.00     0.016 C 
ATOM      3  C   LIG d   1      -2.527  79.737 112.567  0.00  0.00     0.038 C 
ATOM      4  C   LIG d   1      -2.041  78.851 111.594  0.00  0.00     0.028 C 
ATOM      5  C   LIG d   1      -1.492  77.553 112.177  0.00  0.00    -0.047 C 
ATOM      6  C   LIG d   1      -2.550  76.942 113.125  0.00  0.00     0.091 C 
ENDROOT
BRANCH   1   7
ATOM      7  O   LIG d   1      -4.237  77.546 114.796  0.00  0.00    -0.368 OA
BRANCH   7   8
ATOM      8  C   LIG d   1      -4.303  77.537 116.243  0.00  0.00     0.119 C 
BRANCH   8   9
ATOM      9  C   LIG d   1      -4.224  76.068 116.701  0.00  0.00     0.028 C 
ATOM     10  C   LIG d   1      -5.004  75.121 115.773  0.00  0.00     0.006 C 
ENDBRANCH   8   9
BRANCH   8  11
ATOM     11  C   LIG d   1      -5.659  78.045 116.743  0.00  0.00     0.028 C 
ATOM     12  C   LIG d   1      -5.750  78.089 118.276  0.00  0.00     0.006 C 
ENDBRANCH   8  11
ENDBRANCH   7   8
ENDBRANCH   1   7
BRANCH   6  13
ATOM     13  N   LIG d   1      -2.061  75.713 113.803  0.00  0.00    -0.311 N 
ATOM     14  C   LIG d   1      -1.172  75.727 114.795  0.00  0.00     0.210 C 
ATOM     15  C   LIG d   1      -0.790  74.348 115.340  0.00  0.00     0.109 C 
ATOM     16  O   LIG d   1      -0.689  76.753 115.297  0.00  0.00    -0.276 OA
ATOM     17  H   LIG d   1      -2.425  74.839 113.479  0.00  0.00     0.149 HD
ENDBRANCH   6  13
BRANCH   5  18
ATOM     18  N   LIG d   1      -1.148  76.668 111.048  0.00  0.00     0.381 N 
ATOM     19  H   LIG d   1      -1.976  76.435 110.536  0.00  0.00    -0.090 HD
ATOM     20  H   LIG d   1      -0.751  75.819 111.410  0.00  0.00    -0.090 HD
ATOM     21  H   LIG d   1      -0.494  77.120 110.448  0.00  0.00    -0.090 HD
ENDBRANCH   5  18
BRANCH   3  22
ATOM     22  C   LIG d   1      -2.457  81.098 112.312  0.00  0.00     0.382 C 
ATOM     23  O   LIG d   1      -3.295  81.877 112.829  0.00  0.00    -0.241 OA
ATOM     24  O   LIG d   1      -1.595  81.552 111.537  0.00  0.00    -0.241 OA
ENDBRANCH   3  22
TORSDOF 7
ENDMDL
MODEL 9
REMARK VINA RESULT:      -4.2      3.186      5.254
REMARK  7 active torsions:
REMARK  status: ('A' for Active; 'I' for Inactive)
REMARK    1  A    between atoms: C_2  and  C_3 
REMARK    2  A    between atoms: C_3  and  O_6 
REMARK    3  A    between atoms: C_3  and  C_4 
REMARK    4  A    between atoms: C_7  and  O_6 
REMARK    5  A    between atoms: C_9  and  C_10 
REMARK    6  A    between atoms: N_15  and  C_14 
REMARK    7  A    between atoms: N_20  and  C_19 
REMARK       I    between atoms: C_22  and  N_20 
ROOT
ATOM      1  C   LIG d   1      -4.258  77.532 116.077  0.00  0.00     0.161 C 
ATOM      2  C   LIG d   1      -3.001  76.908 116.007  0.00  0.00     0.016 C 
ATOM      3  C   LIG d   1      -2.187  76.668 117.138  0.00  0.00     0.038 C 
ATOM      4  C   LIG d   1      -2.645  76.901 118.443  0.00  0.00     0.028 C 
ATOM      5  C   LIG d   1      -3.703  77.996 118.528  0.00  0.00    -0.047 C 
ATOM      6  C   LIG d   1      -4.821  77.693 117.505  0.00  0.00     0.091 C 
ENDROOT
BRANCH   1   7
ATOM      7  O   LIG d   1      -5.200  76.829 115.243  0.00  0.00    -0.368 OA
BRANCH   7   8
ATOM      8  C   LIG d   1      -4.650  75.791 114.395  0.00  0.00     0.119 C 
BRANCH   8   9
ATOM      9  C   LIG d   1      -5.001  76.148 112.938  0.00  0.00     0.028 C 
ATOM     10  C   LIG d   1      -6.517  76.279 112.715  0.00  0.00     0.006 C 
ENDBRANCH   8   9
BRANCH   8  11
ATOM     11  C   LIG d   1      -5.326  74.442 114.657  0.00  0.00     0.028 C 
ATOM     12  C   LIG d   1      -6.041  74.387 116.016  0.00  0.00     0.006 C 
ENDBRANCH   8  11
ENDBRANCH   7   8
ENDBRANCH   1   7
BRANCH   6  13
ATOM     13  N   LIG d   1      -5.855  78.760 117.463  0.00  0.00    -0.311 N 
ATOM     14  C   LIG d   1      -6.913  78.788 118.272  0.00  0.00     0.210 C 
ATOM     15  C   LIG d   1      -7.867  79.965 118.048  0.00  0.00     0.109 C 
ATOM     16  O   LIG d   1      -7.134  77.967 119.175  0.00  0.00    -0.276 OA
ATOM     17  H   LIG d   1      -5.737  79.483 116.780  0.00  0.00     0.149 HD
ENDBRANCH   6  13
BRANCH   5  18
ATOM     18  N   LIG d   1      -4.189  78.039 119.920  0.00  0.00     0.381 N 
ATOM     19  H   LIG d   1      -3.631  78.674 120.454  0.00  0.00    -0.090 HD
ATOM     20  H   LIG d   1      -4.099  77.123 120.324  0.00  0.00    -0.090 HD
ATOM     21  H   LIG d   1      -5.143  78.326 119.939  0.00  0.00    -0.090 HD
ENDBRANCH   5  18
BRANCH   3  22
ATOM     22  C   LIG d   1      -0.885  76.226 116.966  0.00  0.00     0.382 C 
ATOM     23  O   LIG d   1      -0.536  75.109 117.419  0.00  0.00    -0.241 OA
ATOM     24  O   LIG d   1      -0.042  76.948 116.401  0.00  0.00    -0.241 OA
ENDBRANCH   3  22
TORSDOF 7
ENDMDL
