MODEL 1
REMARK VINA RESULT:      -5.9      0.000      0.000
REMARK  7 active torsions:
REMARK  status: ('A' for Active; 'I' for Inactive)
REMARK    1  A    between atoms: C_2  and  C_3 
REMARK    2  A    between atoms: C_3  and  O_6 
REMARK    3  A    between atoms: C_3  and  C_4 
REMARK    4  A    between atoms: C_7  and  O_6 
REMARK    5  A    between atoms: C_9  and  C_10 
REMARK    6  A    between atoms: N_15  and  C_14 
REMARK    7  A    between atoms: N_20  and  C_19 
REMARK       I    between atoms: C_22  and  N_20 
ROOT
ATOM      1  C   LIG d   1      -2.977  77.356 114.806  0.00  0.00     0.161 C 
ATOM      2  C   LIG d   1      -3.147  78.454 113.946  0.00  0.00     0.016 C 
ATOM      3  C   LIG d   1      -2.090  79.312 113.562  0.00  0.00     0.038 C 
ATOM      4  C   LIG d   1      -0.755  79.038 113.894  0.00  0.00     0.028 C 
ATOM      5  C   LIG d   1      -0.604  78.227 115.177  0.00  0.00    -0.047 C 
ATOM      6  C   LIG d   1      -1.508  76.977 115.089  0.00  0.00     0.091 C 
ENDROOT
BRANCH   1   7
ATOM      7  O   LIG d   1      -3.698  76.218 114.294  0.00  0.00    -0.368 OA
BRANCH   7   8
ATOM      8  C   LIG d   1      -5.065  76.071 114.751  0.00  0.00     0.119 C 
BRANCH   8   9
ATOM      9  C   LIG d   1      -5.094  76.436 116.248  0.00  0.00     0.028 C 
ATOM     10  C   LIG d   1      -6.216  77.432 116.588  0.00  0.00     0.006 C 
ENDBRANCH   8   9
BRANCH   8  11
ATOM     11  C   LIG d   1      -5.522  74.611 114.681  0.00  0.00     0.028 C 
ATOM     12  C   LIG d   1      -6.570  74.263 115.750  0.00  0.00     0.006 C 
ENDBRANCH   8  11
ENDBRANCH   7   8
ENDBRANCH   1   7
BRANCH   6  13
ATOM     13  N   LIG d   1      -1.484  76.172 116.338  0.00  0.00    -0.311 N 
ATOM     14  C   LIG d   1      -1.232  74.864 116.363  0.00  0.00     0.210 C 
ATOM     15  C   LIG d   1      -1.276  74.223 117.753  0.00  0.00     0.109 C 
ATOM     16  O   LIG d   1      -0.944  74.181 115.369  0.00  0.00    -0.276 OA
ATOM     17  H   LIG d   1      -1.677  76.653 117.195  0.00  0.00     0.149 HD
ENDBRANCH   6  13
BRANCH   5  18
ATOM     18  N   LIG d   1       0.826  77.897 115.329  0.00  0.00     0.381 N 
ATOM     19  H   LIG d   1       1.362  78.739 115.399  0.00  0.00    -0.090 HD
ATOM     20  H   LIG d   1       1.132  77.395 114.514  0.00  0.00    -0.090 HD
ATOM     21  H   LIG d   1       0.962  77.339 116.143  0.00  0.00    -0.090 HD
ENDBRANCH   5  18
BRANCH   3  22
ATOM     22  C   LIG d   1      -2.371  80.480 112.870  0.00  0.00     0.382 C 
ATOM     23  O   LIG d   1      -3.478  81.049 113.025  0.00  0.00    -0.241 OA
ATOM     24  O   LIG d   1      -1.549  80.947 112.060  0.00  0.00    -0.241 OA
ENDBRANCH   3  22
TORSDOF 7
ENDMDL
MODEL 2
REMARK VINA RESULT:      -5.7      0.695      1.471
REMARK  7 active torsions:
REMARK  status: ('A' for Active; 'I' for Inactive)
REMARK    1  A    between atoms: C_2  and  C_3 
REMARK    2  A    between atoms: C_3  and  O_6 
REMARK    3  A    between atoms: C_3  and  C_4 
REMARK    4  A    between atoms: C_7  and  O_6 
REMARK    5  A    between atoms: C_9  and  C_10 
REMARK    6  A    between atoms: N_15  and  C_14 
REMARK    7  A    between atoms: N_20  and  C_19 
REMARK       I    between atoms: C_22  and  N_20 
ROOT
ATOM      1  C   LIG d   1      -3.027  77.543 114.775  0.00  0.00     0.161 C 
ATOM      2  C   LIG d   1      -3.096  78.650 113.913  0.00  0.00     0.016 C 
ATOM      3  C   LIG d   1      -1.961  79.382 113.494  0.00  0.00     0.038 C 
ATOM      4  C   LIG d   1      -0.656  78.960 113.790  0.00  0.00     0.028 C 
ATOM      5  C   LIG d   1      -0.561  78.141 115.073  0.00  0.00    -0.047 C 
ATOM      6  C   LIG d   1      -1.603  77.001 115.019  0.00  0.00     0.091 C 
ENDROOT
BRANCH   1   7
ATOM      7  O   LIG d   1      -3.887  76.493 114.290  0.00  0.00    -0.368 OA
BRANCH   7   8
ATOM      8  C   LIG d   1      -4.959  76.087 115.177  0.00  0.00     0.119 C 
BRANCH   8   9
ATOM      9  C   LIG d   1      -6.233  75.937 114.324  0.00  0.00     0.028 C 
ATOM     10  C   LIG d   1      -7.517  76.015 115.168  0.00  0.00     0.006 C 
ENDBRANCH   8   9
BRANCH   8  11
ATOM     11  C   LIG d   1      -5.281  77.180 116.199  0.00  0.00     0.028 C 
ATOM     12  C   LIG d   1      -4.848  76.808 117.626  0.00  0.00     0.006 C 
ENDBRANCH   8  11
ENDBRANCH   7   8
ENDBRANCH   1   7
BRANCH   6  13
ATOM     13  N   LIG d   1      -1.635  76.202 116.272  0.00  0.00    -0.311 N 
ATOM     14  C   LIG d   1      -1.452  74.883 116.305  0.00  0.00     0.210 C 
ATOM     15  C   LIG d   1      -1.544  74.252 117.698  0.00  0.00     0.109 C 
ATOM     16  O   LIG d   1      -1.190  74.180 115.317  0.00  0.00    -0.276 OA
ATOM     17  H   LIG d   1      -1.811  76.697 117.124  0.00  0.00     0.149 HD
ENDBRANCH   6  13
BRANCH   5  18
ATOM     18  N   LIG d   1       0.826  77.651 115.187  0.00  0.00     0.381 N 
ATOM     19  H   LIG d   1       1.011  76.986 114.463  0.00  0.00    -0.090 HD
ATOM     20  H   LIG d   1       0.936  77.191 116.073  0.00  0.00    -0.090 HD
ATOM     21  H   LIG d   1       1.464  78.414 115.119  0.00  0.00    -0.090 HD
ENDBRANCH   5  18
BRANCH   3  22
ATOM     22  C   LIG d   1      -2.127  80.572 112.803  0.00  0.00     0.382 C 
ATOM     23  O   LIG d   1      -1.188  81.030 112.107  0.00  0.00    -0.241 OA
ATOM     24  O   LIG d   1      -3.188  81.218 112.902  0.00  0.00    -0.241 OA
ENDBRANCH   3  22
TORSDOF 7
ENDMDL
MODEL 3
REMARK VINA RESULT:      -5.1      3.285      5.190
REMARK  7 active torsions:
REMARK  status: ('A' for Active; 'I' for Inactive)
REMARK    1  A    between atoms: C_2  and  C_3 
REMARK    2  A    between atoms: C_3  and  O_6 
REMARK    3  A    between atoms: C_3  and  C_4 
REMARK    4  A    between atoms: C_7  and  O_6 
REMARK    5  A    between atoms: C_9  and  C_10 
REMARK    6  A    between atoms: N_15  and  C_14 
REMARK    7  A    between atoms: N_20  and  C_19 
REMARK       I    between atoms: C_22  and  N_20 
ROOT
ATOM      1  C   LIG d   1      -5.115  77.690 116.769  0.00  0.00     0.161 C 
ATOM      2  C   LIG d   1      -6.490  77.917 116.947  0.00  0.00     0.016 C 
ATOM      3  C   LIG d   1      -7.009  78.906 117.814  0.00  0.00     0.038 C 
ATOM      4  C   LIG d   1      -6.181  79.841 118.452  0.00  0.00     0.028 C 
ATOM      5  C   LIG d   1      -4.765  79.330 118.697  0.00  0.00    -0.047 C 
ATOM      6  C   LIG d   1      -4.197  78.774 117.371  0.00  0.00     0.091 C 
ENDROOT
BRANCH   1   7
ATOM      7  O   LIG d   1      -4.827  77.511 115.368  0.00  0.00    -0.368 OA
BRANCH   7   8
ATOM      8  C   LIG d   1      -4.490  76.165 114.953  0.00  0.00     0.119 C 
BRANCH   8   9
ATOM      9  C   LIG d   1      -5.786  75.495 114.459  0.00  0.00     0.028 C 
ATOM     10  C   LIG d   1      -6.324  74.452 115.453  0.00  0.00     0.006 C 
ENDBRANCH   8   9
BRANCH   8  11
ATOM     11  C   LIG d   1      -4.022  75.317 116.140  0.00  0.00     0.028 C 
ATOM     12  C   LIG d   1      -2.580  74.811 115.979  0.00  0.00     0.006 C 
ENDBRANCH   8  11
ENDBRANCH   7   8
ENDBRANCH   1   7
BRANCH   6  13
ATOM     13  N   LIG d   1      -2.846  78.177 117.540  0.00  0.00    -0.311 N 
ATOM     14  C   LIG d   1      -1.839  78.392 116.696  0.00  0.00     0.210 C 
ATOM     15  C   LIG d   1      -0.537  77.664 117.044  0.00  0.00     0.109 C 
ATOM     16  O   LIG d   1      -1.890  79.142 115.710  0.00  0.00    -0.276 OA
ATOM     17  H   LIG d   1      -2.708  77.579 118.331  0.00  0.00     0.149 HD
ENDBRANCH   6  13
BRANCH   5  18
ATOM     18  N   LIG d   1      -3.974  80.450 119.240  0.00  0.00     0.381 N 
ATOM     19  H   LIG d   1      -3.028  80.159 119.382  0.00  0.00    -0.090 HD
ATOM     20  H   LIG d   1      -4.359  80.718 120.129  0.00  0.00    -0.090 HD
ATOM     21  H   LIG d   1      -4.001  81.223 118.612  0.00  0.00    -0.090 HD
ENDBRANCH   5  18
BRANCH   3  22
ATOM     22  C   LIG d   1      -8.369  78.940 118.082  0.00  0.00     0.382 C 
ATOM     23  O   LIG d   1      -8.921  77.966 118.649  0.00  0.00    -0.241 OA
ATOM     24  O   LIG d   1      -9.059  79.913 117.724  0.00  0.00    -0.241 OA
ENDBRANCH   3  22
TORSDOF 7
ENDMDL
MODEL 4
REMARK VINA RESULT:      -5.1      3.119      5.057
REMARK  7 active torsions:
REMARK  status: ('A' for Active; 'I' for Inactive)
REMARK    1  A    between atoms: C_2  and  C_3 
REMARK    2  A    between atoms: C_3  and  O_6 
REMARK    3  A    between atoms: C_3  and  C_4 
REMARK    4  A    between atoms: C_7  and  O_6 
REMARK    5  A    between atoms: C_9  and  C_10 
REMARK    6  A    between atoms: N_15  and  C_14 
REMARK    7  A    between atoms: N_20  and  C_19 
REMARK       I    between atoms: C_22  and  N_20 
ROOT
ATOM      1  C   LIG d   1      -3.859  77.581 116.198  0.00  0.00     0.161 C 
ATOM      2  C   LIG d   1      -2.961  76.601 115.740  0.00  0.00     0.016 C 
ATOM      3  C   LIG d   1      -2.091  75.884 116.593  0.00  0.00     0.038 C 
ATOM      4  C   LIG d   1      -2.166  75.992 117.989  0.00  0.00     0.028 C 
ATOM      5  C   LIG d   1      -2.706  77.336 118.465  0.00  0.00    -0.047 C 
ATOM      6  C   LIG d   1      -4.033  77.632 117.730  0.00  0.00     0.091 C 
ENDROOT
BRANCH   1   7
ATOM      7  O   LIG d   1      -5.137  77.412 115.553  0.00  0.00    -0.368 OA
BRANCH   7   8
ATOM      8  C   LIG d   1      -6.002  76.392 116.111  0.00  0.00     0.119 C 
BRANCH   8   9
ATOM      9  C   LIG d   1      -6.400  75.444 114.964  0.00  0.00     0.028 C 
ATOM     10  C   LIG d   1      -5.488  74.208 114.880  0.00  0.00     0.006 C 
ENDBRANCH   8   9
BRANCH   8  11
ATOM     11  C   LIG d   1      -7.317  76.993 116.616  0.00  0.00     0.028 C 
ATOM     12  C   LIG d   1      -8.511  76.039 116.450  0.00  0.00     0.006 C 
ENDBRANCH   8  11
ENDBRANCH   7   8
ENDBRANCH   1   7
BRANCH   6  13
ATOM     13  N   LIG d   1      -4.586  78.968 118.075  0.00  0.00    -0.311 N 
ATOM     14  C   LIG d   1      -5.470  79.166 119.051  0.00  0.00     0.210 C 
ATOM     15  C   LIG d   1      -5.926  80.618 119.227  0.00  0.00     0.109 C 
ATOM     16  O   LIG d   1      -5.895  78.282 119.810  0.00  0.00    -0.276 OA
ATOM     17  H   LIG d   1      -4.271  79.747 117.529  0.00  0.00     0.149 HD
ENDBRANCH   6  13
BRANCH   5  18
ATOM     18  N   LIG d   1      -2.861  77.261 119.930  0.00  0.00     0.381 N 
ATOM     19  H   LIG d   1      -3.169  76.346 120.192  0.00  0.00    -0.090 HD
ATOM     20  H   LIG d   1      -3.559  77.924 120.217  0.00  0.00    -0.090 HD
ATOM     21  H   LIG d   1      -1.994  77.467 120.375  0.00  0.00    -0.090 HD
ENDBRANCH   5  18
BRANCH   3  22
ATOM     22  C   LIG d   1      -1.104  75.077 116.046  0.00  0.00     0.382 C 
ATOM     23  O   LIG d   1      -1.369  74.340 115.067  0.00  0.00    -0.241 OA
ATOM     24  O   LIG d   1       0.035  75.045 116.548  0.00  0.00    -0.241 OA
ENDBRANCH   3  22
TORSDOF 7
ENDMDL
MODEL 5
REMARK VINA RESULT:      -5.1      2.089      4.821
REMARK  7 active torsions:
REMARK  status: ('A' for Active; 'I' for Inactive)
REMARK    1  A    between atoms: C_2  and  C_3 
REMARK    2  A    between atoms: C_3  and  O_6 
REMARK    3  A    between atoms: C_3  and  C_4 
REMARK    4  A    between atoms: C_7  and  O_6 
REMARK    5  A    between atoms: C_9  and  C_10 
REMARK    6  A    between atoms: N_15  and  C_14 
REMARK    7  A    between atoms: N_20  and  C_19 
REMARK       I    between atoms: C_22  and  N_20 
ROOT
ATOM      1  C   LIG d   1      -2.470  75.891 115.391  0.00  0.00     0.161 C 
ATOM      2  C   LIG d   1      -2.386  75.427 116.714  0.00  0.00     0.016 C 
ATOM      3  C   LIG d   1      -1.670  76.099 117.731  0.00  0.00     0.038 C 
ATOM      4  C   LIG d   1      -1.111  77.369 117.528  0.00  0.00     0.028 C 
ATOM      5  C   LIG d   1      -0.739  77.642 116.075  0.00  0.00    -0.047 C 
ATOM      6  C   LIG d   1      -1.959  77.332 115.178  0.00  0.00     0.091 C 
ENDROOT
BRANCH   1   7
ATOM      7  O   LIG d   1      -3.824  75.764 114.914  0.00  0.00    -0.368 OA
BRANCH   7   8
ATOM      8  C   LIG d   1      -4.860  75.773 115.926  0.00  0.00     0.119 C 
BRANCH   8   9
ATOM      9  C   LIG d   1      -5.919  74.731 115.514  0.00  0.00     0.028 C 
ATOM     10  C   LIG d   1      -7.242  74.905 116.279  0.00  0.00     0.006 C 
ENDBRANCH   8   9
BRANCH   8  11
ATOM     11  C   LIG d   1      -5.600  77.114 115.953  0.00  0.00     0.028 C 
ATOM     12  C   LIG d   1      -5.041  78.081 117.009  0.00  0.00     0.006 C 
ENDBRANCH   8  11
ENDBRANCH   7   8
ENDBRANCH   1   7
BRANCH   6  13
ATOM     13  N   LIG d   1      -1.656  77.492 113.732  0.00  0.00    -0.311 N 
ATOM     14  C   LIG d   1      -2.410  78.207 112.900  0.00  0.00     0.210 C 
ATOM     15  C   LIG d   1      -1.929  78.226 111.445  0.00  0.00     0.109 C 
ATOM     16  O   LIG d   1      -3.414  78.855 113.234  0.00  0.00    -0.276 OA
ATOM     17  H   LIG d   1      -0.842  77.025 113.383  0.00  0.00     0.149 HD
ENDBRANCH   6  13
BRANCH   5  18
ATOM     18  N   LIG d   1      -0.298  79.047 115.984  0.00  0.00     0.381 N 
ATOM     19  H   LIG d   1      -0.152  79.295 115.026  0.00  0.00    -0.090 HD
ATOM     20  H   LIG d   1       0.575  79.145 116.472  0.00  0.00    -0.090 HD
ATOM     21  H   LIG d   1      -0.982  79.647 116.389  0.00  0.00    -0.090 HD
ENDBRANCH   5  18
BRANCH   3  22
ATOM     22  C   LIG d   1      -1.474  75.481 118.957  0.00  0.00     0.382 C 
ATOM     23  O   LIG d   1      -1.771  74.271 119.104  0.00  0.00    -0.241 OA
ATOM     24  O   LIG d   1      -1.045  76.130 119.930  0.00  0.00    -0.241 OA
ENDBRANCH   3  22
TORSDOF 7
ENDMDL
MODEL 6
REMARK VINA RESULT:      -5.0      2.599      4.814
REMARK  7 active torsions:
REMARK  status: ('A' for Active; 'I' for Inactive)
REMARK    1  A    between atoms: C_2  and  C_3 
REMARK    2  A    between atoms: C_3  and  O_6 
REMARK    3  A    between atoms: C_3  and  C_4 
REMARK    4  A    between atoms: C_7  and  O_6 
REMARK    5  A    between atoms: C_9  and  C_10 
REMARK    6  A    between atoms: N_15  and  C_14 
REMARK    7  A    between atoms: N_20  and  C_19 
REMARK       I    between atoms: C_22  and  N_20 
ROOT
ATOM      1  C   LIG d   1      -2.312  77.190 117.007  0.00  0.00     0.161 C 
ATOM      2  C   LIG d   1      -3.345  76.410 116.462  0.00  0.00     0.016 C 
ATOM      3  C   LIG d   1      -3.846  76.589 115.152  0.00  0.00     0.038 C 
ATOM      4  C   LIG d   1      -3.241  77.466 114.240  0.00  0.00     0.028 C 
ATOM      5  C   LIG d   1      -2.520  78.632 114.908  0.00  0.00    -0.047 C 
ATOM      6  C   LIG d   1      -1.565  78.078 115.990  0.00  0.00     0.091 C 
ENDROOT
BRANCH   1   7
ATOM      7  O   LIG d   1      -1.382  76.345 117.713  0.00  0.00    -0.368 OA
BRANCH   7   8
ATOM      8  C   LIG d   1      -1.462  74.928 117.423  0.00  0.00     0.119 C 
BRANCH   8   9
ATOM      9  C   LIG d   1      -1.529  74.182 118.770  0.00  0.00     0.028 C 
ATOM     10  C   LIG d   1      -0.314  74.480 119.666  0.00  0.00     0.006 C 
ENDBRANCH   8   9
BRANCH   8  11
ATOM     11  C   LIG d   1      -0.185  74.425 116.744  0.00  0.00     0.028 C 
ATOM     12  C   LIG d   1      -0.231  74.560 115.213  0.00  0.00     0.006 C 
ENDBRANCH   8  11
ENDBRANCH   7   8
ENDBRANCH   1   7
BRANCH   6  13
ATOM     13  N   LIG d   1      -0.883  79.157 116.750  0.00  0.00    -0.311 N 
ATOM     14  C   LIG d   1       0.424  79.157 117.009  0.00  0.00     0.210 C 
ATOM     15  C   LIG d   1       0.921  80.355 117.825  0.00  0.00     0.109 C 
ATOM     16  O   LIG d   1       1.224  78.296 116.613  0.00  0.00    -0.276 OA
ATOM     17  H   LIG d   1      -1.451  79.911 117.082  0.00  0.00     0.149 HD
ENDBRANCH   6  13
BRANCH   5  18
ATOM     18  N   LIG d   1      -1.821  79.388 113.852  0.00  0.00     0.381 N 
ATOM     19  H   LIG d   1      -1.529  78.764 113.125  0.00  0.00    -0.090 HD
ATOM     20  H   LIG d   1      -1.002  79.816 114.246  0.00  0.00    -0.090 HD
ATOM     21  H   LIG d   1      -2.423  80.087 113.477  0.00  0.00    -0.090 HD
ENDBRANCH   5  18
BRANCH   3  22
ATOM     22  C   LIG d   1      -4.990  75.913 114.755  0.00  0.00     0.382 C 
ATOM     23  O   LIG d   1      -4.916  74.715 114.391  0.00  0.00    -0.241 OA
ATOM     24  O   LIG d   1      -6.089  76.499 114.715  0.00  0.00    -0.241 OA
ENDBRANCH   3  22
TORSDOF 7
ENDMDL
MODEL 7
REMARK VINA RESULT:      -5.0      2.435      2.918
REMARK  7 active torsions:
REMARK  status: ('A' for Active; 'I' for Inactive)
REMARK    1  A    between atoms: C_2  and  C_3 
REMARK    2  A    between atoms: C_3  and  O_6 
REMARK    3  A    between atoms: C_3  and  C_4 
REMARK    4  A    between atoms: C_7  and  O_6 
REMARK    5  A    between atoms: C_9  and  C_10 
REMARK    6  A    between atoms: N_15  and  C_14 
REMARK    7  A    between atoms: N_20  and  C_19 
REMARK       I    between atoms: C_22  and  N_20 
ROOT
ATOM      1  C   LIG d   1      -3.139  78.538 114.707  0.00  0.00     0.161 C 
ATOM      2  C   LIG d   1      -2.810  78.214 113.381  0.00  0.00     0.016 C 
ATOM      3  C   LIG d   1      -1.492  77.928 112.954  0.00  0.00     0.038 C 
ATOM      4  C   LIG d   1      -0.430  77.799 113.861  0.00  0.00     0.028 C 
ATOM      5  C   LIG d   1      -0.622  78.613 115.137  0.00  0.00    -0.047 C 
ATOM      6  C   LIG d   1      -2.012  78.293 115.732  0.00  0.00     0.091 C 
ENDROOT
BRANCH   1   7
ATOM      7  O   LIG d   1      -4.334  77.834 115.100  0.00  0.00    -0.368 OA
BRANCH   7   8
ATOM      8  C   LIG d   1      -4.345  76.407 114.849  0.00  0.00     0.119 C 
BRANCH   8   9
ATOM      9  C   LIG d   1      -5.769  76.027 114.400  0.00  0.00     0.028 C 
ATOM     10  C   LIG d   1      -6.807  76.213 115.519  0.00  0.00     0.006 C 
ENDBRANCH   8   9
BRANCH   8  11
ATOM     11  C   LIG d   1      -4.100  75.613 116.136  0.00  0.00     0.028 C 
ATOM     12  C   LIG d   1      -2.819  74.766 116.078  0.00  0.00     0.006 C 
ENDBRANCH   8  11
ENDBRANCH   7   8
ENDBRANCH   1   7
BRANCH   6  13
ATOM     13  N   LIG d   1      -2.314  79.110 116.937  0.00  0.00    -0.311 N 
ATOM     14  C   LIG d   1      -2.116  78.680 118.182  0.00  0.00     0.210 C 
ATOM     15  C   LIG d   1      -2.514  79.673 119.279  0.00  0.00     0.109 C 
ATOM     16  O   LIG d   1      -1.619  77.584 118.481  0.00  0.00    -0.276 OA
ATOM     17  H   LIG d   1      -2.692  80.024 116.785  0.00  0.00     0.149 HD
ENDBRANCH   6  13
BRANCH   5  18
ATOM     18  N   LIG d   1       0.488  78.279 116.049  0.00  0.00     0.381 N 
ATOM     19  H   LIG d   1       1.130  79.045 116.097  0.00  0.00    -0.090 HD
ATOM     20  H   LIG d   1       0.978  77.480 115.686  0.00  0.00    -0.090 HD
ATOM     21  H   LIG d   1       0.134  78.075 116.958  0.00  0.00    -0.090 HD
ENDBRANCH   5  18
BRANCH   3  22
ATOM     22  C   LIG d   1      -1.220  77.808 111.600  0.00  0.00     0.382 C 
ATOM     23  O   LIG d   1      -0.644  76.782 111.165  0.00  0.00    -0.241 OA
ATOM     24  O   LIG d   1      -1.502  78.732 110.814  0.00  0.00    -0.241 OA
ENDBRANCH   3  22
TORSDOF 7
ENDMDL
MODEL 8
REMARK VINA RESULT:      -4.9      3.835      5.045
REMARK  7 active torsions:
REMARK  status: ('A' for Active; 'I' for Inactive)
REMARK    1  A    between atoms: C_2  and  C_3 
REMARK    2  A    between atoms: C_3  and  O_6 
REMARK    3  A    between atoms: C_3  and  C_4 
REMARK    4  A    between atoms: C_7  and  O_6 
REMARK    5  A    between atoms: C_9  and  C_10 
REMARK    6  A    between atoms: N_15  and  C_14 
REMARK    7  A    between atoms: N_20  and  C_19 
REMARK       I    between atoms: C_22  and  N_20 
ROOT
ATOM      1  C   LIG d   1      -5.701  77.957 117.539  0.00  0.00     0.161 C 
ATOM      2  C   LIG d   1      -6.708  78.935 117.483  0.00  0.00     0.016 C 
ATOM      3  C   LIG d   1      -6.637  80.164 118.179  0.00  0.00     0.038 C 
ATOM      4  C   LIG d   1      -5.478  80.565 118.861  0.00  0.00     0.028 C 
ATOM      5  C   LIG d   1      -4.636  79.396 119.361  0.00  0.00    -0.047 C 
ATOM      6  C   LIG d   1      -4.381  78.422 118.188  0.00  0.00     0.091 C 
ENDROOT
BRANCH   1   7
ATOM      7  O   LIG d   1      -5.453  77.436 116.218  0.00  0.00    -0.368 OA
BRANCH   7   8
ATOM      8  C   LIG d   1      -5.798  76.044 116.006  0.00  0.00     0.119 C 
BRANCH   8   9
ATOM      9  C   LIG d   1      -4.741  75.444 115.060  0.00  0.00     0.028 C 
ATOM     10  C   LIG d   1      -3.536  74.863 115.819  0.00  0.00     0.006 C 
ENDBRANCH   8   9
BRANCH   8  11
ATOM     11  C   LIG d   1      -7.131  75.907 115.265  0.00  0.00     0.028 C 
ATOM     12  C   LIG d   1      -8.341  75.892 116.212  0.00  0.00     0.006 C 
ENDBRANCH   8  11
ENDBRANCH   7   8
ENDBRANCH   1   7
BRANCH   6  13
ATOM     13  N   LIG d   1      -3.635  77.208 118.611  0.00  0.00    -0.311 N 
ATOM     14  C   LIG d   1      -2.310  77.100 118.537  0.00  0.00     0.210 C 
ATOM     15  C   LIG d   1      -1.744  75.755 119.006  0.00  0.00     0.109 C 
ATOM     16  O   LIG d   1      -1.546  78.001 118.158  0.00  0.00    -0.276 OA
ATOM     17  H   LIG d   1      -4.174  76.440 118.960  0.00  0.00     0.149 HD
ENDBRANCH   6  13
BRANCH   5  18
ATOM     18  N   LIG d   1      -3.394  79.953 119.930  0.00  0.00     0.381 N 
ATOM     19  H   LIG d   1      -2.704  80.045 119.211  0.00  0.00    -0.090 HD
ATOM     20  H   LIG d   1      -3.042  79.320 120.626  0.00  0.00    -0.090 HD
ATOM     21  H   LIG d   1      -3.576  80.842 120.341  0.00  0.00    -0.090 HD
ENDBRANCH   5  18
BRANCH   3  22
ATOM     22  C   LIG d   1      -7.749  80.991 118.229  0.00  0.00     0.382 C 
ATOM     23  O   LIG d   1      -8.431  81.062 119.280  0.00  0.00    -0.241 OA
ATOM     24  O   LIG d   1      -8.105  81.632 117.222  0.00  0.00    -0.241 OA
ENDBRANCH   3  22
TORSDOF 7
ENDMDL
MODEL 9
REMARK VINA RESULT:      -4.9      3.479      4.917
REMARK  7 active torsions:
REMARK  status: ('A' for Active; 'I' for Inactive)
REMARK    1  A    between atoms: C_2  and  C_3 
REMARK    2  A    between atoms: C_3  and  O_6 
REMARK    3  A    between atoms: C_3  and  C_4 
REMARK    4  A    between atoms: C_7  and  O_6 
REMARK    5  A    between atoms: C_9  and  C_10 
REMARK    6  A    between atoms: N_15  and  C_14 
REMARK    7  A    between atoms: N_20  and  C_19 
REMARK       I    between atoms: C_22  and  N_20 
ROOT
ATOM      1  C   LIG d   1      -5.061  78.109 117.706  0.00  0.00     0.161 C 
ATOM      2  C   LIG d   1      -4.417  79.120 118.439  0.00  0.00     0.016 C 
ATOM      3  C   LIG d   1      -3.052  79.451 118.274  0.00  0.00     0.038 C 
ATOM      4  C   LIG d   1      -2.272  78.892 117.251  0.00  0.00     0.028 C 
ATOM      5  C   LIG d   1      -2.742  77.507 116.819  0.00  0.00    -0.047 C 
ATOM      6  C   LIG d   1      -4.255  77.564 116.509  0.00  0.00     0.091 C 
ENDROOT
BRANCH   1   7
ATOM      7  O   LIG d   1      -6.355  78.570 117.271  0.00  0.00    -0.368 OA
BRANCH   7   8
ATOM      8  C   LIG d   1      -7.346  78.763 118.310  0.00  0.00     0.119 C 
BRANCH   8   9
ATOM      9  C   LIG d   1      -8.254  77.517 118.321  0.00  0.00     0.028 C 
ATOM     10  C   LIG d   1      -8.267  76.789 116.967  0.00  0.00     0.006 C 
ENDBRANCH   8   9
BRANCH   8  11
ATOM     11  C   LIG d   1      -8.274  79.938 117.985  0.00  0.00     0.028 C 
ATOM     12  C   LIG d   1      -7.556  81.295 118.037  0.00  0.00     0.006 C 
ENDBRANCH   8  11
ENDBRANCH   7   8
ENDBRANCH   1   7
BRANCH   6  13
ATOM     13  N   LIG d   1      -4.813  76.232 116.160  0.00  0.00    -0.311 N 
ATOM     14  C   LIG d   1      -4.977  75.811 114.907  0.00  0.00     0.210 C 
ATOM     15  C   LIG d   1      -5.587  74.413 114.769  0.00  0.00     0.109 C 
ATOM     16  O   LIG d   1      -4.646  76.450 113.897  0.00  0.00    -0.276 OA
ATOM     17  H   LIG d   1      -5.079  75.636 116.919  0.00  0.00     0.149 HD
ENDBRANCH   6  13
BRANCH   5  18
ATOM     18  N   LIG d   1      -1.928  77.102 115.657  0.00  0.00     0.381 N 
ATOM     19  H   LIG d   1      -0.983  77.405 115.784  0.00  0.00    -0.090 HD
ATOM     20  H   LIG d   1      -2.294  77.547 114.833  0.00  0.00    -0.090 HD
ATOM     21  H   LIG d   1      -1.956  76.112 115.549  0.00  0.00    -0.090 HD
ENDBRANCH   5  18
BRANCH   3  22
ATOM     22  C   LIG d   1      -2.444  80.323 119.164  0.00  0.00     0.382 C 
ATOM     23  O   LIG d   1      -3.078  81.312 119.604  0.00  0.00    -0.241 OA
ATOM     24  O   LIG d   1      -1.256  80.157 119.499  0.00  0.00    -0.241 OA
ENDBRANCH   3  22
TORSDOF 7
ENDMDL
