MODEL 1
REMARK VINA RESULT:      -5.0      0.000      0.000
REMARK  7 active torsions:
REMARK  status: ('A' for Active; 'I' for Inactive)
REMARK    1  A    between atoms: C_2  and  C_3 
REMARK    2  A    between atoms: C_3  and  O_6 
REMARK    3  A    between atoms: C_3  and  C_4 
REMARK    4  A    between atoms: C_7  and  O_6 
REMARK    5  A    between atoms: C_9  and  C_10 
REMARK    6  A    between atoms: N_15  and  C_14 
REMARK    7  A    between atoms: N_20  and  C_19 
REMARK       I    between atoms: C_22  and  N_20 
ROOT
ATOM      1  C   LIG d   1      -1.811  78.383 115.300  0.00  0.00     0.161 C 
ATOM      2  C   LIG d   1      -2.383  79.550 114.767  0.00  0.00     0.016 C 
ATOM      3  C   LIG d   1      -2.531  79.781 113.380  0.00  0.00     0.038 C 
ATOM      4  C   LIG d   1      -2.252  78.789 112.429  0.00  0.00     0.028 C 
ATOM      5  C   LIG d   1      -1.201  77.785 112.892  0.00  0.00    -0.047 C 
ATOM      6  C   LIG d   1      -1.603  77.242 114.282  0.00  0.00     0.091 C 
ENDROOT
BRANCH   1   7
ATOM      7  O   LIG d   1      -2.595  77.921 116.418  0.00  0.00    -0.368 OA
BRANCH   7   8
ATOM      8  C   LIG d   1      -4.030  77.893 116.221  0.00  0.00     0.119 C 
BRANCH   8   9
ATOM      9  C   LIG d   1      -4.678  78.566 117.447  0.00  0.00     0.028 C 
ATOM     10  C   LIG d   1      -3.685  79.441 118.230  0.00  0.00     0.006 C 
ENDBRANCH   8   9
BRANCH   8  11
ATOM     11  C   LIG d   1      -4.564  76.457 116.217  0.00  0.00     0.028 C 
ATOM     12  C   LIG d   1      -5.057  76.009 114.832  0.00  0.00     0.006 C 
ENDBRANCH   8  11
ENDBRANCH   7   8
ENDBRANCH   1   7
BRANCH   6  13
ATOM     13  N   LIG d   1      -0.586  76.317 114.845  0.00  0.00    -0.311 N 
ATOM     14  C   LIG d   1      -0.848  75.054 115.179  0.00  0.00     0.210 C 
ATOM     15  C   LIG d   1       0.339  74.280 115.760  0.00  0.00     0.109 C 
ATOM     16  O   LIG d   1      -1.942  74.493 115.018  0.00  0.00    -0.276 OA
ATOM     17  H   LIG d   1       0.337  76.681 114.980  0.00  0.00     0.149 HD
ENDBRANCH   6  13
BRANCH   5  18
ATOM     18  N   LIG d   1      -1.109  76.731 111.864  0.00  0.00     0.381 N 
ATOM     19  H   LIG d   1      -2.028  76.440 111.594  0.00  0.00    -0.090 HD
ATOM     20  H   LIG d   1      -0.629  75.939 112.253  0.00  0.00    -0.090 HD
ATOM     21  H   LIG d   1      -0.614  77.072 111.069  0.00  0.00    -0.090 HD
ENDBRANCH   5  18
BRANCH   3  22
ATOM     22  C   LIG d   1      -2.925  81.032 112.930  0.00  0.00     0.382 C 
ATOM     23  O   LIG d   1      -2.083  81.957 112.833  0.00  0.00    -0.241 OA
ATOM     24  O   LIG d   1      -4.120  81.260 112.663  0.00  0.00    -0.241 OA
ENDBRANCH   3  22
TORSDOF 7
ENDMDL
MODEL 2
REMARK VINA RESULT:      -4.9      2.144      2.671
REMARK  7 active torsions:
REMARK  status: ('A' for Active; 'I' for Inactive)
REMARK    1  A    between atoms: C_2  and  C_3 
REMARK    2  A    between atoms: C_3  and  O_6 
REMARK    3  A    between atoms: C_3  and  C_4 
REMARK    4  A    between atoms: C_7  and  O_6 
REMARK    5  A    between atoms: C_9  and  C_10 
REMARK    6  A    between atoms: N_15  and  C_14 
REMARK    7  A    between atoms: N_20  and  C_19 
REMARK       I    between atoms: C_22  and  N_20 
ROOT
ATOM      1  C   LIG d   1      -2.964  77.843 114.993  0.00  0.00     0.161 C 
ATOM      2  C   LIG d   1      -3.220  78.884 114.084  0.00  0.00     0.016 C 
ATOM      3  C   LIG d   1      -2.286  79.902 113.783  0.00  0.00     0.038 C 
ATOM      4  C   LIG d   1      -0.968  79.863 114.260  0.00  0.00     0.028 C 
ATOM      5  C   LIG d   1      -0.822  79.108 115.577  0.00  0.00    -0.047 C 
ATOM      6  C   LIG d   1      -1.492  77.722 115.438  0.00  0.00     0.091 C 
ENDROOT
BRANCH   1   7
ATOM      7  O   LIG d   1      -3.427  76.593 114.446  0.00  0.00    -0.368 OA
BRANCH   7   8
ATOM      8  C   LIG d   1      -4.551  75.979 115.123  0.00  0.00     0.119 C 
BRANCH   8   9
ATOM      9  C   LIG d   1      -4.174  74.513 115.411  0.00  0.00     0.028 C 
ATOM     10  C   LIG d   1      -3.926  74.254 116.907  0.00  0.00     0.006 C 
ENDBRANCH   8   9
BRANCH   8  11
ATOM     11  C   LIG d   1      -5.780  75.910 114.211  0.00  0.00     0.028 C 
ATOM     12  C   LIG d   1      -7.095  75.766 114.993  0.00  0.00     0.006 C 
ENDBRANCH   8  11
ENDBRANCH   7   8
ENDBRANCH   1   7
BRANCH   6  13
ATOM     13  N   LIG d   1      -1.468  76.951 116.708  0.00  0.00    -0.311 N 
ATOM     14  C   LIG d   1      -0.557  76.020 116.984  0.00  0.00     0.210 C 
ATOM     15  C   LIG d   1      -0.726  75.331 118.342  0.00  0.00     0.109 C 
ATOM     16  O   LIG d   1       0.395  75.721 116.247  0.00  0.00    -0.276 OA
ATOM     17  H   LIG d   1      -2.186  77.151 117.377  0.00  0.00     0.149 HD
ENDBRANCH   6  13
BRANCH   5  18
ATOM     18  N   LIG d   1       0.618  79.026 115.887  0.00  0.00     0.381 N 
ATOM     19  H   LIG d   1       0.969  78.126 115.630  0.00  0.00    -0.090 HD
ATOM     20  H   LIG d   1       0.745  79.144 116.877  0.00  0.00    -0.090 HD
ATOM     21  H   LIG d   1       1.114  79.737 115.395  0.00  0.00    -0.090 HD
ENDBRANCH   5  18
BRANCH   3  22
ATOM     22  C   LIG d   1      -2.682  80.996 113.028  0.00  0.00     0.382 C 
ATOM     23  O   LIG d   1      -1.821  81.706 112.455  0.00  0.00    -0.241 OA
ATOM     24  O   LIG d   1      -3.885  81.307 112.949  0.00  0.00    -0.241 OA
ENDBRANCH   3  22
TORSDOF 7
ENDMDL
MODEL 3
REMARK VINA RESULT:      -4.5      3.363      4.611
REMARK  7 active torsions:
REMARK  status: ('A' for Active; 'I' for Inactive)
REMARK    1  A    between atoms: C_2  and  C_3 
REMARK    2  A    between atoms: C_3  and  O_6 
REMARK    3  A    between atoms: C_3  and  C_4 
REMARK    4  A    between atoms: C_7  and  O_6 
REMARK    5  A    between atoms: C_9  and  C_10 
REMARK    6  A    between atoms: N_15  and  C_14 
REMARK    7  A    between atoms: N_20  and  C_19 
REMARK       I    between atoms: C_22  and  N_20 
ROOT
ATOM      1  C   LIG d   1      -5.256  76.718 117.556  0.00  0.00     0.161 C 
ATOM      2  C   LIG d   1      -6.012  77.845 117.919  0.00  0.00     0.016 C 
ATOM      3  C   LIG d   1      -5.581  79.174 117.701  0.00  0.00     0.038 C 
ATOM      4  C   LIG d   1      -4.424  79.467 116.965  0.00  0.00     0.028 C 
ATOM      5  C   LIG d   1      -3.375  78.362 117.021  0.00  0.00    -0.047 C 
ATOM      6  C   LIG d   1      -4.042  77.017 116.652  0.00  0.00     0.091 C 
ENDROOT
BRANCH   1   7
ATOM      7  O   LIG d   1      -6.110  75.734 116.939  0.00  0.00    -0.368 OA
BRANCH   7   8
ATOM      8  C   LIG d   1      -6.898  76.191 115.813  0.00  0.00     0.119 C 
BRANCH   8   9
ATOM      9  C   LIG d   1      -8.358  75.771 116.069  0.00  0.00     0.028 C 
ATOM     10  C   LIG d   1      -8.486  74.766 117.226  0.00  0.00     0.006 C 
ENDBRANCH   8   9
BRANCH   8  11
ATOM     11  C   LIG d   1      -6.491  75.476 114.521  0.00  0.00     0.028 C 
ATOM     12  C   LIG d   1      -5.706  74.180 114.779  0.00  0.00     0.006 C 
ENDBRANCH   8  11
ENDBRANCH   7   8
ENDBRANCH   1   7
BRANCH   6  13
ATOM     13  N   LIG d   1      -3.104  75.869 116.764  0.00  0.00    -0.311 N 
ATOM     14  C   LIG d   1      -2.419  75.379 115.732  0.00  0.00     0.210 C 
ATOM     15  C   LIG d   1      -1.524  74.181 116.061  0.00  0.00     0.109 C 
ATOM     16  O   LIG d   1      -2.444  75.843 114.582  0.00  0.00    -0.276 OA
ATOM     17  H   LIG d   1      -3.000  75.452 117.668  0.00  0.00     0.149 HD
ENDBRANCH   6  13
BRANCH   5  18
ATOM     18  N   LIG d   1      -2.283  78.737 116.102  0.00  0.00     0.381 N 
ATOM     19  H   LIG d   1      -1.540  79.165 116.616  0.00  0.00    -0.090 HD
ATOM     20  H   LIG d   1      -2.633  79.404 115.437  0.00  0.00    -0.090 HD
ATOM     21  H   LIG d   1      -1.946  77.929 115.626  0.00  0.00    -0.090 HD
ENDBRANCH   5  18
BRANCH   3  22
ATOM     22  C   LIG d   1      -6.292  80.226 118.259  0.00  0.00     0.382 C 
ATOM     23  O   LIG d   1      -7.276  80.710 117.650  0.00  0.00    -0.241 OA
ATOM     24  O   LIG d   1      -5.934  80.727 119.341  0.00  0.00    -0.241 OA
ENDBRANCH   3  22
TORSDOF 7
ENDMDL
MODEL 4
REMARK VINA RESULT:      -4.2      2.743      5.252
REMARK  7 active torsions:
REMARK  status: ('A' for Active; 'I' for Inactive)
REMARK    1  A    between atoms: C_2  and  C_3 
REMARK    2  A    between atoms: C_3  and  O_6 
REMARK    3  A    between atoms: C_3  and  C_4 
REMARK    4  A    between atoms: C_7  and  O_6 
REMARK    5  A    between atoms: C_9  and  C_10 
REMARK    6  A    between atoms: N_15  and  C_14 
REMARK    7  A    between atoms: N_20  and  C_19 
REMARK       I    between atoms: C_22  and  N_20 
ROOT
ATOM      1  C   LIG d   1      -3.590  75.636 114.943  0.00  0.00     0.161 C 
ATOM      2  C   LIG d   1      -4.969  75.656 114.679  0.00  0.00     0.016 C 
ATOM      3  C   LIG d   1      -5.937  76.064 115.626  0.00  0.00     0.038 C 
ATOM      4  C   LIG d   1      -5.576  76.628 116.859  0.00  0.00     0.028 C 
ATOM      5  C   LIG d   1      -4.215  76.159 117.364  0.00  0.00    -0.047 C 
ATOM      6  C   LIG d   1      -3.169  76.353 116.243  0.00  0.00     0.091 C 
ENDROOT
BRANCH   1   7
ATOM      7  O   LIG d   1      -2.870  76.178 113.817  0.00  0.00    -0.368 OA
BRANCH   7   8
ATOM      8  C   LIG d   1      -2.973  77.610 113.623  0.00  0.00     0.119 C 
BRANCH   8   9
ATOM      9  C   LIG d   1      -3.473  77.847 112.185  0.00  0.00     0.028 C 
ATOM     10  C   LIG d   1      -2.352  77.698 111.142  0.00  0.00     0.006 C 
ENDBRANCH   8   9
BRANCH   8  11
ATOM     11  C   LIG d   1      -1.599  78.282 113.692  0.00  0.00     0.028 C 
ATOM     12  C   LIG d   1      -1.617  79.595 114.489  0.00  0.00     0.006 C 
ENDBRANCH   8  11
ENDBRANCH   7   8
ENDBRANCH   1   7
BRANCH   6  13
ATOM     13  N   LIG d   1      -1.827  75.841 116.625  0.00  0.00    -0.311 N 
ATOM     14  C   LIG d   1      -0.876  76.605 117.159  0.00  0.00     0.210 C 
ATOM     15  C   LIG d   1       0.441  75.883 117.460  0.00  0.00     0.109 C 
ATOM     16  O   LIG d   1      -1.009  77.805 117.443  0.00  0.00    -0.276 OA
ATOM     17  H   LIG d   1      -1.645  74.871 116.458  0.00  0.00     0.149 HD
ENDBRANCH   6  13
BRANCH   5  18
ATOM     18  N   LIG d   1      -3.904  76.927 118.585  0.00  0.00     0.381 N 
ATOM     19  H   LIG d   1      -3.352  76.369 119.204  0.00  0.00    -0.090 HD
ATOM     20  H   LIG d   1      -4.764  77.159 119.051  0.00  0.00    -0.090 HD
ATOM     21  H   LIG d   1      -3.411  77.760 118.347  0.00  0.00    -0.090 HD
ENDBRANCH   5  18
BRANCH   3  22
ATOM     22  C   LIG d   1      -7.284  75.872 115.359  0.00  0.00     0.382 C 
ATOM     23  O   LIG d   1      -7.764  76.245 114.262  0.00  0.00    -0.241 OA
ATOM     24  O   LIG d   1      -8.033  75.371 116.219  0.00  0.00    -0.241 OA
ENDBRANCH   3  22
TORSDOF 7
ENDMDL
MODEL 5
REMARK VINA RESULT:      -4.2      2.823      4.142
REMARK  7 active torsions:
REMARK  status: ('A' for Active; 'I' for Inactive)
REMARK    1  A    between atoms: C_2  and  C_3 
REMARK    2  A    between atoms: C_3  and  O_6 
REMARK    3  A    between atoms: C_3  and  C_4 
REMARK    4  A    between atoms: C_7  and  O_6 
REMARK    5  A    between atoms: C_9  and  C_10 
REMARK    6  A    between atoms: N_15  and  C_14 
REMARK    7  A    between atoms: N_20  and  C_19 
REMARK       I    between atoms: C_22  and  N_20 
ROOT
ATOM      1  C   LIG d   1      -3.719  77.937 116.910  0.00  0.00     0.161 C 
ATOM      2  C   LIG d   1      -2.845  78.931 117.382  0.00  0.00     0.016 C 
ATOM      3  C   LIG d   1      -1.531  79.107 116.893  0.00  0.00     0.038 C 
ATOM      4  C   LIG d   1      -1.050  78.394 115.785  0.00  0.00     0.028 C 
ATOM      5  C   LIG d   1      -1.717  77.034 115.604  0.00  0.00    -0.047 C 
ATOM      6  C   LIG d   1      -3.251  77.221 115.626  0.00  0.00     0.091 C 
ENDROOT
BRANCH   1   7
ATOM      7  O   LIG d   1      -5.036  78.493 116.723  0.00  0.00    -0.368 OA
BRANCH   7   8
ATOM      8  C   LIG d   1      -5.717  78.936 117.922  0.00  0.00     0.119 C 
BRANCH   8   9
ATOM      9  C   LIG d   1      -7.029  78.136 118.033  0.00  0.00     0.028 C 
ATOM     10  C   LIG d   1      -7.228  77.169 116.853  0.00  0.00     0.006 C 
ENDBRANCH   8   9
BRANCH   8  11
ATOM     11  C   LIG d   1      -6.145  80.403 117.810  0.00  0.00     0.028 C 
ATOM     12  C   LIG d   1      -7.618  80.624 118.186  0.00  0.00     0.006 C 
ENDBRANCH   8  11
ENDBRANCH   7   8
ENDBRANCH   1   7
BRANCH   6  13
ATOM     13  N   LIG d   1      -3.981  75.930 115.539  0.00  0.00    -0.311 N 
ATOM     14  C   LIG d   1      -4.859  75.647 114.579  0.00  0.00     0.210 C 
ATOM     15  C   LIG d   1      -5.514  74.266 114.687  0.00  0.00     0.109 C 
ATOM     16  O   LIG d   1      -5.135  76.396 113.630  0.00  0.00    -0.276 OA
ATOM     17  H   LIG d   1      -3.794  75.252 116.252  0.00  0.00     0.149 HD
ENDBRANCH   6  13
BRANCH   5  18
ATOM     18  N   LIG d   1      -1.222  76.460 114.339  0.00  0.00     0.381 N 
ATOM     19  H   LIG d   1      -1.963  76.431 113.667  0.00  0.00    -0.090 HD
ATOM     20  H   LIG d   1      -0.913  75.519 114.508  0.00  0.00    -0.090 HD
ATOM     21  H   LIG d   1      -0.467  77.007 113.988  0.00  0.00    -0.090 HD
ENDBRANCH   5  18
BRANCH   3  22
ATOM     22  C   LIG d   1      -0.668  79.979 117.540  0.00  0.00     0.382 C 
ATOM     23  O   LIG d   1      -0.954  80.411 118.683  0.00  0.00    -0.241 OA
ATOM     24  O   LIG d   1       0.371  80.374 116.977  0.00  0.00    -0.241 OA
ENDBRANCH   3  22
TORSDOF 7
ENDMDL
MODEL 6
REMARK VINA RESULT:      -4.2      2.576      3.579
REMARK  7 active torsions:
REMARK  status: ('A' for Active; 'I' for Inactive)
REMARK    1  A    between atoms: C_2  and  C_3 
REMARK    2  A    between atoms: C_3  and  O_6 
REMARK    3  A    between atoms: C_3  and  C_4 
REMARK    4  A    between atoms: C_7  and  O_6 
REMARK    5  A    between atoms: C_9  and  C_10 
REMARK    6  A    between atoms: N_15  and  C_14 
REMARK    7  A    between atoms: N_20  and  C_19 
REMARK       I    between atoms: C_22  and  N_20 
ROOT
ATOM      1  C   LIG d   1      -2.836  77.147 114.841  0.00  0.00     0.161 C 
ATOM      2  C   LIG d   1      -2.914  77.067 113.441  0.00  0.00     0.016 C 
ATOM      3  C   LIG d   1      -2.094  77.823 112.571  0.00  0.00     0.038 C 
ATOM      4  C   LIG d   1      -1.030  78.603 113.047  0.00  0.00     0.028 C 
ATOM      5  C   LIG d   1      -1.237  79.106 114.472  0.00  0.00    -0.047 C 
ATOM      6  C   LIG d   1      -1.606  77.909 115.378  0.00  0.00     0.091 C 
ENDROOT
BRANCH   1   7
ATOM      7  O   LIG d   1      -2.892  75.824 115.410  0.00  0.00    -0.368 OA
BRANCH   7   8
ATOM      8  C   LIG d   1      -4.148  75.450 116.029  0.00  0.00     0.119 C 
BRANCH   8   9
ATOM      9  C   LIG d   1      -4.976  74.691 114.973  0.00  0.00     0.028 C 
ATOM     10  C   LIG d   1      -6.328  75.367 114.691  0.00  0.00     0.006 C 
ENDBRANCH   8   9
BRANCH   8  11
ATOM     11  C   LIG d   1      -4.982  76.683 116.388  0.00  0.00     0.028 C 
ATOM     12  C   LIG d   1      -5.119  76.888 117.905  0.00  0.00     0.006 C 
ENDBRANCH   8  11
ENDBRANCH   7   8
ENDBRANCH   1   7
BRANCH   6  13
ATOM     13  N   LIG d   1      -1.908  78.326 116.772  0.00  0.00    -0.311 N 
ATOM     14  C   LIG d   1      -1.369  77.747 117.843  0.00  0.00     0.210 C 
ATOM     15  C   LIG d   1      -1.831  78.316 119.188  0.00  0.00     0.109 C 
ATOM     16  O   LIG d   1      -0.527  76.837 117.807  0.00  0.00    -0.276 OA
ATOM     17  H   LIG d   1      -2.557  79.078 116.893  0.00  0.00     0.149 HD
ENDBRANCH   6  13
BRANCH   5  18
ATOM     18  N   LIG d   1       0.003  79.787 114.889  0.00  0.00     0.381 N 
ATOM     19  H   LIG d   1       0.140  79.669 115.873  0.00  0.00    -0.090 HD
ATOM     20  H   LIG d   1      -0.085  80.769 114.698  0.00  0.00    -0.090 HD
ATOM     21  H   LIG d   1       0.781  79.413 114.392  0.00  0.00    -0.090 HD
ENDBRANCH   5  18
BRANCH   3  22
ATOM     22  C   LIG d   1      -2.361  77.833 111.211  0.00  0.00     0.382 C 
ATOM     23  O   LIG d   1      -3.384  77.257 110.768  0.00  0.00    -0.241 OA
ATOM     24  O   LIG d   1      -1.570  78.374 110.415  0.00  0.00    -0.241 OA
ENDBRANCH   3  22
TORSDOF 7
ENDMDL
MODEL 7
REMARK VINA RESULT:      -4.1      1.624      2.208
REMARK  7 active torsions:
REMARK  status: ('A' for Active; 'I' for Inactive)
REMARK    1  A    between atoms: C_2  and  C_3 
REMARK    2  A    between atoms: C_3  and  O_6 
REMARK    3  A    between atoms: C_3  and  C_4 
REMARK    4  A    between atoms: C_7  and  O_6 
REMARK    5  A    between atoms: C_9  and  C_10 
REMARK    6  A    between atoms: N_15  and  C_14 
REMARK    7  A    between atoms: N_20  and  C_19 
REMARK       I    between atoms: C_22  and  N_20 
ROOT
ATOM      1  C   LIG d   1      -3.313  78.573 116.004  0.00  0.00     0.161 C 
ATOM      2  C   LIG d   1      -3.314  79.599 115.045  0.00  0.00     0.016 C 
ATOM      3  C   LIG d   1      -2.581  79.536 113.837  0.00  0.00     0.038 C 
ATOM      4  C   LIG d   1      -1.914  78.369 113.435  0.00  0.00     0.028 C 
ATOM      5  C   LIG d   1      -1.471  77.493 114.601  0.00  0.00    -0.047 C 
ATOM      6  C   LIG d   1      -2.680  77.247 115.532  0.00  0.00     0.091 C 
ENDROOT
BRANCH   1   7
ATOM      7  O   LIG d   1      -4.655  78.346 116.478  0.00  0.00    -0.368 OA
BRANCH   7   8
ATOM      8  C   LIG d   1      -4.917  78.721 117.853  0.00  0.00     0.119 C 
BRANCH   8   9
ATOM      9  C   LIG d   1      -3.623  79.338 118.419  0.00  0.00     0.028 C 
ATOM     10  C   LIG d   1      -3.107  78.586 119.657  0.00  0.00     0.006 C 
ENDBRANCH   8   9
BRANCH   8  11
ATOM     11  C   LIG d   1      -5.195  77.492 118.723  0.00  0.00     0.028 C 
ATOM     12  C   LIG d   1      -6.649  77.426 119.215  0.00  0.00     0.006 C 
ENDBRANCH   8  11
ENDBRANCH   7   8
ENDBRANCH   1   7
BRANCH   6  13
ATOM     13  N   LIG d   1      -2.313  76.468 116.743  0.00  0.00    -0.311 N 
ATOM     14  C   LIG d   1      -2.477  75.150 116.844  0.00  0.00     0.210 C 
ATOM     15  C   LIG d   1      -2.053  74.546 118.187  0.00  0.00     0.109 C 
ATOM     16  O   LIG d   1      -2.904  74.419 115.938  0.00  0.00    -0.276 OA
ATOM     17  H   LIG d   1      -1.931  76.977 117.516  0.00  0.00     0.149 HD
ENDBRANCH   6  13
BRANCH   5  18
ATOM     18  N   LIG d   1      -0.913  76.249 114.037  0.00  0.00     0.381 N 
ATOM     19  H   LIG d   1      -1.630  75.747 113.551  0.00  0.00    -0.090 HD
ATOM     20  H   LIG d   1      -0.579  75.672 114.789  0.00  0.00    -0.090 HD
ATOM     21  H   LIG d   1      -0.166  76.462 113.414  0.00  0.00    -0.090 HD
ENDBRANCH   5  18
BRANCH   3  22
ATOM     22  C   LIG d   1      -2.479  80.663 113.035  0.00  0.00     0.382 C 
ATOM     23  O   LIG d   1      -3.474  81.411 112.875  0.00  0.00    -0.241 OA
ATOM     24  O   LIG d   1      -1.418  80.917 112.435  0.00  0.00    -0.241 OA
ENDBRANCH   3  22
TORSDOF 7
ENDMDL
MODEL 8
REMARK VINA RESULT:      -4.0      2.808      4.312
REMARK  7 active torsions:
REMARK  status: ('A' for Active; 'I' for Inactive)
REMARK    1  A    between atoms: C_2  and  C_3 
REMARK    2  A    between atoms: C_3  and  O_6 
REMARK    3  A    between atoms: C_3  and  C_4 
REMARK    4  A    between atoms: C_7  and  O_6 
REMARK    5  A    between atoms: C_9  and  C_10 
REMARK    6  A    between atoms: N_15  and  C_14 
REMARK    7  A    between atoms: N_20  and  C_19 
REMARK       I    between atoms: C_22  and  N_20 
ROOT
ATOM      1  C   LIG d   1      -2.290  78.070 115.577  0.00  0.00     0.161 C 
ATOM      2  C   LIG d   1      -2.875  77.583 114.396  0.00  0.00     0.016 C 
ATOM      3  C   LIG d   1      -2.539  78.060 113.108  0.00  0.00     0.038 C 
ATOM      4  C   LIG d   1      -1.479  78.955 112.901  0.00  0.00     0.028 C 
ATOM      5  C   LIG d   1      -1.200  79.851 114.104  0.00  0.00    -0.047 C 
ATOM      6  C   LIG d   1      -1.053  78.967 115.364  0.00  0.00     0.091 C 
ENDROOT
BRANCH   1   7
ATOM      7  O   LIG d   1      -1.966  76.970 116.451  0.00  0.00    -0.368 OA
BRANCH   7   8
ATOM      8  C   LIG d   1      -0.601  76.489 116.391  0.00  0.00     0.119 C 
BRANCH   8   9
ATOM      9  C   LIG d   1      -0.634  75.075 115.780  0.00  0.00     0.028 C 
ATOM     10  C   LIG d   1      -1.985  74.373 115.998  0.00  0.00     0.006 C 
ENDBRANCH   8   9
BRANCH   8  11
ATOM     11  C   LIG d   1      -0.012  76.310 117.794  0.00  0.00     0.028 C 
ATOM     12  C   LIG d   1      -0.927  76.860 118.899  0.00  0.00     0.006 C 
ENDBRANCH   8  11
ENDBRANCH   7   8
ENDBRANCH   1   7
BRANCH   6  13
ATOM     13  N   LIG d   1      -0.861  79.770 116.600  0.00  0.00    -0.311 N 
ATOM     14  C   LIG d   1       0.336  80.064 117.105  0.00  0.00     0.210 C 
ATOM     15  C   LIG d   1       0.308  80.886 118.397  0.00  0.00     0.109 C 
ATOM     16  O   LIG d   1       1.418  79.749 116.588  0.00  0.00    -0.276 OA
ATOM     17  H   LIG d   1      -1.686  80.092 117.066  0.00  0.00     0.149 HD
ENDBRANCH   6  13
BRANCH   5  18
ATOM     18  N   LIG d   1       0.012  80.635 113.803  0.00  0.00     0.381 N 
ATOM     19  H   LIG d   1      -0.245  81.525 113.426  0.00  0.00    -0.090 HD
ATOM     20  H   LIG d   1       0.554  80.145 113.113  0.00  0.00    -0.090 HD
ATOM     21  H   LIG d   1       0.551  80.761 114.631  0.00  0.00    -0.090 HD
ENDBRANCH   5  18
BRANCH   3  22
ATOM     22  C   LIG d   1      -3.295  77.670 112.012  0.00  0.00     0.382 C 
ATOM     23  O   LIG d   1      -4.543  77.589 112.108  0.00  0.00    -0.241 OA
ATOM     24  O   LIG d   1      -2.740  77.355 110.942  0.00  0.00    -0.241 OA
ENDBRANCH   3  22
TORSDOF 7
ENDMDL
MODEL 9
REMARK VINA RESULT:      -4.0      2.623      3.377
REMARK  7 active torsions:
REMARK  status: ('A' for Active; 'I' for Inactive)
REMARK    1  A    between atoms: C_2  and  C_3 
REMARK    2  A    between atoms: C_3  and  O_6 
REMARK    3  A    between atoms: C_3  and  C_4 
REMARK    4  A    between atoms: C_7  and  O_6 
REMARK    5  A    between atoms: C_9  and  C_10 
REMARK    6  A    between atoms: N_15  and  C_14 
REMARK    7  A    between atoms: N_20  and  C_19 
REMARK       I    between atoms: C_22  and  N_20 
ROOT
ATOM      1  C   LIG d   1      -2.244  78.014 114.750  0.00  0.00     0.161 C 
ATOM      2  C   LIG d   1      -2.454  77.625 113.417  0.00  0.00     0.016 C 
ATOM      3  C   LIG d   1      -1.772  78.203 112.321  0.00  0.00     0.038 C 
ATOM      4  C   LIG d   1      -0.718  79.111 112.499  0.00  0.00     0.028 C 
ATOM      5  C   LIG d   1      -0.817  79.907 113.796  0.00  0.00    -0.047 C 
ATOM      6  C   LIG d   1      -1.019  78.925 114.973  0.00  0.00     0.091 C 
ENDROOT
BRANCH   1   7
ATOM      7  O   LIG d   1      -2.161  76.848 115.593  0.00  0.00    -0.368 OA
BRANCH   7   8
ATOM      8  C   LIG d   1      -3.361  76.509 116.331  0.00  0.00     0.119 C 
BRANCH   8   9
ATOM      9  C   LIG d   1      -3.035  76.644 117.831  0.00  0.00     0.028 C 
ATOM     10  C   LIG d   1      -3.786  77.812 118.492  0.00  0.00     0.006 C 
ENDBRANCH   8   9
BRANCH   8  11
ATOM     11  C   LIG d   1      -3.742  75.039 116.130  0.00  0.00     0.028 C 
ATOM     12  C   LIG d   1      -4.783  74.841 115.017  0.00  0.00     0.006 C 
ENDBRANCH   8  11
ENDBRANCH   7   8
ENDBRANCH   1   7
BRANCH   6  13
ATOM     13  N   LIG d   1      -1.209  79.626 116.269  0.00  0.00    -0.311 N 
ATOM     14  C   LIG d   1      -0.454  79.400 117.343  0.00  0.00     0.210 C 
ATOM     15  C   LIG d   1      -0.832  80.215 118.583  0.00  0.00     0.109 C 
ATOM     16  O   LIG d   1       0.513  78.624 117.377  0.00  0.00    -0.276 OA
ATOM     17  H   LIG d   1      -1.952  80.295 116.322  0.00  0.00     0.149 HD
ENDBRANCH   6  13
BRANCH   5  18
ATOM     18  N   LIG d   1       0.413  80.712 113.919  0.00  0.00     0.381 N 
ATOM     19  H   LIG d   1       0.185  81.631 114.244  0.00  0.00    -0.090 HD
ATOM     20  H   LIG d   1       0.840  80.795 113.013  0.00  0.00    -0.090 HD
ATOM     21  H   LIG d   1       1.045  80.275 114.553  0.00  0.00    -0.090 HD
ENDBRANCH   5  18
BRANCH   3  22
ATOM     22  C   LIG d   1      -2.172  77.902 111.028  0.00  0.00     0.382 C 
ATOM     23  O   LIG d   1      -1.514  78.337 110.052  0.00  0.00    -0.241 OA
ATOM     24  O   LIG d   1      -3.206  77.239 110.824  0.00  0.00    -0.241 OA
ENDBRANCH   3  22
TORSDOF 7
ENDMDL
