MODEL 1
REMARK VINA RESULT:      -5.4      0.000      0.000
REMARK  7 active torsions:
REMARK  status: ('A' for Active; 'I' for Inactive)
REMARK    1  A    between atoms: C_2  and  C_3 
REMARK    2  A    between atoms: C_3  and  O_6 
REMARK    3  A    between atoms: C_3  and  C_4 
REMARK    4  A    between atoms: C_7  and  O_6 
REMARK    5  A    between atoms: C_9  and  C_10 
REMARK    6  A    between atoms: N_15  and  C_14 
REMARK    7  A    between atoms: N_20  and  C_19 
REMARK       I    between atoms: C_22  and  N_20 
ROOT
ATOM      1  C   LIG d   1      -1.833  79.071 115.594  0.00  0.00     0.161 C 
ATOM      2  C   LIG d   1      -2.346  80.366 115.411  0.00  0.00     0.016 C 
ATOM      3  C   LIG d   1      -2.664  80.904 114.143  0.00  0.00     0.038 C 
ATOM      4  C   LIG d   1      -2.632  80.125 112.977  0.00  0.00     0.028 C 
ATOM      5  C   LIG d   1      -1.640  78.969 113.048  0.00  0.00    -0.047 C 
ATOM      6  C   LIG d   1      -1.896  78.167 114.345  0.00  0.00     0.091 C 
ENDROOT
BRANCH   1   7
ATOM      7  O   LIG d   1      -2.495  78.436 116.706  0.00  0.00    -0.368 OA
BRANCH   7   8
ATOM      8  C   LIG d   1      -3.933  78.297 116.597  0.00  0.00     0.119 C 
BRANCH   8   9
ATOM      9  C   LIG d   1      -4.558  78.978 117.829  0.00  0.00     0.028 C 
ATOM     10  C   LIG d   1      -5.454  80.170 117.450  0.00  0.00     0.006 C 
ENDBRANCH   8   9
BRANCH   8  11
ATOM     11  C   LIG d   1      -4.360  76.829 116.685  0.00  0.00     0.028 C 
ATOM     12  C   LIG d   1      -3.378  75.971 117.498  0.00  0.00     0.006 C 
ENDBRANCH   8  11
ENDBRANCH   7   8
ENDBRANCH   1   7
BRANCH   6  13
ATOM     13  N   LIG d   1      -0.914  77.068 114.535  0.00  0.00    -0.311 N 
ATOM     14  C   LIG d   1      -1.230  75.778 114.438  0.00  0.00     0.210 C 
ATOM     15  C   LIG d   1      -0.071  74.808 114.690  0.00  0.00     0.109 C 
ATOM     16  O   LIG d   1      -2.352  75.345 114.135  0.00  0.00    -0.276 OA
ATOM     17  H   LIG d   1       0.028  77.330 114.753  0.00  0.00     0.149 HD
ENDBRANCH   6  13
BRANCH   5  18
ATOM     18  N   LIG d   1      -1.809  78.161 111.826  0.00  0.00     0.381 N 
ATOM     19  H   LIG d   1      -2.671  78.400 111.378  0.00  0.00    -0.090 HD
ATOM     20  H   LIG d   1      -1.844  77.190 112.081  0.00  0.00    -0.090 HD
ATOM     21  H   LIG d   1      -1.047  78.321 111.204  0.00  0.00    -0.090 HD
ENDBRANCH   5  18
BRANCH   3  22
ATOM     22  C   LIG d   1      -2.981  82.249 114.028  0.00  0.00     0.382 C 
ATOM     23  O   LIG d   1      -3.968  82.716 114.646  0.00  0.00    -0.241 OA
ATOM     24  O   LIG d   1      -2.318  82.993 113.279  0.00  0.00    -0.241 OA
ENDBRANCH   3  22
TORSDOF 7
ENDMDL
MODEL 2
REMARK VINA RESULT:      -5.3      1.465      1.909
REMARK  7 active torsions:
REMARK  status: ('A' for Active; 'I' for Inactive)
REMARK    1  A    between atoms: C_2  and  C_3 
REMARK    2  A    between atoms: C_3  and  O_6 
REMARK    3  A    between atoms: C_3  and  C_4 
REMARK    4  A    between atoms: C_7  and  O_6 
REMARK    5  A    between atoms: C_9  and  C_10 
REMARK    6  A    between atoms: N_15  and  C_14 
REMARK    7  A    between atoms: N_20  and  C_19 
REMARK       I    between atoms: C_22  and  N_20 
ROOT
ATOM      1  C   LIG d   1      -1.361  79.915 115.377  0.00  0.00     0.161 C 
ATOM      2  C   LIG d   1      -1.585  81.270 115.081  0.00  0.00     0.016 C 
ATOM      3  C   LIG d   1      -1.897  81.742 113.786  0.00  0.00     0.038 C 
ATOM      4  C   LIG d   1      -2.158  80.868 112.721  0.00  0.00     0.028 C 
ATOM      5  C   LIG d   1      -1.449  79.524 112.854  0.00  0.00    -0.047 C 
ATOM      6  C   LIG d   1      -1.749  78.935 114.251  0.00  0.00     0.091 C 
ENDROOT
BRANCH   1   7
ATOM      7  O   LIG d   1      -2.035  79.564 116.602  0.00  0.00    -0.368 OA
BRANCH   7   8
ATOM      8  C   LIG d   1      -2.925  80.568 117.149  0.00  0.00     0.119 C 
BRANCH   8   9
ATOM      9  C   LIG d   1      -2.582  80.725 118.643  0.00  0.00     0.028 C 
ATOM     10  C   LIG d   1      -1.178  81.315 118.864  0.00  0.00     0.006 C 
ENDBRANCH   8   9
BRANCH   8  11
ATOM     11  C   LIG d   1      -4.383  80.098 117.115  0.00  0.00     0.028 C 
ATOM     12  C   LIG d   1      -4.515  78.579 116.924  0.00  0.00     0.006 C 
ENDBRANCH   8  11
ENDBRANCH   7   8
ENDBRANCH   1   7
BRANCH   6  13
ATOM     13  N   LIG d   1      -1.026  77.659 114.495  0.00  0.00    -0.311 N 
ATOM     14  C   LIG d   1      -1.580  76.459 114.330  0.00  0.00     0.210 C 
ATOM     15  C   LIG d   1      -0.665  75.275 114.657  0.00  0.00     0.109 C 
ATOM     16  O   LIG d   1      -2.732  76.263 113.914  0.00  0.00    -0.276 OA
ATOM     17  H   LIG d   1      -0.077  77.726 114.806  0.00  0.00     0.149 HD
ENDBRANCH   6  13
BRANCH   5  18
ATOM     18  N   LIG d   1      -1.916  78.663 111.751  0.00  0.00     0.381 N 
ATOM     19  H   LIG d   1      -2.679  78.096 112.063  0.00  0.00    -0.090 HD
ATOM     20  H   LIG d   1      -1.166  78.056 111.472  0.00  0.00    -0.090 HD
ATOM     21  H   LIG d   1      -2.204  79.223 110.979  0.00  0.00    -0.090 HD
ENDBRANCH   5  18
BRANCH   3  22
ATOM     22  C   LIG d   1      -1.913  83.106 113.537  0.00  0.00     0.382 C 
ATOM     23  O   LIG d   1      -2.347  83.898 114.409  0.00  0.00    -0.241 OA
ATOM     24  O   LIG d   1      -1.541  83.552 112.435  0.00  0.00    -0.241 OA
ENDBRANCH   3  22
TORSDOF 7
ENDMDL
MODEL 3
REMARK VINA RESULT:      -5.1      1.144      2.047
REMARK  7 active torsions:
REMARK  status: ('A' for Active; 'I' for Inactive)
REMARK    1  A    between atoms: C_2  and  C_3 
REMARK    2  A    between atoms: C_3  and  O_6 
REMARK    3  A    between atoms: C_3  and  C_4 
REMARK    4  A    between atoms: C_7  and  O_6 
REMARK    5  A    between atoms: C_9  and  C_10 
REMARK    6  A    between atoms: N_15  and  C_14 
REMARK    7  A    between atoms: N_20  and  C_19 
REMARK       I    between atoms: C_22  and  N_20 
ROOT
ATOM      1  C   LIG d   1      -1.846  79.031 115.579  0.00  0.00     0.161 C 
ATOM      2  C   LIG d   1      -2.379  80.320 115.409  0.00  0.00     0.016 C 
ATOM      3  C   LIG d   1      -2.706  80.866 114.146  0.00  0.00     0.038 C 
ATOM      4  C   LIG d   1      -2.663  80.099 112.973  0.00  0.00     0.028 C 
ATOM      5  C   LIG d   1      -1.654  78.957 113.032  0.00  0.00    -0.047 C 
ATOM      6  C   LIG d   1      -1.897  78.139 114.321  0.00  0.00     0.091 C 
ENDROOT
BRANCH   1   7
ATOM      7  O   LIG d   1      -2.498  78.375 116.685  0.00  0.00    -0.368 OA
BRANCH   7   8
ATOM      8  C   LIG d   1      -1.661  78.070 117.828  0.00  0.00     0.119 C 
BRANCH   8   9
ATOM      9  C   LIG d   1      -2.326  76.908 118.591  0.00  0.00     0.028 C 
ATOM     10  C   LIG d   1      -3.078  75.946 117.656  0.00  0.00     0.006 C 
ENDBRANCH   8   9
BRANCH   8  11
ATOM     11  C   LIG d   1      -1.624  79.237 118.819  0.00  0.00     0.028 C 
ATOM     12  C   LIG d   1      -2.966  79.455 119.534  0.00  0.00     0.006 C 
ENDBRANCH   8  11
ENDBRANCH   7   8
ENDBRANCH   1   7
BRANCH   6  13
ATOM     13  N   LIG d   1      -0.899  77.052 114.500  0.00  0.00    -0.311 N 
ATOM     14  C   LIG d   1      -1.209  75.758 114.460  0.00  0.00     0.210 C 
ATOM     15  C   LIG d   1      -0.033  74.803 114.688  0.00  0.00     0.109 C 
ATOM     16  O   LIG d   1      -2.341  75.309 114.225  0.00  0.00    -0.276 OA
ATOM     17  H   LIG d   1       0.050  77.327 114.664  0.00  0.00     0.149 HD
ENDBRANCH   6  13
BRANCH   5  18
ATOM     18  N   LIG d   1      -1.812  78.158 111.802  0.00  0.00     0.381 N 
ATOM     19  H   LIG d   1      -2.269  77.294 112.016  0.00  0.00    -0.090 HD
ATOM     20  H   LIG d   1      -0.902  77.950 111.430  0.00  0.00    -0.090 HD
ATOM     21  H   LIG d   1      -2.345  78.666 111.131  0.00  0.00    -0.090 HD
ENDBRANCH   5  18
BRANCH   3  22
ATOM     22  C   LIG d   1      -3.042  82.207 114.044  0.00  0.00     0.382 C 
ATOM     23  O   LIG d   1      -2.349  82.976 113.336  0.00  0.00    -0.241 OA
ATOM     24  O   LIG d   1      -4.005  82.668 114.687  0.00  0.00    -0.241 OA
ENDBRANCH   3  22
TORSDOF 7
ENDMDL
MODEL 4
REMARK VINA RESULT:      -4.9      2.530      5.422
REMARK  7 active torsions:
REMARK  status: ('A' for Active; 'I' for Inactive)
REMARK    1  A    between atoms: C_2  and  C_3 
REMARK    2  A    between atoms: C_3  and  O_6 
REMARK    3  A    between atoms: C_3  and  C_4 
REMARK    4  A    between atoms: C_7  and  O_6 
REMARK    5  A    between atoms: C_9  and  C_10 
REMARK    6  A    between atoms: N_15  and  C_14 
REMARK    7  A    between atoms: N_20  and  C_19 
REMARK       I    between atoms: C_22  and  N_20 
ROOT
ATOM      1  C   LIG d   1      -2.271  80.687 114.112  0.00  0.00     0.161 C 
ATOM      2  C   LIG d   1      -2.710  79.468 114.657  0.00  0.00     0.016 C 
ATOM      3  C   LIG d   1      -2.611  78.232 113.978  0.00  0.00     0.038 C 
ATOM      4  C   LIG d   1      -1.924  78.107 112.762  0.00  0.00     0.028 C 
ATOM      5  C   LIG d   1      -1.909  79.391 111.940  0.00  0.00    -0.047 C 
ATOM      6  C   LIG d   1      -1.418  80.553 112.833  0.00  0.00     0.091 C 
ENDROOT
BRANCH   1   7
ATOM      7  O   LIG d   1      -1.558  81.441 115.113  0.00  0.00    -0.368 OA
BRANCH   7   8
ATOM      8  C   LIG d   1      -0.215  80.989 115.415  0.00  0.00     0.119 C 
BRANCH   8   9
ATOM      9  C   LIG d   1      -0.145  80.729 116.932  0.00  0.00     0.028 C 
ATOM     10  C   LIG d   1      -1.349  81.318 117.685  0.00  0.00     0.006 C 
ENDBRANCH   8   9
BRANCH   8  11
ATOM     11  C   LIG d   1       0.816  82.088 115.144  0.00  0.00     0.028 C 
ATOM     12  C   LIG d   1       0.185  83.486 115.044  0.00  0.00     0.006 C 
ENDBRANCH   8  11
ENDBRANCH   7   8
ENDBRANCH   1   7
BRANCH   6  13
ATOM     13  N   LIG d   1      -1.453  81.862 112.131  0.00  0.00    -0.311 N 
ATOM     14  C   LIG d   1      -0.395  82.395 111.521  0.00  0.00     0.210 C 
ATOM     15  C   LIG d   1      -0.642  83.762 110.875  0.00  0.00     0.109 C 
ATOM     16  O   LIG d   1       0.716  81.852 111.427  0.00  0.00    -0.276 OA
ATOM     17  H   LIG d   1      -2.323  82.357 112.131  0.00  0.00     0.149 HD
ENDBRANCH   6  13
BRANCH   5  18
ATOM     18  N   LIG d   1      -1.045  79.159 110.767  0.00  0.00     0.381 N 
ATOM     19  H   LIG d   1      -0.298  78.540 111.013  0.00  0.00    -0.090 HD
ATOM     20  H   LIG d   1      -0.647  80.035 110.478  0.00  0.00    -0.090 HD
ATOM     21  H   LIG d   1      -1.579  78.767 110.022  0.00  0.00    -0.090 HD
ENDBRANCH   5  18
BRANCH   3  22
ATOM     22  C   LIG d   1      -3.239  77.111 114.498  0.00  0.00     0.382 C 
ATOM     23  O   LIG d   1      -3.754  76.266 113.727  0.00  0.00    -0.241 OA
ATOM     24  O   LIG d   1      -3.337  76.955 115.730  0.00  0.00    -0.241 OA
ENDBRANCH   3  22
TORSDOF 7
ENDMDL
MODEL 5
REMARK VINA RESULT:      -4.9      2.484      5.909
REMARK  7 active torsions:
REMARK  status: ('A' for Active; 'I' for Inactive)
REMARK    1  A    between atoms: C_2  and  C_3 
REMARK    2  A    between atoms: C_3  and  O_6 
REMARK    3  A    between atoms: C_3  and  C_4 
REMARK    4  A    between atoms: C_7  and  O_6 
REMARK    5  A    between atoms: C_9  and  C_10 
REMARK    6  A    between atoms: N_15  and  C_14 
REMARK    7  A    between atoms: N_20  and  C_19 
REMARK       I    between atoms: C_22  and  N_20 
ROOT
ATOM      1  C   LIG d   1      -3.038  78.637 115.933  0.00  0.00     0.161 C 
ATOM      2  C   LIG d   1      -2.229  77.599 115.441  0.00  0.00     0.016 C 
ATOM      3  C   LIG d   1      -2.374  76.248 115.833  0.00  0.00     0.038 C 
ATOM      4  C   LIG d   1      -3.442  75.818 116.634  0.00  0.00     0.028 C 
ATOM      5  C   LIG d   1      -3.983  76.905 117.557  0.00  0.00    -0.047 C 
ATOM      6  C   LIG d   1      -4.280  78.171 116.722  0.00  0.00     0.091 C 
ENDROOT
BRANCH   1   7
ATOM      7  O   LIG d   1      -3.429  79.506 114.851  0.00  0.00    -0.368 OA
BRANCH   7   8
ATOM      8  C   LIG d   1      -2.362  79.960 113.982  0.00  0.00     0.119 C 
BRANCH   8   9
ATOM      9  C   LIG d   1      -2.115  81.449 114.291  0.00  0.00     0.028 C 
ATOM     10  C   LIG d   1      -3.336  82.125 114.937  0.00  0.00     0.006 C 
ENDBRANCH   8   9
BRANCH   8  11
ATOM     11  C   LIG d   1      -2.786  79.916 112.511  0.00  0.00     0.028 C 
ATOM     12  C   LIG d   1      -2.997  78.484 111.994  0.00  0.00     0.006 C 
ENDBRANCH   8  11
ENDBRANCH   7   8
ENDBRANCH   1   7
BRANCH   6  13
ATOM     13  N   LIG d   1      -4.733  79.311 117.561  0.00  0.00    -0.311 N 
ATOM     14  C   LIG d   1      -6.015  79.576 117.808  0.00  0.00     0.210 C 
ATOM     15  C   LIG d   1      -6.264  80.810 118.681  0.00  0.00     0.109 C 
ATOM     16  O   LIG d   1      -6.968  78.887 117.413  0.00  0.00    -0.276 OA
ATOM     17  H   LIG d   1      -4.024  79.903 117.947  0.00  0.00     0.149 HD
ENDBRANCH   6  13
BRANCH   5  18
ATOM     18  N   LIG d   1      -5.178  76.364 118.232  0.00  0.00     0.381 N 
ATOM     19  H   LIG d   1      -5.217  75.372 118.106  0.00  0.00    -0.090 HD
ATOM     20  H   LIG d   1      -5.997  76.768 117.814  0.00  0.00    -0.090 HD
ATOM     21  H   LIG d   1      -5.149  76.582 119.203  0.00  0.00    -0.090 HD
ENDBRANCH   5  18
BRANCH   3  22
ATOM     22  C   LIG d   1      -1.418  75.317 115.455  0.00  0.00     0.382 C 
ATOM     23  O   LIG d   1      -1.145  75.158 114.241  0.00  0.00    -0.241 OA
ATOM     24  O   LIG d   1      -0.859  74.603 116.308  0.00  0.00    -0.241 OA
ENDBRANCH   3  22
TORSDOF 7
ENDMDL
MODEL 6
REMARK VINA RESULT:      -4.8      1.605      1.980
REMARK  7 active torsions:
REMARK  status: ('A' for Active; 'I' for Inactive)
REMARK    1  A    between atoms: C_2  and  C_3 
REMARK    2  A    between atoms: C_3  and  O_6 
REMARK    3  A    between atoms: C_3  and  C_4 
REMARK    4  A    between atoms: C_7  and  O_6 
REMARK    5  A    between atoms: C_9  and  C_10 
REMARK    6  A    between atoms: N_15  and  C_14 
REMARK    7  A    between atoms: N_20  and  C_19 
REMARK       I    between atoms: C_22  and  N_20 
ROOT
ATOM      1  C   LIG d   1      -2.525  79.631 116.708  0.00  0.00     0.161 C 
ATOM      2  C   LIG d   1      -2.902  80.659 115.828  0.00  0.00     0.016 C 
ATOM      3  C   LIG d   1      -2.783  80.563 114.422  0.00  0.00     0.038 C 
ATOM      4  C   LIG d   1      -2.418  79.365 113.789  0.00  0.00     0.028 C 
ATOM      5  C   LIG d   1      -1.547  78.463 114.657  0.00  0.00    -0.047 C 
ATOM      6  C   LIG d   1      -2.229  78.276 116.031  0.00  0.00     0.091 C 
ENDROOT
BRANCH   1   7
ATOM      7  O   LIG d   1      -3.528  79.471 117.731  0.00  0.00    -0.368 OA
BRANCH   7   8
ATOM      8  C   LIG d   1      -4.906  79.575 117.294  0.00  0.00     0.119 C 
BRANCH   8   9
ATOM      9  C   LIG d   1      -5.648  80.465 118.310  0.00  0.00     0.028 C 
ATOM     10  C   LIG d   1      -4.775  80.822 119.525  0.00  0.00     0.006 C 
ENDBRANCH   8   9
BRANCH   8  11
ATOM     11  C   LIG d   1      -5.612  78.217 117.352  0.00  0.00     0.028 C 
ATOM     12  C   LIG d   1      -4.939  77.237 118.327  0.00  0.00     0.006 C 
ENDBRANCH   8  11
ENDBRANCH   7   8
ENDBRANCH   1   7
BRANCH   6  13
ATOM     13  N   LIG d   1      -1.402  77.475 116.970  0.00  0.00    -0.311 N 
ATOM     14  C   LIG d   1      -1.539  76.160 117.129  0.00  0.00     0.210 C 
ATOM     15  C   LIG d   1      -0.600  75.532 118.163  0.00  0.00     0.109 C 
ATOM     16  O   LIG d   1      -2.327  75.448 116.488  0.00  0.00    -0.276 OA
ATOM     17  H   LIG d   1      -0.716  77.968 117.508  0.00  0.00     0.149 HD
ENDBRANCH   6  13
BRANCH   5  18
ATOM     18  N   LIG d   1      -1.356  77.194 113.929  0.00  0.00     0.381 N 
ATOM     19  H   LIG d   1      -2.130  76.585 114.101  0.00  0.00    -0.090 HD
ATOM     20  H   LIG d   1      -0.522  76.747 114.267  0.00  0.00    -0.090 HD
ATOM     21  H   LIG d   1      -1.273  77.371 112.952  0.00  0.00    -0.090 HD
ENDBRANCH   5  18
BRANCH   3  22
ATOM     22  C   LIG d   1      -2.993  81.686 113.636  0.00  0.00     0.382 C 
ATOM     23  O   LIG d   1      -2.578  82.806 114.020  0.00  0.00    -0.241 OA
ATOM     24  O   LIG d   1      -3.630  81.600 112.569  0.00  0.00    -0.241 OA
ENDBRANCH   3  22
TORSDOF 7
ENDMDL
MODEL 7
REMARK VINA RESULT:      -4.8      2.410      4.965
REMARK  7 active torsions:
REMARK  status: ('A' for Active; 'I' for Inactive)
REMARK    1  A    between atoms: C_2  and  C_3 
REMARK    2  A    between atoms: C_3  and  O_6 
REMARK    3  A    between atoms: C_3  and  C_4 
REMARK    4  A    between atoms: C_7  and  O_6 
REMARK    5  A    between atoms: C_9  and  C_10 
REMARK    6  A    between atoms: N_15  and  C_14 
REMARK    7  A    between atoms: N_20  and  C_19 
REMARK       I    between atoms: C_22  and  N_20 
ROOT
ATOM      1  C   LIG d   1      -2.068  79.758 115.011  0.00  0.00     0.161 C 
ATOM      2  C   LIG d   1      -2.594  78.480 115.260  0.00  0.00     0.016 C 
ATOM      3  C   LIG d   1      -2.754  77.495 114.259  0.00  0.00     0.038 C 
ATOM      4  C   LIG d   1      -2.254  77.670 112.960  0.00  0.00     0.028 C 
ATOM      5  C   LIG d   1      -2.171  79.133 112.535  0.00  0.00    -0.047 C 
ATOM      6  C   LIG d   1      -1.415  79.929 113.623  0.00  0.00     0.091 C 
ENDROOT
BRANCH   1   7
ATOM      7  O   LIG d   1      -1.136  80.115 116.051  0.00  0.00    -0.368 OA
BRANCH   7   8
ATOM      8  C   LIG d   1      -1.506  81.246 116.878  0.00  0.00     0.119 C 
BRANCH   8   9
ATOM      9  C   LIG d   1      -0.234  82.084 117.111  0.00  0.00     0.028 C 
ATOM     10  C   LIG d   1       0.211  82.078 118.583  0.00  0.00     0.006 C 
ENDBRANCH   8   9
BRANCH   8  11
ATOM     11  C   LIG d   1      -1.955  80.795 118.270  0.00  0.00     0.028 C 
ATOM     12  C   LIG d   1      -3.475  80.589 118.369  0.00  0.00     0.006 C 
ENDBRANCH   8  11
ENDBRANCH   7   8
ENDBRANCH   1   7
BRANCH   6  13
ATOM     13  N   LIG d   1      -1.363  81.385 113.327  0.00  0.00    -0.311 N 
ATOM     14  C   LIG d   1      -0.234  82.091 113.320  0.00  0.00     0.210 C 
ATOM     15  C   LIG d   1      -0.405  83.582 113.010  0.00  0.00     0.109 C 
ATOM     16  O   LIG d   1       0.897  81.619 113.511  0.00  0.00    -0.276 OA
ATOM     17  H   LIG d   1      -2.232  81.842 113.131  0.00  0.00     0.149 HD
ENDBRANCH   6  13
BRANCH   5  18
ATOM     18  N   LIG d   1      -1.506  79.178 111.219  0.00  0.00     0.381 N 
ATOM     19  H   LIG d   1      -0.572  79.520 111.323  0.00  0.00    -0.090 HD
ATOM     20  H   LIG d   1      -2.009  79.811 110.623  0.00  0.00    -0.090 HD
ATOM     21  H   LIG d   1      -1.492  78.268 110.813  0.00  0.00    -0.090 HD
ENDBRANCH   5  18
BRANCH   3  22
ATOM     22  C   LIG d   1      -3.455  76.333 114.543  0.00  0.00     0.382 C 
ATOM     23  O   LIG d   1      -3.320  75.776 115.659  0.00  0.00    -0.241 OA
ATOM     24  O   LIG d   1      -4.187  75.811 113.681  0.00  0.00    -0.241 OA
ENDBRANCH   3  22
TORSDOF 7
ENDMDL
MODEL 8
REMARK VINA RESULT:      -4.6      2.179      3.068
REMARK  7 active torsions:
REMARK  status: ('A' for Active; 'I' for Inactive)
REMARK    1  A    between atoms: C_2  and  C_3 
REMARK    2  A    between atoms: C_3  and  O_6 
REMARK    3  A    between atoms: C_3  and  C_4 
REMARK    4  A    between atoms: C_7  and  O_6 
REMARK    5  A    between atoms: C_9  and  C_10 
REMARK    6  A    between atoms: N_15  and  C_14 
REMARK    7  A    between atoms: N_20  and  C_19 
REMARK       I    between atoms: C_22  and  N_20 
ROOT
ATOM      1  C   LIG d   1      -2.717  78.636 116.212  0.00  0.00     0.161 C 
ATOM      2  C   LIG d   1      -2.959  79.297 114.996  0.00  0.00     0.016 C 
ATOM      3  C   LIG d   1      -2.602  78.764 113.736  0.00  0.00     0.038 C 
ATOM      4  C   LIG d   1      -2.112  77.457 113.596  0.00  0.00     0.028 C 
ATOM      5  C   LIG d   1      -1.383  76.948 114.834  0.00  0.00    -0.047 C 
ATOM      6  C   LIG d   1      -2.285  77.162 116.071  0.00  0.00     0.091 C 
ENDROOT
BRANCH   1   7
ATOM      7  O   LIG d   1      -3.876  78.739 117.063  0.00  0.00    -0.368 OA
BRANCH   7   8
ATOM      8  C   LIG d   1      -3.695  79.475 118.299  0.00  0.00     0.119 C 
BRANCH   8   9
ATOM      9  C   LIG d   1      -5.079  79.993 118.735  0.00  0.00     0.028 C 
ATOM     10  C   LIG d   1      -5.878  80.590 117.564  0.00  0.00     0.006 C 
ENDBRANCH   8   9
BRANCH   8  11
ATOM     11  C   LIG d   1      -2.842  80.728 118.082  0.00  0.00     0.028 C 
ATOM     12  C   LIG d   1      -1.732  80.882 119.133  0.00  0.00     0.006 C 
ENDBRANCH   8  11
ENDBRANCH   7   8
ENDBRANCH   1   7
BRANCH   6  13
ATOM     13  N   LIG d   1      -1.613  76.767 117.337  0.00  0.00    -0.311 N 
ATOM     14  C   LIG d   1      -1.703  75.548 117.866  0.00  0.00     0.210 C 
ATOM     15  C   LIG d   1      -0.950  75.358 119.186  0.00  0.00     0.109 C 
ATOM     16  O   LIG d   1      -2.309  74.596 117.350  0.00  0.00    -0.276 OA
ATOM     17  H   LIG d   1      -1.075  77.469 117.806  0.00  0.00     0.149 HD
ENDBRANCH   6  13
BRANCH   5  18
ATOM     18  N   LIG d   1      -1.047  75.530 114.602  0.00  0.00     0.381 N 
ATOM     19  H   LIG d   1      -0.244  75.279 115.144  0.00  0.00    -0.090 HD
ATOM     20  H   LIG d   1      -0.823  75.405 113.630  0.00  0.00    -0.090 HD
ATOM     21  H   LIG d   1      -1.819  74.952 114.850  0.00  0.00    -0.090 HD
ENDBRANCH   5  18
BRANCH   3  22
ATOM     22  C   LIG d   1      -2.698  79.557 112.603  0.00  0.00     0.382 C 
ATOM     23  O   LIG d   1      -3.440  80.569 112.606  0.00  0.00    -0.241 OA
ATOM     24  O   LIG d   1      -2.086  79.249 111.563  0.00  0.00    -0.241 OA
ENDBRANCH   3  22
TORSDOF 7
ENDMDL
MODEL 9
REMARK VINA RESULT:      -4.5      2.699      4.307
REMARK  7 active torsions:
REMARK  status: ('A' for Active; 'I' for Inactive)
REMARK    1  A    between atoms: C_2  and  C_3 
REMARK    2  A    between atoms: C_3  and  O_6 
REMARK    3  A    between atoms: C_3  and  C_4 
REMARK    4  A    between atoms: C_7  and  O_6 
REMARK    5  A    between atoms: C_9  and  C_10 
REMARK    6  A    between atoms: N_15  and  C_14 
REMARK    7  A    between atoms: N_20  and  C_19 
REMARK       I    between atoms: C_22  and  N_20 
ROOT
ATOM      1  C   LIG d   1      -1.789  79.262 115.737  0.00  0.00     0.161 C 
ATOM      2  C   LIG d   1      -2.329  79.321 114.442  0.00  0.00     0.016 C 
ATOM      3  C   LIG d   1      -2.454  78.194 113.599  0.00  0.00     0.038 C 
ATOM      4  C   LIG d   1      -2.185  76.894 114.053  0.00  0.00     0.028 C 
ATOM      5  C   LIG d   1      -1.162  76.848 115.183  0.00  0.00    -0.047 C 
ATOM      6  C   LIG d   1      -1.593  77.835 116.291  0.00  0.00     0.091 C 
ENDROOT
BRANCH   1   7
ATOM      7  O   LIG d   1      -2.597  80.043 116.640  0.00  0.00    -0.368 OA
BRANCH   7   8
ATOM      8  C   LIG d   1      -1.997  81.264 117.138  0.00  0.00     0.119 C 
BRANCH   8   9
ATOM      9  C   LIG d   1      -0.632  81.427 116.442  0.00  0.00     0.028 C 
ATOM     10  C   LIG d   1      -0.606  82.619 115.470  0.00  0.00     0.006 C 
ENDBRANCH   8   9
BRANCH   8  11
ATOM     11  C   LIG d   1      -1.680  81.161 118.633  0.00  0.00     0.028 C 
ATOM     12  C   LIG d   1      -0.282  81.693 118.983  0.00  0.00     0.006 C 
ENDBRANCH   8  11
ENDBRANCH   7   8
ENDBRANCH   1   7
BRANCH   6  13
ATOM     13  N   LIG d   1      -0.602  77.914 117.397  0.00  0.00    -0.311 N 
ATOM     14  C   LIG d   1      -0.894  77.627 118.664  0.00  0.00     0.210 C 
ATOM     15  C   LIG d   1       0.268  77.793 119.648  0.00  0.00     0.109 C 
ATOM     16  O   LIG d   1      -1.996  77.220 119.062  0.00  0.00    -0.276 OA
ATOM     17  H   LIG d   1       0.325  78.206 117.158  0.00  0.00     0.149 HD
ENDBRANCH   6  13
BRANCH   5  18
ATOM     18  N   LIG d   1      -1.079  75.452 115.652  0.00  0.00     0.381 N 
ATOM     19  H   LIG d   1      -1.287  74.828 114.898  0.00  0.00    -0.090 HD
ATOM     20  H   LIG d   1      -1.762  75.311 116.375  0.00  0.00    -0.090 HD
ATOM     21  H   LIG d   1      -0.167  75.264 116.006  0.00  0.00    -0.090 HD
ENDBRANCH   5  18
BRANCH   3  22
ATOM     22  C   LIG d   1      -2.816  78.365 112.271  0.00  0.00     0.382 C 
ATOM     23  O   LIG d   1      -2.200  79.191 111.555  0.00  0.00    -0.241 OA
ATOM     24  O   LIG d   1      -3.779  77.737 111.792  0.00  0.00    -0.241 OA
ENDBRANCH   3  22
TORSDOF 7
ENDMDL
