MODEL 1
REMARK VINA RESULT:      -4.9      0.000      0.000
REMARK  7 active torsions:
REMARK  status: ('A' for Active; 'I' for Inactive)
REMARK    1  A    between atoms: C_2  and  C_3 
REMARK    2  A    between atoms: C_3  and  O_6 
REMARK    3  A    between atoms: C_3  and  C_4 
REMARK    4  A    between atoms: C_7  and  O_6 
REMARK    5  A    between atoms: C_9  and  C_10 
REMARK    6  A    between atoms: N_15  and  C_14 
REMARK    7  A    between atoms: N_20  and  C_19 
REMARK       I    between atoms: C_22  and  N_20 
ROOT
ATOM      1  C   LIG d   1      -6.024  77.497 117.273  0.00  0.00     0.161 C 
ATOM      2  C   LIG d   1      -6.759  78.688 117.385  0.00  0.00     0.016 C 
ATOM      3  C   LIG d   1      -6.164  79.952 117.601  0.00  0.00     0.038 C 
ATOM      4  C   LIG d   1      -4.773  80.132 117.569  0.00  0.00     0.028 C 
ATOM      5  C   LIG d   1      -3.992  78.884 117.963  0.00  0.00    -0.047 C 
ATOM      6  C   LIG d   1      -4.500  77.688 117.125  0.00  0.00     0.091 C 
ENDROOT
BRANCH   1   7
ATOM      7  O   LIG d   1      -6.537  76.706 116.183  0.00  0.00    -0.368 OA
BRANCH   7   8
ATOM      8  C   LIG d   1      -7.283  75.520 116.552  0.00  0.00     0.119 C 
BRANCH   8   9
ATOM      9  C   LIG d   1      -7.275  75.428 118.090  0.00  0.00     0.028 C 
ATOM     10  C   LIG d   1      -6.533  74.180 118.599  0.00  0.00     0.006 C 
ENDBRANCH   8   9
BRANCH   8  11
ATOM     11  C   LIG d   1      -6.583  74.247 116.065  0.00  0.00     0.028 C 
ATOM     12  C   LIG d   1      -5.779  74.466 114.774  0.00  0.00     0.006 C 
ENDBRANCH   8  11
ENDBRANCH   7   8
ENDBRANCH   1   7
BRANCH   6  13
ATOM     13  N   LIG d   1      -3.846  76.410 117.506  0.00  0.00    -0.311 N 
ATOM     14  C   LIG d   1      -3.062  75.713 116.685  0.00  0.00     0.210 C 
ATOM     15  C   LIG d   1      -2.505  74.412 117.272  0.00  0.00     0.109 C 
ATOM     16  O   LIG d   1      -2.748  76.066 115.538  0.00  0.00    -0.276 OA
ATOM     17  H   LIG d   1      -4.021  76.066 118.430  0.00  0.00     0.149 HD
ENDBRANCH   6  13
BRANCH   5  18
ATOM     18  N   LIG d   1      -2.560  79.169 117.754  0.00  0.00     0.381 N 
ATOM     19  H   LIG d   1      -2.377  80.136 117.938  0.00  0.00    -0.090 HD
ATOM     20  H   LIG d   1      -2.327  78.982 116.794  0.00  0.00    -0.090 HD
ATOM     21  H   LIG d   1      -2.007  78.599 118.355  0.00  0.00    -0.090 HD
ENDBRANCH   5  18
BRANCH   3  22
ATOM     22  C   LIG d   1      -6.963  81.047 117.892  0.00  0.00     0.382 C 
ATOM     23  O   LIG d   1      -7.593  81.625 116.974  0.00  0.00    -0.241 OA
ATOM     24  O   LIG d   1      -7.027  81.492 119.054  0.00  0.00    -0.241 OA
ENDBRANCH   3  22
TORSDOF 7
ENDMDL
MODEL 2
REMARK VINA RESULT:      -4.8      3.477      4.342
REMARK  7 active torsions:
REMARK  status: ('A' for Active; 'I' for Inactive)
REMARK    1  A    between atoms: C_2  and  C_3 
REMARK    2  A    between atoms: C_3  and  O_6 
REMARK    3  A    between atoms: C_3  and  C_4 
REMARK    4  A    between atoms: C_7  and  O_6 
REMARK    5  A    between atoms: C_9  and  C_10 
REMARK    6  A    between atoms: N_15  and  C_14 
REMARK    7  A    between atoms: N_20  and  C_19 
REMARK       I    between atoms: C_22  and  N_20 
ROOT
ATOM      1  C   LIG d   1      -2.882  77.525 115.518  0.00  0.00     0.161 C 
ATOM      2  C   LIG d   1      -3.019  78.248 114.322  0.00  0.00     0.016 C 
ATOM      3  C   LIG d   1      -2.084  79.215 113.885  0.00  0.00     0.038 C 
ATOM      4  C   LIG d   1      -0.862  79.416 114.546  0.00  0.00     0.028 C 
ATOM      5  C   LIG d   1      -0.912  79.070 116.030  0.00  0.00    -0.047 C 
ATOM      6  C   LIG d   1      -1.501  77.651 116.195  0.00  0.00     0.091 C 
ENDROOT
BRANCH   1   7
ATOM      7  O   LIG d   1      -3.203  76.138 115.290  0.00  0.00    -0.368 OA
BRANCH   7   8
ATOM      8  C   LIG d   1      -4.387  75.640 115.961  0.00  0.00     0.119 C 
BRANCH   8   9
ATOM      9  C   LIG d   1      -3.929  74.578 116.979  0.00  0.00     0.028 C 
ATOM     10  C   LIG d   1      -4.298  74.952 118.425  0.00  0.00     0.006 C 
ENDBRANCH   8   9
BRANCH   8  11
ATOM     11  C   LIG d   1      -5.309  74.899 114.988  0.00  0.00     0.028 C 
ATOM     12  C   LIG d   1      -6.468  74.180 115.696  0.00  0.00     0.006 C 
ENDBRANCH   8  11
ENDBRANCH   7   8
ENDBRANCH   1   7
BRANCH   6  13
ATOM     13  N   LIG d   1      -1.663  77.267 117.622  0.00  0.00    -0.311 N 
ATOM     14  C   LIG d   1      -0.740  76.597 118.310  0.00  0.00     0.210 C 
ATOM     15  C   LIG d   1      -1.116  76.285 119.762  0.00  0.00     0.109 C 
ATOM     16  O   LIG d   1       0.368  76.260 117.866  0.00  0.00    -0.276 OA
ATOM     17  H   LIG d   1      -2.519  77.528 118.070  0.00  0.00     0.149 HD
ENDBRANCH   6  13
BRANCH   5  18
ATOM     18  N   LIG d   1       0.458  79.194 116.563  0.00  0.00     0.381 N 
ATOM     19  H   LIG d   1       0.894  78.294 116.587  0.00  0.00    -0.090 HD
ATOM     20  H   LIG d   1       0.411  79.547 117.502  0.00  0.00    -0.090 HD
ATOM     21  H   LIG d   1       0.990  79.814 115.993  0.00  0.00    -0.090 HD
ENDBRANCH   5  18
BRANCH   3  22
ATOM     22  C   LIG d   1      -2.385  80.021 112.798  0.00  0.00     0.382 C 
ATOM     23  O   LIG d   1      -1.638  80.019 111.790  0.00  0.00    -0.241 OA
ATOM     24  O   LIG d   1      -3.371  80.782 112.830  0.00  0.00    -0.241 OA
ENDBRANCH   3  22
TORSDOF 7
ENDMDL
MODEL 3
REMARK VINA RESULT:      -4.5      2.738      4.452
REMARK  7 active torsions:
REMARK  status: ('A' for Active; 'I' for Inactive)
REMARK    1  A    between atoms: C_2  and  C_3 
REMARK    2  A    between atoms: C_3  and  O_6 
REMARK    3  A    between atoms: C_3  and  C_4 
REMARK    4  A    between atoms: C_7  and  O_6 
REMARK    5  A    between atoms: C_9  and  C_10 
REMARK    6  A    between atoms: N_15  and  C_14 
REMARK    7  A    between atoms: N_20  and  C_19 
REMARK       I    between atoms: C_22  and  N_20 
ROOT
ATOM      1  C   LIG d   1      -3.822  78.414 117.131  0.00  0.00     0.161 C 
ATOM      2  C   LIG d   1      -2.917  79.396 117.566  0.00  0.00     0.016 C 
ATOM      3  C   LIG d   1      -1.546  79.397 117.223  0.00  0.00     0.038 C 
ATOM      4  C   LIG d   1      -1.014  78.494 116.291  0.00  0.00     0.028 C 
ATOM      5  C   LIG d   1      -1.781  77.178 116.216  0.00  0.00    -0.047 C 
ATOM      6  C   LIG d   1      -3.284  77.484 116.023  0.00  0.00     0.091 C 
ENDROOT
BRANCH   1   7
ATOM      7  O   LIG d   1      -5.052  79.036 116.708  0.00  0.00    -0.368 OA
BRANCH   7   8
ATOM      8  C   LIG d   1      -6.108  79.099 117.699  0.00  0.00     0.119 C 
BRANCH   8   9
ATOM      9  C   LIG d   1      -7.206  78.107 117.269  0.00  0.00     0.028 C 
ATOM     10  C   LIG d   1      -7.147  76.788 118.059  0.00  0.00     0.006 C 
ENDBRANCH   8   9
BRANCH   8  11
ATOM     11  C   LIG d   1      -6.783  80.473 117.707  0.00  0.00     0.028 C 
ATOM     12  C   LIG d   1      -8.312  80.385 117.839  0.00  0.00     0.006 C 
ENDBRANCH   8  11
ENDBRANCH   7   8
ENDBRANCH   1   7
BRANCH   6  13
ATOM     13  N   LIG d   1      -4.118  76.254 116.024  0.00  0.00    -0.311 N 
ATOM     14  C   LIG d   1      -4.958  75.937 115.041  0.00  0.00     0.210 C 
ATOM     15  C   LIG d   1      -5.737  74.634 115.250  0.00  0.00     0.109 C 
ATOM     16  O   LIG d   1      -5.110  76.595 114.001  0.00  0.00    -0.276 OA
ATOM     17  H   LIG d   1      -4.034  75.647 116.816  0.00  0.00     0.149 HD
ENDBRANCH   6  13
BRANCH   5  18
ATOM     18  N   LIG d   1      -1.205  76.389 115.112  0.00  0.00     0.381 N 
ATOM     19  H   LIG d   1      -0.305  76.752 114.869  0.00  0.00    -0.090 HD
ATOM     20  H   LIG d   1      -1.804  76.467 114.309  0.00  0.00    -0.090 HD
ATOM     21  H   LIG d   1      -1.123  75.433 115.382  0.00  0.00    -0.090 HD
ENDBRANCH   5  18
BRANCH   3  22
ATOM     22  C   LIG d   1      -0.682  80.285 117.847  0.00  0.00     0.382 C 
ATOM     23  O   LIG d   1       0.390  80.615 117.286  0.00  0.00    -0.241 OA
ATOM     24  O   LIG d   1      -0.941  80.726 118.982  0.00  0.00    -0.241 OA
ENDBRANCH   3  22
TORSDOF 7
ENDMDL
MODEL 4
REMARK VINA RESULT:      -4.5      2.597      5.829
REMARK  7 active torsions:
REMARK  status: ('A' for Active; 'I' for Inactive)
REMARK    1  A    between atoms: C_2  and  C_3 
REMARK    2  A    between atoms: C_3  and  O_6 
REMARK    3  A    between atoms: C_3  and  C_4 
REMARK    4  A    between atoms: C_7  and  O_6 
REMARK    5  A    between atoms: C_9  and  C_10 
REMARK    6  A    between atoms: N_15  and  C_14 
REMARK    7  A    between atoms: N_20  and  C_19 
REMARK       I    between atoms: C_22  and  N_20 
ROOT
ATOM      1  C   LIG d   1      -5.008  78.296 117.126  0.00  0.00     0.161 C 
ATOM      2  C   LIG d   1      -5.064  76.938 116.768  0.00  0.00     0.016 C 
ATOM      3  C   LIG d   1      -6.254  76.176 116.788  0.00  0.00     0.038 C 
ATOM      4  C   LIG d   1      -7.506  76.764 117.025  0.00  0.00     0.028 C 
ATOM      5  C   LIG d   1      -7.433  78.021 117.884  0.00  0.00    -0.047 C 
ATOM      6  C   LIG d   1      -6.382  78.981 117.280  0.00  0.00     0.091 C 
ENDROOT
BRANCH   1   7
ATOM      7  O   LIG d   1      -4.191  79.017 116.182  0.00  0.00    -0.368 OA
BRANCH   7   8
ATOM      8  C   LIG d   1      -2.981  78.350 115.746  0.00  0.00     0.119 C 
BRANCH   8   9
ATOM      9  C   LIG d   1      -1.791  79.073 116.405  0.00  0.00     0.028 C 
ATOM     10  C   LIG d   1      -1.189  78.270 117.571  0.00  0.00     0.006 C 
ENDBRANCH   8   9
BRANCH   8  11
ATOM     11  C   LIG d   1      -2.769  78.511 114.238  0.00  0.00     0.028 C 
ATOM     12  C   LIG d   1      -1.603  79.452 113.898  0.00  0.00     0.006 C 
ENDBRANCH   8  11
ENDBRANCH   7   8
ENDBRANCH   1   7
BRANCH   6  13
ATOM     13  N   LIG d   1      -6.186  80.200 118.106  0.00  0.00    -0.311 N 
ATOM     14  C   LIG d   1      -6.799  81.357 117.862  0.00  0.00     0.210 C 
ATOM     15  C   LIG d   1      -6.441  82.494 118.824  0.00  0.00     0.109 C 
ATOM     16  O   LIG d   1      -7.630  81.541 116.959  0.00  0.00    -0.276 OA
ATOM     17  H   LIG d   1      -5.553  80.131 118.878  0.00  0.00     0.149 HD
ENDBRANCH   6  13
BRANCH   5  18
ATOM     18  N   LIG d   1      -8.786  78.605 117.936  0.00  0.00     0.381 N 
ATOM     19  H   LIG d   1      -9.391  78.114 117.308  0.00  0.00    -0.090 HD
ATOM     20  H   LIG d   1      -8.738  79.565 117.641  0.00  0.00    -0.090 HD
ATOM     21  H   LIG d   1      -9.145  78.553 118.864  0.00  0.00    -0.090 HD
ENDBRANCH   5  18
BRANCH   3  22
ATOM     22  C   LIG d   1      -6.194  74.803 116.609  0.00  0.00     0.382 C 
ATOM     23  O   LIG d   1      -5.130  74.185 116.852  0.00  0.00    -0.241 OA
ATOM     24  O   LIG d   1      -7.178  74.180 116.165  0.00  0.00    -0.241 OA
ENDBRANCH   3  22
TORSDOF 7
ENDMDL
MODEL 5
REMARK VINA RESULT:      -4.4      3.373      4.633
REMARK  7 active torsions:
REMARK  status: ('A' for Active; 'I' for Inactive)
REMARK    1  A    between atoms: C_2  and  C_3 
REMARK    2  A    between atoms: C_3  and  O_6 
REMARK    3  A    between atoms: C_3  and  C_4 
REMARK    4  A    between atoms: C_7  and  O_6 
REMARK    5  A    between atoms: C_9  and  C_10 
REMARK    6  A    between atoms: N_15  and  C_14 
REMARK    7  A    between atoms: N_20  and  C_19 
REMARK       I    between atoms: C_22  and  N_20 
ROOT
ATOM      1  C   LIG d   1      -3.071  78.462 115.764  0.00  0.00     0.161 C 
ATOM      2  C   LIG d   1      -3.137  79.512 114.833  0.00  0.00     0.016 C 
ATOM      3  C   LIG d   1      -2.349  79.562 113.660  0.00  0.00     0.038 C 
ATOM      4  C   LIG d   1      -1.546  78.484 113.259  0.00  0.00     0.028 C 
ATOM      5  C   LIG d   1      -1.065  77.622 114.422  0.00  0.00    -0.047 C 
ATOM      6  C   LIG d   1      -2.282  77.224 115.288  0.00  0.00     0.091 C 
ENDROOT
BRANCH   1   7
ATOM      7  O   LIG d   1      -4.402  78.083 116.168  0.00  0.00    -0.368 OA
BRANCH   7   8
ATOM      8  C   LIG d   1      -4.798  78.475 117.505  0.00  0.00     0.119 C 
BRANCH   8   9
ATOM      9  C   LIG d   1      -5.158  77.191 118.276  0.00  0.00     0.028 C 
ATOM     10  C   LIG d   1      -5.429  76.001 117.341  0.00  0.00     0.006 C 
ENDBRANCH   8   9
BRANCH   8  11
ATOM     11  C   LIG d   1      -6.082  79.310 117.484  0.00  0.00     0.028 C 
ATOM     12  C   LIG d   1      -6.918  79.150 118.764  0.00  0.00     0.006 C 
ENDBRANCH   8  11
ENDBRANCH   7   8
ENDBRANCH   1   7
BRANCH   6  13
ATOM     13  N   LIG d   1      -1.890  76.450 116.494  0.00  0.00    -0.311 N 
ATOM     14  C   LIG d   1      -1.891  75.119 116.543  0.00  0.00     0.210 C 
ATOM     15  C   LIG d   1      -1.472  74.521 117.890  0.00  0.00     0.109 C 
ATOM     16  O   LIG d   1      -2.168  74.376 115.589  0.00  0.00    -0.276 OA
ATOM     17  H   LIG d   1      -1.621  76.973 117.305  0.00  0.00     0.149 HD
ENDBRANCH   6  13
BRANCH   5  18
ATOM     18  N   LIG d   1      -0.356  76.461 113.852  0.00  0.00     0.381 N 
ATOM     19  H   LIG d   1      -0.602  76.353 112.889  0.00  0.00    -0.090 HD
ATOM     20  H   LIG d   1      -0.641  75.633 114.345  0.00  0.00    -0.090 HD
ATOM     21  H   LIG d   1       0.628  76.586 113.939  0.00  0.00    -0.090 HD
ENDBRANCH   5  18
BRANCH   3  22
ATOM     22  C   LIG d   1      -2.330  80.718 112.894  0.00  0.00     0.382 C 
ATOM     23  O   LIG d   1      -1.237  81.267 112.614  0.00  0.00    -0.241 OA
ATOM     24  O   LIG d   1      -3.394  81.244 112.517  0.00  0.00    -0.241 OA
ENDBRANCH   3  22
TORSDOF 7
ENDMDL
MODEL 6
REMARK VINA RESULT:      -4.4      2.921      4.331
REMARK  7 active torsions:
REMARK  status: ('A' for Active; 'I' for Inactive)
REMARK    1  A    between atoms: C_2  and  C_3 
REMARK    2  A    between atoms: C_3  and  O_6 
REMARK    3  A    between atoms: C_3  and  C_4 
REMARK    4  A    between atoms: C_7  and  O_6 
REMARK    5  A    between atoms: C_9  and  C_10 
REMARK    6  A    between atoms: N_15  and  C_14 
REMARK    7  A    between atoms: N_20  and  C_19 
REMARK       I    between atoms: C_22  and  N_20 
ROOT
ATOM      1  C   LIG d   1      -2.692  77.994 116.897  0.00  0.00     0.161 C 
ATOM      2  C   LIG d   1      -2.792  78.920 115.845  0.00  0.00     0.016 C 
ATOM      3  C   LIG d   1      -2.111  78.775 114.614  0.00  0.00     0.038 C 
ATOM      4  C   LIG d   1      -1.398  77.610 114.293  0.00  0.00     0.028 C 
ATOM      5  C   LIG d   1      -0.857  76.876 115.515  0.00  0.00    -0.047 C 
ATOM      6  C   LIG d   1      -2.008  76.662 116.524  0.00  0.00     0.091 C 
ENDROOT
BRANCH   1   7
ATOM      7  O   LIG d   1      -3.998  77.748 117.456  0.00  0.00    -0.368 OA
BRANCH   7   8
ATOM      8  C   LIG d   1      -5.126  78.049 116.598  0.00  0.00     0.119 C 
BRANCH   8   9
ATOM      9  C   LIG d   1      -6.095  78.936 117.403  0.00  0.00     0.028 C 
ATOM     10  C   LIG d   1      -7.492  78.307 117.537  0.00  0.00     0.006 C 
ENDBRANCH   8   9
BRANCH   8  11
ATOM     11  C   LIG d   1      -5.920  76.785 116.258  0.00  0.00     0.028 C 
ATOM     12  C   LIG d   1      -5.324  76.007 115.074  0.00  0.00     0.006 C 
ENDBRANCH   8  11
ENDBRANCH   7   8
ENDBRANCH   1   7
BRANCH   6  13
ATOM     13  N   LIG d   1      -1.546  76.026 117.785  0.00  0.00    -0.311 N 
ATOM     14  C   LIG d   1      -2.034  74.875 118.246  0.00  0.00     0.210 C 
ATOM     15  C   LIG d   1      -1.433  74.405 119.575  0.00  0.00     0.109 C 
ATOM     16  O   LIG d   1      -2.883  74.183 117.665  0.00  0.00    -0.276 OA
ATOM     17  H   LIG d   1      -0.836  76.504 118.304  0.00  0.00     0.149 HD
ENDBRANCH   6  13
BRANCH   5  18
ATOM     18  N   LIG d   1      -0.257  75.613 115.046  0.00  0.00     0.381 N 
ATOM     19  H   LIG d   1      -0.593  75.398 114.129  0.00  0.00    -0.090 HD
ATOM     20  H   LIG d   1      -0.534  74.872 115.665  0.00  0.00    -0.090 HD
ATOM     21  H   LIG d   1       0.737  75.691 115.034  0.00  0.00    -0.090 HD
ENDBRANCH   5  18
BRANCH   3  22
ATOM     22  C   LIG d   1      -2.107  79.821 113.704  0.00  0.00     0.382 C 
ATOM     23  O   LIG d   1      -1.019  80.312 113.318  0.00  0.00    -0.241 OA
ATOM     24  O   LIG d   1      -3.178  80.310 113.298  0.00  0.00    -0.241 OA
ENDBRANCH   3  22
TORSDOF 7
ENDMDL
MODEL 7
REMARK VINA RESULT:      -4.3      2.003      3.969
REMARK  7 active torsions:
REMARK  status: ('A' for Active; 'I' for Inactive)
REMARK    1  A    between atoms: C_2  and  C_3 
REMARK    2  A    between atoms: C_3  and  O_6 
REMARK    3  A    between atoms: C_3  and  C_4 
REMARK    4  A    between atoms: C_7  and  O_6 
REMARK    5  A    between atoms: C_9  and  C_10 
REMARK    6  A    between atoms: N_15  and  C_14 
REMARK    7  A    between atoms: N_20  and  C_19 
REMARK       I    between atoms: C_22  and  N_20 
ROOT
ATOM      1  C   LIG d   1      -5.729  78.009 117.161  0.00  0.00     0.161 C 
ATOM      2  C   LIG d   1      -6.268  79.281 117.414  0.00  0.00     0.016 C 
ATOM      3  C   LIG d   1      -7.628  79.500 117.736  0.00  0.00     0.038 C 
ATOM      4  C   LIG d   1      -8.513  78.438 117.976  0.00  0.00     0.028 C 
ATOM      5  C   LIG d   1      -8.136  77.157 117.239  0.00  0.00    -0.047 C 
ATOM      6  C   LIG d   1      -6.653  76.830 117.528  0.00  0.00     0.091 C 
ENDROOT
BRANCH   1   7
ATOM      7  O   LIG d   1      -4.458  77.876 117.828  0.00  0.00    -0.368 OA
BRANCH   7   8
ATOM      8  C   LIG d   1      -3.293  77.796 116.971  0.00  0.00     0.119 C 
BRANCH   8   9
ATOM      9  C   LIG d   1      -2.510  76.531 117.371  0.00  0.00     0.028 C 
ATOM     10  C   LIG d   1      -2.358  75.541 116.203  0.00  0.00     0.006 C 
ENDBRANCH   8   9
BRANCH   8  11
ATOM     11  C   LIG d   1      -2.334  78.963 117.224  0.00  0.00     0.028 C 
ATOM     12  C   LIG d   1      -1.343  79.181 116.069  0.00  0.00     0.006 C 
ENDBRANCH   8  11
ENDBRANCH   7   8
ENDBRANCH   1   7
BRANCH   6  13
ATOM     13  N   LIG d   1      -6.180  75.637 116.777  0.00  0.00    -0.311 N 
ATOM     14  C   LIG d   1      -6.113  75.586 115.448  0.00  0.00     0.210 C 
ATOM     15  C   LIG d   1      -5.616  74.255 114.876  0.00  0.00     0.109 C 
ATOM     16  O   LIG d   1      -6.387  76.529 114.690  0.00  0.00    -0.276 OA
ATOM     17  H   LIG d   1      -5.908  74.838 117.316  0.00  0.00     0.149 HD
ENDBRANCH   6  13
BRANCH   5  18
ATOM     18  N   LIG d   1      -9.060  76.098 117.687  0.00  0.00     0.381 N 
ATOM     19  H   LIG d   1      -9.776  76.494 118.263  0.00  0.00    -0.090 HD
ATOM     20  H   LIG d   1      -8.547  75.430 118.236  0.00  0.00    -0.090 HD
ATOM     21  H   LIG d   1      -9.469  75.647 116.899  0.00  0.00    -0.090 HD
ENDBRANCH   5  18
BRANCH   3  22
ATOM     22  C   LIG d   1      -8.124  80.794 117.781  0.00  0.00     0.382 C 
ATOM     23  O   LIG d   1      -7.713  81.652 116.962  0.00  0.00    -0.241 OA
ATOM     24  O   LIG d   1      -8.944  81.126 118.657  0.00  0.00    -0.241 OA
ENDBRANCH   3  22
TORSDOF 7
ENDMDL
MODEL 8
REMARK VINA RESULT:      -4.3      2.165      4.873
REMARK  7 active torsions:
REMARK  status: ('A' for Active; 'I' for Inactive)
REMARK    1  A    between atoms: C_2  and  C_3 
REMARK    2  A    between atoms: C_3  and  O_6 
REMARK    3  A    between atoms: C_3  and  C_4 
REMARK    4  A    between atoms: C_7  and  O_6 
REMARK    5  A    between atoms: C_9  and  C_10 
REMARK    6  A    between atoms: N_15  and  C_14 
REMARK    7  A    between atoms: N_20  and  C_19 
REMARK       I    between atoms: C_22  and  N_20 
ROOT
ATOM      1  C   LIG d   1      -4.476  78.327 117.066  0.00  0.00     0.161 C 
ATOM      2  C   LIG d   1      -3.410  79.084 116.553  0.00  0.00     0.016 C 
ATOM      3  C   LIG d   1      -2.303  78.515 115.882  0.00  0.00     0.038 C 
ATOM      4  C   LIG d   1      -2.261  77.154 115.544  0.00  0.00     0.028 C 
ATOM      5  C   LIG d   1      -3.075  76.271 116.484  0.00  0.00    -0.047 C 
ATOM      6  C   LIG d   1      -4.501  76.853 116.610  0.00  0.00     0.091 C 
ENDROOT
BRANCH   1   7
ATOM      7  O   LIG d   1      -5.727  78.970 116.754  0.00  0.00    -0.368 OA
BRANCH   7   8
ATOM      8  C   LIG d   1      -6.407  79.614 117.859  0.00  0.00     0.119 C 
BRANCH   8   9
ATOM      9  C   LIG d   1      -7.914  79.330 117.705  0.00  0.00     0.028 C 
ATOM     10  C   LIG d   1      -8.326  77.990 118.337  0.00  0.00     0.006 C 
ENDBRANCH   8   9
BRANCH   8  11
ATOM     11  C   LIG d   1      -6.271  81.138 117.785  0.00  0.00     0.028 C 
ATOM     12  C   LIG d   1      -7.252  81.869 118.716  0.00  0.00     0.006 C 
ENDBRANCH   8  11
ENDBRANCH   7   8
ENDBRANCH   1   7
BRANCH   6  13
ATOM     13  N   LIG d   1      -5.338  76.097 117.578  0.00  0.00    -0.311 N 
ATOM     14  C   LIG d   1      -6.140  75.094 117.226  0.00  0.00     0.210 C 
ATOM     15  C   LIG d   1      -6.931  74.464 118.377  0.00  0.00     0.109 C 
ATOM     16  O   LIG d   1      -6.248  74.644 116.075  0.00  0.00    -0.276 OA
ATOM     17  H   LIG d   1      -5.289  76.375 118.538  0.00  0.00     0.149 HD
ENDBRANCH   6  13
BRANCH   5  18
ATOM     18  N   LIG d   1      -3.056  74.901 115.937  0.00  0.00     0.381 N 
ATOM     19  H   LIG d   1      -3.526  74.882 115.055  0.00  0.00    -0.090 HD
ATOM     20  H   LIG d   1      -3.545  74.292 116.569  0.00  0.00    -0.090 HD
ATOM     21  H   LIG d   1      -2.115  74.591 115.827  0.00  0.00    -0.090 HD
ENDBRANCH   5  18
BRANCH   3  22
ATOM     22  C   LIG d   1      -1.204  79.304 115.576  0.00  0.00     0.382 C 
ATOM     23  O   LIG d   1      -0.502  79.783 116.498  0.00  0.00    -0.241 OA
ATOM     24  O   LIG d   1      -0.933  79.578 114.392  0.00  0.00    -0.241 OA
ENDBRANCH   3  22
TORSDOF 7
ENDMDL
MODEL 9
REMARK VINA RESULT:      -4.3      2.298      4.435
REMARK  7 active torsions:
REMARK  status: ('A' for Active; 'I' for Inactive)
REMARK    1  A    between atoms: C_2  and  C_3 
REMARK    2  A    between atoms: C_3  and  O_6 
REMARK    3  A    between atoms: C_3  and  C_4 
REMARK    4  A    between atoms: C_7  and  O_6 
REMARK    5  A    between atoms: C_9  and  C_10 
REMARK    6  A    between atoms: N_15  and  C_14 
REMARK    7  A    between atoms: N_20  and  C_19 
REMARK       I    between atoms: C_22  and  N_20 
ROOT
ATOM      1  C   LIG d   1      -5.676  78.920 117.694  0.00  0.00     0.161 C 
ATOM      2  C   LIG d   1      -6.293  80.182 117.669  0.00  0.00     0.016 C 
ATOM      3  C   LIG d   1      -7.692  80.366 117.755  0.00  0.00     0.038 C 
ATOM      4  C   LIG d   1      -8.565  79.302 118.025  0.00  0.00     0.028 C 
ATOM      5  C   LIG d   1      -8.036  77.951 117.555  0.00  0.00    -0.047 C 
ATOM      6  C   LIG d   1      -6.603  77.756 118.101  0.00  0.00     0.091 C 
ENDROOT
BRANCH   1   7
ATOM      7  O   LIG d   1      -4.517  78.960 118.550  0.00  0.00    -0.368 OA
BRANCH   7   8
ATOM      8  C   LIG d   1      -3.249  79.210 117.895  0.00  0.00     0.119 C 
BRANCH   8   9
ATOM      9  C   LIG d   1      -2.527  77.856 117.753  0.00  0.00     0.028 C 
ATOM     10  C   LIG d   1      -2.651  76.989 119.017  0.00  0.00     0.006 C 
ENDBRANCH   8   9
BRANCH   8  11
ATOM     11  C   LIG d   1      -2.330  80.069 118.768  0.00  0.00     0.028 C 
ATOM     12  C   LIG d   1      -3.102  81.083 119.627  0.00  0.00     0.006 C 
ENDBRANCH   8  11
ENDBRANCH   7   8
ENDBRANCH   1   7
BRANCH   6  13
ATOM     13  N   LIG d   1      -5.980  76.496 117.618  0.00  0.00    -0.311 N 
ATOM     14  C   LIG d   1      -6.005  75.355 118.305  0.00  0.00     0.210 C 
ATOM     15  C   LIG d   1      -5.285  74.181 117.636  0.00  0.00     0.109 C 
ATOM     16  O   LIG d   1      -6.582  75.196 119.391  0.00  0.00    -0.276 OA
ATOM     17  H   LIG d   1      -5.516  76.527 116.731  0.00  0.00     0.149 HD
ENDBRANCH   6  13
BRANCH   5  18
ATOM     18  N   LIG d   1      -8.978  76.917 118.022  0.00  0.00     0.381 N 
ATOM     19  H   LIG d   1      -9.551  77.286 118.755  0.00  0.00    -0.090 HD
ATOM     20  H   LIG d   1      -8.455  76.142 118.391  0.00  0.00    -0.090 HD
ATOM     21  H   LIG d   1      -9.550  76.610 117.266  0.00  0.00    -0.090 HD
ENDBRANCH   5  18
BRANCH   3  22
ATOM     22  C   LIG d   1      -8.235  81.622 117.529  0.00  0.00     0.382 C 
ATOM     23  O   LIG d   1      -8.538  82.358 118.499  0.00  0.00    -0.241 OA
ATOM     24  O   LIG d   1      -8.466  82.011 116.369  0.00  0.00    -0.241 OA
ENDBRANCH   3  22
TORSDOF 7
ENDMDL
