MODEL 1
REMARK VINA RESULT:      -5.3      0.000      0.000
REMARK  7 active torsions:
REMARK  status: ('A' for Active; 'I' for Inactive)
REMARK    1  A    between atoms: C_2  and  C_3 
REMARK    2  A    between atoms: C_3  and  O_6 
REMARK    3  A    between atoms: C_3  and  C_4 
REMARK    4  A    between atoms: C_7  and  O_6 
REMARK    5  A    between atoms: C_9  and  C_10 
REMARK    6  A    between atoms: N_15  and  C_14 
REMARK    7  A    between atoms: N_20  and  C_19 
REMARK       I    between atoms: C_22  and  N_20 
ROOT
ATOM      1  C   LIG d   1      -2.774  78.416 115.157  0.00  0.00     0.161 C 
ATOM      2  C   LIG d   1      -3.069  79.604 114.467  0.00  0.00     0.016 C 
ATOM      3  C   LIG d   1      -2.750  79.814 113.106  0.00  0.00     0.038 C 
ATOM      4  C   LIG d   1      -2.246  78.785 112.296  0.00  0.00     0.028 C 
ATOM      5  C   LIG d   1      -1.465  77.730 113.073  0.00  0.00    -0.047 C 
ATOM      6  C   LIG d   1      -2.325  77.243 114.261  0.00  0.00     0.091 C 
ENDROOT
BRANCH   1   7
ATOM      7  O   LIG d   1      -3.902  78.027 115.964  0.00  0.00    -0.368 OA
BRANCH   7   8
ATOM      8  C   LIG d   1      -4.242  78.916 117.057  0.00  0.00     0.119 C 
BRANCH   8   9
ATOM      9  C   LIG d   1      -3.434  78.465 118.289  0.00  0.00     0.028 C 
ATOM     10  C   LIG d   1      -3.592  76.962 118.576  0.00  0.00     0.006 C 
ENDBRANCH   8   9
BRANCH   8  11
ATOM     11  C   LIG d   1      -5.712  78.768 117.459  0.00  0.00     0.028 C 
ATOM     12  C   LIG d   1      -6.404  80.119 117.696  0.00  0.00     0.006 C 
ENDBRANCH   8  11
ENDBRANCH   7   8
ENDBRANCH   1   7
BRANCH   6  13
ATOM     13  N   LIG d   1      -1.602  76.271 115.122  0.00  0.00    -0.311 N 
ATOM     14  C   LIG d   1      -2.033  75.031 115.349  0.00  0.00     0.210 C 
ATOM     15  C   LIG d   1      -1.149  74.200 116.283  0.00  0.00     0.109 C 
ATOM     16  O   LIG d   1      -3.048  74.531 114.840  0.00  0.00    -0.276 OA
ATOM     17  H   LIG d   1      -0.753  76.584 115.550  0.00  0.00     0.149 HD
ENDBRANCH   6  13
BRANCH   5  18
ATOM     18  N   LIG d   1      -1.116  76.651 112.130  0.00  0.00     0.381 N 
ATOM     19  H   LIG d   1      -0.145  76.425 112.217  0.00  0.00    -0.090 HD
ATOM     20  H   LIG d   1      -1.282  76.971 111.192  0.00  0.00    -0.090 HD
ATOM     21  H   LIG d   1      -1.670  75.844 112.316  0.00  0.00    -0.090 HD
ENDBRANCH   5  18
BRANCH   3  22
ATOM     22  C   LIG d   1      -2.898  81.076 112.552  0.00  0.00     0.382 C 
ATOM     23  O   LIG d   1      -1.885  81.735 112.214  0.00  0.00    -0.241 OA
ATOM     24  O   LIG d   1      -4.029  81.582 112.426  0.00  0.00    -0.241 OA
ENDBRANCH   3  22
TORSDOF 7
ENDMDL
MODEL 2
REMARK VINA RESULT:      -5.1      1.719      2.227
REMARK  7 active torsions:
REMARK  status: ('A' for Active; 'I' for Inactive)
REMARK    1  A    between atoms: C_2  and  C_3 
REMARK    2  A    between atoms: C_3  and  O_6 
REMARK    3  A    between atoms: C_3  and  C_4 
REMARK    4  A    between atoms: C_7  and  O_6 
REMARK    5  A    between atoms: C_9  and  C_10 
REMARK    6  A    between atoms: N_15  and  C_14 
REMARK    7  A    between atoms: N_20  and  C_19 
REMARK       I    between atoms: C_22  and  N_20 
ROOT
ATOM      1  C   LIG d   1      -2.706  78.169 116.115  0.00  0.00     0.161 C 
ATOM      2  C   LIG d   1      -3.039  79.051 115.074  0.00  0.00     0.016 C 
ATOM      3  C   LIG d   1      -2.490  78.962 113.774  0.00  0.00     0.038 C 
ATOM      4  C   LIG d   1      -1.680  77.886 113.383  0.00  0.00     0.028 C 
ATOM      5  C   LIG d   1      -0.916  77.251 114.540  0.00  0.00    -0.047 C 
ATOM      6  C   LIG d   1      -1.909  76.922 115.677  0.00  0.00     0.091 C 
ENDROOT
BRANCH   1   7
ATOM      7  O   LIG d   1      -3.898  77.778 116.824  0.00  0.00    -0.368 OA
BRANCH   7   8
ATOM      8  C   LIG d   1      -5.119  77.737 116.045  0.00  0.00     0.119 C 
BRANCH   8   9
ATOM      9  C   LIG d   1      -6.243  78.333 116.914  0.00  0.00     0.028 C 
ATOM     10  C   LIG d   1      -5.899  79.738 117.436  0.00  0.00     0.006 C 
ENDBRANCH   8   9
BRANCH   8  11
ATOM     11  C   LIG d   1      -5.549  76.295 115.758  0.00  0.00     0.028 C 
ATOM     12  C   LIG d   1      -6.887  76.211 115.007  0.00  0.00     0.006 C 
ENDBRANCH   8  11
ENDBRANCH   7   8
ENDBRANCH   1   7
BRANCH   6  13
ATOM     13  N   LIG d   1      -1.231  76.376 116.882  0.00  0.00    -0.311 N 
ATOM     14  C   LIG d   1      -1.021  75.075 117.078  0.00  0.00     0.210 C 
ATOM     15  C   LIG d   1      -0.323  74.725 118.396  0.00  0.00     0.109 C 
ATOM     16  O   LIG d   1      -1.318  74.181 116.271  0.00  0.00    -0.276 OA
ATOM     17  H   LIG d   1      -0.929  77.034 117.573  0.00  0.00     0.149 HD
ENDBRANCH   6  13
BRANCH   5  18
ATOM     18  N   LIG d   1      -0.221  76.060 114.016  0.00  0.00     0.381 N 
ATOM     19  H   LIG d   1       0.483  76.339 113.362  0.00  0.00    -0.090 HD
ATOM     20  H   LIG d   1      -0.887  75.481 113.535  0.00  0.00    -0.090 HD
ATOM     21  H   LIG d   1       0.194  75.550 114.764  0.00  0.00    -0.090 HD
ENDBRANCH   5  18
BRANCH   3  22
ATOM     22  C   LIG d   1      -2.719  79.980 112.860  0.00  0.00     0.382 C 
ATOM     23  O   LIG d   1      -2.264  79.890 111.694  0.00  0.00    -0.241 OA
ATOM     24  O   LIG d   1      -3.337  81.006 113.200  0.00  0.00    -0.241 OA
ENDBRANCH   3  22
TORSDOF 7
ENDMDL
MODEL 3
REMARK VINA RESULT:      -4.9      2.548      5.012
REMARK  7 active torsions:
REMARK  status: ('A' for Active; 'I' for Inactive)
REMARK    1  A    between atoms: C_2  and  C_3 
REMARK    2  A    between atoms: C_3  and  O_6 
REMARK    3  A    between atoms: C_3  and  C_4 
REMARK    4  A    between atoms: C_7  and  O_6 
REMARK    5  A    between atoms: C_9  and  C_10 
REMARK    6  A    between atoms: N_15  and  C_14 
REMARK    7  A    between atoms: N_20  and  C_19 
REMARK       I    between atoms: C_22  and  N_20 
ROOT
ATOM      1  C   LIG d   1      -2.407  79.086 114.593  0.00  0.00     0.161 C 
ATOM      2  C   LIG d   1      -3.140  77.927 114.900  0.00  0.00     0.016 C 
ATOM      3  C   LIG d   1      -3.648  77.045 113.919  0.00  0.00     0.038 C 
ATOM      4  C   LIG d   1      -3.326  77.182 112.561  0.00  0.00     0.028 C 
ATOM      5  C   LIG d   1      -3.011  78.618 112.155  0.00  0.00    -0.047 C 
ATOM      6  C   LIG d   1      -1.951  79.192 113.123  0.00  0.00     0.091 C 
ENDROOT
BRANCH   1   7
ATOM      7  O   LIG d   1      -1.275  79.197 115.478  0.00  0.00    -0.368 OA
BRANCH   7   8
ATOM      8  C   LIG d   1      -1.253  78.283 116.603  0.00  0.00     0.119 C 
BRANCH   8   9
ATOM      9  C   LIG d   1      -1.293  79.131 117.889  0.00  0.00     0.028 C 
ATOM     10  C   LIG d   1      -2.714  79.262 118.462  0.00  0.00     0.006 C 
ENDBRANCH   8   9
BRANCH   8  11
ATOM     11  C   LIG d   1       0.068  77.510 116.667  0.00  0.00     0.028 C 
ATOM     12  C   LIG d   1       0.092  76.292 115.730  0.00  0.00     0.006 C 
ENDBRANCH   8  11
ENDBRANCH   7   8
ENDBRANCH   1   7
BRANCH   6  13
ATOM     13  N   LIG d   1      -1.647  80.620 112.848  0.00  0.00    -0.311 N 
ATOM     14  C   LIG d   1      -0.695  81.018 112.007  0.00  0.00     0.210 C 
ATOM     15  C   LIG d   1      -0.533  82.537 111.884  0.00  0.00     0.109 C 
ATOM     16  O   LIG d   1       0.010  80.259 111.325  0.00  0.00    -0.276 OA
ATOM     17  H   LIG d   1      -2.193  81.305 113.335  0.00  0.00     0.149 HD
ENDBRANCH   6  13
BRANCH   5  18
ATOM     18  N   LIG d   1      -2.559  78.595 110.751  0.00  0.00     0.381 N 
ATOM     19  H   LIG d   1      -1.561  78.657 110.715  0.00  0.00    -0.090 HD
ATOM     20  H   LIG d   1      -2.942  79.391 110.273  0.00  0.00    -0.090 HD
ATOM     21  H   LIG d   1      -2.862  77.755 110.309  0.00  0.00    -0.090 HD
ENDBRANCH   5  18
BRANCH   3  22
ATOM     22  C   LIG d   1      -4.522  76.034 114.290  0.00  0.00     0.382 C 
ATOM     23  O   LIG d   1      -4.995  75.264 113.420  0.00  0.00    -0.241 OA
ATOM     24  O   LIG d   1      -4.876  75.910 115.478  0.00  0.00    -0.241 OA
ENDBRANCH   3  22
TORSDOF 7
ENDMDL
MODEL 4
REMARK VINA RESULT:      -4.8      3.444      5.105
REMARK  7 active torsions:
REMARK  status: ('A' for Active; 'I' for Inactive)
REMARK    1  A    between atoms: C_2  and  C_3 
REMARK    2  A    between atoms: C_3  and  O_6 
REMARK    3  A    between atoms: C_3  and  C_4 
REMARK    4  A    between atoms: C_7  and  O_6 
REMARK    5  A    between atoms: C_9  and  C_10 
REMARK    6  A    between atoms: N_15  and  C_14 
REMARK    7  A    between atoms: N_20  and  C_19 
REMARK       I    between atoms: C_22  and  N_20 
ROOT
ATOM      1  C   LIG d   1      -5.223  77.562 116.613  0.00  0.00     0.161 C 
ATOM      2  C   LIG d   1      -6.140  78.598 116.855  0.00  0.00     0.016 C 
ATOM      3  C   LIG d   1      -5.893  79.661 117.754  0.00  0.00     0.038 C 
ATOM      4  C   LIG d   1      -4.641  79.842 118.362  0.00  0.00     0.028 C 
ATOM      5  C   LIG d   1      -3.860  78.544 118.537  0.00  0.00    -0.047 C 
ATOM      6  C   LIG d   1      -3.809  77.802 117.182  0.00  0.00     0.091 C 
ENDROOT
BRANCH   1   7
ATOM      7  O   LIG d   1      -5.154  77.292 115.199  0.00  0.00    -0.368 OA
BRANCH   7   8
ATOM      8  C   LIG d   1      -6.091  76.310 114.690  0.00  0.00     0.119 C 
BRANCH   8   9
ATOM      9  C   LIG d   1      -5.799  74.977 115.406  0.00  0.00     0.028 C 
ATOM     10  C   LIG d   1      -4.662  74.188 114.734  0.00  0.00     0.006 C 
ENDBRANCH   8   9
BRANCH   8  11
ATOM     11  C   LIG d   1      -5.856  76.033 113.203  0.00  0.00     0.028 C 
ATOM     12  C   LIG d   1      -6.976  76.586 112.309  0.00  0.00     0.006 C 
ENDBRANCH   8  11
ENDBRANCH   7   8
ENDBRANCH   1   7
BRANCH   6  13
ATOM     13  N   LIG d   1      -3.135  76.482 117.284  0.00  0.00    -0.311 N 
ATOM     14  C   LIG d   1      -2.035  76.166 116.602  0.00  0.00     0.210 C 
ATOM     15  C   LIG d   1      -1.514  74.745 116.838  0.00  0.00     0.109 C 
ATOM     16  O   LIG d   1      -1.424  76.938 115.849  0.00  0.00    -0.276 OA
ATOM     17  H   LIG d   1      -3.546  75.805 117.897  0.00  0.00     0.149 HD
ENDBRANCH   6  13
BRANCH   5  18
ATOM     18  N   LIG d   1      -2.523  78.895 119.054  0.00  0.00     0.381 N 
ATOM     19  H   LIG d   1      -2.019  79.415 118.364  0.00  0.00    -0.090 HD
ATOM     20  H   LIG d   1      -2.016  78.049 119.246  0.00  0.00    -0.090 HD
ATOM     21  H   LIG d   1      -2.611  79.434 119.888  0.00  0.00    -0.090 HD
ENDBRANCH   5  18
BRANCH   3  22
ATOM     22  C   LIG d   1      -6.918  80.535 118.084  0.00  0.00     0.382 C 
ATOM     23  O   LIG d   1      -7.491  80.438 119.196  0.00  0.00    -0.241 OA
ATOM     24  O   LIG d   1      -7.306  81.389 117.266  0.00  0.00    -0.241 OA
ENDBRANCH   3  22
TORSDOF 7
ENDMDL
MODEL 5
REMARK VINA RESULT:      -4.8      2.328      3.182
REMARK  7 active torsions:
REMARK  status: ('A' for Active; 'I' for Inactive)
REMARK    1  A    between atoms: C_2  and  C_3 
REMARK    2  A    between atoms: C_3  and  O_6 
REMARK    3  A    between atoms: C_3  and  C_4 
REMARK    4  A    between atoms: C_7  and  O_6 
REMARK    5  A    between atoms: C_9  and  C_10 
REMARK    6  A    between atoms: N_15  and  C_14 
REMARK    7  A    between atoms: N_20  and  C_19 
REMARK       I    between atoms: C_22  and  N_20 
ROOT
ATOM      1  C   LIG d   1      -3.209  77.186 115.235  0.00  0.00     0.161 C 
ATOM      2  C   LIG d   1      -3.344  78.354 114.467  0.00  0.00     0.016 C 
ATOM      3  C   LIG d   1      -2.510  78.664 113.368  0.00  0.00     0.038 C 
ATOM      4  C   LIG d   1      -1.574  77.747 112.866  0.00  0.00     0.028 C 
ATOM      5  C   LIG d   1      -1.059  76.771 113.918  0.00  0.00    -0.047 C 
ATOM      6  C   LIG d   1      -2.265  76.123 114.635  0.00  0.00     0.091 C 
ENDROOT
BRANCH   1   7
ATOM      7  O   LIG d   1      -4.507  76.616 115.492  0.00  0.00    -0.368 OA
BRANCH   7   8
ATOM      8  C   LIG d   1      -5.064  75.797 114.434  0.00  0.00     0.119 C 
BRANCH   8   9
ATOM      9  C   LIG d   1      -6.449  76.374 114.083  0.00  0.00     0.028 C 
ATOM     10  C   LIG d   1      -6.664  76.502 112.565  0.00  0.00     0.006 C 
ENDBRANCH   8   9
BRANCH   8  11
ATOM     11  C   LIG d   1      -5.330  74.369 114.917  0.00  0.00     0.028 C 
ATOM     12  C   LIG d   1      -5.037  74.181 116.414  0.00  0.00     0.006 C 
ENDBRANCH   8  11
ENDBRANCH   7   8
ENDBRANCH   1   7
BRANCH   6  13
ATOM     13  N   LIG d   1      -1.850  75.216 115.737  0.00  0.00    -0.311 N 
ATOM     14  C   LIG d   1      -1.074  75.601 116.749  0.00  0.00     0.210 C 
ATOM     15  C   LIG d   1      -0.749  74.503 117.767  0.00  0.00     0.109 C 
ATOM     16  O   LIG d   1      -0.651  76.754 116.917  0.00  0.00    -0.276 OA
ATOM     17  H   LIG d   1      -2.174  74.270 115.696  0.00  0.00     0.149 HD
ENDBRANCH   6  13
BRANCH   5  18
ATOM     18  N   LIG d   1      -0.199  75.789 113.231  0.00  0.00     0.381 N 
ATOM     19  H   LIG d   1       0.233  75.188 113.904  0.00  0.00    -0.090 HD
ATOM     20  H   LIG d   1       0.525  76.280 112.737  0.00  0.00    -0.090 HD
ATOM     21  H   LIG d   1      -0.740  75.250 112.592  0.00  0.00    -0.090 HD
ENDBRANCH   5  18
BRANCH   3  22
ATOM     22  C   LIG d   1      -2.582  79.919 112.783  0.00  0.00     0.382 C 
ATOM     23  O   LIG d   1      -1.919  80.167 111.747  0.00  0.00    -0.241 OA
ATOM     24  O   LIG d   1      -3.265  80.821 113.304  0.00  0.00    -0.241 OA
ENDBRANCH   3  22
TORSDOF 7
ENDMDL
MODEL 6
REMARK VINA RESULT:      -4.5      3.125      5.580
REMARK  7 active torsions:
REMARK  status: ('A' for Active; 'I' for Inactive)
REMARK    1  A    between atoms: C_2  and  C_3 
REMARK    2  A    between atoms: C_3  and  O_6 
REMARK    3  A    between atoms: C_3  and  C_4 
REMARK    4  A    between atoms: C_7  and  O_6 
REMARK    5  A    between atoms: C_9  and  C_10 
REMARK    6  A    between atoms: N_15  and  C_14 
REMARK    7  A    between atoms: N_20  and  C_19 
REMARK       I    between atoms: C_22  and  N_20 
ROOT
ATOM      1  C   LIG d   1      -2.909  74.849 115.567  0.00  0.00     0.161 C 
ATOM      2  C   LIG d   1      -4.117  75.258 114.978  0.00  0.00     0.016 C 
ATOM      3  C   LIG d   1      -4.963  76.242 115.540  0.00  0.00     0.038 C 
ATOM      4  C   LIG d   1      -4.580  76.997 116.658  0.00  0.00     0.028 C 
ATOM      5  C   LIG d   1      -3.601  76.270 117.574  0.00  0.00    -0.047 C 
ATOM      6  C   LIG d   1      -2.421  75.741 116.728  0.00  0.00     0.091 C 
ENDROOT
BRANCH   1   7
ATOM      7  O   LIG d   1      -1.886  74.738 114.557  0.00  0.00    -0.368 OA
BRANCH   7   8
ATOM      8  C   LIG d   1      -0.926  75.821 114.500  0.00  0.00     0.119 C 
BRANCH   8   9
ATOM      9  C   LIG d   1      -1.263  76.674 113.261  0.00  0.00     0.028 C 
ATOM     10  C   LIG d   1      -1.743  78.086 113.633  0.00  0.00     0.006 C 
ENDBRANCH   8   9
BRANCH   8  11
ATOM     11  C   LIG d   1       0.492  75.297 114.259  0.00  0.00     0.028 C 
ATOM     12  C   LIG d   1       0.588  74.384 113.026  0.00  0.00     0.006 C 
ENDBRANCH   8  11
ENDBRANCH   7   8
ENDBRANCH   1   7
BRANCH   6  13
ATOM     13  N   LIG d   1      -1.459  74.944 117.533  0.00  0.00    -0.311 N 
ATOM     14  C   LIG d   1      -0.387  75.468 118.125  0.00  0.00     0.210 C 
ATOM     15  C   LIG d   1       0.484  74.467 118.890  0.00  0.00     0.109 C 
ATOM     16  O   LIG d   1      -0.093  76.673 118.116  0.00  0.00    -0.276 OA
ATOM     17  H   LIG d   1      -1.639  73.962 117.619  0.00  0.00     0.149 HD
ENDBRANCH   6  13
BRANCH   5  18
ATOM     18  N   LIG d   1      -3.181  77.220 118.622  0.00  0.00     0.381 N 
ATOM     19  H   LIG d   1      -3.983  77.553 119.119  0.00  0.00    -0.090 HD
ATOM     20  H   LIG d   1      -2.732  78.006 118.186  0.00  0.00    -0.090 HD
ATOM     21  H   LIG d   1      -2.551  76.776 119.252  0.00  0.00    -0.090 HD
ENDBRANCH   5  18
BRANCH   3  22
ATOM     22  C   LIG d   1      -6.224  76.451 115.004  0.00  0.00     0.382 C 
ATOM     23  O   LIG d   1      -6.351  76.727 113.787  0.00  0.00    -0.241 OA
ATOM     24  O   LIG d   1      -7.234  76.411 115.732  0.00  0.00    -0.241 OA
ENDBRANCH   3  22
TORSDOF 7
ENDMDL
MODEL 7
REMARK VINA RESULT:      -4.5      2.863      5.921
REMARK  7 active torsions:
REMARK  status: ('A' for Active; 'I' for Inactive)
REMARK    1  A    between atoms: C_2  and  C_3 
REMARK    2  A    between atoms: C_3  and  O_6 
REMARK    3  A    between atoms: C_3  and  C_4 
REMARK    4  A    between atoms: C_7  and  O_6 
REMARK    5  A    between atoms: C_9  and  C_10 
REMARK    6  A    between atoms: N_15  and  C_14 
REMARK    7  A    between atoms: N_20  and  C_19 
REMARK       I    between atoms: C_22  and  N_20 
ROOT
ATOM      1  C   LIG d   1      -3.338  77.877 115.815  0.00  0.00     0.161 C 
ATOM      2  C   LIG d   1      -2.273  76.987 115.593  0.00  0.00     0.016 C 
ATOM      3  C   LIG d   1      -1.742  76.144 116.596  0.00  0.00     0.038 C 
ATOM      4  C   LIG d   1      -2.343  76.023 117.858  0.00  0.00     0.028 C 
ATOM      5  C   LIG d   1      -3.107  77.271 118.286  0.00  0.00    -0.047 C 
ATOM      6  C   LIG d   1      -4.077  77.679 117.154  0.00  0.00     0.091 C 
ENDROOT
BRANCH   1   7
ATOM      7  O   LIG d   1      -4.267  77.812 114.715  0.00  0.00    -0.368 OA
BRANCH   7   8
ATOM      8  C   LIG d   1      -4.016  76.780 113.729  0.00  0.00     0.119 C 
BRANCH   8   9
ATOM      9  C   LIG d   1      -3.960  77.462 112.349  0.00  0.00     0.028 C 
ATOM     10  C   LIG d   1      -2.583  78.080 112.055  0.00  0.00     0.006 C 
ENDBRANCH   8   9
BRANCH   8  11
ATOM     11  C   LIG d   1      -5.183  75.792 113.647  0.00  0.00     0.028 C 
ATOM     12  C   LIG d   1      -4.962  74.535 114.503  0.00  0.00     0.006 C 
ENDBRANCH   8  11
ENDBRANCH   7   8
ENDBRANCH   1   7
BRANCH   6  13
ATOM     13  N   LIG d   1      -4.804  78.939 117.457  0.00  0.00    -0.311 N 
ATOM     14  C   LIG d   1      -6.130  79.052 117.405  0.00  0.00     0.210 C 
ATOM     15  C   LIG d   1      -6.675  80.445 117.735  0.00  0.00     0.109 C 
ATOM     16  O   LIG d   1      -6.909  78.122 117.147  0.00  0.00    -0.276 OA
ATOM     17  H   LIG d   1      -4.252  79.736 117.706  0.00  0.00     0.149 HD
ENDBRANCH   6  13
BRANCH   5  18
ATOM     18  N   LIG d   1      -3.795  76.959 119.553  0.00  0.00     0.381 N 
ATOM     19  H   LIG d   1      -3.149  77.021 120.314  0.00  0.00    -0.090 HD
ATOM     20  H   LIG d   1      -4.143  76.017 119.511  0.00  0.00    -0.090 HD
ATOM     21  H   LIG d   1      -4.550  77.593 119.697  0.00  0.00    -0.090 HD
ENDBRANCH   5  18
BRANCH   3  22
ATOM     22  C   LIG d   1      -0.573  75.439 116.352  0.00  0.00     0.382 C 
ATOM     23  O   LIG d   1      -0.259  74.473 117.088  0.00  0.00    -0.241 OA
ATOM     24  O   LIG d   1       0.194  75.785 115.434  0.00  0.00    -0.241 OA
ENDBRANCH   3  22
TORSDOF 7
ENDMDL
MODEL 8
REMARK VINA RESULT:      -4.3      2.720      5.640
REMARK  7 active torsions:
REMARK  status: ('A' for Active; 'I' for Inactive)
REMARK    1  A    between atoms: C_2  and  C_3 
REMARK    2  A    between atoms: C_3  and  O_6 
REMARK    3  A    between atoms: C_3  and  C_4 
REMARK    4  A    between atoms: C_7  and  O_6 
REMARK    5  A    between atoms: C_9  and  C_10 
REMARK    6  A    between atoms: N_15  and  C_14 
REMARK    7  A    between atoms: N_20  and  C_19 
REMARK       I    between atoms: C_22  and  N_20 
ROOT
ATOM      1  C   LIG d   1      -1.441  75.623 115.096  0.00  0.00     0.161 C 
ATOM      2  C   LIG d   1      -1.013  74.969 116.264  0.00  0.00     0.016 C 
ATOM      3  C   LIG d   1      -0.324  75.621 117.312  0.00  0.00     0.038 C 
ATOM      4  C   LIG d   1      -0.148  77.013 117.331  0.00  0.00     0.028 C 
ATOM      5  C   LIG d   1      -0.117  77.638 115.941  0.00  0.00    -0.047 C 
ATOM      6  C   LIG d   1      -1.357  77.162 115.149  0.00  0.00     0.091 C 
ENDROOT
BRANCH   1   7
ATOM      7  O   LIG d   1      -2.781  75.205 114.766  0.00  0.00    -0.368 OA
BRANCH   7   8
ATOM      8  C   LIG d   1      -3.683  75.017 115.884  0.00  0.00     0.119 C 
BRANCH   8   9
ATOM      9  C   LIG d   1      -4.910  74.243 115.363  0.00  0.00     0.028 C 
ATOM     10  C   LIG d   1      -5.995  75.175 114.798  0.00  0.00     0.006 C 
ENDBRANCH   8   9
BRANCH   8  11
ATOM     11  C   LIG d   1      -4.232  76.355 116.388  0.00  0.00     0.028 C 
ATOM     12  C   LIG d   1      -3.870  76.632 117.856  0.00  0.00     0.006 C 
ENDBRANCH   8  11
ENDBRANCH   7   8
ENDBRANCH   1   7
BRANCH   6  13
ATOM     13  N   LIG d   1      -1.360  77.661 113.749  0.00  0.00    -0.311 N 
ATOM     14  C   LIG d   1      -2.056  78.725 113.351  0.00  0.00     0.210 C 
ATOM     15  C   LIG d   1      -1.936  79.056 111.861  0.00  0.00     0.109 C 
ATOM     16  O   LIG d   1      -2.735  79.445 114.098  0.00  0.00    -0.276 OA
ATOM     17  H   LIG d   1      -0.811  77.154 113.083  0.00  0.00     0.149 HD
ENDBRANCH   6  13
BRANCH   5  18
ATOM     18  N   LIG d   1      -0.068  79.103 116.112  0.00  0.00     0.381 N 
ATOM     19  H   LIG d   1       0.829  79.446 115.833  0.00  0.00    -0.090 HD
ATOM     20  H   LIG d   1      -0.201  79.321 117.084  0.00  0.00    -0.090 HD
ATOM     21  H   LIG d   1      -0.781  79.534 115.566  0.00  0.00    -0.090 HD
ENDBRANCH   5  18
BRANCH   3  22
ATOM     22  C   LIG d   1       0.233  74.873 118.338  0.00  0.00     0.382 C 
ATOM     23  O   LIG d   1       1.440  74.535 118.284  0.00  0.00    -0.241 OA
ATOM     24  O   LIG d   1      -0.468  74.494 119.296  0.00  0.00    -0.241 OA
ENDBRANCH   3  22
TORSDOF 7
ENDMDL
MODEL 9
REMARK VINA RESULT:      -4.3      1.919      2.599
REMARK  7 active torsions:
REMARK  status: ('A' for Active; 'I' for Inactive)
REMARK    1  A    between atoms: C_2  and  C_3 
REMARK    2  A    between atoms: C_3  and  O_6 
REMARK    3  A    between atoms: C_3  and  C_4 
REMARK    4  A    between atoms: C_7  and  O_6 
REMARK    5  A    between atoms: C_9  and  C_10 
REMARK    6  A    between atoms: N_15  and  C_14 
REMARK    7  A    between atoms: N_20  and  C_19 
REMARK       I    between atoms: C_22  and  N_20 
ROOT
ATOM      1  C   LIG d   1      -2.024  78.470 115.701  0.00  0.00     0.161 C 
ATOM      2  C   LIG d   1      -2.678  78.862 114.521  0.00  0.00     0.016 C 
ATOM      3  C   LIG d   1      -2.593  78.140 113.308  0.00  0.00     0.038 C 
ATOM      4  C   LIG d   1      -1.966  76.887 113.233  0.00  0.00     0.028 C 
ATOM      5  C   LIG d   1      -0.865  76.698 114.271  0.00  0.00    -0.047 C 
ATOM      6  C   LIG d   1      -1.427  77.047 115.668  0.00  0.00     0.091 C 
ENDROOT
BRANCH   1   7
ATOM      7  O   LIG d   1      -2.917  78.613 116.825  0.00  0.00    -0.368 OA
BRANCH   7   8
ATOM      8  C   LIG d   1      -3.833  77.514 117.054  0.00  0.00     0.119 C 
BRANCH   8   9
ATOM      9  C   LIG d   1      -5.264  78.076 116.949  0.00  0.00     0.028 C 
ATOM     10  C   LIG d   1      -5.323  79.587 117.229  0.00  0.00     0.006 C 
ENDBRANCH   8   9
BRANCH   8  11
ATOM     11  C   LIG d   1      -3.712  76.977 118.483  0.00  0.00     0.028 C 
ATOM     12  C   LIG d   1      -2.788  77.831 119.364  0.00  0.00     0.006 C 
ENDBRANCH   8  11
ENDBRANCH   7   8
ENDBRANCH   1   7
BRANCH   6  13
ATOM     13  N   LIG d   1      -0.392  76.970 116.732  0.00  0.00    -0.311 N 
ATOM     14  C   LIG d   1      -0.213  75.899 117.504  0.00  0.00     0.210 C 
ATOM     15  C   LIG d   1       0.896  76.035 118.551  0.00  0.00     0.109 C 
ATOM     16  O   LIG d   1      -0.846  74.838 117.399  0.00  0.00    -0.276 OA
ATOM     17  H   LIG d   1       0.187  77.775 116.864  0.00  0.00     0.149 HD
ENDBRANCH   6  13
BRANCH   5  18
ATOM     18  N   LIG d   1      -0.393  75.304 114.171  0.00  0.00     0.381 N 
ATOM     19  H   LIG d   1      -1.174  74.679 114.194  0.00  0.00    -0.090 HD
ATOM     20  H   LIG d   1       0.196  75.103 114.959  0.00  0.00    -0.090 HD
ATOM     21  H   LIG d   1       0.118  75.177 113.324  0.00  0.00    -0.090 HD
ENDBRANCH   5  18
BRANCH   3  22
ATOM     22  C   LIG d   1      -3.105  78.691 112.144  0.00  0.00     0.382 C 
ATOM     23  O   LIG d   1      -3.235  79.935 112.043  0.00  0.00    -0.241 OA
ATOM     24  O   LIG d   1      -3.480  77.958 111.209  0.00  0.00    -0.241 OA
ENDBRANCH   3  22
TORSDOF 7
ENDMDL
