MODEL 1
REMARK VINA RESULT:      -5.1      0.000      0.000
REMARK  7 active torsions:
REMARK  status: ('A' for Active; 'I' for Inactive)
REMARK    1  A    between atoms: C_2  and  C_3 
REMARK    2  A    between atoms: C_3  and  O_6 
REMARK    3  A    between atoms: C_3  and  C_4 
REMARK    4  A    between atoms: C_7  and  O_6 
REMARK    5  A    between atoms: C_9  and  C_10 
REMARK    6  A    between atoms: N_15  and  C_14 
REMARK    7  A    between atoms: N_20  and  C_19 
REMARK       I    between atoms: C_22  and  N_20 
ROOT
ATOM      1  C   LIG d   1      -2.423  80.183 115.211  0.00  0.00     0.161 C 
ATOM      2  C   LIG d   1      -1.992  81.365 114.586  0.00  0.00     0.016 C 
ATOM      3  C   LIG d   1      -1.328  81.388 113.338  0.00  0.00     0.038 C 
ATOM      4  C   LIG d   1      -1.185  80.234 112.553  0.00  0.00     0.028 C 
ATOM      5  C   LIG d   1      -1.154  78.946 113.369  0.00  0.00    -0.047 C 
ATOM      6  C   LIG d   1      -2.374  78.925 114.318  0.00  0.00     0.091 C 
ENDROOT
BRANCH   1   7
ATOM      7  O   LIG d   1      -3.749  80.368 115.744  0.00  0.00    -0.368 OA
BRANCH   7   8
ATOM      8  C   LIG d   1      -3.842  81.132 116.972  0.00  0.00     0.119 C 
BRANCH   8   9
ATOM      9  C   LIG d   1      -2.740  80.620 117.920  0.00  0.00     0.028 C 
ATOM     10  C   LIG d   1      -1.947  81.766 118.571  0.00  0.00     0.006 C 
ENDBRANCH   8   9
BRANCH   8  11
ATOM     11  C   LIG d   1      -5.161  80.859 117.699  0.00  0.00     0.028 C 
ATOM     12  C   LIG d   1      -6.097  82.078 117.713  0.00  0.00     0.006 C 
ENDBRANCH   8  11
ENDBRANCH   7   8
ENDBRANCH   1   7
BRANCH   6  13
ATOM     13  N   LIG d   1      -2.375  77.738 115.213  0.00  0.00    -0.311 N 
ATOM     14  C   LIG d   1      -2.927  76.572 114.883  0.00  0.00     0.210 C 
ATOM     15  C   LIG d   1      -2.835  75.485 115.959  0.00  0.00     0.109 C 
ATOM     16  O   LIG d   1      -3.456  76.324 113.789  0.00  0.00    -0.276 OA
ATOM     17  H   LIG d   1      -1.940  77.842 116.109  0.00  0.00     0.149 HD
ENDBRANCH   6  13
BRANCH   5  18
ATOM     18  N   LIG d   1      -1.140  77.817 112.420  0.00  0.00     0.381 N 
ATOM     19  H   LIG d   1      -0.547  78.034 111.644  0.00  0.00    -0.090 HD
ATOM     20  H   LIG d   1      -2.072  77.672 112.074  0.00  0.00    -0.090 HD
ATOM     21  H   LIG d   1      -0.815  76.993 112.876  0.00  0.00    -0.090 HD
ENDBRANCH   5  18
BRANCH   3  22
ATOM     22  C   LIG d   1      -0.765  82.570 112.881  0.00  0.00     0.382 C 
ATOM     23  O   LIG d   1      -1.243  83.143 111.873  0.00  0.00    -0.241 OA
ATOM     24  O   LIG d   1       0.243  83.045 113.438  0.00  0.00    -0.241 OA
ENDBRANCH   3  22
TORSDOF 7
ENDMDL
MODEL 2
REMARK VINA RESULT:      -5.0      1.561      1.890
REMARK  7 active torsions:
REMARK  status: ('A' for Active; 'I' for Inactive)
REMARK    1  A    between atoms: C_2  and  C_3 
REMARK    2  A    between atoms: C_3  and  O_6 
REMARK    3  A    between atoms: C_3  and  C_4 
REMARK    4  A    between atoms: C_7  and  O_6 
REMARK    5  A    between atoms: C_9  and  C_10 
REMARK    6  A    between atoms: N_15  and  C_14 
REMARK    7  A    between atoms: N_20  and  C_19 
REMARK       I    between atoms: C_22  and  N_20 
ROOT
ATOM      1  C   LIG d   1      -0.190  79.931 115.116  0.00  0.00     0.161 C 
ATOM      2  C   LIG d   1      -0.152  81.225 114.571  0.00  0.00     0.016 C 
ATOM      3  C   LIG d   1      -0.737  81.563 113.329  0.00  0.00     0.038 C 
ATOM      4  C   LIG d   1      -1.534  80.657 112.613  0.00  0.00     0.028 C 
ATOM      5  C   LIG d   1      -1.179  79.198 112.877  0.00  0.00    -0.047 C 
ATOM      6  C   LIG d   1      -1.151  78.956 114.403  0.00  0.00     0.091 C 
ENDROOT
BRANCH   1   7
ATOM      7  O   LIG d   1      -0.500  80.002 116.522  0.00  0.00    -0.368 OA
BRANCH   7   8
ATOM      8  C   LIG d   1      -1.100  81.238 116.981  0.00  0.00     0.119 C 
BRANCH   8   9
ATOM      9  C   LIG d   1      -0.280  81.731 118.188  0.00  0.00     0.028 C 
ATOM     10  C   LIG d   1      -0.170  83.264 118.236  0.00  0.00     0.006 C 
ENDBRANCH   8   9
BRANCH   8  11
ATOM     11  C   LIG d   1      -2.515  81.004 117.520  0.00  0.00     0.028 C 
ATOM     12  C   LIG d   1      -3.568  80.902 116.406  0.00  0.00     0.006 C 
ENDBRANCH   8  11
ENDBRANCH   7   8
ENDBRANCH   1   7
BRANCH   6  13
ATOM     13  N   LIG d   1      -0.729  77.574 114.751  0.00  0.00    -0.311 N 
ATOM     14  C   LIG d   1      -1.585  76.569 114.926  0.00  0.00     0.210 C 
ATOM     15  C   LIG d   1      -0.941  75.229 115.299  0.00  0.00     0.109 C 
ATOM     16  O   LIG d   1      -2.813  76.651 114.777  0.00  0.00    -0.276 OA
ATOM     17  H   LIG d   1       0.253  77.411 114.861  0.00  0.00     0.149 HD
ENDBRANCH   6  13
BRANCH   5  18
ATOM     18  N   LIG d   1      -2.174  78.363 112.178  0.00  0.00     0.381 N 
ATOM     19  H   LIG d   1      -3.002  78.285 112.734  0.00  0.00    -0.090 HD
ATOM     20  H   LIG d   1      -1.793  77.443 112.048  0.00  0.00    -0.090 HD
ATOM     21  H   LIG d   1      -2.397  78.766 111.294  0.00  0.00    -0.090 HD
ENDBRANCH   5  18
BRANCH   3  22
ATOM     22  C   LIG d   1      -0.492  82.808 112.770  0.00  0.00     0.382 C 
ATOM     23  O   LIG d   1      -1.221  83.234 111.843  0.00  0.00    -0.241 OA
ATOM     24  O   LIG d   1       0.477  83.492 113.152  0.00  0.00    -0.241 OA
ENDBRANCH   3  22
TORSDOF 7
ENDMDL
MODEL 3
REMARK VINA RESULT:      -4.7      2.646      3.999
REMARK  7 active torsions:
REMARK  status: ('A' for Active; 'I' for Inactive)
REMARK    1  A    between atoms: C_2  and  C_3 
REMARK    2  A    between atoms: C_3  and  O_6 
REMARK    3  A    between atoms: C_3  and  C_4 
REMARK    4  A    between atoms: C_7  and  O_6 
REMARK    5  A    between atoms: C_9  and  C_10 
REMARK    6  A    between atoms: N_15  and  C_14 
REMARK    7  A    between atoms: N_20  and  C_19 
REMARK       I    between atoms: C_22  and  N_20 
ROOT
ATOM      1  C   LIG d   1      -2.266  78.453 115.027  0.00  0.00     0.161 C 
ATOM      2  C   LIG d   1      -2.585  79.493 114.138  0.00  0.00     0.016 C 
ATOM      3  C   LIG d   1      -1.754  80.616 113.923  0.00  0.00     0.038 C 
ATOM      4  C   LIG d   1      -0.467  80.703 114.475  0.00  0.00     0.028 C 
ATOM      5  C   LIG d   1      -0.312  79.921 115.774  0.00  0.00    -0.047 C 
ATOM      6  C   LIG d   1      -0.815  78.476 115.554  0.00  0.00     0.091 C 
ENDROOT
BRANCH   1   7
ATOM      7  O   LIG d   1      -2.557  77.181 114.417  0.00  0.00    -0.368 OA
BRANCH   7   8
ATOM      8  C   LIG d   1      -3.493  76.333 115.127  0.00  0.00     0.119 C 
BRANCH   8   9
ATOM      9  C   LIG d   1      -4.555  75.865 114.113  0.00  0.00     0.028 C 
ATOM     10  C   LIG d   1      -4.560  74.338 113.930  0.00  0.00     0.006 C 
ENDBRANCH   8   9
BRANCH   8  11
ATOM     11  C   LIG d   1      -4.265  77.122 116.188  0.00  0.00     0.028 C 
ATOM     12  C   LIG d   1      -5.761  76.772 116.220  0.00  0.00     0.006 C 
ENDBRANCH   8  11
ENDBRANCH   7   8
ENDBRANCH   1   7
BRANCH   6  13
ATOM     13  N   LIG d   1      -0.777  77.666 116.800  0.00  0.00    -0.311 N 
ATOM     14  C   LIG d   1      -0.315  76.418 116.848  0.00  0.00     0.210 C 
ATOM     15  C   LIG d   1      -0.384  75.756 118.228  0.00  0.00     0.109 C 
ATOM     16  O   LIG d   1       0.174  75.807 115.886  0.00  0.00    -0.276 OA
ATOM     17  H   LIG d   1      -1.126  78.096 117.634  0.00  0.00     0.149 HD
ENDBRANCH   6  13
BRANCH   5  18
ATOM     18  N   LIG d   1       1.109  79.984 116.165  0.00  0.00     0.381 N 
ATOM     19  H   LIG d   1       1.465  79.059 116.302  0.00  0.00    -0.090 HD
ATOM     20  H   LIG d   1       1.186  80.483 117.034  0.00  0.00    -0.090 HD
ATOM     21  H   LIG d   1       1.637  80.449 115.460  0.00  0.00    -0.090 HD
ENDBRANCH   5  18
BRANCH   3  22
ATOM     22  C   LIG d   1      -2.226  81.688 113.180  0.00  0.00     0.382 C 
ATOM     23  O   LIG d   1      -3.435  82.015 113.249  0.00  0.00    -0.241 OA
ATOM     24  O   LIG d   1      -1.467  82.303 112.407  0.00  0.00    -0.241 OA
ENDBRANCH   3  22
TORSDOF 7
ENDMDL
MODEL 4
REMARK VINA RESULT:      -4.7      2.523      5.031
REMARK  7 active torsions:
REMARK  status: ('A' for Active; 'I' for Inactive)
REMARK    1  A    between atoms: C_2  and  C_3 
REMARK    2  A    between atoms: C_3  and  O_6 
REMARK    3  A    between atoms: C_3  and  C_4 
REMARK    4  A    between atoms: C_7  and  O_6 
REMARK    5  A    between atoms: C_9  and  C_10 
REMARK    6  A    between atoms: N_15  and  C_14 
REMARK    7  A    between atoms: N_20  and  C_19 
REMARK       I    between atoms: C_22  and  N_20 
ROOT
ATOM      1  C   LIG d   1      -2.759  77.978 115.401  0.00  0.00     0.161 C 
ATOM      2  C   LIG d   1      -2.484  78.786 114.284  0.00  0.00     0.016 C 
ATOM      3  C   LIG d   1      -2.531  80.199 114.315  0.00  0.00     0.038 C 
ATOM      4  C   LIG d   1      -2.709  80.908 115.512  0.00  0.00     0.028 C 
ATOM      5  C   LIG d   1      -3.490  80.131 116.567  0.00  0.00    -0.047 C 
ATOM      6  C   LIG d   1      -2.846  78.737 116.741  0.00  0.00     0.091 C 
ENDROOT
BRANCH   1   7
ATOM      7  O   LIG d   1      -1.787  76.918 115.487  0.00  0.00    -0.368 OA
BRANCH   7   8
ATOM      8  C   LIG d   1      -2.125  75.686 114.804  0.00  0.00     0.119 C 
BRANCH   8   9
ATOM      9  C   LIG d   1      -3.494  75.221 115.338  0.00  0.00     0.028 C 
ATOM     10  C   LIG d   1      -4.454  74.807 114.210  0.00  0.00     0.006 C 
ENDBRANCH   8   9
BRANCH   8  11
ATOM     11  C   LIG d   1      -1.148  74.563 115.163  0.00  0.00     0.028 C 
ATOM     12  C   LIG d   1       0.249  75.085 115.536  0.00  0.00     0.006 C 
ENDBRANCH   8  11
ENDBRANCH   7   8
ENDBRANCH   1   7
BRANCH   6  13
ATOM     13  N   LIG d   1      -3.599  77.881 117.695  0.00  0.00    -0.311 N 
ATOM     14  C   LIG d   1      -3.016  77.166 118.655  0.00  0.00     0.210 C 
ATOM     15  C   LIG d   1      -3.975  76.336 119.515  0.00  0.00     0.109 C 
ATOM     16  O   LIG d   1      -1.800  77.165 118.898  0.00  0.00    -0.276 OA
ATOM     17  H   LIG d   1      -4.594  77.847 117.589  0.00  0.00     0.149 HD
ENDBRANCH   6  13
BRANCH   5  18
ATOM     18  N   LIG d   1      -3.482  80.931 117.806  0.00  0.00     0.381 N 
ATOM     19  H   LIG d   1      -3.306  80.337 118.591  0.00  0.00    -0.090 HD
ATOM     20  H   LIG d   1      -4.386  81.354 117.926  0.00  0.00    -0.090 HD
ATOM     21  H   LIG d   1      -2.782  81.638 117.751  0.00  0.00    -0.090 HD
ENDBRANCH   5  18
BRANCH   3  22
ATOM     22  C   LIG d   1      -2.438  80.915 113.132  0.00  0.00     0.382 C 
ATOM     23  O   LIG d   1      -1.582  80.597 112.272  0.00  0.00    -0.241 OA
ATOM     24  O   LIG d   1      -3.170  81.903 112.932  0.00  0.00    -0.241 OA
ENDBRANCH   3  22
TORSDOF 7
ENDMDL
MODEL 5
REMARK VINA RESULT:      -4.7      1.717      2.446
REMARK  7 active torsions:
REMARK  status: ('A' for Active; 'I' for Inactive)
REMARK    1  A    between atoms: C_2  and  C_3 
REMARK    2  A    between atoms: C_3  and  O_6 
REMARK    3  A    between atoms: C_3  and  C_4 
REMARK    4  A    between atoms: C_7  and  O_6 
REMARK    5  A    between atoms: C_9  and  C_10 
REMARK    6  A    between atoms: N_15  and  C_14 
REMARK    7  A    between atoms: N_20  and  C_19 
REMARK       I    between atoms: C_22  and  N_20 
ROOT
ATOM      1  C   LIG d   1      -2.833  79.846 116.163  0.00  0.00     0.161 C 
ATOM      2  C   LIG d   1      -2.717  80.651 115.018  0.00  0.00     0.016 C 
ATOM      3  C   LIG d   1      -1.984  80.270 113.870  0.00  0.00     0.038 C 
ATOM      4  C   LIG d   1      -1.438  78.986 113.732  0.00  0.00     0.028 C 
ATOM      5  C   LIG d   1      -1.099  78.325 115.064  0.00  0.00    -0.047 C 
ATOM      6  C   LIG d   1      -2.337  78.396 115.988  0.00  0.00     0.091 C 
ENDROOT
BRANCH   1   7
ATOM      7  O   LIG d   1      -4.196  79.856 116.632  0.00  0.00    -0.368 OA
BRANCH   7   8
ATOM      8  C   LIG d   1      -4.441  80.582 117.862  0.00  0.00     0.119 C 
BRANCH   8   9
ATOM      9  C   LIG d   1      -5.225  81.858 117.498  0.00  0.00     0.028 C 
ATOM     10  C   LIG d   1      -6.704  81.777 117.914  0.00  0.00     0.006 C 
ENDBRANCH   8   9
BRANCH   8  11
ATOM     11  C   LIG d   1      -3.134  81.075 118.489  0.00  0.00     0.028 C 
ATOM     12  C   LIG d   1      -3.319  82.349 119.329  0.00  0.00     0.006 C 
ENDBRANCH   8  11
ENDBRANCH   7   8
ENDBRANCH   1   7
BRANCH   6  13
ATOM     13  N   LIG d   1      -2.065  77.846 117.342  0.00  0.00    -0.311 N 
ATOM     14  C   LIG d   1      -2.333  76.589 117.690  0.00  0.00     0.210 C 
ATOM     15  C   LIG d   1      -1.994  76.234 119.141  0.00  0.00     0.109 C 
ATOM     16  O   LIG d   1      -2.790  75.726 116.926  0.00  0.00    -0.276 OA
ATOM     17  H   LIG d   1      -1.666  78.470 118.015  0.00  0.00     0.149 HD
ENDBRANCH   6  13
BRANCH   5  18
ATOM     18  N   LIG d   1      -0.669  76.943 114.779  0.00  0.00     0.381 N 
ATOM     19  H   LIG d   1      -0.246  76.545 115.593  0.00  0.00    -0.090 HD
ATOM     20  H   LIG d   1       0.016  76.960 114.044  0.00  0.00    -0.090 HD
ATOM     21  H   LIG d   1      -1.452  76.393 114.500  0.00  0.00    -0.090 HD
ENDBRANCH   5  18
BRANCH   3  22
ATOM     22  C   LIG d   1      -1.757  81.195 112.862  0.00  0.00     0.382 C 
ATOM     23  O   LIG d   1      -0.866  80.981 112.005  0.00  0.00    -0.241 OA
ATOM     24  O   LIG d   1      -2.403  82.259 112.824  0.00  0.00    -0.241 OA
ENDBRANCH   3  22
TORSDOF 7
ENDMDL
MODEL 6
REMARK VINA RESULT:      -4.5      3.045      4.766
REMARK  7 active torsions:
REMARK  status: ('A' for Active; 'I' for Inactive)
REMARK    1  A    between atoms: C_2  and  C_3 
REMARK    2  A    between atoms: C_3  and  O_6 
REMARK    3  A    between atoms: C_3  and  C_4 
REMARK    4  A    between atoms: C_7  and  O_6 
REMARK    5  A    between atoms: C_9  and  C_10 
REMARK    6  A    between atoms: N_15  and  C_14 
REMARK    7  A    between atoms: N_20  and  C_19 
REMARK       I    between atoms: C_22  and  N_20 
ROOT
ATOM      1  C   LIG d   1      -3.941  77.994 116.697  0.00  0.00     0.161 C 
ATOM      2  C   LIG d   1      -4.625  79.139 117.138  0.00  0.00     0.016 C 
ATOM      3  C   LIG d   1      -4.175  80.457 116.893  0.00  0.00     0.038 C 
ATOM      4  C   LIG d   1      -3.083  80.724 116.054  0.00  0.00     0.028 C 
ATOM      5  C   LIG d   1      -2.068  79.587 116.002  0.00  0.00    -0.047 C 
ATOM      6  C   LIG d   1      -2.808  78.268 115.686  0.00  0.00     0.091 C 
ENDROOT
BRANCH   1   7
ATOM      7  O   LIG d   1      -4.878  77.044 116.154  0.00  0.00    -0.368 OA
BRANCH   7   8
ATOM      8  C   LIG d   1      -4.978  75.778 116.851  0.00  0.00     0.119 C 
BRANCH   8   9
ATOM      9  C   LIG d   1      -5.161  74.677 115.788  0.00  0.00     0.028 C 
ATOM     10  C   LIG d   1      -4.720  75.134 114.388  0.00  0.00     0.006 C 
ENDBRANCH   8   9
BRANCH   8  11
ATOM     11  C   LIG d   1      -6.240  75.717 117.718  0.00  0.00     0.028 C 
ATOM     12  C   LIG d   1      -7.380  76.593 117.173  0.00  0.00     0.006 C 
ENDBRANCH   8  11
ENDBRANCH   7   8
ENDBRANCH   1   7
BRANCH   6  13
ATOM     13  N   LIG d   1      -1.899  77.091 115.699  0.00  0.00    -0.311 N 
ATOM     14  C   LIG d   1      -1.386  76.549 114.596  0.00  0.00     0.210 C 
ATOM     15  C   LIG d   1      -0.489  75.329 114.833  0.00  0.00     0.109 C 
ATOM     16  O   LIG d   1      -1.562  76.981 113.448  0.00  0.00    -0.276 OA
ATOM     17  H   LIG d   1      -1.679  76.696 116.592  0.00  0.00     0.149 HD
ENDBRANCH   6  13
BRANCH   5  18
ATOM     18  N   LIG d   1      -1.056  79.940 114.988  0.00  0.00     0.381 N 
ATOM     19  H   LIG d   1      -1.464  79.903 114.075  0.00  0.00    -0.090 HD
ATOM     20  H   LIG d   1      -0.309  79.269 115.027  0.00  0.00    -0.090 HD
ATOM     21  H   LIG d   1      -0.700  80.854 115.165  0.00  0.00    -0.090 HD
ENDBRANCH   5  18
BRANCH   3  22
ATOM     22  C   LIG d   1      -4.798  81.524 117.523  0.00  0.00     0.382 C 
ATOM     23  O   LIG d   1      -5.772  82.094 116.975  0.00  0.00    -0.241 OA
ATOM     24  O   LIG d   1      -4.370  81.951 118.612  0.00  0.00    -0.241 OA
ENDBRANCH   3  22
TORSDOF 7
ENDMDL
MODEL 7
REMARK VINA RESULT:      -4.5      2.206      5.106
REMARK  7 active torsions:
REMARK  status: ('A' for Active; 'I' for Inactive)
REMARK    1  A    between atoms: C_2  and  C_3 
REMARK    2  A    between atoms: C_3  and  O_6 
REMARK    3  A    between atoms: C_3  and  C_4 
REMARK    4  A    between atoms: C_7  and  O_6 
REMARK    5  A    between atoms: C_9  and  C_10 
REMARK    6  A    between atoms: N_15  and  C_14 
REMARK    7  A    between atoms: N_20  and  C_19 
REMARK       I    between atoms: C_22  and  N_20 
ROOT
ATOM      1  C   LIG d   1      -2.080  80.745 114.457  0.00  0.00     0.161 C 
ATOM      2  C   LIG d   1      -2.537  79.490 114.892  0.00  0.00     0.016 C 
ATOM      3  C   LIG d   1      -2.429  78.312 114.119  0.00  0.00     0.038 C 
ATOM      4  C   LIG d   1      -1.716  78.281 112.911  0.00  0.00     0.028 C 
ATOM      5  C   LIG d   1      -1.676  79.627 112.196  0.00  0.00    -0.047 C 
ATOM      6  C   LIG d   1      -1.199  80.710 113.190  0.00  0.00     0.091 C 
ENDROOT
BRANCH   1   7
ATOM      7  O   LIG d   1      -1.386  81.412 115.531  0.00  0.00    -0.368 OA
BRANCH   7   8
ATOM      8  C   LIG d   1      -1.206  80.644 116.747  0.00  0.00     0.119 C 
BRANCH   8   9
ATOM      9  C   LIG d   1      -1.628  81.541 117.927  0.00  0.00     0.028 C 
ATOM     10  C   LIG d   1      -0.573  82.611 118.257  0.00  0.00     0.006 C 
ENDBRANCH   8   9
BRANCH   8  11
ATOM     11  C   LIG d   1       0.272  80.323 116.989  0.00  0.00     0.028 C 
ATOM     12  C   LIG d   1       0.503  78.863 117.409  0.00  0.00     0.006 C 
ENDBRANCH   8  11
ENDBRANCH   7   8
ENDBRANCH   1   7
BRANCH   6  13
ATOM     13  N   LIG d   1      -1.212  82.071 112.595  0.00  0.00    -0.311 N 
ATOM     14  C   LIG d   1      -0.146  82.634 112.028  0.00  0.00     0.210 C 
ATOM     15  C   LIG d   1      -0.370  84.052 111.495  0.00  0.00     0.109 C 
ATOM     16  O   LIG d   1       0.955  82.080 111.888  0.00  0.00    -0.276 OA
ATOM     17  H   LIG d   1      -2.074  82.580 112.638  0.00  0.00     0.149 HD
ENDBRANCH   6  13
BRANCH   5  18
ATOM     18  N   LIG d   1      -0.788  79.484 111.027  0.00  0.00     0.381 N 
ATOM     19  H   LIG d   1      -1.294  79.696 110.190  0.00  0.00    -0.090 HD
ATOM     20  H   LIG d   1      -0.473  78.532 110.972  0.00  0.00    -0.090 HD
ATOM     21  H   LIG d   1      -0.007  80.096 111.115  0.00  0.00    -0.090 HD
ENDBRANCH   5  18
BRANCH   3  22
ATOM     22  C   LIG d   1      -3.074  77.157 114.533  0.00  0.00     0.382 C 
ATOM     23  O   LIG d   1      -4.090  77.234 115.265  0.00  0.00    -0.241 OA
ATOM     24  O   LIG d   1      -2.627  76.037 114.220  0.00  0.00    -0.241 OA
ENDBRANCH   3  22
TORSDOF 7
ENDMDL
MODEL 8
REMARK VINA RESULT:      -4.3      3.177      5.795
REMARK  7 active torsions:
REMARK  status: ('A' for Active; 'I' for Inactive)
REMARK    1  A    between atoms: C_2  and  C_3 
REMARK    2  A    between atoms: C_3  and  O_6 
REMARK    3  A    between atoms: C_3  and  C_4 
REMARK    4  A    between atoms: C_7  and  O_6 
REMARK    5  A    between atoms: C_9  and  C_10 
REMARK    6  A    between atoms: N_15  and  C_14 
REMARK    7  A    between atoms: N_20  and  C_19 
REMARK       I    between atoms: C_22  and  N_20 
ROOT
ATOM      1  C   LIG d   1      -1.575  78.217 115.440  0.00  0.00     0.161 C 
ATOM      2  C   LIG d   1      -2.494  77.227 115.055  0.00  0.00     0.016 C 
ATOM      3  C   LIG d   1      -3.086  77.171 113.772  0.00  0.00     0.038 C 
ATOM      4  C   LIG d   1      -2.680  78.020 112.731  0.00  0.00     0.028 C 
ATOM      5  C   LIG d   1      -2.125  79.353 113.218  0.00  0.00    -0.047 C 
ATOM      6  C   LIG d   1      -1.037  79.085 114.283  0.00  0.00     0.091 C 
ENDROOT
BRANCH   1   7
ATOM      7  O   LIG d   1      -0.484  77.616 116.164  0.00  0.00    -0.368 OA
BRANCH   7   8
ATOM      8  C   LIG d   1      -0.735  76.301 116.719  0.00  0.00     0.119 C 
BRANCH   8   9
ATOM      9  C   LIG d   1      -0.838  76.455 118.248  0.00  0.00     0.028 C 
ATOM     10  C   LIG d   1      -2.285  76.337 118.754  0.00  0.00     0.006 C 
ENDBRANCH   8   9
BRANCH   8  11
ATOM     11  C   LIG d   1       0.451  75.361 116.484  0.00  0.00     0.028 C 
ATOM     12  C   LIG d   1       0.479  74.180 117.467  0.00  0.00     0.006 C 
ENDBRANCH   8  11
ENDBRANCH   7   8
ENDBRANCH   1   7
BRANCH   6  13
ATOM     13  N   LIG d   1      -0.500  80.339 114.873  0.00  0.00    -0.311 N 
ATOM     14  C   LIG d   1       0.546  80.995 114.373  0.00  0.00     0.210 C 
ATOM     15  C   LIG d   1       0.949  82.255 115.146  0.00  0.00     0.109 C 
ATOM     16  O   LIG d   1       1.159  80.671 113.345  0.00  0.00    -0.276 OA
ATOM     17  H   LIG d   1      -0.956  80.690 115.692  0.00  0.00     0.149 HD
ENDBRANCH   6  13
BRANCH   5  18
ATOM     18  N   LIG d   1      -1.614  80.080 112.040  0.00  0.00     0.381 N 
ATOM     19  H   LIG d   1      -1.759  81.063 112.160  0.00  0.00    -0.090 HD
ATOM     20  H   LIG d   1      -2.125  79.783 111.228  0.00  0.00    -0.090 HD
ATOM     21  H   LIG d   1      -0.643  79.893 111.918  0.00  0.00    -0.090 HD
ENDBRANCH   5  18
BRANCH   3  22
ATOM     22  C   LIG d   1      -4.124  76.284 113.532  0.00  0.00     0.382 C 
ATOM     23  O   LIG d   1      -4.076  75.121 114.000  0.00  0.00    -0.241 OA
ATOM     24  O   LIG d   1      -5.088  76.618 112.816  0.00  0.00    -0.241 OA
ENDBRANCH   3  22
TORSDOF 7
ENDMDL
MODEL 9
REMARK VINA RESULT:      -4.2      2.558      6.042
REMARK  7 active torsions:
REMARK  status: ('A' for Active; 'I' for Inactive)
REMARK    1  A    between atoms: C_2  and  C_3 
REMARK    2  A    between atoms: C_3  and  O_6 
REMARK    3  A    between atoms: C_3  and  C_4 
REMARK    4  A    between atoms: C_7  and  O_6 
REMARK    5  A    between atoms: C_9  and  C_10 
REMARK    6  A    between atoms: N_15  and  C_14 
REMARK    7  A    between atoms: N_20  and  C_19 
REMARK       I    between atoms: C_22  and  N_20 
ROOT
ATOM      1  C   LIG d   1      -2.486  77.989 116.133  0.00  0.00     0.161 C 
ATOM      2  C   LIG d   1      -2.626  76.797 115.403  0.00  0.00     0.016 C 
ATOM      3  C   LIG d   1      -3.842  76.083 115.306  0.00  0.00     0.038 C 
ATOM      4  C   LIG d   1      -5.046  76.596 115.811  0.00  0.00     0.028 C 
ATOM      5  C   LIG d   1      -4.853  77.547 116.988  0.00  0.00    -0.047 C 
ATOM      6  C   LIG d   1      -3.814  78.623 116.598  0.00  0.00     0.091 C 
ENDROOT
BRANCH   1   7
ATOM      7  O   LIG d   1      -1.716  78.941 115.371  0.00  0.00    -0.368 OA
BRANCH   7   8
ATOM      8  C   LIG d   1      -2.435  79.664 114.342  0.00  0.00     0.119 C 
BRANCH   8   9
ATOM      9  C   LIG d   1      -1.836  79.253 112.983  0.00  0.00     0.028 C 
ATOM     10  C   LIG d   1      -2.806  78.400 112.147  0.00  0.00     0.006 C 
ENDBRANCH   8   9
BRANCH   8  11
ATOM     11  C   LIG d   1      -2.197  81.173 114.451  0.00  0.00     0.028 C 
ATOM     12  C   LIG d   1      -1.772  81.806 113.117  0.00  0.00     0.006 C 
ENDBRANCH   8  11
ENDBRANCH   7   8
ENDBRANCH   1   7
BRANCH   6  13
ATOM     13  N   LIG d   1      -3.503  79.544 117.722  0.00  0.00    -0.311 N 
ATOM     14  C   LIG d   1      -3.917  80.810 117.768  0.00  0.00     0.210 C 
ATOM     15  C   LIG d   1      -3.469  81.591 119.007  0.00  0.00     0.109 C 
ATOM     16  O   LIG d   1      -4.639  81.349 116.917  0.00  0.00    -0.276 OA
ATOM     17  H   LIG d   1      -2.948  79.179 118.471  0.00  0.00     0.149 HD
ENDBRANCH   6  13
BRANCH   5  18
ATOM     18  N   LIG d   1      -6.173  78.113 117.324  0.00  0.00     0.381 N 
ATOM     19  H   LIG d   1      -6.167  79.101 117.170  0.00  0.00    -0.090 HD
ATOM     20  H   LIG d   1      -6.359  77.947 118.298  0.00  0.00    -0.090 HD
ATOM     21  H   LIG d   1      -6.879  77.686 116.766  0.00  0.00    -0.090 HD
ENDBRANCH   5  18
BRANCH   3  22
ATOM     22  C   LIG d   1      -3.853  74.821 114.732  0.00  0.00     0.382 C 
ATOM     23  O   LIG d   1      -4.929  74.180 114.648  0.00  0.00    -0.241 OA
ATOM     24  O   LIG d   1      -2.795  74.296 114.338  0.00  0.00    -0.241 OA
ENDBRANCH   3  22
TORSDOF 7
ENDMDL
