MODEL 1
REMARK VINA RESULT:      -5.0      0.000      0.000
REMARK  7 active torsions:
REMARK  status: ('A' for Active; 'I' for Inactive)
REMARK    1  A    between atoms: C_2  and  C_3 
REMARK    2  A    between atoms: C_3  and  O_6 
REMARK    3  A    between atoms: C_3  and  C_4 
REMARK    4  A    between atoms: C_7  and  O_6 
REMARK    5  A    between atoms: C_9  and  C_10 
REMARK    6  A    between atoms: N_15  and  C_14 
REMARK    7  A    between atoms: N_20  and  C_19 
REMARK       I    between atoms: C_22  and  N_20 
ROOT
ATOM      1  C   LIG d   1      -3.039  79.861 114.969  0.00  0.00     0.161 C 
ATOM      2  C   LIG d   1      -2.736  81.058 114.300  0.00  0.00     0.016 C 
ATOM      3  C   LIG d   1      -2.205  81.105 112.991  0.00  0.00     0.038 C 
ATOM      4  C   LIG d   1      -2.081  79.954 112.199  0.00  0.00     0.028 C 
ATOM      5  C   LIG d   1      -1.901  78.676 113.012  0.00  0.00    -0.047 C 
ATOM      6  C   LIG d   1      -3.015  78.600 114.081  0.00  0.00     0.091 C 
ENDROOT
BRANCH   1   7
ATOM      7  O   LIG d   1      -4.313  79.981 115.634  0.00  0.00    -0.368 OA
BRANCH   7   8
ATOM      8  C   LIG d   1      -4.267  80.291 117.048  0.00  0.00     0.119 C 
BRANCH   8   9
ATOM      9  C   LIG d   1      -5.379  79.476 117.737  0.00  0.00     0.028 C 
ATOM     10  C   LIG d   1      -5.736  78.198 116.961  0.00  0.00     0.006 C 
ENDBRANCH   8   9
BRANCH   8  11
ATOM     11  C   LIG d   1      -4.618  81.759 117.309  0.00  0.00     0.028 C 
ATOM     12  C   LIG d   1      -6.134  82.012 117.341  0.00  0.00     0.006 C 
ENDBRANCH   8  11
ENDBRANCH   7   8
ENDBRANCH   1   7
BRANCH   6  13
ATOM     13  N   LIG d   1      -2.864  77.422 114.975  0.00  0.00    -0.311 N 
ATOM     14  C   LIG d   1      -3.418  76.237 114.726  0.00  0.00     0.210 C 
ATOM     15  C   LIG d   1      -3.153  75.164 115.788  0.00  0.00     0.109 C 
ATOM     16  O   LIG d   1      -4.076  75.963 113.712  0.00  0.00    -0.276 OA
ATOM     17  H   LIG d   1      -2.319  77.548 115.805  0.00  0.00     0.149 HD
ENDBRANCH   6  13
BRANCH   5  18
ATOM     18  N   LIG d   1      -1.924  77.541 112.071  0.00  0.00     0.381 N 
ATOM     19  H   LIG d   1      -2.701  76.946 112.276  0.00  0.00    -0.090 HD
ATOM     20  H   LIG d   1      -1.079  77.008 112.183  0.00  0.00    -0.090 HD
ATOM     21  H   LIG d   1      -1.991  77.876 111.135  0.00  0.00    -0.090 HD
ENDBRANCH   5  18
BRANCH   3  22
ATOM     22  C   LIG d   1      -1.753  82.310 112.475  0.00  0.00     0.382 C 
ATOM     23  O   LIG d   1      -1.629  83.307 113.227  0.00  0.00    -0.241 OA
ATOM     24  O   LIG d   1      -1.511  82.426 111.259  0.00  0.00    -0.241 OA
ENDBRANCH   3  22
TORSDOF 7
ENDMDL
MODEL 2
REMARK VINA RESULT:      -4.9      2.798      5.629
REMARK  7 active torsions:
REMARK  status: ('A' for Active; 'I' for Inactive)
REMARK    1  A    between atoms: C_2  and  C_3 
REMARK    2  A    between atoms: C_3  and  O_6 
REMARK    3  A    between atoms: C_3  and  C_4 
REMARK    4  A    between atoms: C_7  and  O_6 
REMARK    5  A    between atoms: C_9  and  C_10 
REMARK    6  A    between atoms: N_15  and  C_14 
REMARK    7  A    between atoms: N_20  and  C_19 
REMARK       I    between atoms: C_22  and  N_20 
ROOT
ATOM      1  C   LIG d   1      -2.502  81.401 112.441  0.00  0.00     0.161 C 
ATOM      2  C   LIG d   1      -3.070  80.233 112.977  0.00  0.00     0.016 C 
ATOM      3  C   LIG d   1      -2.583  78.935 112.704  0.00  0.00     0.038 C 
ATOM      4  C   LIG d   1      -1.393  78.724 111.991  0.00  0.00     0.028 C 
ATOM      5  C   LIG d   1      -1.069  79.844 111.008  0.00  0.00    -0.047 C 
ATOM      6  C   LIG d   1      -1.137  81.198 111.751  0.00  0.00     0.091 C 
ENDROOT
BRANCH   1   7
ATOM      7  O   LIG d   1      -2.401  82.410 113.465  0.00  0.00    -0.368 OA
BRANCH   7   8
ATOM      8  C   LIG d   1      -1.390  82.189 114.480  0.00  0.00     0.119 C 
BRANCH   8   9
ATOM      9  C   LIG d   1      -2.070  82.346 115.853  0.00  0.00     0.028 C 
ATOM     10  C   LIG d   1      -3.555  82.730 115.733  0.00  0.00     0.006 C 
ENDBRANCH   8   9
BRANCH   8  11
ATOM     11  C   LIG d   1      -0.310  83.275 114.436  0.00  0.00     0.028 C 
ATOM     12  C   LIG d   1      -0.825  84.604 113.861  0.00  0.00     0.006 C 
ENDBRANCH   8  11
ENDBRANCH   7   8
ENDBRANCH   1   7
BRANCH   6  13
ATOM     13  N   LIG d   1      -0.915  82.354 110.844  0.00  0.00    -0.311 N 
ATOM     14  C   LIG d   1       0.266  82.951 110.692  0.00  0.00     0.210 C 
ATOM     15  C   LIG d   1       0.271  84.137 109.722  0.00  0.00     0.109 C 
ATOM     16  O   LIG d   1       1.317  82.591 111.243  0.00  0.00    -0.276 OA
ATOM     17  H   LIG d   1      -1.708  82.692 110.334  0.00  0.00     0.149 HD
ENDBRANCH   6  13
BRANCH   5  18
ATOM     18  N   LIG d   1       0.262  79.565 110.436  0.00  0.00     0.381 N 
ATOM     19  H   LIG d   1       0.318  78.603 110.165  0.00  0.00    -0.090 HD
ATOM     20  H   LIG d   1       0.960  79.736 111.138  0.00  0.00    -0.090 HD
ATOM     21  H   LIG d   1       0.423  80.150 109.647  0.00  0.00    -0.090 HD
ENDBRANCH   5  18
BRANCH   3  22
ATOM     22  C   LIG d   1      -3.311  77.827 113.112  0.00  0.00     0.382 C 
ATOM     23  O   LIG d   1      -3.813  77.797 114.261  0.00  0.00    -0.241 OA
ATOM     24  O   LIG d   1      -3.434  76.841 112.362  0.00  0.00    -0.241 OA
ENDBRANCH   3  22
TORSDOF 7
ENDMDL
MODEL 3
REMARK VINA RESULT:      -4.9      1.685      2.217
REMARK  7 active torsions:
REMARK  status: ('A' for Active; 'I' for Inactive)
REMARK    1  A    between atoms: C_2  and  C_3 
REMARK    2  A    between atoms: C_3  and  O_6 
REMARK    3  A    between atoms: C_3  and  C_4 
REMARK    4  A    between atoms: C_7  and  O_6 
REMARK    5  A    between atoms: C_9  and  C_10 
REMARK    6  A    between atoms: N_15  and  C_14 
REMARK    7  A    between atoms: N_20  and  C_19 
REMARK       I    between atoms: C_22  and  N_20 
ROOT
ATOM      1  C   LIG d   1      -1.892  81.018 113.980  0.00  0.00     0.161 C 
ATOM      2  C   LIG d   1      -1.717  82.341 113.540  0.00  0.00     0.016 C 
ATOM      3  C   LIG d   1      -1.144  82.677 112.291  0.00  0.00     0.038 C 
ATOM      4  C   LIG d   1      -0.845  81.703 111.327  0.00  0.00     0.028 C 
ATOM      5  C   LIG d   1      -0.536  80.334 111.925  0.00  0.00    -0.047 C 
ATOM      6  C   LIG d   1      -1.673  79.942 112.896  0.00  0.00     0.091 C 
ENDROOT
BRANCH   1   7
ATOM      7  O   LIG d   1      -3.195  80.870 114.577  0.00  0.00    -0.368 OA
BRANCH   7   8
ATOM      8  C   LIG d   1      -3.220  80.685 116.013  0.00  0.00     0.119 C 
BRANCH   8   9
ATOM      9  C   LIG d   1      -4.184  79.520 116.313  0.00  0.00     0.028 C 
ATOM     10  C   LIG d   1      -3.543  78.441 117.201  0.00  0.00     0.006 C 
ENDBRANCH   8   9
BRANCH   8  11
ATOM     11  C   LIG d   1      -3.823  81.902 116.722  0.00  0.00     0.028 C 
ATOM     12  C   LIG d   1      -3.035  82.311 117.976  0.00  0.00     0.006 C 
ENDBRANCH   8  11
ENDBRANCH   7   8
ENDBRANCH   1   7
BRANCH   6  13
ATOM     13  N   LIG d   1      -1.408  78.654 113.588  0.00  0.00    -0.311 N 
ATOM     14  C   LIG d   1      -2.307  77.676 113.686  0.00  0.00     0.210 C 
ATOM     15  C   LIG d   1      -1.837  76.440 114.458  0.00  0.00     0.109 C 
ATOM     16  O   LIG d   1      -3.439  77.702 113.179  0.00  0.00    -0.276 OA
ATOM     17  H   LIG d   1      -0.504  78.535 114.001  0.00  0.00     0.149 HD
ENDBRANCH   6  13
BRANCH   5  18
ATOM     18  N   LIG d   1      -0.377  79.385 110.807  0.00  0.00     0.381 N 
ATOM     19  H   LIG d   1       0.320  78.705 111.036  0.00  0.00    -0.090 HD
ATOM     20  H   LIG d   1      -0.071  79.889 109.993  0.00  0.00    -0.090 HD
ATOM     21  H   LIG d   1      -1.245  78.932 110.618  0.00  0.00    -0.090 HD
ENDBRANCH   5  18
BRANCH   3  22
ATOM     22  C   LIG d   1      -0.830  83.998 112.013  0.00  0.00     0.382 C 
ATOM     23  O   LIG d   1      -1.235  84.529 110.951  0.00  0.00    -0.241 OA
ATOM     24  O   LIG d   1      -0.108  84.652 112.789  0.00  0.00    -0.241 OA
ENDBRANCH   3  22
TORSDOF 7
ENDMDL
MODEL 4
REMARK VINA RESULT:      -4.8      1.744      2.626
REMARK  7 active torsions:
REMARK  status: ('A' for Active; 'I' for Inactive)
REMARK    1  A    between atoms: C_2  and  C_3 
REMARK    2  A    between atoms: C_3  and  O_6 
REMARK    3  A    between atoms: C_3  and  C_4 
REMARK    4  A    between atoms: C_7  and  O_6 
REMARK    5  A    between atoms: C_9  and  C_10 
REMARK    6  A    between atoms: N_15  and  C_14 
REMARK    7  A    between atoms: N_20  and  C_19 
REMARK       I    between atoms: C_22  and  N_20 
ROOT
ATOM      1  C   LIG d   1      -2.068  78.874 115.684  0.00  0.00     0.161 C 
ATOM      2  C   LIG d   1      -2.540  80.112 115.218  0.00  0.00     0.016 C 
ATOM      3  C   LIG d   1      -2.798  80.384 113.854  0.00  0.00     0.038 C 
ATOM      4  C   LIG d   1      -2.743  79.380 112.875  0.00  0.00     0.028 C 
ATOM      5  C   LIG d   1      -1.784  78.247 113.223  0.00  0.00    -0.047 C 
ATOM      6  C   LIG d   1      -2.108  77.734 114.645  0.00  0.00     0.091 C 
ENDROOT
BRANCH   1   7
ATOM      7  O   LIG d   1      -2.786  78.493 116.874  0.00  0.00    -0.368 OA
BRANCH   7   8
ATOM      8  C   LIG d   1      -4.056  77.827 116.666  0.00  0.00     0.119 C 
BRANCH   8   9
ATOM      9  C   LIG d   1      -5.167  78.809 117.085  0.00  0.00     0.028 C 
ATOM     10  C   LIG d   1      -4.741  79.717 118.250  0.00  0.00     0.006 C 
ENDBRANCH   8   9
BRANCH   8  11
ATOM     11  C   LIG d   1      -4.210  76.620 117.596  0.00  0.00     0.028 C 
ATOM     12  C   LIG d   1      -2.971  76.382 118.474  0.00  0.00     0.006 C 
ENDBRANCH   8  11
ENDBRANCH   7   8
ENDBRANCH   1   7
BRANCH   6  13
ATOM     13  N   LIG d   1      -1.162  76.680 115.097  0.00  0.00    -0.311 N 
ATOM     14  C   LIG d   1      -1.502  75.400 115.235  0.00  0.00     0.210 C 
ATOM     15  C   LIG d   1      -0.380  74.483 115.732  0.00  0.00     0.109 C 
ATOM     16  O   LIG d   1      -2.618  74.931 114.962  0.00  0.00    -0.276 OA
ATOM     17  H   LIG d   1      -0.227  76.968 115.309  0.00  0.00     0.149 HD
ENDBRANCH   6  13
BRANCH   5  18
ATOM     18  N   LIG d   1      -1.929  77.207 112.187  0.00  0.00     0.381 N 
ATOM     19  H   LIG d   1      -1.938  76.302 112.613  0.00  0.00    -0.090 HD
ATOM     20  H   LIG d   1      -1.140  77.255 111.566  0.00  0.00    -0.090 HD
ATOM     21  H   LIG d   1      -2.772  77.350 111.676  0.00  0.00    -0.090 HD
ENDBRANCH   5  18
BRANCH   3  22
ATOM     22  C   LIG d   1      -3.076  81.681 113.453  0.00  0.00     0.382 C 
ATOM     23  O   LIG d   1      -2.626  82.111 112.363  0.00  0.00    -0.241 OA
ATOM     24  O   LIG d   1      -3.734  82.443 114.187  0.00  0.00    -0.241 OA
ENDBRANCH   3  22
TORSDOF 7
ENDMDL
MODEL 5
REMARK VINA RESULT:      -4.8      2.208      5.383
REMARK  7 active torsions:
REMARK  status: ('A' for Active; 'I' for Inactive)
REMARK    1  A    between atoms: C_2  and  C_3 
REMARK    2  A    between atoms: C_3  and  O_6 
REMARK    3  A    between atoms: C_3  and  C_4 
REMARK    4  A    between atoms: C_7  and  O_6 
REMARK    5  A    between atoms: C_9  and  C_10 
REMARK    6  A    between atoms: N_15  and  C_14 
REMARK    7  A    between atoms: N_20  and  C_19 
REMARK       I    between atoms: C_22  and  N_20 
ROOT
ATOM      1  C   LIG d   1      -2.384  80.982 113.844  0.00  0.00     0.161 C 
ATOM      2  C   LIG d   1      -2.828  79.773 114.406  0.00  0.00     0.016 C 
ATOM      3  C   LIG d   1      -2.709  78.523 113.755  0.00  0.00     0.038 C 
ATOM      4  C   LIG d   1      -1.997  78.376 112.556  0.00  0.00     0.028 C 
ATOM      5  C   LIG d   1      -1.973  79.643 111.707  0.00  0.00    -0.047 C 
ATOM      6  C   LIG d   1      -1.506  80.826 112.585  0.00  0.00     0.091 C 
ENDROOT
BRANCH   1   7
ATOM      7  O   LIG d   1      -1.696  81.761 114.842  0.00  0.00    -0.368 OA
BRANCH   7   8
ATOM      8  C   LIG d   1      -2.453  82.841 115.442  0.00  0.00     0.119 C 
BRANCH   8   9
ATOM      9  C   LIG d   1      -1.727  84.157 115.107  0.00  0.00     0.028 C 
ATOM     10  C   LIG d   1      -0.242  83.939 114.772  0.00  0.00     0.006 C 
ENDBRANCH   8   9
BRANCH   8  11
ATOM     11  C   LIG d   1      -2.441  82.748 116.971  0.00  0.00     0.028 C 
ATOM     12  C   LIG d   1      -3.627  81.946 117.529  0.00  0.00     0.006 C 
ENDBRANCH   8  11
ENDBRANCH   7   8
ENDBRANCH   1   7
BRANCH   6  13
ATOM     13  N   LIG d   1      -1.534  82.120 111.855  0.00  0.00    -0.311 N 
ATOM     14  C   LIG d   1      -0.467  82.648 111.257  0.00  0.00     0.210 C 
ATOM     15  C   LIG d   1      -0.709  83.999 110.577  0.00  0.00     0.109 C 
ATOM     16  O   LIG d   1       0.649  82.110 111.198  0.00  0.00    -0.276 OA
ATOM     17  H   LIG d   1      -2.407  82.609 111.826  0.00  0.00     0.149 HD
ENDBRANCH   6  13
BRANCH   5  18
ATOM     18  N   LIG d   1      -1.085  79.391 110.556  0.00  0.00     0.381 N 
ATOM     19  H   LIG d   1      -1.425  78.612 110.030  0.00  0.00    -0.090 HD
ATOM     20  H   LIG d   1      -0.167  79.165 110.897  0.00  0.00    -0.090 HD
ATOM     21  H   LIG d   1      -1.041  80.200 109.976  0.00  0.00    -0.090 HD
ENDBRANCH   5  18
BRANCH   3  22
ATOM     22  C   LIG d   1      -3.341  77.409 114.287  0.00  0.00     0.382 C 
ATOM     23  O   LIG d   1      -2.934  76.259 113.995  0.00  0.00    -0.241 OA
ATOM     24  O   LIG d   1      -4.341  77.539 115.019  0.00  0.00    -0.241 OA
ENDBRANCH   3  22
TORSDOF 7
ENDMDL
MODEL 6
REMARK VINA RESULT:      -4.7      3.422      5.037
REMARK  7 active torsions:
REMARK  status: ('A' for Active; 'I' for Inactive)
REMARK    1  A    between atoms: C_2  and  C_3 
REMARK    2  A    between atoms: C_3  and  O_6 
REMARK    3  A    between atoms: C_3  and  C_4 
REMARK    4  A    between atoms: C_7  and  O_6 
REMARK    5  A    between atoms: C_9  and  C_10 
REMARK    6  A    between atoms: N_15  and  C_14 
REMARK    7  A    between atoms: N_20  and  C_19 
REMARK       I    between atoms: C_22  and  N_20 
ROOT
ATOM      1  C   LIG d   1      -5.176  77.475 116.841  0.00  0.00     0.161 C 
ATOM      2  C   LIG d   1      -5.938  78.605 117.185  0.00  0.00     0.016 C 
ATOM      3  C   LIG d   1      -5.431  79.924 117.152  0.00  0.00     0.038 C 
ATOM      4  C   LIG d   1      -4.165  80.220 116.625  0.00  0.00     0.028 C 
ATOM      5  C   LIG d   1      -3.177  79.064 116.738  0.00  0.00    -0.047 C 
ATOM      6  C   LIG d   1      -3.828  77.788 116.157  0.00  0.00     0.091 C 
ENDROOT
BRANCH   1   7
ATOM      7  O   LIG d   1      -5.961  76.588 116.020  0.00  0.00    -0.368 OA
BRANCH   7   8
ATOM      8  C   LIG d   1      -6.368  75.342 116.636  0.00  0.00     0.119 C 
BRANCH   8   9
ATOM      9  C   LIG d   1      -5.867  74.195 115.737  0.00  0.00     0.028 C 
ATOM     10  C   LIG d   1      -5.560  74.664 114.305  0.00  0.00     0.006 C 
ENDBRANCH   8   9
BRANCH   8  11
ATOM     11  C   LIG d   1      -7.893  75.204 116.659  0.00  0.00     0.028 C 
ATOM     12  C   LIG d   1      -8.544  75.970 117.821  0.00  0.00     0.006 C 
ENDBRANCH   8  11
ENDBRANCH   7   8
ENDBRANCH   1   7
BRANCH   6  13
ATOM     13  N   LIG d   1      -2.960  76.591 116.306  0.00  0.00    -0.311 N 
ATOM     14  C   LIG d   1      -2.384  75.971 115.277  0.00  0.00     0.210 C 
ATOM     15  C   LIG d   1      -1.546  74.744 115.649  0.00  0.00     0.109 C 
ATOM     16  O   LIG d   1      -2.462  76.340 114.096  0.00  0.00    -0.276 OA
ATOM     17  H   LIG d   1      -2.818  76.242 117.233  0.00  0.00     0.149 HD
ENDBRANCH   6  13
BRANCH   5  18
ATOM     18  N   LIG d   1      -1.946  79.459 116.028  0.00  0.00     0.381 N 
ATOM     19  H   LIG d   1      -2.000  79.173 115.071  0.00  0.00    -0.090 HD
ATOM     20  H   LIG d   1      -1.163  78.994 116.452  0.00  0.00    -0.090 HD
ATOM     21  H   LIG d   1      -1.823  80.446 116.081  0.00  0.00    -0.090 HD
ENDBRANCH   5  18
BRANCH   3  22
ATOM     22  C   LIG d   1      -6.180  80.961 117.688  0.00  0.00     0.382 C 
ATOM     23  O   LIG d   1      -6.994  81.585 116.966  0.00  0.00    -0.241 OA
ATOM     24  O   LIG d   1      -6.018  81.310 118.873  0.00  0.00    -0.241 OA
ENDBRANCH   3  22
TORSDOF 7
ENDMDL
MODEL 7
REMARK VINA RESULT:      -4.6      2.825      4.572
REMARK  7 active torsions:
REMARK  status: ('A' for Active; 'I' for Inactive)
REMARK    1  A    between atoms: C_2  and  C_3 
REMARK    2  A    between atoms: C_3  and  O_6 
REMARK    3  A    between atoms: C_3  and  C_4 
REMARK    4  A    between atoms: C_7  and  O_6 
REMARK    5  A    between atoms: C_9  and  C_10 
REMARK    6  A    between atoms: N_15  and  C_14 
REMARK    7  A    between atoms: N_20  and  C_19 
REMARK       I    between atoms: C_22  and  N_20 
ROOT
ATOM      1  C   LIG d   1      -3.844  77.051 116.958  0.00  0.00     0.161 C 
ATOM      2  C   LIG d   1      -4.636  78.192 117.171  0.00  0.00     0.016 C 
ATOM      3  C   LIG d   1      -4.382  79.441 116.560  0.00  0.00     0.038 C 
ATOM      4  C   LIG d   1      -3.400  79.596 115.570  0.00  0.00     0.028 C 
ATOM      5  C   LIG d   1      -2.252  78.600 115.694  0.00  0.00    -0.047 C 
ATOM      6  C   LIG d   1      -2.836  77.172 115.796  0.00  0.00     0.091 C 
ENDROOT
BRANCH   1   7
ATOM      7  O   LIG d   1      -4.688  75.898 116.772  0.00  0.00    -0.368 OA
BRANCH   7   8
ATOM      8  C   LIG d   1      -6.045  76.165 116.341  0.00  0.00     0.119 C 
BRANCH   8   9
ATOM      9  C   LIG d   1      -6.976  75.233 117.140  0.00  0.00     0.028 C 
ATOM     10  C   LIG d   1      -8.455  75.415 116.760  0.00  0.00     0.006 C 
ENDBRANCH   8   9
BRANCH   8  11
ATOM     11  C   LIG d   1      -6.249  75.779 114.872  0.00  0.00     0.028 C 
ATOM     12  C   LIG d   1      -5.385  74.583 114.445  0.00  0.00     0.006 C 
ENDBRANCH   8  11
ENDBRANCH   7   8
ENDBRANCH   1   7
BRANCH   6  13
ATOM     13  N   LIG d   1      -1.784  76.143 116.005  0.00  0.00    -0.311 N 
ATOM     14  C   LIG d   1      -1.174  75.505 115.008  0.00  0.00     0.210 C 
ATOM     15  C   LIG d   1      -0.134  74.468 115.443  0.00  0.00     0.109 C 
ATOM     16  O   LIG d   1      -1.373  75.722 113.803  0.00  0.00    -0.276 OA
ATOM     17  H   LIG d   1      -1.538  75.927 116.952  0.00  0.00     0.149 HD
ENDBRANCH   6  13
BRANCH   5  18
ATOM     18  N   LIG d   1      -1.374  78.783 114.523  0.00  0.00     0.381 N 
ATOM     19  H   LIG d   1      -1.929  78.866 113.694  0.00  0.00    -0.090 HD
ATOM     20  H   LIG d   1      -0.785  77.974 114.428  0.00  0.00    -0.090 HD
ATOM     21  H   LIG d   1      -0.815  79.599 114.640  0.00  0.00    -0.090 HD
ENDBRANCH   5  18
BRANCH   3  22
ATOM     22  C   LIG d   1      -5.088  80.562 116.968  0.00  0.00     0.382 C 
ATOM     23  O   LIG d   1      -6.057  80.440 117.756  0.00  0.00    -0.241 OA
ATOM     24  O   LIG d   1      -4.798  81.689 116.523  0.00  0.00    -0.241 OA
ENDBRANCH   3  22
TORSDOF 7
ENDMDL
MODEL 8
REMARK VINA RESULT:      -4.5      2.136      4.952
REMARK  7 active torsions:
REMARK  status: ('A' for Active; 'I' for Inactive)
REMARK    1  A    between atoms: C_2  and  C_3 
REMARK    2  A    between atoms: C_3  and  O_6 
REMARK    3  A    between atoms: C_3  and  C_4 
REMARK    4  A    between atoms: C_7  and  O_6 
REMARK    5  A    between atoms: C_9  and  C_10 
REMARK    6  A    between atoms: N_15  and  C_14 
REMARK    7  A    between atoms: N_20  and  C_19 
REMARK       I    between atoms: C_22  and  N_20 
ROOT
ATOM      1  C   LIG d   1      -2.466  80.076 114.454  0.00  0.00     0.161 C 
ATOM      2  C   LIG d   1      -2.944  78.770 114.648  0.00  0.00     0.016 C 
ATOM      3  C   LIG d   1      -2.953  77.786 113.633  0.00  0.00     0.038 C 
ATOM      4  C   LIG d   1      -2.341  77.998 112.389  0.00  0.00     0.028 C 
ATOM      5  C   LIG d   1      -2.297  79.466 111.978  0.00  0.00    -0.047 C 
ATOM      6  C   LIG d   1      -1.693  80.293 113.136  0.00  0.00     0.091 C 
ENDROOT
BRANCH   1   7
ATOM      7  O   LIG d   1      -1.659  80.474 115.580  0.00  0.00    -0.368 OA
BRANCH   7   8
ATOM      8  C   LIG d   1      -2.346  81.190 116.635  0.00  0.00     0.119 C 
BRANCH   8   9
ATOM      9  C   LIG d   1      -3.517  81.956 115.989  0.00  0.00     0.028 C 
ATOM     10  C   LIG d   1      -4.780  81.947 116.867  0.00  0.00     0.006 C 
ENDBRANCH   8   9
BRANCH   8  11
ATOM     11  C   LIG d   1      -1.449  82.267 117.253  0.00  0.00     0.028 C 
ATOM     12  C   LIG d   1      -1.294  83.502 116.352  0.00  0.00     0.006 C 
ENDBRANCH   8  11
ENDBRANCH   7   8
ENDBRANCH   1   7
BRANCH   6  13
ATOM     13  N   LIG d   1      -1.691  81.752 112.851  0.00  0.00    -0.311 N 
ATOM     14  C   LIG d   1      -0.588  82.498 112.854  0.00  0.00     0.210 C 
ATOM     15  C   LIG d   1      -0.811  83.983 112.553  0.00  0.00     0.109 C 
ATOM     16  O   LIG d   1       0.559  82.065 113.045  0.00  0.00    -0.276 OA
ATOM     17  H   LIG d   1      -2.575  82.179 112.654  0.00  0.00     0.149 HD
ENDBRANCH   6  13
BRANCH   5  18
ATOM     18  N   LIG d   1      -1.512  79.558 110.732  0.00  0.00     0.381 N 
ATOM     19  H   LIG d   1      -0.976  78.722 110.607  0.00  0.00    -0.090 HD
ATOM     20  H   LIG d   1      -0.876  80.332 110.805  0.00  0.00    -0.090 HD
ATOM     21  H   LIG d   1      -2.121  79.690 109.955  0.00  0.00    -0.090 HD
ENDBRANCH   5  18
BRANCH   3  22
ATOM     22  C   LIG d   1      -3.615  76.586 113.844  0.00  0.00     0.382 C 
ATOM     23  O   LIG d   1      -3.186  75.776 114.701  0.00  0.00    -0.241 OA
ATOM     24  O   LIG d   1      -4.610  76.284 113.159  0.00  0.00    -0.241 OA
ENDBRANCH   3  22
TORSDOF 7
ENDMDL
MODEL 9
REMARK VINA RESULT:      -4.3      2.677      6.013
REMARK  7 active torsions:
REMARK  status: ('A' for Active; 'I' for Inactive)
REMARK    1  A    between atoms: C_2  and  C_3 
REMARK    2  A    between atoms: C_3  and  O_6 
REMARK    3  A    between atoms: C_3  and  C_4 
REMARK    4  A    between atoms: C_7  and  O_6 
REMARK    5  A    between atoms: C_9  and  C_10 
REMARK    6  A    between atoms: N_15  and  C_14 
REMARK    7  A    between atoms: N_20  and  C_19 
REMARK       I    between atoms: C_22  and  N_20 
ROOT
ATOM      1  C   LIG d   1      -3.909  79.093 116.029  0.00  0.00     0.161 C 
ATOM      2  C   LIG d   1      -3.569  77.879 115.409  0.00  0.00     0.016 C 
ATOM      3  C   LIG d   1      -4.298  76.681 115.593  0.00  0.00     0.038 C 
ATOM      4  C   LIG d   1      -5.512  76.652 116.295  0.00  0.00     0.028 C 
ATOM      5  C   LIG d   1      -5.624  77.742 117.356  0.00  0.00    -0.047 C 
ATOM      6  C   LIG d   1      -5.293  79.107 116.710  0.00  0.00     0.091 C 
ENDROOT
BRANCH   1   7
ATOM      7  O   LIG d   1      -3.807  80.172 115.079  0.00  0.00    -0.368 OA
BRANCH   7   8
ATOM      8  C   LIG d   1      -2.655  80.142 114.200  0.00  0.00     0.119 C 
BRANCH   8   9
ATOM      9  C   LIG d   1      -1.745  81.322 114.590  0.00  0.00     0.028 C 
ATOM     10  C   LIG d   1      -2.545  82.569 115.003  0.00  0.00     0.006 C 
ENDBRANCH   8   9
BRANCH   8  11
ATOM     11  C   LIG d   1      -3.056  80.402 112.745  0.00  0.00     0.028 C 
ATOM     12  C   LIG d   1      -2.666  79.250 111.805  0.00  0.00     0.006 C 
ENDBRANCH   8  11
ENDBRANCH   7   8
ENDBRANCH   1   7
BRANCH   6  13
ATOM     13  N   LIG d   1      -5.297  80.217 117.698  0.00  0.00    -0.311 N 
ATOM     14  C   LIG d   1      -6.339  81.026 117.887  0.00  0.00     0.210 C 
ATOM     15  C   LIG d   1      -6.126  82.118 118.940  0.00  0.00     0.109 C 
ATOM     16  O   LIG d   1      -7.429  80.923 117.306  0.00  0.00    -0.276 OA
ATOM     17  H   LIG d   1      -4.463  80.353 118.235  0.00  0.00     0.149 HD
ENDBRANCH   6  13
BRANCH   5  18
ATOM     18  N   LIG d   1      -6.988  77.682 117.914  0.00  0.00     0.381 N 
ATOM     19  H   LIG d   1      -7.602  78.256 117.371  0.00  0.00    -0.090 HD
ATOM     20  H   LIG d   1      -6.971  78.039 118.853  0.00  0.00    -0.090 HD
ATOM     21  H   LIG d   1      -7.315  76.741 117.914  0.00  0.00    -0.090 HD
ENDBRANCH   5  18
BRANCH   3  22
ATOM     22  C   LIG d   1      -3.791  75.487 115.103  0.00  0.00     0.382 C 
ATOM     23  O   LIG d   1      -2.551  75.308 115.047  0.00  0.00    -0.241 OA
ATOM     24  O   LIG d   1      -4.558  74.603 114.676  0.00  0.00    -0.241 OA
ENDBRANCH   3  22
TORSDOF 7
ENDMDL
