MODEL 1
REMARK VINA RESULT:      -5.3      0.000      0.000
REMARK  7 active torsions:
REMARK  status: ('A' for Active; 'I' for Inactive)
REMARK    1  A    between atoms: C_2  and  C_3 
REMARK    2  A    between atoms: C_3  and  O_6 
REMARK    3  A    between atoms: C_3  and  C_4 
REMARK    4  A    between atoms: C_7  and  O_6 
REMARK    5  A    between atoms: C_9  and  C_10 
REMARK    6  A    between atoms: N_15  and  C_14 
REMARK    7  A    between atoms: N_20  and  C_19 
REMARK       I    between atoms: C_22  and  N_20 
ROOT
ATOM      1  C   LIG d   1      -3.171  76.462 114.832  0.00  0.00     0.161 C 
ATOM      2  C   LIG d   1      -3.201  77.223 113.652  0.00  0.00     0.016 C 
ATOM      3  C   LIG d   1      -2.045  77.766 113.046  0.00  0.00     0.038 C 
ATOM      4  C   LIG d   1      -0.755  77.455 113.501  0.00  0.00     0.028 C 
ATOM      5  C   LIG d   1      -0.703  77.105 114.984  0.00  0.00    -0.047 C 
ATOM      6  C   LIG d   1      -1.762  76.020 115.281  0.00  0.00     0.091 C 
ENDROOT
BRANCH   1   7
ATOM      7  O   LIG d   1      -4.037  75.317 114.698  0.00  0.00    -0.368 OA
BRANCH   7   8
ATOM      8  C   LIG d   1      -5.424  75.522 115.061  0.00  0.00     0.119 C 
BRANCH   8   9
ATOM      9  C   LIG d   1      -5.446  76.206 116.442  0.00  0.00     0.028 C 
ATOM     10  C   LIG d   1      -6.164  77.566 116.412  0.00  0.00     0.006 C 
ENDBRANCH   8   9
BRANCH   8  11
ATOM     11  C   LIG d   1      -6.151  74.188 115.258  0.00  0.00     0.028 C 
ATOM     12  C   LIG d   1      -7.285  74.274 116.292  0.00  0.00     0.006 C 
ENDBRANCH   8  11
ENDBRANCH   7   8
ENDBRANCH   1   7
BRANCH   6  13
ATOM     13  N   LIG d   1      -1.836  75.680 116.726  0.00  0.00    -0.311 N 
ATOM     14  C   LIG d   1      -1.036  74.791 117.312  0.00  0.00     0.210 C 
ATOM     15  C   LIG d   1      -1.294  74.575 118.806  0.00  0.00     0.109 C 
ATOM     16  O   LIG d   1      -0.115  74.185 116.743  0.00  0.00    -0.276 OA
ATOM     17  H   LIG d   1      -2.535  76.148 117.269  0.00  0.00     0.149 HD
ENDBRANCH   6  13
BRANCH   5  18
ATOM     18  N   LIG d   1       0.673  76.670 115.291  0.00  0.00     0.381 N 
ATOM     19  H   LIG d   1       0.988  77.111 116.132  0.00  0.00    -0.090 HD
ATOM     20  H   LIG d   1       1.278  76.952 114.541  0.00  0.00    -0.090 HD
ATOM     21  H   LIG d   1       0.701  75.680 115.397  0.00  0.00    -0.090 HD
ENDBRANCH   5  18
BRANCH   3  22
ATOM     22  C   LIG d   1      -2.176  78.663 111.997  0.00  0.00     0.382 C 
ATOM     23  O   LIG d   1      -1.480  78.522 110.962  0.00  0.00    -0.241 OA
ATOM     24  O   LIG d   1      -2.948  79.636 112.089  0.00  0.00    -0.241 OA
ENDBRANCH   3  22
TORSDOF 7
ENDMDL
MODEL 2
REMARK VINA RESULT:      -5.1      1.585      4.904
REMARK  7 active torsions:
REMARK  status: ('A' for Active; 'I' for Inactive)
REMARK    1  A    between atoms: C_2  and  C_3 
REMARK    2  A    between atoms: C_3  and  O_6 
REMARK    3  A    between atoms: C_3  and  C_4 
REMARK    4  A    between atoms: C_7  and  O_6 
REMARK    5  A    between atoms: C_9  and  C_10 
REMARK    6  A    between atoms: N_15  and  C_14 
REMARK    7  A    between atoms: N_20  and  C_19 
REMARK       I    between atoms: C_22  and  N_20 
ROOT
ATOM      1  C   LIG d   1      -1.860  75.781 114.782  0.00  0.00     0.161 C 
ATOM      2  C   LIG d   1      -1.573  75.185 116.021  0.00  0.00     0.016 C 
ATOM      3  C   LIG d   1      -0.508  75.597 116.854  0.00  0.00     0.038 C 
ATOM      4  C   LIG d   1       0.255  76.741 116.572  0.00  0.00     0.028 C 
ATOM      5  C   LIG d   1       0.325  77.070 115.085  0.00  0.00    -0.047 C 
ATOM      6  C   LIG d   1      -1.109  77.101 114.509  0.00  0.00     0.091 C 
ENDROOT
BRANCH   1   7
ATOM      7  O   LIG d   1      -3.282  75.978 114.652  0.00  0.00    -0.368 OA
BRANCH   7   8
ATOM      8  C   LIG d   1      -4.095  75.493 115.749  0.00  0.00     0.119 C 
BRANCH   8   9
ATOM      9  C   LIG d   1      -5.145  74.533 115.157  0.00  0.00     0.028 C 
ATOM     10  C   LIG d   1      -6.504  74.638 115.870  0.00  0.00     0.006 C 
ENDBRANCH   8   9
BRANCH   8  11
ATOM     11  C   LIG d   1      -4.899  76.628 116.391  0.00  0.00     0.028 C 
ATOM     12  C   LIG d   1      -4.208  77.220 117.630  0.00  0.00     0.006 C 
ENDBRANCH   8  11
ENDBRANCH   7   8
ENDBRANCH   1   7
BRANCH   6  13
ATOM     13  N   LIG d   1      -1.125  77.334 113.042  0.00  0.00    -0.311 N 
ATOM     14  C   LIG d   1      -1.985  78.154 112.439  0.00  0.00     0.210 C 
ATOM     15  C   LIG d   1      -1.843  78.233 110.916  0.00  0.00     0.109 C 
ATOM     16  O   LIG d   1      -2.830  78.847 113.024  0.00  0.00    -0.276 OA
ATOM     17  H   LIG d   1      -0.453  76.834 112.493  0.00  0.00     0.149 HD
ENDBRANCH   6  13
BRANCH   5  18
ATOM     18  N   LIG d   1       1.032  78.357 114.947  0.00  0.00     0.381 N 
ATOM     19  H   LIG d   1       1.889  78.330 115.463  0.00  0.00    -0.090 HD
ATOM     20  H   LIG d   1       0.457  79.087 115.329  0.00  0.00    -0.090 HD
ATOM     21  H   LIG d   1       1.220  78.541 113.986  0.00  0.00    -0.090 HD
ENDBRANCH   5  18
BRANCH   3  22
ATOM     22  C   LIG d   1      -0.170  74.838 117.965  0.00  0.00     0.382 C 
ATOM     23  O   LIG d   1      -1.072  74.379 118.707  0.00  0.00    -0.241 OA
ATOM     24  O   LIG d   1       1.024  74.644 118.258  0.00  0.00    -0.241 OA
ENDBRANCH   3  22
TORSDOF 7
ENDMDL
MODEL 3
REMARK VINA RESULT:      -5.0      4.295      6.186
REMARK  7 active torsions:
REMARK  status: ('A' for Active; 'I' for Inactive)
REMARK    1  A    between atoms: C_2  and  C_3 
REMARK    2  A    between atoms: C_3  and  O_6 
REMARK    3  A    between atoms: C_3  and  C_4 
REMARK    4  A    between atoms: C_7  and  O_6 
REMARK    5  A    between atoms: C_9  and  C_10 
REMARK    6  A    between atoms: N_15  and  C_14 
REMARK    7  A    between atoms: N_20  and  C_19 
REMARK       I    between atoms: C_22  and  N_20 
ROOT
ATOM      1  C   LIG d   1       0.931  80.735 114.150  0.00  0.00     0.161 C 
ATOM      2  C   LIG d   1       0.596  81.919 113.472  0.00  0.00     0.016 C 
ATOM      3  C   LIG d   1      -0.532  82.040 112.628  0.00  0.00     0.038 C 
ATOM      4  C   LIG d   1      -1.492  81.022 112.523  0.00  0.00     0.028 C 
ATOM      5  C   LIG d   1      -0.931  79.630 112.793  0.00  0.00    -0.047 C 
ATOM      6  C   LIG d   1      -0.165  79.649 114.136  0.00  0.00     0.091 C 
ENDROOT
BRANCH   1   7
ATOM      7  O   LIG d   1       1.316  81.040 115.505  0.00  0.00    -0.368 OA
BRANCH   7   8
ATOM      8  C   LIG d   1       0.260  81.516 116.376  0.00  0.00     0.119 C 
BRANCH   8   9
ATOM      9  C   LIG d   1       0.738  82.840 117.003  0.00  0.00     0.028 C 
ATOM     10  C   LIG d   1       0.024  84.063 116.405  0.00  0.00     0.006 C 
ENDBRANCH   8   9
BRANCH   8  11
ATOM     11  C   LIG d   1       0.041  80.564 117.556  0.00  0.00     0.028 C 
ATOM     12  C   LIG d   1      -0.888  81.151 118.630  0.00  0.00     0.006 C 
ENDBRANCH   8  11
ENDBRANCH   7   8
ENDBRANCH   1   7
BRANCH   6  13
ATOM     13  N   LIG d   1       0.487  78.348 114.435  0.00  0.00    -0.311 N 
ATOM     14  C   LIG d   1      -0.071  77.405 115.193  0.00  0.00     0.210 C 
ATOM     15  C   LIG d   1       0.781  76.147 115.391  0.00  0.00     0.109 C 
ATOM     16  O   LIG d   1      -1.203  77.478 115.693  0.00  0.00    -0.276 OA
ATOM     17  H   LIG d   1       1.395  78.192 114.043  0.00  0.00     0.149 HD
ENDBRANCH   6  13
BRANCH   5  18
ATOM     18  N   LIG d   1      -2.063  78.684 112.787  0.00  0.00     0.381 N 
ATOM     19  H   LIG d   1      -2.845  79.096 112.317  0.00  0.00    -0.090 HD
ATOM     20  H   LIG d   1      -2.331  78.491 113.736  0.00  0.00    -0.090 HD
ATOM     21  H   LIG d   1      -1.799  77.840 112.330  0.00  0.00    -0.090 HD
ENDBRANCH   5  18
BRANCH   3  22
ATOM     22  C   LIG d   1      -0.687  83.175 111.846  0.00  0.00     0.382 C 
ATOM     23  O   LIG d   1      -0.937  84.279 112.387  0.00  0.00    -0.241 OA
ATOM     24  O   LIG d   1      -0.624  83.100 110.605  0.00  0.00    -0.241 OA
ENDBRANCH   3  22
TORSDOF 7
ENDMDL
MODEL 4
REMARK VINA RESULT:      -4.8      2.349      4.844
REMARK  7 active torsions:
REMARK  status: ('A' for Active; 'I' for Inactive)
REMARK    1  A    between atoms: C_2  and  C_3 
REMARK    2  A    between atoms: C_3  and  O_6 
REMARK    3  A    between atoms: C_3  and  C_4 
REMARK    4  A    between atoms: C_7  and  O_6 
REMARK    5  A    between atoms: C_9  and  C_10 
REMARK    6  A    between atoms: N_15  and  C_14 
REMARK    7  A    between atoms: N_20  and  C_19 
REMARK       I    between atoms: C_22  and  N_20 
ROOT
ATOM      1  C   LIG d   1      -2.839  75.539 115.800  0.00  0.00     0.161 C 
ATOM      2  C   LIG d   1      -4.041  75.525 115.073  0.00  0.00     0.016 C 
ATOM      3  C   LIG d   1      -5.192  76.250 115.460  0.00  0.00     0.038 C 
ATOM      4  C   LIG d   1      -5.171  77.162 116.525  0.00  0.00     0.028 C 
ATOM      5  C   LIG d   1      -4.131  76.828 117.589  0.00  0.00    -0.047 C 
ATOM      6  C   LIG d   1      -2.762  76.616 116.903  0.00  0.00     0.091 C 
ENDROOT
BRANCH   1   7
ATOM      7  O   LIG d   1      -1.723  75.666 114.897  0.00  0.00    -0.368 OA
BRANCH   7   8
ATOM      8  C   LIG d   1      -1.392  77.013 114.478  0.00  0.00     0.119 C 
BRANCH   8   9
ATOM      9  C   LIG d   1      -1.487  77.056 112.940  0.00  0.00     0.028 C 
ATOM     10  C   LIG d   1      -2.716  77.839 112.450  0.00  0.00     0.006 C 
ENDBRANCH   8   9
BRANCH   8  11
ATOM     11  C   LIG d   1       0.064  77.357 114.804  0.00  0.00     0.028 C 
ATOM     12  C   LIG d   1       0.869  76.141 115.290  0.00  0.00     0.006 C 
ENDBRANCH   8  11
ENDBRANCH   7   8
ENDBRANCH   1   7
BRANCH   6  13
ATOM     13  N   LIG d   1      -1.705  76.202 117.863  0.00  0.00    -0.311 N 
ATOM     14  C   LIG d   1      -0.860  77.057 118.436  0.00  0.00     0.210 C 
ATOM     15  C   LIG d   1       0.165  76.419 119.379  0.00  0.00     0.109 C 
ATOM     16  O   LIG d   1      -0.882  78.287 118.277  0.00  0.00    -0.276 OA
ATOM     17  H   LIG d   1      -1.636  75.225 118.072  0.00  0.00     0.149 HD
ENDBRANCH   6  13
BRANCH   5  18
ATOM     18  N   LIG d   1      -4.123  77.932 118.566  0.00  0.00     0.381 N 
ATOM     19  H   LIG d   1      -3.813  77.595 119.456  0.00  0.00    -0.090 HD
ATOM     20  H   LIG d   1      -5.059  78.282 118.670  0.00  0.00    -0.090 HD
ATOM     21  H   LIG d   1      -3.521  78.662 118.252  0.00  0.00    -0.090 HD
ENDBRANCH   5  18
BRANCH   3  22
ATOM     22  C   LIG d   1      -6.393  76.033 114.801  0.00  0.00     0.382 C 
ATOM     23  O   LIG d   1      -7.431  75.778 115.458  0.00  0.00    -0.241 OA
ATOM     24  O   LIG d   1      -6.442  76.047 113.556  0.00  0.00    -0.241 OA
ENDBRANCH   3  22
TORSDOF 7
ENDMDL
MODEL 5
REMARK VINA RESULT:      -4.6      1.958      3.235
REMARK  7 active torsions:
REMARK  status: ('A' for Active; 'I' for Inactive)
REMARK    1  A    between atoms: C_2  and  C_3 
REMARK    2  A    between atoms: C_3  and  O_6 
REMARK    3  A    between atoms: C_3  and  C_4 
REMARK    4  A    between atoms: C_7  and  O_6 
REMARK    5  A    between atoms: C_9  and  C_10 
REMARK    6  A    between atoms: N_15  and  C_14 
REMARK    7  A    between atoms: N_20  and  C_19 
REMARK       I    between atoms: C_22  and  N_20 
ROOT
ATOM      1  C   LIG d   1      -1.054  76.622 114.868  0.00  0.00     0.161 C 
ATOM      2  C   LIG d   1      -1.895  76.974 113.799  0.00  0.00     0.016 C 
ATOM      3  C   LIG d   1      -1.681  78.109 112.983  0.00  0.00     0.038 C 
ATOM      4  C   LIG d   1      -0.520  78.889 113.087  0.00  0.00     0.028 C 
ATOM      5  C   LIG d   1       0.102  78.867 114.479  0.00  0.00    -0.047 C 
ATOM      6  C   LIG d   1       0.278  77.397 114.926  0.00  0.00     0.091 C 
ENDROOT
BRANCH   1   7
ATOM      7  O   LIG d   1      -0.807  75.202 114.847  0.00  0.00    -0.368 OA
BRANCH   7   8
ATOM      8  C   LIG d   1      -1.472  74.424 115.872  0.00  0.00     0.119 C 
BRANCH   8   9
ATOM      9  C   LIG d   1      -2.636  75.274 116.416  0.00  0.00     0.028 C 
ATOM     10  C   LIG d   1      -4.000  74.819 115.871  0.00  0.00     0.006 C 
ENDBRANCH   8   9
BRANCH   8  11
ATOM     11  C   LIG d   1      -0.552  74.180 117.072  0.00  0.00     0.028 C 
ATOM     12  C   LIG d   1      -1.274  74.343 118.419  0.00  0.00     0.006 C 
ENDBRANCH   8  11
ENDBRANCH   7   8
ENDBRANCH   1   7
BRANCH   6  13
ATOM     13  N   LIG d   1       0.804  77.286 116.312  0.00  0.00    -0.311 N 
ATOM     14  C   LIG d   1       0.172  77.775 117.377  0.00  0.00     0.210 C 
ATOM     15  C   LIG d   1       0.897  77.569 118.710  0.00  0.00     0.109 C 
ATOM     16  O   LIG d   1      -0.936  78.332 117.348  0.00  0.00    -0.276 OA
ATOM     17  H   LIG d   1       1.682  76.821 116.430  0.00  0.00     0.149 HD
ENDBRANCH   6  13
BRANCH   5  18
ATOM     18  N   LIG d   1       1.377  79.606 114.409  0.00  0.00     0.381 N 
ATOM     19  H   LIG d   1       2.128  79.015 114.703  0.00  0.00    -0.090 HD
ATOM     20  H   LIG d   1       1.331  80.392 115.034  0.00  0.00    -0.090 HD
ATOM     21  H   LIG d   1       1.537  79.922 113.478  0.00  0.00    -0.090 HD
ENDBRANCH   5  18
BRANCH   3  22
ATOM     22  C   LIG d   1      -2.656  78.497 112.076  0.00  0.00     0.382 C 
ATOM     23  O   LIG d   1      -3.105  77.670 111.246  0.00  0.00    -0.241 OA
ATOM     24  O   LIG d   1      -3.061  79.674 112.049  0.00  0.00    -0.241 OA
ENDBRANCH   3  22
TORSDOF 7
ENDMDL
MODEL 6
REMARK VINA RESULT:      -4.6      4.064      7.322
REMARK  7 active torsions:
REMARK  status: ('A' for Active; 'I' for Inactive)
REMARK    1  A    between atoms: C_2  and  C_3 
REMARK    2  A    between atoms: C_3  and  O_6 
REMARK    3  A    between atoms: C_3  and  C_4 
REMARK    4  A    between atoms: C_7  and  O_6 
REMARK    5  A    between atoms: C_9  and  C_10 
REMARK    6  A    between atoms: N_15  and  C_14 
REMARK    7  A    between atoms: N_20  and  C_19 
REMARK       I    between atoms: C_22  and  N_20 
ROOT
ATOM      1  C   LIG d   1      -0.020  79.878 113.695  0.00  0.00     0.161 C 
ATOM      2  C   LIG d   1      -0.168  78.657 114.373  0.00  0.00     0.016 C 
ATOM      3  C   LIG d   1      -0.718  77.498 113.777  0.00  0.00     0.038 C 
ATOM      4  C   LIG d   1      -1.020  77.440 112.409  0.00  0.00     0.028 C 
ATOM      5  C   LIG d   1      -1.358  78.799 111.804  0.00  0.00    -0.047 C 
ATOM      6  C   LIG d   1      -0.240  79.802 112.169  0.00  0.00     0.091 C 
ENDROOT
BRANCH   1   7
ATOM      7  O   LIG d   1       1.273  80.445 113.986  0.00  0.00    -0.368 OA
BRANCH   7   8
ATOM      8  C   LIG d   1       1.285  81.565 114.906  0.00  0.00     0.119 C 
BRANCH   8   9
ATOM      9  C   LIG d   1       1.361  80.990 116.334  0.00  0.00     0.028 C 
ATOM     10  C   LIG d   1       0.096  81.292 117.156  0.00  0.00     0.006 C 
ENDBRANCH   8   9
BRANCH   8  11
ATOM     11  C   LIG d   1      -0.032  82.345 114.852  0.00  0.00     0.028 C 
ATOM     12  C   LIG d   1       0.137  83.759 114.275  0.00  0.00     0.006 C 
ENDBRANCH   8  11
ENDBRANCH   7   8
ENDBRANCH   1   7
BRANCH   6  13
ATOM     13  N   LIG d   1      -0.534  81.178 111.688  0.00  0.00    -0.311 N 
ATOM     14  C   LIG d   1       0.325  81.904 110.976  0.00  0.00     0.210 C 
ATOM     15  C   LIG d   1      -0.169  83.304 110.599  0.00  0.00     0.109 C 
ATOM     16  O   LIG d   1       1.437  81.510 110.593  0.00  0.00    -0.276 OA
ATOM     17  H   LIG d   1      -1.427  81.563 111.927  0.00  0.00     0.149 HD
ENDBRANCH   6  13
BRANCH   5  18
ATOM     18  N   LIG d   1      -1.516  78.613 110.350  0.00  0.00     0.381 N 
ATOM     19  H   LIG d   1      -0.847  79.175 109.862  0.00  0.00    -0.090 HD
ATOM     20  H   LIG d   1      -2.436  78.913 110.081  0.00  0.00    -0.090 HD
ATOM     21  H   LIG d   1      -1.389  77.653 110.113  0.00  0.00    -0.090 HD
ENDBRANCH   5  18
BRANCH   3  22
ATOM     22  C   LIG d   1      -1.009  76.394 114.564  0.00  0.00     0.382 C 
ATOM     23  O   LIG d   1      -0.079  75.679 115.009  0.00  0.00    -0.241 OA
ATOM     24  O   LIG d   1      -2.191  76.078 114.797  0.00  0.00    -0.241 OA
ENDBRANCH   3  22
TORSDOF 7
ENDMDL
MODEL 7
REMARK VINA RESULT:      -4.5      2.684      5.176
REMARK  7 active torsions:
REMARK  status: ('A' for Active; 'I' for Inactive)
REMARK    1  A    between atoms: C_2  and  C_3 
REMARK    2  A    between atoms: C_3  and  O_6 
REMARK    3  A    between atoms: C_3  and  C_4 
REMARK    4  A    between atoms: C_7  and  O_6 
REMARK    5  A    between atoms: C_9  and  C_10 
REMARK    6  A    between atoms: N_15  and  C_14 
REMARK    7  A    between atoms: N_20  and  C_19 
REMARK       I    between atoms: C_22  and  N_20 
ROOT
ATOM      1  C   LIG d   1      -3.120  76.276 116.075  0.00  0.00     0.161 C 
ATOM      2  C   LIG d   1      -4.180  76.042 115.183  0.00  0.00     0.016 C 
ATOM      3  C   LIG d   1      -5.509  76.456 115.429  0.00  0.00     0.038 C 
ATOM      4  C   LIG d   1      -5.843  77.271 116.521  0.00  0.00     0.028 C 
ATOM      5  C   LIG d   1      -4.901  77.106 117.709  0.00  0.00    -0.047 C 
ATOM      6  C   LIG d   1      -3.443  77.260 117.219  0.00  0.00     0.091 C 
ENDROOT
BRANCH   1   7
ATOM      7  O   LIG d   1      -1.958  76.719 115.347  0.00  0.00    -0.368 OA
BRANCH   7   8
ATOM      8  C   LIG d   1      -0.963  75.705 115.058  0.00  0.00     0.119 C 
BRANCH   8   9
ATOM      9  C   LIG d   1      -1.073  74.624 116.150  0.00  0.00     0.028 C 
ATOM     10  C   LIG d   1       0.158  74.593 117.072  0.00  0.00     0.006 C 
ENDBRANCH   8   9
BRANCH   8  11
ATOM     11  C   LIG d   1       0.457  76.266 115.184  0.00  0.00     0.028 C 
ATOM     12  C   LIG d   1       0.502  77.799 115.093  0.00  0.00     0.006 C 
ENDBRANCH   8  11
ENDBRANCH   7   8
ENDBRANCH   1   7
BRANCH   6  13
ATOM     13  N   LIG d   1      -2.453  77.030 118.303  0.00  0.00    -0.311 N 
ATOM     14  C   LIG d   1      -1.431  77.848 118.550  0.00  0.00     0.210 C 
ATOM     15  C   LIG d   1      -0.518  77.414 119.700  0.00  0.00     0.109 C 
ATOM     16  O   LIG d   1      -1.213  78.908 117.945  0.00  0.00    -0.276 OA
ATOM     17  H   LIG d   1      -2.573  76.208 118.863  0.00  0.00     0.149 HD
ENDBRANCH   6  13
BRANCH   5  18
ATOM     18  N   LIG d   1      -5.280  78.110 118.721  0.00  0.00     0.381 N 
ATOM     19  H   LIG d   1      -6.213  77.937 119.037  0.00  0.00    -0.090 HD
ATOM     20  H   LIG d   1      -5.254  79.022 118.300  0.00  0.00    -0.090 HD
ATOM     21  H   LIG d   1      -4.649  78.074 119.491  0.00  0.00    -0.090 HD
ENDBRANCH   5  18
BRANCH   3  22
ATOM     22  C   LIG d   1      -6.530  76.021 114.596  0.00  0.00     0.382 C 
ATOM     23  O   LIG d   1      -7.623  75.649 115.087  0.00  0.00    -0.241 OA
ATOM     24  O   LIG d   1      -6.355  75.954 113.365  0.00  0.00    -0.241 OA
ENDBRANCH   3  22
TORSDOF 7
ENDMDL
MODEL 8
REMARK VINA RESULT:      -4.3      2.994      5.723
REMARK  7 active torsions:
REMARK  status: ('A' for Active; 'I' for Inactive)
REMARK    1  A    between atoms: C_2  and  C_3 
REMARK    2  A    between atoms: C_3  and  O_6 
REMARK    3  A    between atoms: C_3  and  C_4 
REMARK    4  A    between atoms: C_7  and  O_6 
REMARK    5  A    between atoms: C_9  and  C_10 
REMARK    6  A    between atoms: N_15  and  C_14 
REMARK    7  A    between atoms: N_20  and  C_19 
REMARK       I    between atoms: C_22  and  N_20 
ROOT
ATOM      1  C   LIG d   1      -3.366  77.293 117.812  0.00  0.00     0.161 C 
ATOM      2  C   LIG d   1      -4.573  77.688 118.413  0.00  0.00     0.016 C 
ATOM      3  C   LIG d   1      -5.835  77.545 117.791  0.00  0.00     0.038 C 
ATOM      4  C   LIG d   1      -5.991  76.856 116.580  0.00  0.00     0.028 C 
ATOM      5  C   LIG d   1      -4.746  76.888 115.700  0.00  0.00    -0.047 C 
ATOM      6  C   LIG d   1      -3.528  76.438 116.538  0.00  0.00     0.091 C 
ENDROOT
BRANCH   1   7
ATOM      7  O   LIG d   1      -2.542  76.607 118.775  0.00  0.00    -0.368 OA
BRANCH   7   8
ATOM      8  C   LIG d   1      -1.351  77.309 119.209  0.00  0.00     0.119 C 
BRANCH   8   9
ATOM      9  C   LIG d   1      -1.302  78.650 118.452  0.00  0.00     0.028 C 
ATOM     10  C   LIG d   1      -0.053  78.778 117.564  0.00  0.00     0.006 C 
ENDBRANCH   8   9
BRANCH   8  11
ATOM     11  C   LIG d   1      -0.081  76.562 118.793  0.00  0.00     0.028 C 
ATOM     12  C   LIG d   1      -0.243  75.034 118.847  0.00  0.00     0.006 C 
ENDBRANCH   8  11
ENDBRANCH   7   8
ENDBRANCH   1   7
BRANCH   6  13
ATOM     13  N   LIG d   1      -2.254  76.521 115.776  0.00  0.00    -0.311 N 
ATOM     14  C   LIG d   1      -1.511  75.458 115.472  0.00  0.00     0.210 C 
ATOM     15  C   LIG d   1      -0.226  75.767 114.698  0.00  0.00     0.109 C 
ATOM     16  O   LIG d   1      -1.811  74.285 115.742  0.00  0.00    -0.276 OA
ATOM     17  H   LIG d   1      -1.952  77.432 115.490  0.00  0.00     0.149 HD
ENDBRANCH   6  13
BRANCH   5  18
ATOM     18  N   LIG d   1      -5.001  76.018 114.536  0.00  0.00     0.381 N 
ATOM     19  H   LIG d   1      -4.446  75.188 114.606  0.00  0.00    -0.090 HD
ATOM     20  H   LIG d   1      -4.732  76.506 113.700  0.00  0.00    -0.090 HD
ATOM     21  H   LIG d   1      -5.967  75.778 114.494  0.00  0.00    -0.090 HD
ENDBRANCH   5  18
BRANCH   3  22
ATOM     22  C   LIG d   1      -6.953  78.132 118.364  0.00  0.00     0.382 C 
ATOM     23  O   LIG d   1      -7.131  78.064 119.604  0.00  0.00    -0.241 OA
ATOM     24  O   LIG d   1      -7.809  78.690 117.651  0.00  0.00    -0.241 OA
ENDBRANCH   3  22
TORSDOF 7
ENDMDL
MODEL 9
REMARK VINA RESULT:      -4.1      4.527      7.080
REMARK  7 active torsions:
REMARK  status: ('A' for Active; 'I' for Inactive)
REMARK    1  A    between atoms: C_2  and  C_3 
REMARK    2  A    between atoms: C_3  and  O_6 
REMARK    3  A    between atoms: C_3  and  C_4 
REMARK    4  A    between atoms: C_7  and  O_6 
REMARK    5  A    between atoms: C_9  and  C_10 
REMARK    6  A    between atoms: N_15  and  C_14 
REMARK    7  A    between atoms: N_20  and  C_19 
REMARK       I    between atoms: C_22  and  N_20 
ROOT
ATOM      1  C   LIG d   1       0.232  80.157 113.882  0.00  0.00     0.161 C 
ATOM      2  C   LIG d   1      -0.483  78.971 113.647  0.00  0.00     0.016 C 
ATOM      3  C   LIG d   1      -1.046  78.637 112.394  0.00  0.00     0.038 C 
ATOM      4  C   LIG d   1      -0.802  79.402 111.243  0.00  0.00     0.028 C 
ATOM      5  C   LIG d   1      -0.510  80.868 111.542  0.00  0.00    -0.047 C 
ATOM      6  C   LIG d   1       0.603  80.951 112.611  0.00  0.00     0.091 C 
ENDROOT
BRANCH   1   7
ATOM      7  O   LIG d   1       1.412  79.871 114.657  0.00  0.00    -0.368 OA
BRANCH   7   8
ATOM      8  C   LIG d   1       1.422  80.378 116.014  0.00  0.00     0.119 C 
BRANCH   8   9
ATOM      9  C   LIG d   1       1.408  79.163 116.962  0.00  0.00     0.028 C 
ATOM     10  C   LIG d   1      -0.014  78.775 117.399  0.00  0.00     0.006 C 
ENDBRANCH   8   9
BRANCH   8  11
ATOM     11  C   LIG d   1       0.138  81.151 116.329  0.00  0.00     0.028 C 
ATOM     12  C   LIG d   1       0.406  82.609 116.737  0.00  0.00     0.006 C 
ENDBRANCH   8  11
ENDBRANCH   7   8
ENDBRANCH   1   7
BRANCH   6  13
ATOM     13  N   LIG d   1       0.892  82.349 113.023  0.00  0.00    -0.311 N 
ATOM     14  C   LIG d   1      -0.037  83.302 113.084  0.00  0.00     0.210 C 
ATOM     15  C   LIG d   1       0.477  84.680 113.513  0.00  0.00     0.109 C 
ATOM     16  O   LIG d   1      -1.243  83.129 112.854  0.00  0.00    -0.276 OA
ATOM     17  H   LIG d   1       1.840  82.570 113.257  0.00  0.00     0.149 HD
ENDBRANCH   6  13
BRANCH   5  18
ATOM     18  N   LIG d   1      -0.138  81.517 110.270  0.00  0.00     0.381 N 
ATOM     19  H   LIG d   1      -0.927  82.005 109.896  0.00  0.00    -0.090 HD
ATOM     20  H   LIG d   1       0.136  80.809 109.612  0.00  0.00    -0.090 HD
ATOM     21  H   LIG d   1       0.615  82.152 110.418  0.00  0.00    -0.090 HD
ENDBRANCH   5  18
BRANCH   3  22
ATOM     22  C   LIG d   1      -1.898  77.547 112.291  0.00  0.00     0.382 C 
ATOM     23  O   LIG d   1      -3.127  77.691 112.497  0.00  0.00    -0.241 OA
ATOM     24  O   LIG d   1      -1.446  76.414 112.039  0.00  0.00    -0.241 OA
ENDBRANCH   3  22
TORSDOF 7
ENDMDL
