MODEL 1
REMARK VINA RESULT:      -5.6      0.000      0.000
REMARK  7 active torsions:
REMARK  status: ('A' for Active; 'I' for Inactive)
REMARK    1  A    between atoms: C_2  and  C_3 
REMARK    2  A    between atoms: C_3  and  O_6 
REMARK    3  A    between atoms: C_3  and  C_4 
REMARK    4  A    between atoms: C_7  and  O_6 
REMARK    5  A    between atoms: C_9  and  C_10 
REMARK    6  A    between atoms: N_15  and  C_14 
REMARK    7  A    between atoms: N_20  and  C_19 
REMARK       I    between atoms: C_22  and  N_20 
ROOT
ATOM      1  C   LIG d   1      -2.790  78.081 116.467  0.00  0.00     0.161 C 
ATOM      2  C   LIG d   1      -3.081  78.907 115.369  0.00  0.00     0.016 C 
ATOM      3  C   LIG d   1      -2.417  78.811 114.124  0.00  0.00     0.038 C 
ATOM      4  C   LIG d   1      -1.516  77.774 113.843  0.00  0.00     0.028 C 
ATOM      5  C   LIG d   1      -0.819  77.224 115.084  0.00  0.00    -0.047 C 
ATOM      6  C   LIG d   1      -1.887  76.871 116.144  0.00  0.00     0.091 C 
ENDROOT
BRANCH   1   7
ATOM      7  O   LIG d   1      -4.015  77.640 117.086  0.00  0.00    -0.368 OA
BRANCH   7   8
ATOM      8  C   LIG d   1      -5.173  77.558 116.219  0.00  0.00     0.119 C 
BRANCH   8   9
ATOM      9  C   LIG d   1      -6.412  77.903 117.069  0.00  0.00     0.028 C 
ATOM     10  C   LIG d   1      -7.364  76.706 117.231  0.00  0.00     0.006 C 
ENDBRANCH   8   9
BRANCH   8  11
ATOM     11  C   LIG d   1      -5.403  76.125 115.730  0.00  0.00     0.028 C 
ATOM     12  C   LIG d   1      -5.303  75.994 114.202  0.00  0.00     0.006 C 
ENDBRANCH   8  11
ENDBRANCH   7   8
ENDBRANCH   1   7
BRANCH   6  13
ATOM     13  N   LIG d   1      -1.286  76.405 117.421  0.00  0.00    -0.311 N 
ATOM     14  C   LIG d   1      -1.065  75.122 117.701  0.00  0.00     0.210 C 
ATOM     15  C   LIG d   1      -0.456  74.858 119.082  0.00  0.00     0.109 C 
ATOM     16  O   LIG d   1      -1.286  74.180 116.925  0.00  0.00    -0.276 OA
ATOM     17  H   LIG d   1      -1.047  77.106 118.095  0.00  0.00     0.149 HD
ENDBRANCH   6  13
BRANCH   5  18
ATOM     18  N   LIG d   1      -0.014  76.062 114.664  0.00  0.00     0.381 N 
ATOM     19  H   LIG d   1       0.605  75.794 115.403  0.00  0.00    -0.090 HD
ATOM     20  H   LIG d   1       0.539  76.320 113.866  0.00  0.00    -0.090 HD
ATOM     21  H   LIG d   1      -0.612  75.300 114.430  0.00  0.00    -0.090 HD
ENDBRANCH   5  18
BRANCH   3  22
ATOM     22  C   LIG d   1      -2.625  79.784 113.158  0.00  0.00     0.382 C 
ATOM     23  O   LIG d   1      -1.974  79.751 112.086  0.00  0.00    -0.241 OA
ATOM     24  O   LIG d   1      -3.422  80.719 113.364  0.00  0.00    -0.241 OA
ENDBRANCH   3  22
TORSDOF 7
ENDMDL
MODEL 2
REMARK VINA RESULT:      -5.4      1.968      4.879
REMARK  7 active torsions:
REMARK  status: ('A' for Active; 'I' for Inactive)
REMARK    1  A    between atoms: C_2  and  C_3 
REMARK    2  A    between atoms: C_3  and  O_6 
REMARK    3  A    between atoms: C_3  and  C_4 
REMARK    4  A    between atoms: C_7  and  O_6 
REMARK    5  A    between atoms: C_9  and  C_10 
REMARK    6  A    between atoms: N_15  and  C_14 
REMARK    7  A    between atoms: N_20  and  C_19 
REMARK       I    between atoms: C_22  and  N_20 
ROOT
ATOM      1  C   LIG d   1      -2.088  75.905 114.951  0.00  0.00     0.161 C 
ATOM      2  C   LIG d   1      -2.011  75.477 116.287  0.00  0.00     0.016 C 
ATOM      3  C   LIG d   1      -1.354  76.210 117.302  0.00  0.00     0.038 C 
ATOM      4  C   LIG d   1      -0.855  77.502 117.080  0.00  0.00     0.028 C 
ATOM      5  C   LIG d   1      -0.464  77.759 115.628  0.00  0.00    -0.047 C 
ATOM      6  C   LIG d   1      -1.646  77.365 114.713  0.00  0.00     0.091 C 
ENDROOT
BRANCH   1   7
ATOM      7  O   LIG d   1      -3.422  75.697 114.447  0.00  0.00    -0.368 OA
BRANCH   7   8
ATOM      8  C   LIG d   1      -4.461  75.532 115.444  0.00  0.00     0.119 C 
BRANCH   8   9
ATOM      9  C   LIG d   1      -5.363  74.370 114.984  0.00  0.00     0.028 C 
ATOM     10  C   LIG d   1      -6.586  74.180 115.896  0.00  0.00     0.006 C 
ENDBRANCH   8   9
BRANCH   8  11
ATOM     11  C   LIG d   1      -5.377  76.758 115.502  0.00  0.00     0.028 C 
ATOM     12  C   LIG d   1      -5.109  77.644 116.728  0.00  0.00     0.006 C 
ENDBRANCH   8  11
ENDBRANCH   7   8
ENDBRANCH   1   7
BRANCH   6  13
ATOM     13  N   LIG d   1      -1.318  77.505 113.271  0.00  0.00    -0.311 N 
ATOM     14  C   LIG d   1      -2.128  78.087 112.388  0.00  0.00     0.210 C 
ATOM     15  C   LIG d   1      -1.606  78.109 110.948  0.00  0.00     0.109 C 
ATOM     16  O   LIG d   1      -3.215  78.615 112.666  0.00  0.00    -0.276 OA
ATOM     17  H   LIG d   1      -0.441  77.132 112.964  0.00  0.00     0.149 HD
ENDBRANCH   6  13
BRANCH   5  18
ATOM     18  N   LIG d   1      -0.093  79.182 115.512  0.00  0.00     0.381 N 
ATOM     19  H   LIG d   1       0.026  79.423 114.548  0.00  0.00    -0.090 HD
ATOM     20  H   LIG d   1       0.782  79.329 115.984  0.00  0.00    -0.090 HD
ATOM     21  H   LIG d   1      -0.799  79.753 115.920  0.00  0.00    -0.090 HD
ENDBRANCH   5  18
BRANCH   3  22
ATOM     22  C   LIG d   1      -1.154  75.632 118.547  0.00  0.00     0.382 C 
ATOM     23  O   LIG d   1      -0.798  74.432 118.632  0.00  0.00    -0.241 OA
ATOM     24  O   LIG d   1      -1.370  76.283 119.587  0.00  0.00    -0.241 OA
ENDBRANCH   3  22
TORSDOF 7
ENDMDL
MODEL 3
REMARK VINA RESULT:      -5.1      2.090      4.517
REMARK  7 active torsions:
REMARK  status: ('A' for Active; 'I' for Inactive)
REMARK    1  A    between atoms: C_2  and  C_3 
REMARK    2  A    between atoms: C_3  and  O_6 
REMARK    3  A    between atoms: C_3  and  C_4 
REMARK    4  A    between atoms: C_7  and  O_6 
REMARK    5  A    between atoms: C_9  and  C_10 
REMARK    6  A    between atoms: N_15  and  C_14 
REMARK    7  A    between atoms: N_20  and  C_19 
REMARK       I    between atoms: C_22  and  N_20 
ROOT
ATOM      1  C   LIG d   1      -3.379  77.496 115.750  0.00  0.00     0.161 C 
ATOM      2  C   LIG d   1      -3.143  77.520 117.134  0.00  0.00     0.016 C 
ATOM      3  C   LIG d   1      -1.993  78.100 117.718  0.00  0.00     0.038 C 
ATOM      4  C   LIG d   1      -1.069  78.836 116.961  0.00  0.00     0.028 C 
ATOM      5  C   LIG d   1      -1.005  78.407 115.499  0.00  0.00    -0.047 C 
ATOM      6  C   LIG d   1      -2.437  78.391 114.918  0.00  0.00     0.091 C 
ENDROOT
BRANCH   1   7
ATOM      7  O   LIG d   1      -4.755  77.833 115.483  0.00  0.00    -0.368 OA
BRANCH   7   8
ATOM      8  C   LIG d   1      -5.615  76.736 115.087  0.00  0.00     0.119 C 
BRANCH   8   9
ATOM      9  C   LIG d   1      -6.517  76.397 116.289  0.00  0.00     0.028 C 
ATOM     10  C   LIG d   1      -6.690  77.588 117.247  0.00  0.00     0.006 C 
ENDBRANCH   8   9
BRANCH   8  11
ATOM     11  C   LIG d   1      -4.806  75.464 114.815  0.00  0.00     0.028 C 
ATOM     12  C   LIG d   1      -5.608  74.180 115.080  0.00  0.00     0.006 C 
ENDBRANCH   8  11
ENDBRANCH   7   8
ENDBRANCH   1   7
BRANCH   6  13
ATOM     13  N   LIG d   1      -2.474  77.901 113.515  0.00  0.00    -0.311 N 
ATOM     14  C   LIG d   1      -2.436  78.707 112.455  0.00  0.00     0.210 C 
ATOM     15  C   LIG d   1      -2.506  77.997 111.100  0.00  0.00     0.109 C 
ATOM     16  O   LIG d   1      -2.320  79.940 112.509  0.00  0.00    -0.276 OA
ATOM     17  H   LIG d   1      -2.537  76.911 113.379  0.00  0.00     0.149 HD
ENDBRANCH   6  13
BRANCH   5  18
ATOM     18  N   LIG d   1      -0.106  79.343 114.798  0.00  0.00     0.381 N 
ATOM     19  H   LIG d   1       0.581  78.832 114.282  0.00  0.00    -0.090 HD
ATOM     20  H   LIG d   1       0.368  79.910 115.479  0.00  0.00    -0.090 HD
ATOM     21  H   LIG d   1      -0.632  79.923 114.182  0.00  0.00    -0.090 HD
ENDBRANCH   5  18
BRANCH   3  22
ATOM     22  C   LIG d   1      -1.739  77.914 119.068  0.00  0.00     0.382 C 
ATOM     23  O   LIG d   1      -1.841  76.770 119.573  0.00  0.00    -0.241 OA
ATOM     24  O   LIG d   1      -1.452  78.883 119.796  0.00  0.00    -0.241 OA
ENDBRANCH   3  22
TORSDOF 7
ENDMDL
MODEL 4
REMARK VINA RESULT:      -4.7      3.067      4.521
REMARK  7 active torsions:
REMARK  status: ('A' for Active; 'I' for Inactive)
REMARK    1  A    between atoms: C_2  and  C_3 
REMARK    2  A    between atoms: C_3  and  O_6 
REMARK    3  A    between atoms: C_3  and  C_4 
REMARK    4  A    between atoms: C_7  and  O_6 
REMARK    5  A    between atoms: C_9  and  C_10 
REMARK    6  A    between atoms: N_15  and  C_14 
REMARK    7  A    between atoms: N_20  and  C_19 
REMARK       I    between atoms: C_22  and  N_20 
ROOT
ATOM      1  C   LIG d   1      -5.771  78.170 117.219  0.00  0.00     0.161 C 
ATOM      2  C   LIG d   1      -5.961  77.268 116.159  0.00  0.00     0.016 C 
ATOM      3  C   LIG d   1      -4.938  76.908 115.251  0.00  0.00     0.038 C 
ATOM      4  C   LIG d   1      -3.608  77.312 115.435  0.00  0.00     0.028 C 
ATOM      5  C   LIG d   1      -3.473  78.626 116.197  0.00  0.00    -0.047 C 
ATOM      6  C   LIG d   1      -4.299  78.536 117.501  0.00  0.00     0.091 C 
ENDROOT
BRANCH   1   7
ATOM      7  O   LIG d   1      -6.399  77.661 118.412  0.00  0.00    -0.368 OA
BRANCH   7   8
ATOM      8  C   LIG d   1      -7.598  78.349 118.845  0.00  0.00     0.119 C 
BRANCH   8   9
ATOM      9  C   LIG d   1      -8.802  77.621 118.215  0.00  0.00     0.028 C 
ATOM     10  C   LIG d   1      -8.831  76.124 118.565  0.00  0.00     0.006 C 
ENDBRANCH   8   9
BRANCH   8  11
ATOM     11  C   LIG d   1      -7.652  79.776 118.291  0.00  0.00     0.028 C 
ATOM     12  C   LIG d   1      -9.047  80.409 118.413  0.00  0.00     0.006 C 
ENDBRANCH   8  11
ENDBRANCH   7   8
ENDBRANCH   1   7
BRANCH   6  13
ATOM     13  N   LIG d   1      -4.290  79.809 118.267  0.00  0.00    -0.311 N 
ATOM     14  C   LIG d   1      -3.439  80.062 119.260  0.00  0.00     0.210 C 
ATOM     15  C   LIG d   1      -3.615  81.429 119.930  0.00  0.00     0.109 C 
ATOM     16  O   LIG d   1      -2.535  79.298 119.628  0.00  0.00    -0.276 OA
ATOM     17  H   LIG d   1      -4.971  80.499 118.013  0.00  0.00     0.149 HD
ENDBRANCH   6  13
BRANCH   5  18
ATOM     18  N   LIG d   1      -2.036  78.857 116.437  0.00  0.00     0.381 N 
ATOM     19  H   LIG d   1      -1.558  77.981 116.500  0.00  0.00    -0.090 HD
ATOM     20  H   LIG d   1      -1.926  79.340 117.312  0.00  0.00    -0.090 HD
ATOM     21  H   LIG d   1      -1.651  79.402 115.698  0.00  0.00    -0.090 HD
ENDBRANCH   5  18
BRANCH   3  22
ATOM     22  C   LIG d   1      -5.251  76.166 114.122  0.00  0.00     0.382 C 
ATOM     23  O   LIG d   1      -5.821  76.716 113.149  0.00  0.00    -0.241 OA
ATOM     24  O   LIG d   1      -5.011  74.945 114.082  0.00  0.00    -0.241 OA
ENDBRANCH   3  22
TORSDOF 7
ENDMDL
MODEL 5
REMARK VINA RESULT:      -4.6      2.744      5.318
REMARK  7 active torsions:
REMARK  status: ('A' for Active; 'I' for Inactive)
REMARK    1  A    between atoms: C_2  and  C_3 
REMARK    2  A    between atoms: C_3  and  O_6 
REMARK    3  A    between atoms: C_3  and  C_4 
REMARK    4  A    between atoms: C_7  and  O_6 
REMARK    5  A    between atoms: C_9  and  C_10 
REMARK    6  A    between atoms: N_15  and  C_14 
REMARK    7  A    between atoms: N_20  and  C_19 
REMARK       I    between atoms: C_22  and  N_20 
ROOT
ATOM      1  C   LIG d   1      -5.073  78.389 116.640  0.00  0.00     0.161 C 
ATOM      2  C   LIG d   1      -6.246  78.145 117.374  0.00  0.00     0.016 C 
ATOM      3  C   LIG d   1      -7.056  77.002 117.189  0.00  0.00     0.038 C 
ATOM      4  C   LIG d   1      -6.665  75.942 116.357  0.00  0.00     0.028 C 
ATOM      5  C   LIG d   1      -5.744  76.373 115.220  0.00  0.00    -0.047 C 
ATOM      6  C   LIG d   1      -4.571  77.191 115.807  0.00  0.00     0.091 C 
ENDROOT
BRANCH   1   7
ATOM      7  O   LIG d   1      -4.033  78.857 117.521  0.00  0.00    -0.368 OA
BRANCH   7   8
ATOM      8  C   LIG d   1      -3.429  77.859 118.380  0.00  0.00     0.119 C 
BRANCH   8   9
ATOM      9  C   LIG d   1      -3.486  78.396 119.824  0.00  0.00     0.028 C 
ATOM     10  C   LIG d   1      -3.933  79.866 119.886  0.00  0.00     0.006 C 
ENDBRANCH   8   9
BRANCH   8  11
ATOM     11  C   LIG d   1      -1.939  77.686 118.071  0.00  0.00     0.028 C 
ATOM     12  C   LIG d   1      -1.334  78.903 117.353  0.00  0.00     0.006 C 
ENDBRANCH   8  11
ENDBRANCH   7   8
ENDBRANCH   1   7
BRANCH   6  13
ATOM     13  N   LIG d   1      -3.668  77.723 114.753  0.00  0.00    -0.311 N 
ATOM     14  C   LIG d   1      -2.579  77.083 114.330  0.00  0.00     0.210 C 
ATOM     15  C   LIG d   1      -1.777  77.817 113.250  0.00  0.00     0.109 C 
ATOM     16  O   LIG d   1      -2.218  75.964 114.723  0.00  0.00    -0.276 OA
ATOM     17  H   LIG d   1      -3.903  78.612 114.357  0.00  0.00     0.149 HD
ENDBRANCH   6  13
BRANCH   5  18
ATOM     18  N   LIG d   1      -5.304  75.154 114.516  0.00  0.00     0.381 N 
ATOM     19  H   LIG d   1      -4.757  75.403 113.717  0.00  0.00    -0.090 HD
ATOM     20  H   LIG d   1      -6.114  74.651 114.199  0.00  0.00    -0.090 HD
ATOM     21  H   LIG d   1      -4.768  74.581 115.130  0.00  0.00    -0.090 HD
ENDBRANCH   5  18
BRANCH   3  22
ATOM     22  C   LIG d   1      -8.293  76.928 117.811  0.00  0.00     0.382 C 
ATOM     23  O   LIG d   1      -8.859  75.817 117.953  0.00  0.00    -0.241 OA
ATOM     24  O   LIG d   1      -8.871  77.964 118.192  0.00  0.00    -0.241 OA
ENDBRANCH   3  22
TORSDOF 7
ENDMDL
MODEL 6
REMARK VINA RESULT:      -4.5      2.443      3.944
REMARK  7 active torsions:
REMARK  status: ('A' for Active; 'I' for Inactive)
REMARK    1  A    between atoms: C_2  and  C_3 
REMARK    2  A    between atoms: C_3  and  O_6 
REMARK    3  A    between atoms: C_3  and  C_4 
REMARK    4  A    between atoms: C_7  and  O_6 
REMARK    5  A    between atoms: C_9  and  C_10 
REMARK    6  A    between atoms: N_15  and  C_14 
REMARK    7  A    between atoms: N_20  and  C_19 
REMARK       I    between atoms: C_22  and  N_20 
ROOT
ATOM      1  C   LIG d   1      -2.430  77.209 116.031  0.00  0.00     0.161 C 
ATOM      2  C   LIG d   1      -2.927  77.224 114.717  0.00  0.00     0.016 C 
ATOM      3  C   LIG d   1      -2.373  78.016 113.685  0.00  0.00     0.038 C 
ATOM      4  C   LIG d   1      -1.183  78.738 113.861  0.00  0.00     0.028 C 
ATOM      5  C   LIG d   1      -0.934  79.150 115.308  0.00  0.00    -0.047 C 
ATOM      6  C   LIG d   1      -1.065  77.905 116.214  0.00  0.00     0.091 C 
ENDROOT
BRANCH   1   7
ATOM      7  O   LIG d   1      -2.370  75.853 116.515  0.00  0.00    -0.368 OA
BRANCH   7   8
ATOM      8  C   LIG d   1      -1.069  75.216 116.469  0.00  0.00     0.119 C 
BRANCH   8   9
ATOM      9  C   LIG d   1      -0.992  74.414 115.155  0.00  0.00     0.028 C 
ATOM     10  C   LIG d   1      -0.058  75.068 114.123  0.00  0.00     0.006 C 
ENDBRANCH   8   9
BRANCH   8  11
ATOM     11  C   LIG d   1      -0.916  74.180 117.586  0.00  0.00     0.028 C 
ATOM     12  C   LIG d   1       0.256  74.491 118.530  0.00  0.00     0.006 C 
ENDBRANCH   8  11
ENDBRANCH   7   8
ENDBRANCH   1   7
BRANCH   6  13
ATOM     13  N   LIG d   1      -0.919  78.235 117.656  0.00  0.00    -0.311 N 
ATOM     14  C   LIG d   1       0.241  78.171 118.308  0.00  0.00     0.210 C 
ATOM     15  C   LIG d   1       0.167  78.534 119.795  0.00  0.00     0.109 C 
ATOM     16  O   LIG d   1       1.329  77.880 117.790  0.00  0.00    -0.276 OA
ATOM     17  H   LIG d   1      -1.746  78.511 118.147  0.00  0.00     0.149 HD
ENDBRANCH   6  13
BRANCH   5  18
ATOM     18  N   LIG d   1       0.402  79.772 115.370  0.00  0.00     0.381 N 
ATOM     19  H   LIG d   1       0.638  79.974 116.321  0.00  0.00    -0.090 HD
ATOM     20  H   LIG d   1       0.382  80.637 114.859  0.00  0.00    -0.090 HD
ATOM     21  H   LIG d   1       1.082  79.160 114.974  0.00  0.00    -0.090 HD
ENDBRANCH   5  18
BRANCH   3  22
ATOM     22  C   LIG d   1      -3.035  78.123 112.471  0.00  0.00     0.382 C 
ATOM     23  O   LIG d   1      -2.443  78.604 111.474  0.00  0.00    -0.241 OA
ATOM     24  O   LIG d   1      -4.230  77.786 112.370  0.00  0.00    -0.241 OA
ENDBRANCH   3  22
TORSDOF 7
ENDMDL
MODEL 7
REMARK VINA RESULT:      -4.5      2.859      5.449
REMARK  7 active torsions:
REMARK  status: ('A' for Active; 'I' for Inactive)
REMARK    1  A    between atoms: C_2  and  C_3 
REMARK    2  A    between atoms: C_3  and  O_6 
REMARK    3  A    between atoms: C_3  and  C_4 
REMARK    4  A    between atoms: C_7  and  O_6 
REMARK    5  A    between atoms: C_9  and  C_10 
REMARK    6  A    between atoms: N_15  and  C_14 
REMARK    7  A    between atoms: N_20  and  C_19 
REMARK       I    between atoms: C_22  and  N_20 
ROOT
ATOM      1  C   LIG d   1      -1.889  79.480 114.652  0.00  0.00     0.161 C 
ATOM      2  C   LIG d   1      -2.855  78.526 115.015  0.00  0.00     0.016 C 
ATOM      3  C   LIG d   1      -3.445  77.628 114.096  0.00  0.00     0.038 C 
ATOM      4  C   LIG d   1      -2.995  77.520 112.772  0.00  0.00     0.028 C 
ATOM      5  C   LIG d   1      -2.375  78.806 112.236  0.00  0.00    -0.047 C 
ATOM      6  C   LIG d   1      -1.305  79.302 113.235  0.00  0.00     0.091 C 
ENDROOT
BRANCH   1   7
ATOM      7  O   LIG d   1      -0.831  79.500 115.631  0.00  0.00    -0.368 OA
BRANCH   7   8
ATOM      8  C   LIG d   1      -1.085  78.773 116.859  0.00  0.00     0.119 C 
BRANCH   8   9
ATOM      9  C   LIG d   1      -1.061  79.793 118.014  0.00  0.00     0.028 C 
ATOM     10  C   LIG d   1      -2.418  79.900 118.730  0.00  0.00     0.006 C 
ENDBRANCH   8   9
BRANCH   8  11
ATOM     11  C   LIG d   1       0.045  77.786 117.166  0.00  0.00     0.028 C 
ATOM     12  C   LIG d   1       0.009  76.540 116.266  0.00  0.00     0.006 C 
ENDBRANCH   8  11
ENDBRANCH   7   8
ENDBRANCH   1   7
BRANCH   6  13
ATOM     13  N   LIG d   1      -0.708  80.601 112.828  0.00  0.00    -0.311 N 
ATOM     14  C   LIG d   1      -1.427  81.700 112.605  0.00  0.00     0.210 C 
ATOM     15  C   LIG d   1      -0.616  82.926 112.175  0.00  0.00     0.109 C 
ATOM     16  O   LIG d   1      -2.655  81.784 112.752  0.00  0.00    -0.276 OA
ATOM     17  H   LIG d   1       0.286  80.630 112.716  0.00  0.00     0.149 HD
ENDBRANCH   6  13
BRANCH   5  18
ATOM     18  N   LIG d   1      -1.825  78.512 110.899  0.00  0.00     0.381 N 
ATOM     19  H   LIG d   1      -2.227  79.132 110.224  0.00  0.00    -0.090 HD
ATOM     20  H   LIG d   1      -2.069  77.571 110.647  0.00  0.00    -0.090 HD
ATOM     21  H   LIG d   1      -0.834  78.616 110.907  0.00  0.00    -0.090 HD
ENDBRANCH   5  18
BRANCH   3  22
ATOM     22  C   LIG d   1      -4.525  76.853 114.490  0.00  0.00     0.382 C 
ATOM     23  O   LIG d   1      -4.727  75.738 113.949  0.00  0.00    -0.241 OA
ATOM     24  O   LIG d   1      -5.325  77.273 115.347  0.00  0.00    -0.241 OA
ENDBRANCH   3  22
TORSDOF 7
ENDMDL
MODEL 8
REMARK VINA RESULT:      -4.4      2.590      3.513
REMARK  7 active torsions:
REMARK  status: ('A' for Active; 'I' for Inactive)
REMARK    1  A    between atoms: C_2  and  C_3 
REMARK    2  A    between atoms: C_3  and  O_6 
REMARK    3  A    between atoms: C_3  and  C_4 
REMARK    4  A    between atoms: C_7  and  O_6 
REMARK    5  A    between atoms: C_9  and  C_10 
REMARK    6  A    between atoms: N_15  and  C_14 
REMARK    7  A    between atoms: N_20  and  C_19 
REMARK       I    between atoms: C_22  and  N_20 
ROOT
ATOM      1  C   LIG d   1      -4.005  78.012 117.098  0.00  0.00     0.161 C 
ATOM      2  C   LIG d   1      -4.765  77.423 116.074  0.00  0.00     0.016 C 
ATOM      3  C   LIG d   1      -4.327  76.307 115.324  0.00  0.00     0.038 C 
ATOM      4  C   LIG d   1      -3.157  75.606 115.651  0.00  0.00     0.028 C 
ATOM      5  C   LIG d   1      -2.111  76.468 116.351  0.00  0.00    -0.047 C 
ATOM      6  C   LIG d   1      -2.775  77.193 117.543  0.00  0.00     0.091 C 
ENDROOT
BRANCH   1   7
ATOM      7  O   LIG d   1      -4.850  78.302 118.229  0.00  0.00    -0.368 OA
BRANCH   7   8
ATOM      8  C   LIG d   1      -6.115  78.941 117.932  0.00  0.00     0.119 C 
BRANCH   8   9
ATOM      9  C   LIG d   1      -6.021  80.401 118.416  0.00  0.00     0.028 C 
ATOM     10  C   LIG d   1      -7.287  81.211 118.088  0.00  0.00     0.006 C 
ENDBRANCH   8   9
BRANCH   8  11
ATOM     11  C   LIG d   1      -7.258  78.319 118.739  0.00  0.00     0.028 C 
ATOM     12  C   LIG d   1      -8.142  77.385 117.899  0.00  0.00     0.006 C 
ENDBRANCH   8  11
ENDBRANCH   7   8
ENDBRANCH   1   7
BRANCH   6  13
ATOM     13  N   LIG d   1      -1.842  78.122 118.232  0.00  0.00    -0.311 N 
ATOM     14  C   LIG d   1      -1.124  77.782 119.301  0.00  0.00     0.210 C 
ATOM     15  C   LIG d   1      -0.240  78.896 119.868  0.00  0.00     0.109 C 
ATOM     16  O   LIG d   1      -1.111  76.653 119.814  0.00  0.00    -0.276 OA
ATOM     17  H   LIG d   1      -1.766  79.050 117.863  0.00  0.00     0.149 HD
ENDBRANCH   6  13
BRANCH   5  18
ATOM     18  N   LIG d   1      -1.004  75.582 116.757  0.00  0.00     0.381 N 
ATOM     19  H   LIG d   1      -1.041  74.731 116.233  0.00  0.00    -0.090 HD
ATOM     20  H   LIG d   1      -1.107  75.358 117.731  0.00  0.00    -0.090 HD
ATOM     21  H   LIG d   1      -0.130  76.036 116.604  0.00  0.00    -0.090 HD
ENDBRANCH   5  18
BRANCH   3  22
ATOM     22  C   LIG d   1      -5.045  75.906 114.207  0.00  0.00     0.382 C 
ATOM     23  O   LIG d   1      -5.192  74.684 113.962  0.00  0.00    -0.241 OA
ATOM     24  O   LIG d   1      -5.509  76.750 113.418  0.00  0.00    -0.241 OA
ENDBRANCH   3  22
TORSDOF 7
ENDMDL
MODEL 9
REMARK VINA RESULT:      -4.4      2.595      4.049
REMARK  7 active torsions:
REMARK  status: ('A' for Active; 'I' for Inactive)
REMARK    1  A    between atoms: C_2  and  C_3 
REMARK    2  A    between atoms: C_3  and  O_6 
REMARK    3  A    between atoms: C_3  and  C_4 
REMARK    4  A    between atoms: C_7  and  O_6 
REMARK    5  A    between atoms: C_9  and  C_10 
REMARK    6  A    between atoms: N_15  and  C_14 
REMARK    7  A    between atoms: N_20  and  C_19 
REMARK       I    between atoms: C_22  and  N_20 
ROOT
ATOM      1  C   LIG d   1      -4.858  77.820 116.993  0.00  0.00     0.161 C 
ATOM      2  C   LIG d   1      -5.475  78.900 117.645  0.00  0.00     0.016 C 
ATOM      3  C   LIG d   1      -4.792  79.768 118.529  0.00  0.00     0.038 C 
ATOM      4  C   LIG d   1      -3.402  79.704 118.704  0.00  0.00     0.028 C 
ATOM      5  C   LIG d   1      -2.823  78.315 118.457  0.00  0.00    -0.047 C 
ATOM      6  C   LIG d   1      -3.318  77.802 117.085  0.00  0.00     0.091 C 
ENDROOT
BRANCH   1   7
ATOM      7  O   LIG d   1      -5.278  77.777 115.615  0.00  0.00    -0.368 OA
BRANCH   7   8
ATOM      8  C   LIG d   1      -6.134  76.669 115.243  0.00  0.00     0.119 C 
BRANCH   8   9
ATOM      9  C   LIG d   1      -6.549  75.949 116.541  0.00  0.00     0.028 C 
ATOM     10  C   LIG d   1      -8.026  76.189 116.897  0.00  0.00     0.006 C 
ENDBRANCH   8   9
BRANCH   8  11
ATOM     11  C   LIG d   1      -5.368  75.623 114.427  0.00  0.00     0.028 C 
ATOM     12  C   LIG d   1      -5.397  74.227 115.070  0.00  0.00     0.006 C 
ENDBRANCH   8  11
ENDBRANCH   7   8
ENDBRANCH   1   7
BRANCH   6  13
ATOM     13  N   LIG d   1      -2.866  76.415 116.803  0.00  0.00    -0.311 N 
ATOM     14  C   LIG d   1      -1.753  76.129 116.129  0.00  0.00     0.210 C 
ATOM     15  C   LIG d   1      -1.483  74.634 115.931  0.00  0.00     0.109 C 
ATOM     16  O   LIG d   1      -0.948  76.971 115.704  0.00  0.00    -0.276 OA
ATOM     17  H   LIG d   1      -3.444  75.669 117.138  0.00  0.00     0.149 HD
ENDBRANCH   6  13
BRANCH   5  18
ATOM     18  N   LIG d   1      -1.354  78.423 118.539  0.00  0.00     0.381 N 
ATOM     19  H   LIG d   1      -1.085  79.386 118.538  0.00  0.00    -0.090 HD
ATOM     20  H   LIG d   1      -0.951  77.982 117.731  0.00  0.00    -0.090 HD
ATOM     21  H   LIG d   1      -1.025  77.979 119.368  0.00  0.00    -0.090 HD
ENDBRANCH   5  18
BRANCH   3  22
ATOM     22  C   LIG d   1      -5.509  80.687 119.279  0.00  0.00     0.382 C 
ATOM     23  O   LIG d   1      -6.756  80.584 119.373  0.00  0.00    -0.241 OA
ATOM     24  O   LIG d   1      -4.930  81.644 119.828  0.00  0.00    -0.241 OA
ENDBRANCH   3  22
TORSDOF 7
ENDMDL
