MODEL 1
REMARK VINA RESULT:      -5.4      0.000      0.000
REMARK  7 active torsions:
REMARK  status: ('A' for Active; 'I' for Inactive)
REMARK    1  A    between atoms: C_2  and  C_3 
REMARK    2  A    between atoms: C_3  and  O_6 
REMARK    3  A    between atoms: C_3  and  C_4 
REMARK    4  A    between atoms: C_7  and  O_6 
REMARK    5  A    between atoms: C_9  and  C_10 
REMARK    6  A    between atoms: N_15  and  C_14 
REMARK    7  A    between atoms: N_20  and  C_19 
REMARK       I    between atoms: C_22  and  N_20 
ROOT
ATOM      1  C   LIG d   1      -2.195  75.762 115.126  0.00  0.00     0.161 C 
ATOM      2  C   LIG d   1      -2.043  75.350 116.460  0.00  0.00     0.016 C 
ATOM      3  C   LIG d   1      -1.368  76.115 117.439  0.00  0.00     0.038 C 
ATOM      4  C   LIG d   1      -0.927  77.422 117.184  0.00  0.00     0.028 C 
ATOM      5  C   LIG d   1      -0.612  77.679 115.714  0.00  0.00    -0.047 C 
ATOM      6  C   LIG d   1      -1.818  77.234 114.857  0.00  0.00     0.091 C 
ENDROOT
BRANCH   1   7
ATOM      7  O   LIG d   1      -3.543  75.501 114.684  0.00  0.00    -0.368 OA
BRANCH   7   8
ATOM      8  C   LIG d   1      -4.544  75.391 115.725  0.00  0.00     0.119 C 
BRANCH   8   9
ATOM      9  C   LIG d   1      -5.513  74.264 115.318  0.00  0.00     0.028 C 
ATOM     10  C   LIG d   1      -6.757  74.205 116.221  0.00  0.00     0.006 C 
ENDBRANCH   8   9
BRANCH   8  11
ATOM     11  C   LIG d   1      -5.404  76.656 115.807  0.00  0.00     0.028 C 
ATOM     12  C   LIG d   1      -5.096  77.507 117.049  0.00  0.00     0.006 C 
ENDBRANCH   8  11
ENDBRANCH   7   8
ENDBRANCH   1   7
BRANCH   6  13
ATOM     13  N   LIG d   1      -1.560  77.373 113.400  0.00  0.00    -0.311 N 
ATOM     14  C   LIG d   1      -2.396  77.985 112.562  0.00  0.00     0.210 C 
ATOM     15  C   LIG d   1      -1.948  77.999 111.097  0.00  0.00     0.109 C 
ATOM     16  O   LIG d   1      -3.450  78.546 112.899  0.00  0.00    -0.276 OA
ATOM     17  H   LIG d   1      -0.713  76.974 113.046  0.00  0.00     0.149 HD
ENDBRANCH   6  13
BRANCH   5  18
ATOM     18  N   LIG d   1      -0.297  79.113 115.570  0.00  0.00     0.381 N 
ATOM     19  H   LIG d   1       0.429  79.234 114.893  0.00  0.00    -0.090 HD
ATOM     20  H   LIG d   1       0.032  79.464 116.452  0.00  0.00    -0.090 HD
ATOM     21  H   LIG d   1      -1.111  79.614 115.288  0.00  0.00    -0.090 HD
ENDBRANCH   5  18
BRANCH   3  22
ATOM     22  C   LIG d   1      -1.092  75.557 118.678  0.00  0.00     0.382 C 
ATOM     23  O   LIG d   1      -1.173  74.315 118.838  0.00  0.00    -0.241 OA
ATOM     24  O   LIG d   1      -0.807  76.283 119.648  0.00  0.00    -0.241 OA
ENDBRANCH   3  22
TORSDOF 7
ENDMDL
MODEL 2
REMARK VINA RESULT:      -5.2      1.584      4.872
REMARK  7 active torsions:
REMARK  status: ('A' for Active; 'I' for Inactive)
REMARK    1  A    between atoms: C_2  and  C_3 
REMARK    2  A    between atoms: C_3  and  O_6 
REMARK    3  A    between atoms: C_3  and  C_4 
REMARK    4  A    between atoms: C_7  and  O_6 
REMARK    5  A    between atoms: C_9  and  C_10 
REMARK    6  A    between atoms: N_15  and  C_14 
REMARK    7  A    between atoms: N_20  and  C_19 
REMARK       I    between atoms: C_22  and  N_20 
ROOT
ATOM      1  C   LIG d   1      -3.169  76.518 115.853  0.00  0.00     0.161 C 
ATOM      2  C   LIG d   1      -3.396  77.014 114.558  0.00  0.00     0.016 C 
ATOM      3  C   LIG d   1      -2.357  77.317 113.648  0.00  0.00     0.038 C 
ATOM      4  C   LIG d   1      -1.017  77.000 113.919  0.00  0.00     0.028 C 
ATOM      5  C   LIG d   1      -0.693  76.966 115.409  0.00  0.00    -0.047 C 
ATOM      6  C   LIG d   1      -1.720  76.061 116.126  0.00  0.00     0.091 C 
ENDROOT
BRANCH   1   7
ATOM      7  O   LIG d   1      -4.093  75.448 116.135  0.00  0.00    -0.368 OA
BRANCH   7   8
ATOM      8  C   LIG d   1      -5.489  75.723 115.862  0.00  0.00     0.119 C 
BRANCH   8   9
ATOM      9  C   LIG d   1      -6.060  76.472 117.081  0.00  0.00     0.028 C 
ATOM     10  C   LIG d   1      -6.363  77.948 116.775  0.00  0.00     0.006 C 
ENDBRANCH   8   9
BRANCH   8  11
ATOM     11  C   LIG d   1      -6.303  74.429 115.762  0.00  0.00     0.028 C 
ATOM     12  C   LIG d   1      -7.578  74.461 116.619  0.00  0.00     0.006 C 
ENDBRANCH   8  11
ENDBRANCH   7   8
ENDBRANCH   1   7
BRANCH   6  13
ATOM     13  N   LIG d   1      -1.526  76.039 117.599  0.00  0.00    -0.311 N 
ATOM     14  C   LIG d   1      -0.819  75.104 118.231  0.00  0.00     0.210 C 
ATOM     15  C   LIG d   1      -0.761  75.257 119.754  0.00  0.00     0.109 C 
ATOM     16  O   LIG d   1      -0.208  74.181 117.673  0.00  0.00    -0.276 OA
ATOM     17  H   LIG d   1      -1.961  76.770 118.127  0.00  0.00     0.149 HD
ENDBRANCH   6  13
BRANCH   5  18
ATOM     18  N   LIG d   1       0.696  76.490 115.551  0.00  0.00     0.381 N 
ATOM     19  H   LIG d   1       1.254  76.843 114.800  0.00  0.00    -0.090 HD
ATOM     20  H   LIG d   1       0.702  75.486 115.503  0.00  0.00    -0.090 HD
ATOM     21  H   LIG d   1       1.072  76.791 116.423  0.00  0.00    -0.090 HD
ENDBRANCH   5  18
BRANCH   3  22
ATOM     22  C   LIG d   1      -2.650  77.981 112.467  0.00  0.00     0.382 C 
ATOM     23  O   LIG d   1      -2.235  77.529 111.373  0.00  0.00    -0.241 OA
ATOM     24  O   LIG d   1      -3.288  79.051 112.485  0.00  0.00    -0.241 OA
ENDBRANCH   3  22
TORSDOF 7
ENDMDL
MODEL 3
REMARK VINA RESULT:      -5.0      1.718      4.757
REMARK  7 active torsions:
REMARK  status: ('A' for Active; 'I' for Inactive)
REMARK    1  A    between atoms: C_2  and  C_3 
REMARK    2  A    between atoms: C_3  and  O_6 
REMARK    3  A    between atoms: C_3  and  C_4 
REMARK    4  A    between atoms: C_7  and  O_6 
REMARK    5  A    between atoms: C_9  and  C_10 
REMARK    6  A    between atoms: N_15  and  C_14 
REMARK    7  A    between atoms: N_20  and  C_19 
REMARK       I    between atoms: C_22  and  N_20 
ROOT
ATOM      1  C   LIG d   1      -3.425  76.765 114.936  0.00  0.00     0.161 C 
ATOM      2  C   LIG d   1      -3.578  77.404 113.694  0.00  0.00     0.016 C 
ATOM      3  C   LIG d   1      -2.494  77.719 112.842  0.00  0.00     0.038 C 
ATOM      4  C   LIG d   1      -1.189  77.278 113.109  0.00  0.00     0.028 C 
ATOM      5  C   LIG d   1      -0.912  77.071 114.595  0.00  0.00    -0.047 C 
ATOM      6  C   LIG d   1      -2.022  76.178 115.193  0.00  0.00     0.091 C 
ENDROOT
BRANCH   1   7
ATOM      7  O   LIG d   1      -4.432  75.745 115.087  0.00  0.00    -0.368 OA
BRANCH   7   8
ATOM      8  C   LIG d   1      -5.400  75.955 116.144  0.00  0.00     0.119 C 
BRANCH   8   9
ATOM      9  C   LIG d   1      -6.753  75.409 115.649  0.00  0.00     0.028 C 
ATOM     10  C   LIG d   1      -7.531  74.678 116.755  0.00  0.00     0.006 C 
ENDBRANCH   8   9
BRANCH   8  11
ATOM     11  C   LIG d   1      -5.633  77.448 116.397  0.00  0.00     0.028 C 
ATOM     12  C   LIG d   1      -5.594  77.813 117.889  0.00  0.00     0.006 C 
ENDBRANCH   8  11
ENDBRANCH   7   8
ENDBRANCH   1   7
BRANCH   6  13
ATOM     13  N   LIG d   1      -1.873  75.994 116.660  0.00  0.00    -0.311 N 
ATOM     14  C   LIG d   1      -1.155  75.016 117.208  0.00  0.00     0.210 C 
ATOM     15  C   LIG d   1      -1.149  74.996 118.739  0.00  0.00     0.109 C 
ATOM     16  O   LIG d   1      -0.495  74.181 116.570  0.00  0.00    -0.276 OA
ATOM     17  H   LIG d   1      -2.350  76.646 117.252  0.00  0.00     0.149 HD
ENDBRANCH   6  13
BRANCH   5  18
ATOM     18  N   LIG d   1       0.435  76.481 114.719  0.00  0.00     0.381 N 
ATOM     19  H   LIG d   1       1.127  77.200 114.646  0.00  0.00    -0.090 HD
ATOM     20  H   LIG d   1       0.575  75.830 113.966  0.00  0.00    -0.090 HD
ATOM     21  H   LIG d   1       0.522  76.013 115.593  0.00  0.00    -0.090 HD
ENDBRANCH   5  18
BRANCH   3  22
ATOM     22  C   LIG d   1      -2.704  78.518 111.729  0.00  0.00     0.382 C 
ATOM     23  O   LIG d   1      -3.203  78.025 110.689  0.00  0.00    -0.241 OA
ATOM     24  O   LIG d   1      -2.361  79.715 111.736  0.00  0.00    -0.241 OA
ENDBRANCH   3  22
TORSDOF 7
ENDMDL
MODEL 4
REMARK VINA RESULT:      -4.7      2.458      6.184
REMARK  7 active torsions:
REMARK  status: ('A' for Active; 'I' for Inactive)
REMARK    1  A    between atoms: C_2  and  C_3 
REMARK    2  A    between atoms: C_3  and  O_6 
REMARK    3  A    between atoms: C_3  and  C_4 
REMARK    4  A    between atoms: C_7  and  O_6 
REMARK    5  A    between atoms: C_9  and  C_10 
REMARK    6  A    between atoms: N_15  and  C_14 
REMARK    7  A    between atoms: N_20  and  C_19 
REMARK       I    between atoms: C_22  and  N_20 
ROOT
ATOM      1  C   LIG d   1      -0.158  77.129 115.794  0.00  0.00     0.161 C 
ATOM      2  C   LIG d   1      -0.758  77.689 114.654  0.00  0.00     0.016 C 
ATOM      3  C   LIG d   1      -2.009  77.268 114.146  0.00  0.00     0.038 C 
ATOM      4  C   LIG d   1      -2.820  76.356 114.837  0.00  0.00     0.028 C 
ATOM      5  C   LIG d   1      -2.033  75.394 115.721  0.00  0.00    -0.047 C 
ATOM      6  C   LIG d   1      -1.078  76.209 116.623  0.00  0.00     0.091 C 
ENDROOT
BRANCH   1   7
ATOM      7  O   LIG d   1       0.386  78.174 116.623  0.00  0.00    -0.368 OA
BRANCH   7   8
ATOM      8  C   LIG d   1      -0.402  79.386 116.720  0.00  0.00     0.119 C 
BRANCH   8   9
ATOM      9  C   LIG d   1       0.566  80.579 116.600  0.00  0.00     0.028 C 
ATOM     10  C   LIG d   1       0.664  81.112 115.161  0.00  0.00     0.006 C 
ENDBRANCH   8   9
BRANCH   8  11
ATOM     11  C   LIG d   1      -1.045  79.523 118.104  0.00  0.00     0.028 C 
ATOM     12  C   LIG d   1      -1.234  80.988 118.530  0.00  0.00     0.006 C 
ENDBRANCH   8  11
ENDBRANCH   7   8
ENDBRANCH   1   7
BRANCH   6  13
ATOM     13  N   LIG d   1      -0.210  75.341 117.461  0.00  0.00    -0.311 N 
ATOM     14  C   LIG d   1      -0.171  75.408 118.790  0.00  0.00     0.210 C 
ATOM     15  C   LIG d   1       0.807  74.437 119.458  0.00  0.00     0.109 C 
ATOM     16  O   LIG d   1      -0.877  76.157 119.482  0.00  0.00    -0.276 OA
ATOM     17  H   LIG d   1       0.373  74.682 116.983  0.00  0.00     0.149 HD
ENDBRANCH   6  13
BRANCH   5  18
ATOM     18  N   LIG d   1      -3.007  74.593 116.486  0.00  0.00     0.381 N 
ATOM     19  H   LIG d   1      -2.616  73.697 116.699  0.00  0.00    -0.090 HD
ATOM     20  H   LIG d   1      -3.827  74.452 115.921  0.00  0.00    -0.090 HD
ATOM     21  H   LIG d   1      -3.252  75.066 117.328  0.00  0.00    -0.090 HD
ENDBRANCH   5  18
BRANCH   3  22
ATOM     22  C   LIG d   1      -2.442  77.733 112.914  0.00  0.00     0.382 C 
ATOM     23  O   LIG d   1      -3.397  78.545 112.850  0.00  0.00    -0.241 OA
ATOM     24  O   LIG d   1      -1.920  77.317 111.863  0.00  0.00    -0.241 OA
ENDBRANCH   3  22
TORSDOF 7
ENDMDL
MODEL 5
REMARK VINA RESULT:      -4.7      3.310      6.554
REMARK  7 active torsions:
REMARK  status: ('A' for Active; 'I' for Inactive)
REMARK    1  A    between atoms: C_2  and  C_3 
REMARK    2  A    between atoms: C_3  and  O_6 
REMARK    3  A    between atoms: C_3  and  C_4 
REMARK    4  A    between atoms: C_7  and  O_6 
REMARK    5  A    between atoms: C_9  and  C_10 
REMARK    6  A    between atoms: N_15  and  C_14 
REMARK    7  A    between atoms: N_20  and  C_19 
REMARK       I    between atoms: C_22  and  N_20 
ROOT
ATOM      1  C   LIG d   1      -0.250  79.827 114.332  0.00  0.00     0.161 C 
ATOM      2  C   LIG d   1      -0.491  81.118 113.833  0.00  0.00     0.016 C 
ATOM      3  C   LIG d   1      -1.217  81.371 112.647  0.00  0.00     0.038 C 
ATOM      4  C   LIG d   1      -1.886  80.350 111.955  0.00  0.00     0.028 C 
ATOM      5  C   LIG d   1      -1.251  78.976 112.140  0.00  0.00    -0.047 C 
ATOM      6  C   LIG d   1      -1.066  78.708 113.651  0.00  0.00     0.091 C 
ENDROOT
BRANCH   1   7
ATOM      7  O   LIG d   1      -0.463  79.806 115.757  0.00  0.00    -0.368 OA
BRANCH   7   8
ATOM      8  C   LIG d   1       0.697  79.502 116.570  0.00  0.00     0.119 C 
BRANCH   8   9
ATOM      9  C   LIG d   1       0.238  78.548 117.691  0.00  0.00     0.028 C 
ATOM     10  C   LIG d   1      -1.264  78.230 117.613  0.00  0.00     0.006 C 
ENDBRANCH   8   9
BRANCH   8  11
ATOM     11  C   LIG d   1       1.217  80.750 117.288  0.00  0.00     0.028 C 
ATOM     12  C   LIG d   1       0.097  81.735 117.660  0.00  0.00     0.006 C 
ENDBRANCH   8  11
ENDBRANCH   7   8
ENDBRANCH   1   7
BRANCH   6  13
ATOM     13  N   LIG d   1      -0.374  77.420 113.918  0.00  0.00    -0.311 N 
ATOM     14  C   LIG d   1      -0.979  76.359 114.449  0.00  0.00     0.210 C 
ATOM     15  C   LIG d   1      -0.077  75.139 114.659  0.00  0.00     0.109 C 
ATOM     16  O   LIG d   1      -2.184  76.302 114.736  0.00  0.00    -0.276 OA
ATOM     17  H   LIG d   1       0.599  77.369 113.686  0.00  0.00     0.149 HD
ENDBRANCH   6  13
BRANCH   5  18
ATOM     18  N   LIG d   1      -2.126  77.988 111.481  0.00  0.00     0.381 N 
ATOM     19  H   LIG d   1      -1.877  77.065 111.776  0.00  0.00    -0.090 HD
ATOM     20  H   LIG d   1      -1.992  78.048 110.486  0.00  0.00    -0.090 HD
ATOM     21  H   LIG d   1      -3.079  78.172 111.707  0.00  0.00    -0.090 HD
ENDBRANCH   5  18
BRANCH   3  22
ATOM     22  C   LIG d   1      -1.246  82.653 112.119  0.00  0.00     0.382 C 
ATOM     23  O   LIG d   1      -1.158  83.646 112.880  0.00  0.00    -0.241 OA
ATOM     24  O   LIG d   1      -1.404  82.829 110.896  0.00  0.00    -0.241 OA
ENDBRANCH   3  22
TORSDOF 7
ENDMDL
MODEL 6
REMARK VINA RESULT:      -4.7      1.961      5.120
REMARK  7 active torsions:
REMARK  status: ('A' for Active; 'I' for Inactive)
REMARK    1  A    between atoms: C_2  and  C_3 
REMARK    2  A    between atoms: C_3  and  O_6 
REMARK    3  A    between atoms: C_3  and  C_4 
REMARK    4  A    between atoms: C_7  and  O_6 
REMARK    5  A    between atoms: C_9  and  C_10 
REMARK    6  A    between atoms: N_15  and  C_14 
REMARK    7  A    between atoms: N_20  and  C_19 
REMARK       I    between atoms: C_22  and  N_20 
ROOT
ATOM      1  C   LIG d   1      -1.936  76.989 114.738  0.00  0.00     0.161 C 
ATOM      2  C   LIG d   1      -2.293  77.198 113.396  0.00  0.00     0.016 C 
ATOM      3  C   LIG d   1      -1.805  78.274 112.620  0.00  0.00     0.038 C 
ATOM      4  C   LIG d   1      -0.802  79.134 113.092  0.00  0.00     0.028 C 
ATOM      5  C   LIG d   1      -0.782  79.265 114.611  0.00  0.00    -0.047 C 
ATOM      6  C   LIG d   1      -0.758  77.852 115.236  0.00  0.00     0.091 C 
ENDROOT
BRANCH   1   7
ATOM      7  O   LIG d   1      -1.662  75.591 114.959  0.00  0.00    -0.368 OA
BRANCH   7   8
ATOM      8  C   LIG d   1      -2.595  74.885 115.813  0.00  0.00     0.119 C 
BRANCH   8   9
ATOM      9  C   LIG d   1      -3.770  75.839 116.102  0.00  0.00     0.028 C 
ATOM     10  C   LIG d   1      -5.132  75.210 115.764  0.00  0.00     0.006 C 
ENDBRANCH   8   9
BRANCH   8  11
ATOM     11  C   LIG d   1      -1.976  74.579 117.180  0.00  0.00     0.028 C 
ATOM     12  C   LIG d   1      -0.494  74.180 117.088  0.00  0.00     0.006 C 
ENDBRANCH   8  11
ENDBRANCH   7   8
ENDBRANCH   1   7
BRANCH   6  13
ATOM     13  N   LIG d   1      -0.822  77.887 116.721  0.00  0.00    -0.311 N 
ATOM     14  C   LIG d   1       0.254  77.825 117.503  0.00  0.00     0.210 C 
ATOM     15  C   LIG d   1      -0.038  77.857 119.007  0.00  0.00     0.109 C 
ATOM     16  O   LIG d   1       1.424  77.779 117.094  0.00  0.00    -0.276 OA
ATOM     17  H   LIG d   1      -1.731  77.956 117.136  0.00  0.00     0.149 HD
ENDBRANCH   6  13
BRANCH   5  18
ATOM     18  N   LIG d   1       0.394  80.078 114.973  0.00  0.00     0.381 N 
ATOM     19  H   LIG d   1       0.644  79.907 115.927  0.00  0.00    -0.090 HD
ATOM     20  H   LIG d   1       0.159  81.050 114.878  0.00  0.00    -0.090 HD
ATOM     21  H   LIG d   1       1.160  79.854 114.377  0.00  0.00    -0.090 HD
ENDBRANCH   5  18
BRANCH   3  22
ATOM     22  C   LIG d   1      -2.350  78.523 111.369  0.00  0.00     0.382 C 
ATOM     23  O   LIG d   1      -3.418  77.959 111.028  0.00  0.00    -0.241 OA
ATOM     24  O   LIG d   1      -1.765  79.269 110.562  0.00  0.00    -0.241 OA
ENDBRANCH   3  22
TORSDOF 7
ENDMDL
MODEL 7
REMARK VINA RESULT:      -4.6      2.568      3.479
REMARK  7 active torsions:
REMARK  status: ('A' for Active; 'I' for Inactive)
REMARK    1  A    between atoms: C_2  and  C_3 
REMARK    2  A    between atoms: C_3  and  O_6 
REMARK    3  A    between atoms: C_3  and  C_4 
REMARK    4  A    between atoms: C_7  and  O_6 
REMARK    5  A    between atoms: C_9  and  C_10 
REMARK    6  A    between atoms: N_15  and  C_14 
REMARK    7  A    between atoms: N_20  and  C_19 
REMARK       I    between atoms: C_22  and  N_20 
ROOT
ATOM      1  C   LIG d   1      -2.842  76.842 117.406  0.00  0.00     0.161 C 
ATOM      2  C   LIG d   1      -1.704  77.406 118.006  0.00  0.00     0.016 C 
ATOM      3  C   LIG d   1      -0.382  77.033 117.670  0.00  0.00     0.038 C 
ATOM      4  C   LIG d   1      -0.104  76.174 116.596  0.00  0.00     0.028 C 
ATOM      5  C   LIG d   1      -1.235  75.196 116.295  0.00  0.00    -0.047 C 
ATOM      6  C   LIG d   1      -2.557  75.985 116.155  0.00  0.00     0.091 C 
ENDROOT
BRANCH   1   7
ATOM      7  O   LIG d   1      -3.795  77.879 117.095  0.00  0.00    -0.368 OA
BRANCH   7   8
ATOM      8  C   LIG d   1      -5.008  77.887 117.888  0.00  0.00     0.119 C 
BRANCH   8   9
ATOM      9  C   LIG d   1      -6.177  78.220 116.940  0.00  0.00     0.028 C 
ATOM     10  C   LIG d   1      -7.146  77.039 116.767  0.00  0.00     0.006 C 
ENDBRANCH   8   9
BRANCH   8  11
ATOM     11  C   LIG d   1      -4.990  79.017 118.922  0.00  0.00     0.028 C 
ATOM     12  C   LIG d   1      -6.284  79.090 119.748  0.00  0.00     0.006 C 
ENDBRANCH   8  11
ENDBRANCH   7   8
ENDBRANCH   1   7
BRANCH   6  13
ATOM     13  N   LIG d   1      -3.728  75.095 115.943  0.00  0.00    -0.311 N 
ATOM     14  C   LIG d   1      -4.531  75.180 114.884  0.00  0.00     0.210 C 
ATOM     15  C   LIG d   1      -5.692  74.180 114.870  0.00  0.00     0.109 C 
ATOM     16  O   LIG d   1      -4.374  75.967 113.939  0.00  0.00    -0.276 OA
ATOM     17  H   LIG d   1      -3.911  74.406 116.646  0.00  0.00     0.149 HD
ENDBRANCH   6  13
BRANCH   5  18
ATOM     18  N   LIG d   1      -0.870  74.457 115.072  0.00  0.00     0.381 N 
ATOM     19  H   LIG d   1      -0.313  73.660 115.310  0.00  0.00    -0.090 HD
ATOM     20  H   LIG d   1      -0.324  75.057 114.479  0.00  0.00    -0.090 HD
ATOM     21  H   LIG d   1      -1.693  74.164 114.592  0.00  0.00    -0.090 HD
ENDBRANCH   5  18
BRANCH   3  22
ATOM     22  C   LIG d   1       0.677  77.492 118.438  0.00  0.00     0.382 C 
ATOM     23  O   LIG d   1       1.440  76.673 119.006  0.00  0.00    -0.241 OA
ATOM     24  O   LIG d   1       0.854  78.713 118.606  0.00  0.00    -0.241 OA
ENDBRANCH   3  22
TORSDOF 7
ENDMDL
MODEL 8
REMARK VINA RESULT:      -4.6      3.173      5.570
REMARK  7 active torsions:
REMARK  status: ('A' for Active; 'I' for Inactive)
REMARK    1  A    between atoms: C_2  and  C_3 
REMARK    2  A    between atoms: C_3  and  O_6 
REMARK    3  A    between atoms: C_3  and  C_4 
REMARK    4  A    between atoms: C_7  and  O_6 
REMARK    5  A    between atoms: C_9  and  C_10 
REMARK    6  A    between atoms: N_15  and  C_14 
REMARK    7  A    between atoms: N_20  and  C_19 
REMARK       I    between atoms: C_22  and  N_20 
ROOT
ATOM      1  C   LIG d   1      -4.733  77.814 117.247  0.00  0.00     0.161 C 
ATOM      2  C   LIG d   1      -6.047  77.785 117.743  0.00  0.00     0.016 C 
ATOM      3  C   LIG d   1      -7.078  77.006 117.169  0.00  0.00     0.038 C 
ATOM      4  C   LIG d   1      -6.826  76.081 116.145  0.00  0.00     0.028 C 
ATOM      5  C   LIG d   1      -5.624  76.447 115.281  0.00  0.00    -0.047 C 
ATOM      6  C   LIG d   1      -4.412  76.728 116.200  0.00  0.00     0.091 C 
ENDROOT
BRANCH   1   7
ATOM      7  O   LIG d   1      -3.796  77.748 118.341  0.00  0.00    -0.368 OA
BRANCH   7   8
ATOM      8  C   LIG d   1      -2.871  78.857 118.457  0.00  0.00     0.119 C 
BRANCH   8   9
ATOM      9  C   LIG d   1      -1.550  78.300 119.021  0.00  0.00     0.028 C 
ATOM     10  C   LIG d   1      -1.302  76.841 118.604  0.00  0.00     0.006 C 
ENDBRANCH   8   9
BRANCH   8  11
ATOM     11  C   LIG d   1      -3.354  79.880 119.489  0.00  0.00     0.028 C 
ATOM     12  C   LIG d   1      -2.620  81.226 119.382  0.00  0.00     0.006 C 
ENDBRANCH   8  11
ENDBRANCH   7   8
ENDBRANCH   1   7
BRANCH   6  13
ATOM     13  N   LIG d   1      -3.216  77.174 115.440  0.00  0.00    -0.311 N 
ATOM     14  C   LIG d   1      -2.262  76.345 115.021  0.00  0.00     0.210 C 
ATOM     15  C   LIG d   1      -1.105  77.015 114.273  0.00  0.00     0.109 C 
ATOM     16  O   LIG d   1      -2.279  75.114 115.171  0.00  0.00    -0.276 OA
ATOM     17  H   LIG d   1      -3.137  78.154 115.248  0.00  0.00     0.149 HD
ENDBRANCH   6  13
BRANCH   5  18
ATOM     18  N   LIG d   1      -5.392  75.331 114.344  0.00  0.00     0.381 N 
ATOM     19  H   LIG d   1      -5.400  75.672 113.404  0.00  0.00    -0.090 HD
ATOM     20  H   LIG d   1      -6.136  74.663 114.445  0.00  0.00    -0.090 HD
ATOM     21  H   LIG d   1      -4.517  74.897 114.541  0.00  0.00    -0.090 HD
ENDBRANCH   5  18
BRANCH   3  22
ATOM     22  C   LIG d   1      -8.387  77.178 117.594  0.00  0.00     0.382 C 
ATOM     23  O   LIG d   1      -8.886  78.329 117.636  0.00  0.00    -0.241 OA
ATOM     24  O   LIG d   1      -9.060  76.203 117.978  0.00  0.00    -0.241 OA
ENDBRANCH   3  22
TORSDOF 7
ENDMDL
MODEL 9
REMARK VINA RESULT:      -4.5      2.791      5.238
REMARK  7 active torsions:
REMARK  status: ('A' for Active; 'I' for Inactive)
REMARK    1  A    between atoms: C_2  and  C_3 
REMARK    2  A    between atoms: C_3  and  O_6 
REMARK    3  A    between atoms: C_3  and  C_4 
REMARK    4  A    between atoms: C_7  and  O_6 
REMARK    5  A    between atoms: C_9  and  C_10 
REMARK    6  A    between atoms: N_15  and  C_14 
REMARK    7  A    between atoms: N_20  and  C_19 
REMARK       I    between atoms: C_22  and  N_20 
ROOT
ATOM      1  C   LIG d   1      -4.811  77.737 117.316  0.00  0.00     0.161 C 
ATOM      2  C   LIG d   1      -5.436  76.698 116.606  0.00  0.00     0.016 C 
ATOM      3  C   LIG d   1      -4.732  75.611 116.038  0.00  0.00     0.038 C 
ATOM      4  C   LIG d   1      -3.364  75.410 116.271  0.00  0.00     0.028 C 
ATOM      5  C   LIG d   1      -2.603  76.700 116.557  0.00  0.00    -0.047 C 
ATOM      6  C   LIG d   1      -3.334  77.477 117.676  0.00  0.00     0.091 C 
ENDROOT
BRANCH   1   7
ATOM      7  O   LIG d   1      -5.570  78.043 118.503  0.00  0.00    -0.368 OA
BRANCH   7   8
ATOM      8  C   LIG d   1      -7.011  78.063 118.351  0.00  0.00     0.119 C 
BRANCH   8   9
ATOM      9  C   LIG d   1      -7.488  79.495 118.660  0.00  0.00     0.028 C 
ATOM     10  C   LIG d   1      -8.809  79.839 117.951  0.00  0.00     0.006 C 
ENDBRANCH   8   9
BRANCH   8  11
ATOM     11  C   LIG d   1      -7.694  77.174 119.394  0.00  0.00     0.028 C 
ATOM     12  C   LIG d   1      -8.555  76.069 118.762  0.00  0.00     0.006 C 
ENDBRANCH   8  11
ENDBRANCH   7   8
ENDBRANCH   1   7
BRANCH   6  13
ATOM     13  N   LIG d   1      -2.702  78.792 117.959  0.00  0.00    -0.311 N 
ATOM     14  C   LIG d   1      -1.793  78.978 118.915  0.00  0.00     0.210 C 
ATOM     15  C   LIG d   1      -1.285  80.417 119.052  0.00  0.00     0.109 C 
ATOM     16  O   LIG d   1      -1.337  78.082 119.641  0.00  0.00    -0.276 OA
ATOM     17  H   LIG d   1      -2.991  79.568 117.396  0.00  0.00     0.149 HD
ENDBRANCH   6  13
BRANCH   5  18
ATOM     18  N   LIG d   1      -1.220  76.332 116.917  0.00  0.00     0.381 N 
ATOM     19  H   LIG d   1      -0.610  76.511 116.145  0.00  0.00    -0.090 HD
ATOM     20  H   LIG d   1      -1.189  75.349 117.122  0.00  0.00    -0.090 HD
ATOM     21  H   LIG d   1      -0.924  76.854 117.713  0.00  0.00    -0.090 HD
ENDBRANCH   5  18
BRANCH   3  22
ATOM     22  C   LIG d   1      -5.392  74.732 115.192  0.00  0.00     0.382 C 
ATOM     23  O   LIG d   1      -4.949  74.523 114.037  0.00  0.00    -0.241 OA
ATOM     24  O   LIG d   1      -6.449  74.181 115.553  0.00  0.00    -0.241 OA
ENDBRANCH   3  22
TORSDOF 7
ENDMDL
