MODEL 1
REMARK VINA RESULT:      -6.4      0.000      0.000
REMARK  7 active torsions:
REMARK  status: ('A' for Active; 'I' for Inactive)
REMARK    1  A    between atoms: C_2  and  C_3 
REMARK    2  A    between atoms: C_3  and  O_6 
REMARK    3  A    between atoms: C_3  and  C_4 
REMARK    4  A    between atoms: C_7  and  O_6 
REMARK    5  A    between atoms: C_9  and  C_10 
REMARK    6  A    between atoms: N_15  and  C_14 
REMARK    7  A    between atoms: N_20  and  C_19 
REMARK       I    between atoms: C_22  and  N_20 
ROOT
ATOM      1  C   LIG d   1      -1.591  77.795 113.464  0.00  0.00     0.161 C 
ATOM      2  C   LIG d   1      -2.174  79.073 113.497  0.00  0.00     0.016 C 
ATOM      3  C   LIG d   1      -1.941  80.059 112.511  0.00  0.00     0.038 C 
ATOM      4  C   LIG d   1      -1.224  79.781 111.338  0.00  0.00     0.028 C 
ATOM      5  C   LIG d   1      -0.199  78.664 111.505  0.00  0.00    -0.047 C 
ATOM      6  C   LIG d   1      -0.895  77.435 112.135  0.00  0.00     0.091 C 
ENDROOT
BRANCH   1   7
ATOM      7  O   LIG d   1      -2.578  76.799 113.798  0.00  0.00    -0.368 OA
BRANCH   7   8
ATOM      8  C   LIG d   1      -2.859  76.629 115.209  0.00  0.00     0.119 C 
BRANCH   8   9
ATOM      9  C   LIG d   1      -1.562  76.145 115.885  0.00  0.00     0.028 C 
ATOM     10  C   LIG d   1      -1.222  74.688 115.528  0.00  0.00     0.006 C 
ENDBRANCH   8   9
BRANCH   8  11
ATOM     11  C   LIG d   1      -3.879  75.510 115.443  0.00  0.00     0.028 C 
ATOM     12  C   LIG d   1      -5.194  75.734 114.680  0.00  0.00     0.006 C 
ENDBRANCH   8  11
ENDBRANCH   7   8
ENDBRANCH   1   7
BRANCH   6  13
ATOM     13  N   LIG d   1       0.055  76.326 112.411  0.00  0.00    -0.311 N 
ATOM     14  C   LIG d   1       0.478  75.474 111.478  0.00  0.00     0.210 C 
ATOM     15  C   LIG d   1       1.440  74.392 111.979  0.00  0.00     0.109 C 
ATOM     16  O   LIG d   1       0.173  75.531 110.278  0.00  0.00    -0.276 OA
ATOM     17  H   LIG d   1       0.378  76.225 113.353  0.00  0.00     0.149 HD
ENDBRANCH   6  13
BRANCH   5  18
ATOM     18  N   LIG d   1       0.376  78.384 110.176  0.00  0.00     0.381 N 
ATOM     19  H   LIG d   1      -0.188  77.711 109.698  0.00  0.00    -0.090 HD
ATOM     20  H   LIG d   1       1.296  77.997 110.295  0.00  0.00    -0.090 HD
ATOM     21  H   LIG d   1       0.428  79.224 109.643  0.00  0.00    -0.090 HD
ENDBRANCH   5  18
BRANCH   3  22
ATOM     22  C   LIG d   1      -2.396  81.353 112.714  0.00  0.00     0.382 C 
ATOM     23  O   LIG d   1      -1.858  82.309 112.104  0.00  0.00    -0.241 OA
ATOM     24  O   LIG d   1      -3.307  81.582 113.532  0.00  0.00    -0.241 OA
ENDBRANCH   3  22
TORSDOF 7
ENDMDL
MODEL 2
REMARK VINA RESULT:      -5.9      2.538      3.982
REMARK  7 active torsions:
REMARK  status: ('A' for Active; 'I' for Inactive)
REMARK    1  A    between atoms: C_2  and  C_3 
REMARK    2  A    between atoms: C_3  and  O_6 
REMARK    3  A    between atoms: C_3  and  C_4 
REMARK    4  A    between atoms: C_7  and  O_6 
REMARK    5  A    between atoms: C_9  and  C_10 
REMARK    6  A    between atoms: N_15  and  C_14 
REMARK    7  A    between atoms: N_20  and  C_19 
REMARK       I    between atoms: C_22  and  N_20 
ROOT
ATOM      1  C   LIG d   1      -2.555  77.874 116.153  0.00  0.00     0.161 C 
ATOM      2  C   LIG d   1      -2.897  78.803 115.157  0.00  0.00     0.016 C 
ATOM      3  C   LIG d   1      -2.133  79.003 113.984  0.00  0.00     0.038 C 
ATOM      4  C   LIG d   1      -1.051  78.174 113.654  0.00  0.00     0.028 C 
ATOM      5  C   LIG d   1      -0.368  77.557 114.870  0.00  0.00    -0.047 C 
ATOM      6  C   LIG d   1      -1.439  76.884 115.758  0.00  0.00     0.091 C 
ENDROOT
BRANCH   1   7
ATOM      7  O   LIG d   1      -3.732  77.159 116.579  0.00  0.00    -0.368 OA
BRANCH   7   8
ATOM      8  C   LIG d   1      -4.697  76.847 115.545  0.00  0.00     0.119 C 
BRANCH   8   9
ATOM      9  C   LIG d   1      -6.101  76.974 116.168  0.00  0.00     0.028 C 
ATOM     10  C   LIG d   1      -6.180  78.101 117.212  0.00  0.00     0.006 C 
ENDBRANCH   8   9
BRANCH   8  11
ATOM     11  C   LIG d   1      -4.583  75.386 115.098  0.00  0.00     0.028 C 
ATOM     12  C   LIG d   1      -5.941  74.767 114.733  0.00  0.00     0.006 C 
ENDBRANCH   8  11
ENDBRANCH   7   8
ENDBRANCH   1   7
BRANCH   6  13
ATOM     13  N   LIG d   1      -0.868  76.327 117.012  0.00  0.00    -0.311 N 
ATOM     14  C   LIG d   1      -1.241  75.160 117.533  0.00  0.00     0.210 C 
ATOM     15  C   LIG d   1      -0.540  74.782 118.842  0.00  0.00     0.109 C 
ATOM     16  O   LIG d   1      -2.063  74.386 117.019  0.00  0.00    -0.276 OA
ATOM     17  H   LIG d   1      -0.172  76.875 117.479  0.00  0.00     0.149 HD
ENDBRANCH   6  13
BRANCH   5  18
ATOM     18  N   LIG d   1       0.651  76.611 114.377  0.00  0.00     0.381 N 
ATOM     19  H   LIG d   1       0.206  75.794 114.009  0.00  0.00    -0.090 HD
ATOM     20  H   LIG d   1       1.235  76.333 115.145  0.00  0.00    -0.090 HD
ATOM     21  H   LIG d   1       1.203  77.044 113.669  0.00  0.00    -0.090 HD
ENDBRANCH   5  18
BRANCH   3  22
ATOM     22  C   LIG d   1      -2.427  80.068 113.145  0.00  0.00     0.382 C 
ATOM     23  O   LIG d   1      -1.961  80.095 111.981  0.00  0.00    -0.241 OA
ATOM     24  O   LIG d   1      -3.116  81.022 113.554  0.00  0.00    -0.241 OA
ENDBRANCH   3  22
TORSDOF 7
ENDMDL
MODEL 3
REMARK VINA RESULT:      -5.7      2.569      3.998
REMARK  7 active torsions:
REMARK  status: ('A' for Active; 'I' for Inactive)
REMARK    1  A    between atoms: C_2  and  C_3 
REMARK    2  A    between atoms: C_3  and  O_6 
REMARK    3  A    between atoms: C_3  and  C_4 
REMARK    4  A    between atoms: C_7  and  O_6 
REMARK    5  A    between atoms: C_9  and  C_10 
REMARK    6  A    between atoms: N_15  and  C_14 
REMARK    7  A    between atoms: N_20  and  C_19 
REMARK       I    between atoms: C_22  and  N_20 
ROOT
ATOM      1  C   LIG d   1      -2.692  78.533 115.390  0.00  0.00     0.161 C 
ATOM      2  C   LIG d   1      -2.794  79.605 114.488  0.00  0.00     0.016 C 
ATOM      3  C   LIG d   1      -2.032  79.699 113.301  0.00  0.00     0.038 C 
ATOM      4  C   LIG d   1      -1.221  78.645 112.856  0.00  0.00     0.028 C 
ATOM      5  C   LIG d   1      -0.702  77.761 113.985  0.00  0.00    -0.047 C 
ATOM      6  C   LIG d   1      -1.894  77.321 114.865  0.00  0.00     0.091 C 
ENDROOT
BRANCH   1   7
ATOM      7  O   LIG d   1      -4.008  78.122 115.811  0.00  0.00    -0.368 OA
BRANCH   7   8
ATOM      8  C   LIG d   1      -4.253  78.134 117.239  0.00  0.00     0.119 C 
BRANCH   8   9
ATOM      9  C   LIG d   1      -5.602  78.842 117.472  0.00  0.00     0.028 C 
ATOM     10  C   LIG d   1      -5.445  80.362 117.641  0.00  0.00     0.006 C 
ENDBRANCH   8   9
BRANCH   8  11
ATOM     11  C   LIG d   1      -3.215  78.987 117.975  0.00  0.00     0.028 C 
ATOM     12  C   LIG d   1      -2.569  78.249 119.158  0.00  0.00     0.006 C 
ENDBRANCH   8  11
ENDBRANCH   7   8
ENDBRANCH   1   7
BRANCH   6  13
ATOM     13  N   LIG d   1      -1.465  76.521 116.042  0.00  0.00    -0.311 N 
ATOM     14  C   LIG d   1      -1.889  75.281 116.280  0.00  0.00     0.210 C 
ATOM     15  C   LIG d   1      -1.339  74.645 117.560  0.00  0.00     0.109 C 
ATOM     16  O   LIG d   1      -2.643  74.637 115.536  0.00  0.00    -0.276 OA
ATOM     17  H   LIG d   1      -0.829  76.956 116.682  0.00  0.00     0.149 HD
ENDBRANCH   6  13
BRANCH   5  18
ATOM     18  N   LIG d   1       0.012  76.626 113.370  0.00  0.00     0.381 N 
ATOM     19  H   LIG d   1      -0.520  75.787 113.486  0.00  0.00    -0.090 HD
ATOM     20  H   LIG d   1       0.894  76.507 113.837  0.00  0.00    -0.090 HD
ATOM     21  H   LIG d   1       0.162  76.802 112.401  0.00  0.00    -0.090 HD
ENDBRANCH   5  18
BRANCH   3  22
ATOM     22  C   LIG d   1      -2.047  80.874 112.566  0.00  0.00     0.382 C 
ATOM     23  O   LIG d   1      -3.017  81.664 112.666  0.00  0.00    -0.241 OA
ATOM     24  O   LIG d   1      -1.124  81.134 111.770  0.00  0.00    -0.241 OA
ENDBRANCH   3  22
TORSDOF 7
ENDMDL
MODEL 4
REMARK VINA RESULT:      -5.5      2.808      3.874
REMARK  7 active torsions:
REMARK  status: ('A' for Active; 'I' for Inactive)
REMARK    1  A    between atoms: C_2  and  C_3 
REMARK    2  A    between atoms: C_3  and  O_6 
REMARK    3  A    between atoms: C_3  and  C_4 
REMARK    4  A    between atoms: C_7  and  O_6 
REMARK    5  A    between atoms: C_9  and  C_10 
REMARK    6  A    between atoms: N_15  and  C_14 
REMARK    7  A    between atoms: N_20  and  C_19 
REMARK       I    between atoms: C_22  and  N_20 
ROOT
ATOM      1  C   LIG d   1      -2.542  78.739 115.489  0.00  0.00     0.161 C 
ATOM      2  C   LIG d   1      -2.594  79.757 114.523  0.00  0.00     0.016 C 
ATOM      3  C   LIG d   1      -1.912  79.692 113.286  0.00  0.00     0.038 C 
ATOM      4  C   LIG d   1      -1.248  78.530 112.866  0.00  0.00     0.028 C 
ATOM      5  C   LIG d   1      -0.747  77.668 114.020  0.00  0.00    -0.047 C 
ATOM      6  C   LIG d   1      -1.913  77.417 115.002  0.00  0.00     0.091 C 
ENDROOT
BRANCH   1   7
ATOM      7  O   LIG d   1      -3.860  78.502 116.020  0.00  0.00    -0.368 OA
BRANCH   7   8
ATOM      8  C   LIG d   1      -4.198  79.219 117.233  0.00  0.00     0.119 C 
BRANCH   8   9
ATOM      9  C   LIG d   1      -3.530  78.480 118.409  0.00  0.00     0.028 C 
ATOM     10  C   LIG d   1      -2.481  79.347 119.127  0.00  0.00     0.006 C 
ENDBRANCH   8   9
BRANCH   8  11
ATOM     11  C   LIG d   1      -5.702  79.157 117.517  0.00  0.00     0.028 C 
ATOM     12  C   LIG d   1      -6.300  80.530 117.861  0.00  0.00     0.006 C 
ENDBRANCH   8  11
ENDBRANCH   7   8
ENDBRANCH   1   7
BRANCH   6  13
ATOM     13  N   LIG d   1      -1.488  76.652 116.203  0.00  0.00    -0.311 N 
ATOM     14  C   LIG d   1      -1.600  75.328 116.307  0.00  0.00     0.210 C 
ATOM     15  C   LIG d   1      -1.120  74.741 117.638  0.00  0.00     0.109 C 
ATOM     16  O   LIG d   1      -2.020  74.582 115.410  0.00  0.00    -0.276 OA
ATOM     17  H   LIG d   1      -1.107  77.175 116.966  0.00  0.00     0.149 HD
ENDBRANCH   6  13
BRANCH   5  18
ATOM     18  N   LIG d   1      -0.199  76.426 113.443  0.00  0.00     0.381 N 
ATOM     19  H   LIG d   1      -0.273  76.454 112.446  0.00  0.00    -0.090 HD
ATOM     20  H   LIG d   1      -0.738  75.647 113.777  0.00  0.00    -0.090 HD
ATOM     21  H   LIG d   1       0.755  76.317 113.710  0.00  0.00    -0.090 HD
ENDBRANCH   5  18
BRANCH   3  22
ATOM     22  C   LIG d   1      -1.856  80.813 112.472  0.00  0.00     0.382 C 
ATOM     23  O   LIG d   1      -2.759  81.681 112.538  0.00  0.00    -0.241 OA
ATOM     24  O   LIG d   1      -0.937  80.946 111.642  0.00  0.00    -0.241 OA
ENDBRANCH   3  22
TORSDOF 7
ENDMDL
MODEL 5
REMARK VINA RESULT:      -5.3      2.531      4.113
REMARK  7 active torsions:
REMARK  status: ('A' for Active; 'I' for Inactive)
REMARK    1  A    between atoms: C_2  and  C_3 
REMARK    2  A    between atoms: C_3  and  O_6 
REMARK    3  A    between atoms: C_3  and  C_4 
REMARK    4  A    between atoms: C_7  and  O_6 
REMARK    5  A    between atoms: C_9  and  C_10 
REMARK    6  A    between atoms: N_15  and  C_14 
REMARK    7  A    between atoms: N_20  and  C_19 
REMARK       I    between atoms: C_22  and  N_20 
ROOT
ATOM      1  C   LIG d   1      -2.422  77.895 116.174  0.00  0.00     0.161 C 
ATOM      2  C   LIG d   1      -2.787  78.843 115.202  0.00  0.00     0.016 C 
ATOM      3  C   LIG d   1      -2.065  79.046 114.004  0.00  0.00     0.038 C 
ATOM      4  C   LIG d   1      -1.009  78.204 113.623  0.00  0.00     0.028 C 
ATOM      5  C   LIG d   1      -0.291  77.560 114.804  0.00  0.00    -0.047 C 
ATOM      6  C   LIG d   1      -1.339  76.893 115.724  0.00  0.00     0.091 C 
ENDROOT
BRANCH   1   7
ATOM      7  O   LIG d   1      -3.594  77.194 116.635  0.00  0.00    -0.368 OA
BRANCH   7   8
ATOM      8  C   LIG d   1      -4.577  76.861 115.624  0.00  0.00     0.119 C 
BRANCH   8   9
ATOM      9  C   LIG d   1      -5.970  77.007 116.267  0.00  0.00     0.028 C 
ATOM     10  C   LIG d   1      -6.047  78.199 117.237  0.00  0.00     0.006 C 
ENDBRANCH   8   9
BRANCH   8  11
ATOM     11  C   LIG d   1      -4.474  75.391 115.209  0.00  0.00     0.028 C 
ATOM     12  C   LIG d   1      -5.815  74.811 114.730  0.00  0.00     0.006 C 
ENDBRANCH   8  11
ENDBRANCH   7   8
ENDBRANCH   1   7
BRANCH   6  13
ATOM     13  N   LIG d   1      -0.729  76.311 116.949  0.00  0.00    -0.311 N 
ATOM     14  C   LIG d   1      -0.109  77.038 117.876  0.00  0.00     0.210 C 
ATOM     15  C   LIG d   1       0.466  76.238 119.048  0.00  0.00     0.109 C 
ATOM     16  O   LIG d   1      -0.008  78.274 117.854  0.00  0.00    -0.276 OA
ATOM     17  H   LIG d   1      -0.793  75.318 117.062  0.00  0.00     0.149 HD
ENDBRANCH   6  13
BRANCH   5  18
ATOM     18  N   LIG d   1       0.693  76.605 114.261  0.00  0.00     0.381 N 
ATOM     19  H   LIG d   1       1.605  77.017 114.270  0.00  0.00    -0.090 HD
ATOM     20  H   LIG d   1       0.451  76.395 113.309  0.00  0.00    -0.090 HD
ATOM     21  H   LIG d   1       0.693  75.769 114.803  0.00  0.00    -0.090 HD
ENDBRANCH   5  18
BRANCH   3  22
ATOM     22  C   LIG d   1      -2.372  80.126 113.191  0.00  0.00     0.382 C 
ATOM     23  O   LIG d   1      -3.116  81.041 113.619  0.00  0.00    -0.241 OA
ATOM     24  O   LIG d   1      -1.951  80.175 112.019  0.00  0.00    -0.241 OA
ENDBRANCH   3  22
TORSDOF 7
ENDMDL
MODEL 6
REMARK VINA RESULT:      -5.2      2.777      5.057
REMARK  7 active torsions:
REMARK  status: ('A' for Active; 'I' for Inactive)
REMARK    1  A    between atoms: C_2  and  C_3 
REMARK    2  A    between atoms: C_3  and  O_6 
REMARK    3  A    between atoms: C_3  and  C_4 
REMARK    4  A    between atoms: C_7  and  O_6 
REMARK    5  A    between atoms: C_9  and  C_10 
REMARK    6  A    between atoms: N_15  and  C_14 
REMARK    7  A    between atoms: N_20  and  C_19 
REMARK       I    between atoms: C_22  and  N_20 
ROOT
ATOM      1  C   LIG d   1      -2.814  76.984 115.002  0.00  0.00     0.161 C 
ATOM      2  C   LIG d   1      -2.560  76.151 116.104  0.00  0.00     0.016 C 
ATOM      3  C   LIG d   1      -1.357  76.187 116.845  0.00  0.00     0.038 C 
ATOM      4  C   LIG d   1      -0.380  77.170 116.627  0.00  0.00     0.028 C 
ATOM      5  C   LIG d   1      -0.372  77.709 115.200  0.00  0.00    -0.047 C 
ATOM      6  C   LIG d   1      -1.807  78.138 114.818  0.00  0.00     0.091 C 
ENDROOT
BRANCH   1   7
ATOM      7  O   LIG d   1      -4.158  77.499 115.079  0.00  0.00    -0.368 OA
BRANCH   7   8
ATOM      8  C   LIG d   1      -5.021  76.884 116.066  0.00  0.00     0.119 C 
BRANCH   8   9
ATOM      9  C   LIG d   1      -6.186  76.215 115.311  0.00  0.00     0.028 C 
ATOM     10  C   LIG d   1      -5.791  74.857 114.706  0.00  0.00     0.006 C 
ENDBRANCH   8   9
BRANCH   8  11
ATOM     11  C   LIG d   1      -5.673  77.935 116.969  0.00  0.00     0.028 C 
ATOM     12  C   LIG d   1      -7.103  77.556 117.388  0.00  0.00     0.006 C 
ENDBRANCH   8  11
ENDBRANCH   7   8
ENDBRANCH   1   7
BRANCH   6  13
ATOM     13  N   LIG d   1      -1.904  78.599 113.408  0.00  0.00    -0.311 N 
ATOM     14  C   LIG d   1      -1.492  77.874 112.370  0.00  0.00     0.210 C 
ATOM     15  C   LIG d   1      -1.665  78.545 111.003  0.00  0.00     0.109 C 
ATOM     16  O   LIG d   1      -1.030  76.726 112.448  0.00  0.00    -0.276 OA
ATOM     17  H   LIG d   1      -2.296  79.507 113.251  0.00  0.00     0.149 HD
ENDBRANCH   6  13
BRANCH   5  18
ATOM     18  N   LIG d   1       0.597  78.820 115.149  0.00  0.00     0.381 N 
ATOM     19  H   LIG d   1       0.726  79.199 116.066  0.00  0.00    -0.090 HD
ATOM     20  H   LIG d   1       0.230  79.544 114.557  0.00  0.00    -0.090 HD
ATOM     21  H   LIG d   1       1.468  78.497 114.789  0.00  0.00    -0.090 HD
ENDBRANCH   5  18
BRANCH   3  22
ATOM     22  C   LIG d   1      -1.103  75.206 117.792  0.00  0.00     0.382 C 
ATOM     23  O   LIG d   1      -1.827  74.183 117.844  0.00  0.00    -0.241 OA
ATOM     24  O   LIG d   1      -0.188  75.353 118.624  0.00  0.00    -0.241 OA
ENDBRANCH   3  22
TORSDOF 7
ENDMDL
MODEL 7
REMARK VINA RESULT:      -5.2      3.330      5.836
REMARK  7 active torsions:
REMARK  status: ('A' for Active; 'I' for Inactive)
REMARK    1  A    between atoms: C_2  and  C_3 
REMARK    2  A    between atoms: C_3  and  O_6 
REMARK    3  A    between atoms: C_3  and  C_4 
REMARK    4  A    between atoms: C_7  and  O_6 
REMARK    5  A    between atoms: C_9  and  C_10 
REMARK    6  A    between atoms: N_15  and  C_14 
REMARK    7  A    between atoms: N_20  and  C_19 
REMARK       I    between atoms: C_22  and  N_20 
ROOT
ATOM      1  C   LIG d   1      -2.638  78.494 115.883  0.00  0.00     0.161 C 
ATOM      2  C   LIG d   1      -1.317  78.794 116.255  0.00  0.00     0.016 C 
ATOM      3  C   LIG d   1      -0.418  77.834 116.775  0.00  0.00     0.038 C 
ATOM      4  C   LIG d   1      -0.736  76.468 116.818  0.00  0.00     0.028 C 
ATOM      5  C   LIG d   1      -2.232  76.197 116.926  0.00  0.00    -0.047 C 
ATOM      6  C   LIG d   1      -2.967  76.988 115.819  0.00  0.00     0.091 C 
ENDROOT
BRANCH   1   7
ATOM      7  O   LIG d   1      -2.949  79.129 114.627  0.00  0.00    -0.368 OA
BRANCH   7   8
ATOM      8  C   LIG d   1      -2.176  78.689 113.483  0.00  0.00     0.119 C 
BRANCH   8   9
ATOM      9  C   LIG d   1      -1.746  79.947 112.704  0.00  0.00     0.028 C 
ATOM     10  C   LIG d   1      -2.715  81.123 112.907  0.00  0.00     0.006 C 
ENDBRANCH   8   9
BRANCH   8  11
ATOM     11  C   LIG d   1      -3.036  77.881 112.507  0.00  0.00     0.028 C 
ATOM     12  C   LIG d   1      -2.439  77.826 111.092  0.00  0.00     0.006 C 
ENDBRANCH   8  11
ENDBRANCH   7   8
ENDBRANCH   1   7
BRANCH   6  13
ATOM     13  N   LIG d   1      -4.443  76.845 115.905  0.00  0.00    -0.311 N 
ATOM     14  C   LIG d   1      -5.142  75.989 115.161  0.00  0.00     0.210 C 
ATOM     15  C   LIG d   1      -6.656  76.017 115.394  0.00  0.00     0.109 C 
ATOM     16  O   LIG d   1      -4.648  75.187 114.355  0.00  0.00    -0.276 OA
ATOM     17  H   LIG d   1      -4.922  77.436 116.557  0.00  0.00     0.149 HD
ENDBRANCH   6  13
BRANCH   5  18
ATOM     18  N   LIG d   1      -2.430  74.739 116.822  0.00  0.00     0.381 N 
ATOM     19  H   LIG d   1      -3.384  74.511 117.016  0.00  0.00    -0.090 HD
ATOM     20  H   LIG d   1      -1.852  74.283 117.506  0.00  0.00    -0.090 HD
ATOM     21  H   LIG d   1      -2.185  74.426 115.908  0.00  0.00    -0.090 HD
ENDBRANCH   5  18
BRANCH   3  22
ATOM     22  C   LIG d   1       0.799  78.244 117.296  0.00  0.00     0.382 C 
ATOM     23  O   LIG d   1       1.358  77.566 118.192  0.00  0.00    -0.241 OA
ATOM     24  O   LIG d   1       1.324  79.307 116.915  0.00  0.00    -0.241 OA
ENDBRANCH   3  22
TORSDOF 7
ENDMDL
MODEL 8
REMARK VINA RESULT:      -5.2      4.156      5.834
REMARK  7 active torsions:
REMARK  status: ('A' for Active; 'I' for Inactive)
REMARK    1  A    between atoms: C_2  and  C_3 
REMARK    2  A    between atoms: C_3  and  O_6 
REMARK    3  A    between atoms: C_3  and  C_4 
REMARK    4  A    between atoms: C_7  and  O_6 
REMARK    5  A    between atoms: C_9  and  C_10 
REMARK    6  A    between atoms: N_15  and  C_14 
REMARK    7  A    between atoms: N_20  and  C_19 
REMARK       I    between atoms: C_22  and  N_20 
ROOT
ATOM      1  C   LIG d   1      -3.893  78.209 117.327  0.00  0.00     0.161 C 
ATOM      2  C   LIG d   1      -2.884  79.015 117.880  0.00  0.00     0.016 C 
ATOM      3  C   LIG d   1      -1.547  79.012 117.421  0.00  0.00     0.038 C 
ATOM      4  C   LIG d   1      -1.160  78.310 116.270  0.00  0.00     0.028 C 
ATOM      5  C   LIG d   1      -2.030  77.091 115.982  0.00  0.00    -0.047 C 
ATOM      6  C   LIG d   1      -3.515  77.520 115.999  0.00  0.00     0.091 C 
ENDROOT
BRANCH   1   7
ATOM      7  O   LIG d   1      -5.100  78.981 117.165  0.00  0.00    -0.368 OA
BRANCH   7   8
ATOM      8  C   LIG d   1      -5.975  79.045 118.318  0.00  0.00     0.119 C 
BRANCH   8   9
ATOM      9  C   LIG d   1      -7.398  78.699 117.839  0.00  0.00     0.028 C 
ATOM     10  C   LIG d   1      -7.566  77.202 117.530  0.00  0.00     0.006 C 
ENDBRANCH   8   9
BRANCH   8  11
ATOM     11  C   LIG d   1      -6.068  80.472 118.868  0.00  0.00     0.028 C 
ATOM     12  C   LIG d   1      -6.460  81.500 117.795  0.00  0.00     0.006 C 
ENDBRANCH   8  11
ENDBRANCH   7   8
ENDBRANCH   1   7
BRANCH   6  13
ATOM     13  N   LIG d   1      -4.439  76.371 115.810  0.00  0.00    -0.311 N 
ATOM     14  C   LIG d   1      -4.903  75.991 114.620  0.00  0.00     0.210 C 
ATOM     15  C   LIG d   1      -5.859  74.795 114.651  0.00  0.00     0.109 C 
ATOM     16  O   LIG d   1      -4.588  76.512 113.540  0.00  0.00    -0.276 OA
ATOM     17  H   LIG d   1      -4.721  75.873 116.631  0.00  0.00     0.149 HD
ENDBRANCH   6  13
BRANCH   5  18
ATOM     18  N   LIG d   1      -1.603  76.535 114.685  0.00  0.00     0.381 N 
ATOM     19  H   LIG d   1      -2.123  76.964 113.945  0.00  0.00    -0.090 HD
ATOM     20  H   LIG d   1      -1.796  75.549 114.674  0.00  0.00    -0.090 HD
ATOM     21  H   LIG d   1      -0.629  76.691 114.550  0.00  0.00    -0.090 HD
ENDBRANCH   5  18
BRANCH   3  22
ATOM     22  C   LIG d   1      -0.572  79.687 118.140  0.00  0.00     0.382 C 
ATOM     23  O   LIG d   1       0.348  80.290 117.536  0.00  0.00    -0.241 OA
ATOM     24  O   LIG d   1      -0.575  79.663 119.385  0.00  0.00    -0.241 OA
ENDBRANCH   3  22
TORSDOF 7
ENDMDL
MODEL 9
REMARK VINA RESULT:      -5.0      2.818      4.663
REMARK  7 active torsions:
REMARK  status: ('A' for Active; 'I' for Inactive)
REMARK    1  A    between atoms: C_2  and  C_3 
REMARK    2  A    between atoms: C_3  and  O_6 
REMARK    3  A    between atoms: C_3  and  C_4 
REMARK    4  A    between atoms: C_7  and  O_6 
REMARK    5  A    between atoms: C_9  and  C_10 
REMARK    6  A    between atoms: N_15  and  C_14 
REMARK    7  A    between atoms: N_20  and  C_19 
REMARK       I    between atoms: C_22  and  N_20 
ROOT
ATOM      1  C   LIG d   1      -2.947  78.201 115.080  0.00  0.00     0.161 C 
ATOM      2  C   LIG d   1      -3.028  77.933 113.704  0.00  0.00     0.016 C 
ATOM      3  C   LIG d   1      -1.931  78.058 112.821  0.00  0.00     0.038 C 
ATOM      4  C   LIG d   1      -0.632  78.316 113.284  0.00  0.00     0.028 C 
ATOM      5  C   LIG d   1      -0.600  79.090 114.598  0.00  0.00    -0.047 C 
ATOM      6  C   LIG d   1      -1.513  78.377 115.622  0.00  0.00     0.091 C 
ENDROOT
BRANCH   1   7
ATOM      7  O   LIG d   1      -3.640  77.176 115.820  0.00  0.00    -0.368 OA
BRANCH   7   8
ATOM      8  C   LIG d   1      -3.551  75.833 115.284  0.00  0.00     0.119 C 
BRANCH   8   9
ATOM      9  C   LIG d   1      -4.961  75.215 115.345  0.00  0.00     0.028 C 
ATOM     10  C   LIG d   1      -5.943  75.899 114.379  0.00  0.00     0.006 C 
ENDBRANCH   8   9
BRANCH   8  11
ATOM     11  C   LIG d   1      -2.677  74.938 116.168  0.00  0.00     0.028 C 
ATOM     12  C   LIG d   1      -1.258  74.750 115.608  0.00  0.00     0.006 C 
ENDBRANCH   8  11
ENDBRANCH   7   8
ENDBRANCH   1   7
BRANCH   6  13
ATOM     13  N   LIG d   1      -1.605  79.114 116.909  0.00  0.00    -0.311 N 
ATOM     14  C   LIG d   1      -1.306  78.572 118.088  0.00  0.00     0.210 C 
ATOM     15  C   LIG d   1      -1.489  79.501 119.292  0.00  0.00     0.109 C 
ATOM     16  O   LIG d   1      -0.876  77.420 118.248  0.00  0.00    -0.276 OA
ATOM     17  H   LIG d   1      -1.916  80.065 116.868  0.00  0.00     0.149 HD
ENDBRANCH   6  13
BRANCH   5  18
ATOM     18  N   LIG d   1       0.806  79.169 115.034  0.00  0.00     0.381 N 
ATOM     19  H   LIG d   1       0.865  79.007 116.020  0.00  0.00    -0.090 HD
ATOM     20  H   LIG d   1       1.154  80.093 114.846  0.00  0.00    -0.090 HD
ATOM     21  H   LIG d   1       1.353  78.495 114.546  0.00  0.00    -0.090 HD
ENDBRANCH   5  18
BRANCH   3  22
ATOM     22  C   LIG d   1      -2.135  77.963 111.453  0.00  0.00     0.382 C 
ATOM     23  O   LIG d   1      -3.064  77.248 111.006  0.00  0.00    -0.241 OA
ATOM     24  O   LIG d   1      -1.375  78.548 110.658  0.00  0.00    -0.241 OA
ENDBRANCH   3  22
TORSDOF 7
ENDMDL
