MODEL 1
REMARK VINA RESULT:      -5.5      0.000      0.000
REMARK  7 active torsions:
REMARK  status: ('A' for Active; 'I' for Inactive)
REMARK    1  A    between atoms: C_2  and  C_3 
REMARK    2  A    between atoms: C_3  and  O_6 
REMARK    3  A    between atoms: C_3  and  C_4 
REMARK    4  A    between atoms: C_7  and  O_6 
REMARK    5  A    between atoms: C_9  and  C_10 
REMARK    6  A    between atoms: N_15  and  C_14 
REMARK    7  A    between atoms: N_20  and  C_19 
REMARK       I    between atoms: C_22  and  N_20 
ROOT
ATOM      1  C   LIG d   1      -2.946  77.416 116.106  0.00  0.00     0.161 C 
ATOM      2  C   LIG d   1      -3.252  77.922 114.832  0.00  0.00     0.016 C 
ATOM      3  C   LIG d   1      -2.396  77.785 113.715  0.00  0.00     0.038 C 
ATOM      4  C   LIG d   1      -1.237  76.997 113.761  0.00  0.00     0.028 C 
ATOM      5  C   LIG d   1      -0.633  76.888 115.157  0.00  0.00    -0.047 C 
ATOM      6  C   LIG d   1      -1.738  76.457 116.149  0.00  0.00     0.091 C 
ENDROOT
BRANCH   1   7
ATOM      7  O   LIG d   1      -4.110  76.781 116.672  0.00  0.00    -0.368 OA
BRANCH   7   8
ATOM      8  C   LIG d   1      -5.244  76.622 115.784  0.00  0.00     0.119 C 
BRANCH   8   9
ATOM      9  C   LIG d   1      -6.514  76.949 116.593  0.00  0.00     0.028 C 
ATOM     10  C   LIG d   1      -7.393  75.710 116.833  0.00  0.00     0.006 C 
ENDBRANCH   8   9
BRANCH   8  11
ATOM     11  C   LIG d   1      -5.407  75.163 115.345  0.00  0.00     0.028 C 
ATOM     12  C   LIG d   1      -5.047  74.942 113.867  0.00  0.00     0.006 C 
ENDBRANCH   8  11
ENDBRANCH   7   8
ENDBRANCH   1   7
BRANCH   6  13
ATOM     13  N   LIG d   1      -1.252  76.408 117.552  0.00  0.00    -0.311 N 
ATOM     14  C   LIG d   1      -0.840  75.290 118.147  0.00  0.00     0.210 C 
ATOM     15  C   LIG d   1      -0.398  75.457 119.604  0.00  0.00     0.109 C 
ATOM     16  O   LIG d   1      -0.769  74.181 117.596  0.00  0.00    -0.276 OA
ATOM     17  H   LIG d   1      -1.247  77.269 118.063  0.00  0.00     0.149 HD
ENDBRANCH   6  13
BRANCH   5  18
ATOM     18  N   LIG d   1       0.485  75.929 115.085  0.00  0.00     0.381 N 
ATOM     19  H   LIG d   1       1.309  76.393 114.757  0.00  0.00    -0.090 HD
ATOM     20  H   LIG d   1       0.250  75.204 114.431  0.00  0.00    -0.090 HD
ATOM     21  H   LIG d   1       0.654  75.534 115.984  0.00  0.00    -0.090 HD
ENDBRANCH   5  18
BRANCH   3  22
ATOM     22  C   LIG d   1      -2.677  78.476 112.545  0.00  0.00     0.382 C 
ATOM     23  O   LIG d   1      -2.143  79.590 112.331  0.00  0.00    -0.241 OA
ATOM     24  O   LIG d   1      -3.492  78.018 111.722  0.00  0.00    -0.241 OA
ENDBRANCH   3  22
TORSDOF 7
ENDMDL
MODEL 2
REMARK VINA RESULT:      -5.5      3.056      4.235
REMARK  7 active torsions:
REMARK  status: ('A' for Active; 'I' for Inactive)
REMARK    1  A    between atoms: C_2  and  C_3 
REMARK    2  A    between atoms: C_3  and  O_6 
REMARK    3  A    between atoms: C_3  and  C_4 
REMARK    4  A    between atoms: C_7  and  O_6 
REMARK    5  A    between atoms: C_9  and  C_10 
REMARK    6  A    between atoms: N_15  and  C_14 
REMARK    7  A    between atoms: N_20  and  C_19 
REMARK       I    between atoms: C_22  and  N_20 
ROOT
ATOM      1  C   LIG d   1      -2.791  79.839 115.529  0.00  0.00     0.161 C 
ATOM      2  C   LIG d   1      -2.599  81.071 114.882  0.00  0.00     0.016 C 
ATOM      3  C   LIG d   1      -2.053  81.191 113.583  0.00  0.00     0.038 C 
ATOM      4  C   LIG d   1      -1.800  80.070 112.779  0.00  0.00     0.028 C 
ATOM      5  C   LIG d   1      -1.506  78.805 113.577  0.00  0.00    -0.047 C 
ATOM      6  C   LIG d   1      -2.625  78.601 114.624  0.00  0.00     0.091 C 
ENDROOT
BRANCH   1   7
ATOM      7  O   LIG d   1      -4.081  79.821 116.171  0.00  0.00    -0.368 OA
BRANCH   7   8
ATOM      8  C   LIG d   1      -4.077  79.596 117.603  0.00  0.00     0.119 C 
BRANCH   8   9
ATOM      9  C   LIG d   1      -5.021  80.635 118.237  0.00  0.00     0.028 C 
ATOM     10  C   LIG d   1      -6.482  80.449 117.794  0.00  0.00     0.006 C 
ENDBRANCH   8   9
BRANCH   8  11
ATOM     11  C   LIG d   1      -2.699  79.878 118.207  0.00  0.00     0.028 C 
ATOM     12  C   LIG d   1      -2.778  80.432 119.639  0.00  0.00     0.006 C 
ENDBRANCH   8  11
ENDBRANCH   7   8
ENDBRANCH   1   7
BRANCH   6  13
ATOM     13  N   LIG d   1      -2.370  77.431 115.504  0.00  0.00    -0.311 N 
ATOM     14  C   LIG d   1      -2.786  76.197 115.223  0.00  0.00     0.210 C 
ATOM     15  C   LIG d   1      -2.434  75.141 116.275  0.00  0.00     0.109 C 
ATOM     16  O   LIG d   1      -3.383  75.871 114.186  0.00  0.00    -0.276 OA
ATOM     17  H   LIG d   1      -1.865  77.599 116.352  0.00  0.00     0.149 HD
ENDBRANCH   6  13
BRANCH   5  18
ATOM     18  N   LIG d   1      -1.398  77.688 112.620  0.00  0.00     0.381 N 
ATOM     19  H   LIG d   1      -1.258  76.830 113.115  0.00  0.00    -0.090 HD
ATOM     20  H   LIG d   1      -0.602  77.844 112.027  0.00  0.00    -0.090 HD
ATOM     21  H   LIG d   1      -2.226  77.631 112.069  0.00  0.00    -0.090 HD
ENDBRANCH   5  18
BRANCH   3  22
ATOM     22  C   LIG d   1      -1.716  82.444 113.092  0.00  0.00     0.382 C 
ATOM     23  O   LIG d   1      -1.470  82.593 111.871  0.00  0.00    -0.241 OA
ATOM     24  O   LIG d   1      -1.613  83.417 113.863  0.00  0.00    -0.241 OA
ENDBRANCH   3  22
TORSDOF 7
ENDMDL
MODEL 3
REMARK VINA RESULT:      -5.3      2.386      2.889
REMARK  7 active torsions:
REMARK  status: ('A' for Active; 'I' for Inactive)
REMARK    1  A    between atoms: C_2  and  C_3 
REMARK    2  A    between atoms: C_3  and  O_6 
REMARK    3  A    between atoms: C_3  and  C_4 
REMARK    4  A    between atoms: C_7  and  O_6 
REMARK    5  A    between atoms: C_9  and  C_10 
REMARK    6  A    between atoms: N_15  and  C_14 
REMARK    7  A    between atoms: N_20  and  C_19 
REMARK       I    between atoms: C_22  and  N_20 
ROOT
ATOM      1  C   LIG d   1      -2.364  79.284 116.552  0.00  0.00     0.161 C 
ATOM      2  C   LIG d   1      -2.680  80.399 115.757  0.00  0.00     0.016 C 
ATOM      3  C   LIG d   1      -2.518  80.424 114.353  0.00  0.00     0.038 C 
ATOM      4  C   LIG d   1      -2.168  79.276 113.626  0.00  0.00     0.028 C 
ATOM      5  C   LIG d   1      -1.354  78.272 114.434  0.00  0.00    -0.047 C 
ATOM      6  C   LIG d   1      -2.088  77.986 115.764  0.00  0.00     0.091 C 
ENDROOT
BRANCH   1   7
ATOM      7  O   LIG d   1      -3.405  79.067 117.525  0.00  0.00    -0.368 OA
BRANCH   7   8
ATOM      8  C   LIG d   1      -4.748  78.921 117.000  0.00  0.00     0.119 C 
BRANCH   8   9
ATOM      9  C   LIG d   1      -5.627  79.992 117.674  0.00  0.00     0.028 C 
ATOM     10  C   LIG d   1      -4.944  80.628 118.896  0.00  0.00     0.006 C 
ENDBRANCH   8   9
BRANCH   8  11
ATOM     11  C   LIG d   1      -5.362  77.578 117.407  0.00  0.00     0.028 C 
ATOM     12  C   LIG d   1      -6.001  76.833 116.224  0.00  0.00     0.006 C 
ENDBRANCH   8  11
ENDBRANCH   7   8
ENDBRANCH   1   7
BRANCH   6  13
ATOM     13  N   LIG d   1      -1.317  77.077 116.652  0.00  0.00    -0.311 N 
ATOM     14  C   LIG d   1      -1.729  75.855 116.986  0.00  0.00     0.210 C 
ATOM     15  C   LIG d   1      -0.794  75.092 117.929  0.00  0.00     0.109 C 
ATOM     16  O   LIG d   1      -2.765  75.318 116.565  0.00  0.00    -0.276 OA
ATOM     17  H   LIG d   1      -0.449  77.420 117.014  0.00  0.00     0.149 HD
ENDBRANCH   6  13
BRANCH   5  18
ATOM     18  N   LIG d   1      -1.178  77.068 113.600  0.00  0.00     0.381 N 
ATOM     19  H   LIG d   1      -1.043  77.333 112.645  0.00  0.00    -0.090 HD
ATOM     20  H   LIG d   1      -2.011  76.508 113.657  0.00  0.00    -0.090 HD
ATOM     21  H   LIG d   1      -0.394  76.543 113.921  0.00  0.00    -0.090 HD
ENDBRANCH   5  18
BRANCH   3  22
ATOM     22  C   LIG d   1      -2.667  81.619 113.665  0.00  0.00     0.382 C 
ATOM     23  O   LIG d   1      -1.955  82.608 113.966  0.00  0.00    -0.241 OA
ATOM     24  O   LIG d   1      -3.534  81.734 112.779  0.00  0.00    -0.241 OA
ENDBRANCH   3  22
TORSDOF 7
ENDMDL
MODEL 4
REMARK VINA RESULT:      -5.0      2.993      5.038
REMARK  7 active torsions:
REMARK  status: ('A' for Active; 'I' for Inactive)
REMARK    1  A    between atoms: C_2  and  C_3 
REMARK    2  A    between atoms: C_3  and  O_6 
REMARK    3  A    between atoms: C_3  and  C_4 
REMARK    4  A    between atoms: C_7  and  O_6 
REMARK    5  A    between atoms: C_9  and  C_10 
REMARK    6  A    between atoms: N_15  and  C_14 
REMARK    7  A    between atoms: N_20  and  C_19 
REMARK       I    between atoms: C_22  and  N_20 
ROOT
ATOM      1  C   LIG d   1      -3.619  76.914 117.227  0.00  0.00     0.161 C 
ATOM      2  C   LIG d   1      -2.358  76.656 116.666  0.00  0.00     0.016 C 
ATOM      3  C   LIG d   1      -2.177  76.133 115.364  0.00  0.00     0.038 C 
ATOM      4  C   LIG d   1      -3.249  75.975 114.474  0.00  0.00     0.028 C 
ATOM      5  C   LIG d   1      -4.587  75.747 115.170  0.00  0.00    -0.047 C 
ATOM      6  C   LIG d   1      -4.796  76.852 116.230  0.00  0.00     0.091 C 
ENDROOT
BRANCH   1   7
ATOM      7  O   LIG d   1      -3.602  78.187 117.903  0.00  0.00    -0.368 OA
BRANCH   7   8
ATOM      8  C   LIG d   1      -2.658  79.164 117.398  0.00  0.00     0.119 C 
BRANCH   8   9
ATOM      9  C   LIG d   1      -2.176  80.004 118.596  0.00  0.00     0.028 C 
ATOM     10  C   LIG d   1      -3.339  80.492 119.477  0.00  0.00     0.006 C 
ENDBRANCH   8   9
BRANCH   8  11
ATOM     11  C   LIG d   1      -3.338  80.159 116.453  0.00  0.00     0.028 C 
ATOM     12  C   LIG d   1      -2.705  80.179 115.052  0.00  0.00     0.006 C 
ENDBRANCH   8  11
ENDBRANCH   7   8
ENDBRANCH   1   7
BRANCH   6  13
ATOM     13  N   LIG d   1      -6.041  76.656 117.016  0.00  0.00    -0.311 N 
ATOM     14  C   LIG d   1      -6.851  77.653 117.368  0.00  0.00     0.210 C 
ATOM     15  C   LIG d   1      -8.071  77.235 118.194  0.00  0.00     0.109 C 
ATOM     16  O   LIG d   1      -6.692  78.841 117.047  0.00  0.00    -0.276 OA
ATOM     17  H   LIG d   1      -6.264  75.720 117.292  0.00  0.00     0.149 HD
ENDBRANCH   6  13
BRANCH   5  18
ATOM     18  N   LIG d   1      -5.634  75.736 114.132  0.00  0.00     0.381 N 
ATOM     19  H   LIG d   1      -5.307  75.243 113.325  0.00  0.00    -0.090 HD
ATOM     20  H   LIG d   1      -5.834  76.684 113.862  0.00  0.00    -0.090 HD
ATOM     21  H   LIG d   1      -6.459  75.303 114.483  0.00  0.00    -0.090 HD
ENDBRANCH   5  18
BRANCH   3  22
ATOM     22  C   LIG d   1      -0.916  75.726 114.956  0.00  0.00     0.382 C 
ATOM     23  O   LIG d   1      -0.792  74.726 114.208  0.00  0.00    -0.241 OA
ATOM     24  O   LIG d   1       0.101  76.318 115.363  0.00  0.00    -0.241 OA
ENDBRANCH   3  22
TORSDOF 7
ENDMDL
MODEL 5
REMARK VINA RESULT:      -4.9      2.627      5.667
REMARK  7 active torsions:
REMARK  status: ('A' for Active; 'I' for Inactive)
REMARK    1  A    between atoms: C_2  and  C_3 
REMARK    2  A    between atoms: C_3  and  O_6 
REMARK    3  A    between atoms: C_3  and  C_4 
REMARK    4  A    between atoms: C_7  and  O_6 
REMARK    5  A    between atoms: C_9  and  C_10 
REMARK    6  A    between atoms: N_15  and  C_14 
REMARK    7  A    between atoms: N_20  and  C_19 
REMARK       I    between atoms: C_22  and  N_20 
ROOT
ATOM      1  C   LIG d   1      -4.540  76.906 116.052  0.00  0.00     0.161 C 
ATOM      2  C   LIG d   1      -5.691  76.105 116.135  0.00  0.00     0.016 C 
ATOM      3  C   LIG d   1      -6.861  76.492 116.829  0.00  0.00     0.038 C 
ATOM      4  C   LIG d   1      -7.013  77.780 117.364  0.00  0.00     0.028 C 
ATOM      5  C   LIG d   1      -5.691  78.439 117.742  0.00  0.00    -0.047 C 
ATOM      6  C   LIG d   1      -4.728  78.359 116.535  0.00  0.00     0.091 C 
ENDROOT
BRANCH   1   7
ATOM      7  O   LIG d   1      -4.028  76.888 114.705  0.00  0.00    -0.368 OA
BRANCH   7   8
ATOM      8  C   LIG d   1      -2.752  76.228 114.518  0.00  0.00     0.119 C 
BRANCH   8   9
ATOM      9  C   LIG d   1      -2.197  75.886 115.914  0.00  0.00     0.028 C 
ATOM     10  C   LIG d   1      -0.967  74.966 115.848  0.00  0.00     0.006 C 
ENDBRANCH   8   9
BRANCH   8  11
ATOM     11  C   LIG d   1      -1.722  77.174 113.893  0.00  0.00     0.028 C 
ATOM     12  C   LIG d   1      -2.303  78.013 112.744  0.00  0.00     0.006 C 
ENDBRANCH   8  11
ENDBRANCH   7   8
ENDBRANCH   1   7
BRANCH   6  13
ATOM     13  N   LIG d   1      -3.382  78.907 116.848  0.00  0.00    -0.311 N 
ATOM     14  C   LIG d   1      -2.776  79.832 116.105  0.00  0.00     0.210 C 
ATOM     15  C   LIG d   1      -1.384  80.243 116.593  0.00  0.00     0.109 C 
ATOM     16  O   LIG d   1      -3.274  80.375 115.107  0.00  0.00    -0.276 OA
ATOM     17  H   LIG d   1      -2.919  78.545 117.658  0.00  0.00     0.149 HD
ENDBRANCH   6  13
BRANCH   5  18
ATOM     18  N   LIG d   1      -5.986  79.824 118.156  0.00  0.00     0.381 N 
ATOM     19  H   LIG d   1      -5.440  80.060 118.960  0.00  0.00    -0.090 HD
ATOM     20  H   LIG d   1      -6.958  79.889 118.403  0.00  0.00    -0.090 HD
ATOM     21  H   LIG d   1      -5.782  80.453 117.411  0.00  0.00    -0.090 HD
ENDBRANCH   5  18
BRANCH   3  22
ATOM     22  C   LIG d   1      -7.878  75.571 117.028  0.00  0.00     0.382 C 
ATOM     23  O   LIG d   1      -7.622  74.343 117.029  0.00  0.00    -0.241 OA
ATOM     24  O   LIG d   1      -9.057  75.952 117.161  0.00  0.00    -0.241 OA
ENDBRANCH   3  22
TORSDOF 7
ENDMDL
MODEL 6
REMARK VINA RESULT:      -4.9      2.640      5.010
REMARK  7 active torsions:
REMARK  status: ('A' for Active; 'I' for Inactive)
REMARK    1  A    between atoms: C_2  and  C_3 
REMARK    2  A    between atoms: C_3  and  O_6 
REMARK    3  A    between atoms: C_3  and  C_4 
REMARK    4  A    between atoms: C_7  and  O_6 
REMARK    5  A    between atoms: C_9  and  C_10 
REMARK    6  A    between atoms: N_15  and  C_14 
REMARK    7  A    between atoms: N_20  and  C_19 
REMARK       I    between atoms: C_22  and  N_20 
ROOT
ATOM      1  C   LIG d   1      -2.600  77.315 116.808  0.00  0.00     0.161 C 
ATOM      2  C   LIG d   1      -1.554  77.826 117.593  0.00  0.00     0.016 C 
ATOM      3  C   LIG d   1      -0.207  77.415 117.459  0.00  0.00     0.038 C 
ATOM      4  C   LIG d   1       0.209  76.569 116.420  0.00  0.00     0.028 C 
ATOM      5  C   LIG d   1      -0.889  75.637 115.921  0.00  0.00    -0.047 C 
ATOM      6  C   LIG d   1      -2.148  76.474 115.596  0.00  0.00     0.091 C 
ENDROOT
BRANCH   1   7
ATOM      7  O   LIG d   1      -3.460  78.389 116.380  0.00  0.00    -0.368 OA
BRANCH   7   8
ATOM      8  C   LIG d   1      -3.009  79.730 116.693  0.00  0.00     0.119 C 
BRANCH   8   9
ATOM      9  C   LIG d   1      -4.175  80.462 117.384  0.00  0.00     0.028 C 
ATOM     10  C   LIG d   1      -4.049  80.451 118.917  0.00  0.00     0.006 C 
ENDBRANCH   8   9
BRANCH   8  11
ATOM     11  C   LIG d   1      -2.724  80.533 115.420  0.00  0.00     0.028 C 
ATOM     12  C   LIG d   1      -1.260  80.427 114.964  0.00  0.00     0.006 C 
ENDBRANCH   8  11
ENDBRANCH   7   8
ENDBRANCH   1   7
BRANCH   6  13
ATOM     13  N   LIG d   1      -3.298  75.629 115.181  0.00  0.00    -0.311 N 
ATOM     14  C   LIG d   1      -3.997  75.839 114.066  0.00  0.00     0.210 C 
ATOM     15  C   LIG d   1      -5.156  74.864 113.836  0.00  0.00     0.109 C 
ATOM     16  O   LIG d   1      -3.747  76.720 113.230  0.00  0.00    -0.276 OA
ATOM     17  H   LIG d   1      -3.550  74.872 115.785  0.00  0.00     0.149 HD
ENDBRANCH   6  13
BRANCH   5  18
ATOM     18  N   LIG d   1      -0.360  74.911 114.751  0.00  0.00     0.381 N 
ATOM     19  H   LIG d   1      -0.601  73.943 114.815  0.00  0.00    -0.090 HD
ATOM     20  H   LIG d   1       0.642  74.987 114.747  0.00  0.00    -0.090 HD
ATOM     21  H   LIG d   1      -0.733  75.299 113.912  0.00  0.00    -0.090 HD
ENDBRANCH   5  18
BRANCH   3  22
ATOM     22  C   LIG d   1       0.732  77.821 118.395  0.00  0.00     0.382 C 
ATOM     23  O   LIG d   1       1.215  78.977 118.337  0.00  0.00    -0.241 OA
ATOM     24  O   LIG d   1       1.134  77.031 119.270  0.00  0.00    -0.241 OA
ENDBRANCH   3  22
TORSDOF 7
ENDMDL
MODEL 7
REMARK VINA RESULT:      -4.8      3.073      5.741
REMARK  7 active torsions:
REMARK  status: ('A' for Active; 'I' for Inactive)
REMARK    1  A    between atoms: C_2  and  C_3 
REMARK    2  A    between atoms: C_3  and  O_6 
REMARK    3  A    between atoms: C_3  and  C_4 
REMARK    4  A    between atoms: C_7  and  O_6 
REMARK    5  A    between atoms: C_9  and  C_10 
REMARK    6  A    between atoms: N_15  and  C_14 
REMARK    7  A    between atoms: N_20  and  C_19 
REMARK       I    between atoms: C_22  and  N_20 
ROOT
ATOM      1  C   LIG d   1      -4.578  78.257 116.961  0.00  0.00     0.161 C 
ATOM      2  C   LIG d   1      -5.794  78.753 117.460  0.00  0.00     0.016 C 
ATOM      3  C   LIG d   1      -7.008  78.031 117.411  0.00  0.00     0.038 C 
ATOM      4  C   LIG d   1      -7.058  76.693 116.993  0.00  0.00     0.028 C 
ATOM      5  C   LIG d   1      -5.951  76.323 116.012  0.00  0.00    -0.047 C 
ATOM      6  C   LIG d   1      -4.591  76.756 116.603  0.00  0.00     0.091 C 
ENDROOT
BRANCH   1   7
ATOM      7  O   LIG d   1      -3.515  78.540 117.893  0.00  0.00    -0.368 OA
BRANCH   7   8
ATOM      8  C   LIG d   1      -2.862  79.825 117.743  0.00  0.00     0.119 C 
BRANCH   8   9
ATOM      9  C   LIG d   1      -1.653  79.623 116.809  0.00  0.00     0.028 C 
ATOM     10  C   LIG d   1      -1.832  80.331 115.456  0.00  0.00     0.006 C 
ENDBRANCH   8   9
BRANCH   8  11
ATOM     11  C   LIG d   1      -2.272  80.309 119.071  0.00  0.00     0.028 C 
ATOM     12  C   LIG d   1      -0.760  80.057 119.178  0.00  0.00     0.006 C 
ENDBRANCH   8  11
ENDBRANCH   7   8
ENDBRANCH   1   7
BRANCH   6  13
ATOM     13  N   LIG d   1      -3.461  76.507 115.669  0.00  0.00    -0.311 N 
ATOM     14  C   LIG d   1      -2.437  75.705 115.955  0.00  0.00     0.210 C 
ATOM     15  C   LIG d   1      -1.370  75.604 114.861  0.00  0.00     0.109 C 
ATOM     16  O   LIG d   1      -2.326  75.043 116.998  0.00  0.00    -0.276 OA
ATOM     17  H   LIG d   1      -3.486  76.980 114.787  0.00  0.00     0.149 HD
ENDBRANCH   6  13
BRANCH   5  18
ATOM     18  N   LIG d   1      -6.040  74.871 115.767  0.00  0.00     0.381 N 
ATOM     19  H   LIG d   1      -5.483  74.380 116.438  0.00  0.00    -0.090 HD
ATOM     20  H   LIG d   1      -5.677  74.673 114.851  0.00  0.00    -0.090 HD
ATOM     21  H   LIG d   1      -6.988  74.571 115.829  0.00  0.00    -0.090 HD
ENDBRANCH   5  18
BRANCH   3  22
ATOM     22  C   LIG d   1      -8.197  78.661 117.746  0.00  0.00     0.382 C 
ATOM     23  O   LIG d   1      -9.060  78.053 118.424  0.00  0.00    -0.241 OA
ATOM     24  O   LIG d   1      -8.436  79.814 117.341  0.00  0.00    -0.241 OA
ENDBRANCH   3  22
TORSDOF 7
ENDMDL
MODEL 8
REMARK VINA RESULT:      -4.8      2.074      4.981
REMARK  7 active torsions:
REMARK  status: ('A' for Active; 'I' for Inactive)
REMARK    1  A    between atoms: C_2  and  C_3 
REMARK    2  A    between atoms: C_3  and  O_6 
REMARK    3  A    between atoms: C_3  and  C_4 
REMARK    4  A    between atoms: C_7  and  O_6 
REMARK    5  A    between atoms: C_9  and  C_10 
REMARK    6  A    between atoms: N_15  and  C_14 
REMARK    7  A    between atoms: N_20  and  C_19 
REMARK       I    between atoms: C_22  and  N_20 
ROOT
ATOM      1  C   LIG d   1      -2.702  77.032 115.501  0.00  0.00     0.161 C 
ATOM      2  C   LIG d   1      -2.494  76.014 116.447  0.00  0.00     0.016 C 
ATOM      3  C   LIG d   1      -1.711  76.183 117.612  0.00  0.00     0.038 C 
ATOM      4  C   LIG d   1      -1.203  77.435 117.988  0.00  0.00     0.028 C 
ATOM      5  C   LIG d   1      -0.964  78.372 116.809  0.00  0.00    -0.047 C 
ATOM      6  C   LIG d   1      -2.248  78.436 115.951  0.00  0.00     0.091 C 
ENDROOT
BRANCH   1   7
ATOM      7  O   LIG d   1      -4.088  77.056 115.107  0.00  0.00    -0.368 OA
BRANCH   7   8
ATOM      8  C   LIG d   1      -4.972  76.162 115.827  0.00  0.00     0.119 C 
BRANCH   8   9
ATOM      9  C   LIG d   1      -5.636  75.234 114.791  0.00  0.00     0.028 C 
ATOM     10  C   LIG d   1      -5.358  75.676 113.344  0.00  0.00     0.006 C 
ENDBRANCH   8   9
BRANCH   8  11
ATOM     11  C   LIG d   1      -6.124  76.927 116.484  0.00  0.00     0.028 C 
ATOM     12  C   LIG d   1      -7.373  76.056 116.697  0.00  0.00     0.006 C 
ENDBRANCH   8  11
ENDBRANCH   7   8
ENDBRANCH   1   7
BRANCH   6  13
ATOM     13  N   LIG d   1      -2.073  79.265 114.730  0.00  0.00    -0.311 N 
ATOM     14  C   LIG d   1      -2.686  80.433 114.542  0.00  0.00     0.210 C 
ATOM     15  C   LIG d   1      -2.382  81.115 113.205  0.00  0.00     0.109 C 
ATOM     16  O   LIG d   1      -3.427  80.983 115.370  0.00  0.00    -0.276 OA
ATOM     17  H   LIG d   1      -1.464  78.908 114.020  0.00  0.00     0.149 HD
ENDBRANCH   6  13
BRANCH   5  18
ATOM     18  N   LIG d   1      -0.567  79.684 117.355  0.00  0.00     0.381 N 
ATOM     19  H   LIG d   1       0.160  79.563 118.032  0.00  0.00    -0.090 HD
ATOM     20  H   LIG d   1      -1.359  80.099 117.812  0.00  0.00    -0.090 HD
ATOM     21  H   LIG d   1      -0.250  80.277 116.620  0.00  0.00    -0.090 HD
ENDBRANCH   5  18
BRANCH   3  22
ATOM     22  C   LIG d   1      -1.395  75.082 118.393  0.00  0.00     0.382 C 
ATOM     23  O   LIG d   1      -1.832  75.000 119.566  0.00  0.00    -0.241 OA
ATOM     24  O   LIG d   1      -0.643  74.191 117.955  0.00  0.00    -0.241 OA
ENDBRANCH   3  22
TORSDOF 7
ENDMDL
MODEL 9
REMARK VINA RESULT:      -4.6      2.493      4.343
REMARK  7 active torsions:
REMARK  status: ('A' for Active; 'I' for Inactive)
REMARK    1  A    between atoms: C_2  and  C_3 
REMARK    2  A    between atoms: C_3  and  O_6 
REMARK    3  A    between atoms: C_3  and  C_4 
REMARK    4  A    between atoms: C_7  and  O_6 
REMARK    5  A    between atoms: C_9  and  C_10 
REMARK    6  A    between atoms: N_15  and  C_14 
REMARK    7  A    between atoms: N_20  and  C_19 
REMARK       I    between atoms: C_22  and  N_20 
ROOT
ATOM      1  C   LIG d   1      -2.276  77.851 116.017  0.00  0.00     0.161 C 
ATOM      2  C   LIG d   1      -3.249  77.424 115.099  0.00  0.00     0.016 C 
ATOM      3  C   LIG d   1      -3.735  76.098 115.039  0.00  0.00     0.038 C 
ATOM      4  C   LIG d   1      -3.388  75.137 116.000  0.00  0.00     0.028 C 
ATOM      5  C   LIG d   1      -2.025  75.385 116.639  0.00  0.00    -0.047 C 
ATOM      6  C   LIG d   1      -1.967  76.844 117.146  0.00  0.00     0.091 C 
ENDROOT
BRANCH   1   7
ATOM      7  O   LIG d   1      -2.653  79.126 116.573  0.00  0.00    -0.368 OA
BRANCH   7   8
ATOM      8  C   LIG d   1      -1.883  80.269 116.127  0.00  0.00     0.119 C 
BRANCH   8   9
ATOM      9  C   LIG d   1      -2.646  80.912 114.953  0.00  0.00     0.028 C 
ATOM     10  C   LIG d   1      -1.982  80.626 113.595  0.00  0.00     0.006 C 
ENDBRANCH   8   9
BRANCH   8  11
ATOM     11  C   LIG d   1      -0.533  79.838 115.546  0.00  0.00     0.028 C 
ATOM     12  C   LIG d   1       0.661  80.470 116.281  0.00  0.00     0.006 C 
ENDBRANCH   8  11
ENDBRANCH   7   8
ENDBRANCH   1   7
BRANCH   6  13
ATOM     13  N   LIG d   1      -0.637  77.196 117.710  0.00  0.00    -0.311 N 
ATOM     14  C   LIG d   1      -0.469  77.695 118.933  0.00  0.00     0.210 C 
ATOM     15  C   LIG d   1       0.983  78.006 119.309  0.00  0.00     0.109 C 
ATOM     16  O   LIG d   1      -1.380  77.880 119.753  0.00  0.00    -0.276 OA
ATOM     17  H   LIG d   1       0.161  77.048 117.123  0.00  0.00     0.149 HD
ENDBRANCH   6  13
BRANCH   5  18
ATOM     18  N   LIG d   1      -1.851  74.392 117.716  0.00  0.00     0.381 N 
ATOM     19  H   LIG d   1      -2.708  74.286 118.221  0.00  0.00    -0.090 HD
ATOM     20  H   LIG d   1      -1.148  74.724 118.354  0.00  0.00    -0.090 HD
ATOM     21  H   LIG d   1      -1.573  73.516 117.331  0.00  0.00    -0.090 HD
ENDBRANCH   5  18
BRANCH   3  22
ATOM     22  C   LIG d   1      -4.548  75.711 113.985  0.00  0.00     0.382 C 
ATOM     23  O   LIG d   1      -5.241  74.668 114.077  0.00  0.00    -0.241 OA
ATOM     24  O   LIG d   1      -4.565  76.366 112.926  0.00  0.00    -0.241 OA
ENDBRANCH   3  22
TORSDOF 7
ENDMDL
