MODEL 1
REMARK VINA RESULT:      -5.5      0.000      0.000
REMARK  7 active torsions:
REMARK  status: ('A' for Active; 'I' for Inactive)
REMARK    1  A    between atoms: C_2  and  C_3 
REMARK    2  A    between atoms: C_3  and  O_6 
REMARK    3  A    between atoms: C_3  and  C_4 
REMARK    4  A    between atoms: C_7  and  O_6 
REMARK    5  A    between atoms: C_9  and  C_10 
REMARK    6  A    between atoms: N_15  and  C_14 
REMARK    7  A    between atoms: N_20  and  C_19 
REMARK       I    between atoms: C_22  and  N_20 
ROOT
ATOM      1  C   LIG d   1      -2.719  77.364 115.957  0.00  0.00     0.161 C 
ATOM      2  C   LIG d   1      -3.115  77.872 114.709  0.00  0.00     0.016 C 
ATOM      3  C   LIG d   1      -2.310  77.800 113.549  0.00  0.00     0.038 C 
ATOM      4  C   LIG d   1      -1.110  77.074 113.523  0.00  0.00     0.028 C 
ATOM      5  C   LIG d   1      -0.432  76.976 114.885  0.00  0.00    -0.047 C 
ATOM      6  C   LIG d   1      -1.461  76.471 115.922  0.00  0.00     0.091 C 
ENDROOT
BRANCH   1   7
ATOM      7  O   LIG d   1      -3.818  76.659 116.568  0.00  0.00    -0.368 OA
BRANCH   7   8
ATOM      8  C   LIG d   1      -5.046  76.607 115.802  0.00  0.00     0.119 C 
BRANCH   8   9
ATOM      9  C   LIG d   1      -6.176  77.143 116.702  0.00  0.00     0.028 C 
ATOM     10  C   LIG d   1      -7.471  76.324 116.571  0.00  0.00     0.006 C 
ENDBRANCH   8   9
BRANCH   8  11
ATOM     11  C   LIG d   1      -5.439  75.163 115.476  0.00  0.00     0.028 C 
ATOM     12  C   LIG d   1      -5.328  74.839 113.978  0.00  0.00     0.006 C 
ENDBRANCH   8  11
ENDBRANCH   7   8
ENDBRANCH   1   7
BRANCH   6  13
ATOM     13  N   LIG d   1      -0.903  76.426 117.299  0.00  0.00    -0.311 N 
ATOM     14  C   LIG d   1      -0.815  75.309 118.019  0.00  0.00     0.210 C 
ATOM     15  C   LIG d   1      -0.227  75.488 119.422  0.00  0.00     0.109 C 
ATOM     16  O   LIG d   1      -1.139  74.181 117.616  0.00  0.00    -0.276 OA
ATOM     17  H   LIG d   1      -0.588  77.292 117.692  0.00  0.00     0.149 HD
ENDBRANCH   6  13
BRANCH   5  18
ATOM     18  N   LIG d   1       0.731  76.080 114.741  0.00  0.00     0.381 N 
ATOM     19  H   LIG d   1       1.557  76.621 114.578  0.00  0.00    -0.090 HD
ATOM     20  H   LIG d   1       0.584  75.482 113.947  0.00  0.00    -0.090 HD
ATOM     21  H   LIG d   1       0.842  75.530 115.564  0.00  0.00    -0.090 HD
ENDBRANCH   5  18
BRANCH   3  22
ATOM     22  C   LIG d   1      -2.686  78.492 112.407  0.00  0.00     0.382 C 
ATOM     23  O   LIG d   1      -3.049  79.690 112.492  0.00  0.00    -0.241 OA
ATOM     24  O   LIG d   1      -2.709  77.921 111.301  0.00  0.00    -0.241 OA
ENDBRANCH   3  22
TORSDOF 7
ENDMDL
MODEL 2
REMARK VINA RESULT:      -5.3      2.396      3.146
REMARK  7 active torsions:
REMARK  status: ('A' for Active; 'I' for Inactive)
REMARK    1  A    between atoms: C_2  and  C_3 
REMARK    2  A    between atoms: C_3  and  O_6 
REMARK    3  A    between atoms: C_3  and  C_4 
REMARK    4  A    between atoms: C_7  and  O_6 
REMARK    5  A    between atoms: C_9  and  C_10 
REMARK    6  A    between atoms: N_15  and  C_14 
REMARK    7  A    between atoms: N_20  and  C_19 
REMARK       I    between atoms: C_22  and  N_20 
ROOT
ATOM      1  C   LIG d   1      -2.632  78.496 114.977  0.00  0.00     0.161 C 
ATOM      2  C   LIG d   1      -2.855  79.698 114.284  0.00  0.00     0.016 C 
ATOM      3  C   LIG d   1      -2.374  79.944 112.978  0.00  0.00     0.038 C 
ATOM      4  C   LIG d   1      -1.762  78.940 112.212  0.00  0.00     0.028 C 
ATOM      5  C   LIG d   1      -1.070  77.873 113.053  0.00  0.00    -0.047 C 
ATOM      6  C   LIG d   1      -2.063  77.349 114.116  0.00  0.00     0.091 C 
ENDROOT
BRANCH   1   7
ATOM      7  O   LIG d   1      -3.846  78.077 115.631  0.00  0.00    -0.368 OA
BRANCH   7   8
ATOM      8  C   LIG d   1      -4.357  78.964 116.656  0.00  0.00     0.119 C 
BRANCH   8   9
ATOM      9  C   LIG d   1      -3.436  78.831 117.884  0.00  0.00     0.028 C 
ATOM     10  C   LIG d   1      -3.298  77.375 118.360  0.00  0.00     0.006 C 
ENDBRANCH   8   9
BRANCH   8  11
ATOM     11  C   LIG d   1      -5.742  78.520 117.137  0.00  0.00     0.028 C 
ATOM     12  C   LIG d   1      -6.485  79.620 117.911  0.00  0.00     0.006 C 
ENDBRANCH   8  11
ENDBRANCH   7   8
ENDBRANCH   1   7
BRANCH   6  13
ATOM     13  N   LIG d   1      -1.440  76.362 115.036  0.00  0.00    -0.311 N 
ATOM     14  C   LIG d   1      -1.984  75.180 115.319  0.00  0.00     0.210 C 
ATOM     15  C   LIG d   1      -1.187  74.322 116.307  0.00  0.00     0.109 C 
ATOM     16  O   LIG d   1      -3.034  74.747 114.822  0.00  0.00    -0.276 OA
ATOM     17  H   LIG d   1      -0.570  76.619 115.460  0.00  0.00     0.149 HD
ENDBRANCH   6  13
BRANCH   5  18
ATOM     18  N   LIG d   1      -0.596  76.820 112.136  0.00  0.00     0.381 N 
ATOM     19  H   LIG d   1      -0.789  75.919 112.525  0.00  0.00    -0.090 HD
ATOM     20  H   LIG d   1       0.399  76.909 112.025  0.00  0.00    -0.090 HD
ATOM     21  H   LIG d   1      -1.045  76.911 111.251  0.00  0.00    -0.090 HD
ENDBRANCH   5  18
BRANCH   3  22
ATOM     22  C   LIG d   1      -2.467  81.218 112.439  0.00  0.00     0.382 C 
ATOM     23  O   LIG d   1      -3.563  81.828 112.460  0.00  0.00    -0.241 OA
ATOM     24  O   LIG d   1      -1.481  81.748 111.894  0.00  0.00    -0.241 OA
ENDBRANCH   3  22
TORSDOF 7
ENDMDL
MODEL 3
REMARK VINA RESULT:      -5.1      1.959      4.917
REMARK  7 active torsions:
REMARK  status: ('A' for Active; 'I' for Inactive)
REMARK    1  A    between atoms: C_2  and  C_3 
REMARK    2  A    between atoms: C_3  and  O_6 
REMARK    3  A    between atoms: C_3  and  C_4 
REMARK    4  A    between atoms: C_7  and  O_6 
REMARK    5  A    between atoms: C_9  and  C_10 
REMARK    6  A    between atoms: N_15  and  C_14 
REMARK    7  A    between atoms: N_20  and  C_19 
REMARK       I    between atoms: C_22  and  N_20 
ROOT
ATOM      1  C   LIG d   1      -2.924  77.138 115.199  0.00  0.00     0.161 C 
ATOM      2  C   LIG d   1      -2.653  77.088 116.576  0.00  0.00     0.016 C 
ATOM      3  C   LIG d   1      -1.578  77.778 117.183  0.00  0.00     0.038 C 
ATOM      4  C   LIG d   1      -0.788  78.692 116.471  0.00  0.00     0.028 C 
ATOM      5  C   LIG d   1      -0.708  78.391 114.979  0.00  0.00    -0.047 C 
ATOM      6  C   LIG d   1      -2.140  78.218 114.424  0.00  0.00     0.091 C 
ENDROOT
BRANCH   1   7
ATOM      7  O   LIG d   1      -4.341  77.298 114.985  0.00  0.00    -0.368 OA
BRANCH   7   8
ATOM      8  C   LIG d   1      -5.205  76.462 115.794  0.00  0.00     0.119 C 
BRANCH   8   9
ATOM      9  C   LIG d   1      -6.030  75.583 114.833  0.00  0.00     0.028 C 
ATOM     10  C   LIG d   1      -5.243  74.359 114.335  0.00  0.00     0.006 C 
ENDBRANCH   8   9
BRANCH   8  11
ATOM     11  C   LIG d   1      -6.233  77.299 116.560  0.00  0.00     0.028 C 
ATOM     12  C   LIG d   1      -7.554  76.551 116.797  0.00  0.00     0.006 C 
ENDBRANCH   8  11
ENDBRANCH   7   8
ENDBRANCH   1   7
BRANCH   6  13
ATOM     13  N   LIG d   1      -2.150  77.838 112.988  0.00  0.00    -0.311 N 
ATOM     14  C   LIG d   1      -2.252  78.721 111.996  0.00  0.00     0.210 C 
ATOM     15  C   LIG d   1      -2.262  78.115 110.589  0.00  0.00     0.109 C 
ATOM     16  O   LIG d   1      -2.301  79.951 112.147  0.00  0.00    -0.276 OA
ATOM     17  H   LIG d   1      -2.082  76.862 112.774  0.00  0.00     0.149 HD
ENDBRANCH   6  13
BRANCH   5  18
ATOM     18  N   LIG d   1       0.031  79.496 114.340  0.00  0.00     0.381 N 
ATOM     19  H   LIG d   1       0.804  79.764 114.915  0.00  0.00    -0.090 HD
ATOM     20  H   LIG d   1      -0.583  80.286 114.248  0.00  0.00    -0.090 HD
ATOM     21  H   LIG d   1       0.357  79.214 113.442  0.00  0.00    -0.090 HD
ENDBRANCH   5  18
BRANCH   3  22
ATOM     22  C   LIG d   1      -1.261  77.525 118.509  0.00  0.00     0.382 C 
ATOM     23  O   LIG d   1      -0.240  76.853 118.792  0.00  0.00    -0.241 OA
ATOM     24  O   LIG d   1      -2.007  77.923 119.424  0.00  0.00    -0.241 OA
ENDBRANCH   3  22
TORSDOF 7
ENDMDL
MODEL 4
REMARK VINA RESULT:      -5.0      0.899      1.518
REMARK  7 active torsions:
REMARK  status: ('A' for Active; 'I' for Inactive)
REMARK    1  A    between atoms: C_2  and  C_3 
REMARK    2  A    between atoms: C_3  and  O_6 
REMARK    3  A    between atoms: C_3  and  C_4 
REMARK    4  A    between atoms: C_7  and  O_6 
REMARK    5  A    between atoms: C_9  and  C_10 
REMARK    6  A    between atoms: N_15  and  C_14 
REMARK    7  A    between atoms: N_20  and  C_19 
REMARK       I    between atoms: C_22  and  N_20 
ROOT
ATOM      1  C   LIG d   1      -2.734  77.451 115.958  0.00  0.00     0.161 C 
ATOM      2  C   LIG d   1      -3.123  77.907 114.688  0.00  0.00     0.016 C 
ATOM      3  C   LIG d   1      -2.307  77.797 113.538  0.00  0.00     0.038 C 
ATOM      4  C   LIG d   1      -1.100  77.083 113.551  0.00  0.00     0.028 C 
ATOM      5  C   LIG d   1      -0.434  77.044 114.923  0.00  0.00    -0.047 C 
ATOM      6  C   LIG d   1      -1.468  76.569 115.969  0.00  0.00     0.091 C 
ENDROOT
BRANCH   1   7
ATOM      7  O   LIG d   1      -3.832  76.759 116.586  0.00  0.00    -0.368 OA
BRANCH   7   8
ATOM      8  C   LIG d   1      -5.141  77.355 116.416  0.00  0.00     0.119 C 
BRANCH   8   9
ATOM      9  C   LIG d   1      -5.472  78.123 117.710  0.00  0.00     0.028 C 
ATOM     10  C   LIG d   1      -5.440  79.647 117.513  0.00  0.00     0.006 C 
ENDBRANCH   8   9
BRANCH   8  11
ATOM     11  C   LIG d   1      -6.229  76.284 116.290  0.00  0.00     0.028 C 
ATOM     12  C   LIG d   1      -7.523  76.660 117.028  0.00  0.00     0.006 C 
ENDBRANCH   8  11
ENDBRANCH   7   8
ENDBRANCH   1   7
BRANCH   6  13
ATOM     13  N   LIG d   1      -0.922  76.583 117.352  0.00  0.00    -0.311 N 
ATOM     14  C   LIG d   1      -0.808  75.491 118.105  0.00  0.00     0.210 C 
ATOM     15  C   LIG d   1      -0.239  75.730 119.508  0.00  0.00     0.109 C 
ATOM     16  O   LIG d   1      -1.093  74.342 117.734  0.00  0.00    -0.276 OA
ATOM     17  H   LIG d   1      -0.637  77.469 117.721  0.00  0.00     0.149 HD
ENDBRANCH   6  13
BRANCH   5  18
ATOM     18  N   LIG d   1       0.739  76.154 114.823  0.00  0.00     0.381 N 
ATOM     19  H   LIG d   1       0.489  75.318 114.334  0.00  0.00    -0.090 HD
ATOM     20  H   LIG d   1       1.034  75.901 115.750  0.00  0.00    -0.090 HD
ATOM     21  H   LIG d   1       1.480  76.618 114.346  0.00  0.00    -0.090 HD
ENDBRANCH   5  18
BRANCH   3  22
ATOM     22  C   LIG d   1      -2.678  78.442 112.368  0.00  0.00     0.382 C 
ATOM     23  O   LIG d   1      -3.724  78.097 111.767  0.00  0.00    -0.241 OA
ATOM     24  O   LIG d   1      -1.957  79.333 111.881  0.00  0.00    -0.241 OA
ENDBRANCH   3  22
TORSDOF 7
ENDMDL
MODEL 5
REMARK VINA RESULT:      -4.8      1.774      4.941
REMARK  7 active torsions:
REMARK  status: ('A' for Active; 'I' for Inactive)
REMARK    1  A    between atoms: C_2  and  C_3 
REMARK    2  A    between atoms: C_3  and  O_6 
REMARK    3  A    between atoms: C_3  and  C_4 
REMARK    4  A    between atoms: C_7  and  O_6 
REMARK    5  A    between atoms: C_9  and  C_10 
REMARK    6  A    between atoms: N_15  and  C_14 
REMARK    7  A    between atoms: N_20  and  C_19 
REMARK       I    between atoms: C_22  and  N_20 
ROOT
ATOM      1  C   LIG d   1      -3.362  76.644 115.676  0.00  0.00     0.161 C 
ATOM      2  C   LIG d   1      -3.192  76.093 116.957  0.00  0.00     0.016 C 
ATOM      3  C   LIG d   1      -1.968  76.127 117.663  0.00  0.00     0.038 C 
ATOM      4  C   LIG d   1      -0.863  76.854 117.196  0.00  0.00     0.028 C 
ATOM      5  C   LIG d   1      -0.832  77.000 115.678  0.00  0.00    -0.047 C 
ATOM      6  C   LIG d   1      -2.199  77.538 115.198  0.00  0.00     0.091 C 
ENDROOT
BRANCH   1   7
ATOM      7  O   LIG d   1      -4.608  77.368 115.617  0.00  0.00    -0.368 OA
BRANCH   7   8
ATOM      8  C   LIG d   1      -5.177  77.761 116.890  0.00  0.00     0.119 C 
BRANCH   8   9
ATOM      9  C   LIG d   1      -6.710  77.668 116.760  0.00  0.00     0.028 C 
ATOM     10  C   LIG d   1      -7.184  76.248 116.408  0.00  0.00     0.006 C 
ENDBRANCH   8   9
BRANCH   8  11
ATOM     11  C   LIG d   1      -4.885  79.232 117.201  0.00  0.00     0.028 C 
ATOM     12  C   LIG d   1      -6.153  80.032 117.539  0.00  0.00     0.006 C 
ENDBRANCH   8  11
ENDBRANCH   7   8
ENDBRANCH   1   7
BRANCH   6  13
ATOM     13  N   LIG d   1      -2.283  77.631 113.717  0.00  0.00    -0.311 N 
ATOM     14  C   LIG d   1      -2.034  78.749 113.037  0.00  0.00     0.210 C 
ATOM     15  C   LIG d   1      -2.198  78.633 111.518  0.00  0.00     0.109 C 
ATOM     16  O   LIG d   1      -1.661  79.817 113.545  0.00  0.00    -0.276 OA
ATOM     17  H   LIG d   1      -2.549  76.802 113.222  0.00  0.00     0.149 HD
ENDBRANCH   6  13
BRANCH   5  18
ATOM     18  N   LIG d   1       0.292  77.893 115.339  0.00  0.00     0.381 N 
ATOM     19  H   LIG d   1      -0.059  78.772 115.016  0.00  0.00    -0.090 HD
ATOM     20  H   LIG d   1       0.827  77.476 114.597  0.00  0.00    -0.090 HD
ATOM     21  H   LIG d   1       0.871  78.031 116.138  0.00  0.00    -0.090 HD
ENDBRANCH   5  18
BRANCH   3  22
ATOM     22  C   LIG d   1      -1.828  75.396 118.833  0.00  0.00     0.382 C 
ATOM     23  O   LIG d   1      -1.380  75.947 119.867  0.00  0.00    -0.241 OA
ATOM     24  O   LIG d   1      -2.102  74.181 118.854  0.00  0.00    -0.241 OA
ENDBRANCH   3  22
TORSDOF 7
ENDMDL
MODEL 6
REMARK VINA RESULT:      -4.8      2.872      5.205
REMARK  7 active torsions:
REMARK  status: ('A' for Active; 'I' for Inactive)
REMARK    1  A    between atoms: C_2  and  C_3 
REMARK    2  A    between atoms: C_3  and  O_6 
REMARK    3  A    between atoms: C_3  and  C_4 
REMARK    4  A    between atoms: C_7  and  O_6 
REMARK    5  A    between atoms: C_9  and  C_10 
REMARK    6  A    between atoms: N_15  and  C_14 
REMARK    7  A    between atoms: N_20  and  C_19 
REMARK       I    between atoms: C_22  and  N_20 
ROOT
ATOM      1  C   LIG d   1      -4.926  77.324 116.565  0.00  0.00     0.161 C 
ATOM      2  C   LIG d   1      -6.309  77.389 116.802  0.00  0.00     0.016 C 
ATOM      3  C   LIG d   1      -6.903  78.311 117.693  0.00  0.00     0.038 C 
ATOM      4  C   LIG d   1      -6.165  79.339 118.299  0.00  0.00     0.028 C 
ATOM      5  C   LIG d   1      -4.690  78.997 118.482  0.00  0.00    -0.047 C 
ATOM      6  C   LIG d   1      -4.116  78.509 117.132  0.00  0.00     0.091 C 
ENDROOT
BRANCH   1   7
ATOM      7  O   LIG d   1      -4.678  77.178 115.153  0.00  0.00    -0.368 OA
BRANCH   7   8
ATOM      8  C   LIG d   1      -4.187  75.885 114.722  0.00  0.00     0.119 C 
BRANCH   8   9
ATOM      9  C   LIG d   1      -5.354  75.153 114.031  0.00  0.00     0.028 C 
ATOM     10  C   LIG d   1      -6.269  76.113 113.252  0.00  0.00     0.006 C 
ENDBRANCH   8   9
BRANCH   8  11
ATOM     11  C   LIG d   1      -3.809  75.006 115.918  0.00  0.00     0.028 C 
ATOM     12  C   LIG d   1      -2.315  74.647 115.946  0.00  0.00     0.006 C 
ENDBRANCH   8  11
ENDBRANCH   7   8
ENDBRANCH   1   7
BRANCH   6  13
ATOM     13  N   LIG d   1      -2.699  78.074 117.242  0.00  0.00    -0.311 N 
ATOM     14  C   LIG d   1      -1.730  78.527 116.449  0.00  0.00     0.210 C 
ATOM     15  C   LIG d   1      -0.343  77.934 116.719  0.00  0.00     0.109 C 
ATOM     16  O   LIG d   1      -1.880  79.388 115.569  0.00  0.00    -0.276 OA
ATOM     17  H   LIG d   1      -2.482  77.401 117.950  0.00  0.00     0.149 HD
ENDBRANCH   6  13
BRANCH   5  18
ATOM     18  N   LIG d   1      -4.013  80.203 118.995  0.00  0.00     0.381 N 
ATOM     19  H   LIG d   1      -4.158  80.967 118.365  0.00  0.00    -0.090 HD
ATOM     20  H   LIG d   1      -3.026  80.024 119.051  0.00  0.00    -0.090 HD
ATOM     21  H   LIG d   1      -4.367  80.435 119.897  0.00  0.00    -0.090 HD
ENDBRANCH   5  18
BRANCH   3  22
ATOM     22  C   LIG d   1      -8.246  78.186 118.018  0.00  0.00     0.382 C 
ATOM     23  O   LIG d   1      -8.770  78.982 118.834  0.00  0.00    -0.241 OA
ATOM     24  O   LIG d   1      -8.928  77.260 117.539  0.00  0.00    -0.241 OA
ENDBRANCH   3  22
TORSDOF 7
ENDMDL
MODEL 7
REMARK VINA RESULT:      -4.7      1.656      2.013
REMARK  7 active torsions:
REMARK  status: ('A' for Active; 'I' for Inactive)
REMARK    1  A    between atoms: C_2  and  C_3 
REMARK    2  A    between atoms: C_3  and  O_6 
REMARK    3  A    between atoms: C_3  and  C_4 
REMARK    4  A    between atoms: C_7  and  O_6 
REMARK    5  A    between atoms: C_9  and  C_10 
REMARK    6  A    between atoms: N_15  and  C_14 
REMARK    7  A    between atoms: N_20  and  C_19 
REMARK       I    between atoms: C_22  and  N_20 
ROOT
ATOM      1  C   LIG d   1      -3.141  77.383 114.588  0.00  0.00     0.161 C 
ATOM      2  C   LIG d   1      -2.996  78.372 113.601  0.00  0.00     0.016 C 
ATOM      3  C   LIG d   1      -1.776  79.036 113.338  0.00  0.00     0.038 C 
ATOM      4  C   LIG d   1      -0.574  78.647 113.947  0.00  0.00     0.028 C 
ATOM      5  C   LIG d   1      -0.769  77.998 115.313  0.00  0.00    -0.047 C 
ATOM      6  C   LIG d   1      -1.815  76.867 115.187  0.00  0.00     0.091 C 
ENDROOT
BRANCH   1   7
ATOM      7  O   LIG d   1      -3.918  76.285 114.070  0.00  0.00    -0.368 OA
BRANCH   7   8
ATOM      8  C   LIG d   1      -5.357  76.432 114.146  0.00  0.00     0.119 C 
BRANCH   8   9
ATOM      9  C   LIG d   1      -5.843  75.615 115.360  0.00  0.00     0.028 C 
ATOM     10  C   LIG d   1      -5.278  74.185 115.368  0.00  0.00     0.006 C 
ENDBRANCH   8   9
BRANCH   8  11
ATOM     11  C   LIG d   1      -6.046  75.801 112.932  0.00  0.00     0.028 C 
ATOM     12  C   LIG d   1      -6.888  76.810 112.134  0.00  0.00     0.006 C 
ENDBRANCH   8  11
ENDBRANCH   7   8
ENDBRANCH   1   7
BRANCH   6  13
ATOM     13  N   LIG d   1      -2.128  76.236 116.495  0.00  0.00    -0.311 N 
ATOM     14  C   LIG d   1      -1.723  75.013 116.834  0.00  0.00     0.210 C 
ATOM     15  C   LIG d   1      -2.172  74.545 118.222  0.00  0.00     0.109 C 
ATOM     16  O   LIG d   1      -1.008  74.284 116.130  0.00  0.00    -0.276 OA
ATOM     17  H   LIG d   1      -2.678  76.769 117.139  0.00  0.00     0.149 HD
ENDBRANCH   6  13
BRANCH   5  18
ATOM     18  N   LIG d   1       0.548  77.518 115.771  0.00  0.00     0.381 N 
ATOM     19  H   LIG d   1       0.973  76.961 115.057  0.00  0.00    -0.090 HD
ATOM     20  H   LIG d   1       0.420  76.943 116.585  0.00  0.00    -0.090 HD
ATOM     21  H   LIG d   1       1.136  78.292 115.992  0.00  0.00    -0.090 HD
ENDBRANCH   5  18
BRANCH   3  22
ATOM     22  C   LIG d   1      -1.758  80.129 112.485  0.00  0.00     0.382 C 
ATOM     23  O   LIG d   1      -2.329  81.195 112.820  0.00  0.00    -0.241 OA
ATOM     24  O   LIG d   1      -1.217  80.049 111.366  0.00  0.00    -0.241 OA
ENDBRANCH   3  22
TORSDOF 7
ENDMDL
MODEL 8
REMARK VINA RESULT:      -4.6      2.968      5.612
REMARK  7 active torsions:
REMARK  status: ('A' for Active; 'I' for Inactive)
REMARK    1  A    between atoms: C_2  and  C_3 
REMARK    2  A    between atoms: C_3  and  O_6 
REMARK    3  A    between atoms: C_3  and  C_4 
REMARK    4  A    between atoms: C_7  and  O_6 
REMARK    5  A    between atoms: C_9  and  C_10 
REMARK    6  A    between atoms: N_15  and  C_14 
REMARK    7  A    between atoms: N_20  and  C_19 
REMARK       I    between atoms: C_22  and  N_20 
ROOT
ATOM      1  C   LIG d   1      -4.904  77.658 116.557  0.00  0.00     0.161 C 
ATOM      2  C   LIG d   1      -6.167  77.489 117.150  0.00  0.00     0.016 C 
ATOM      3  C   LIG d   1      -7.102  76.517 116.725  0.00  0.00     0.038 C 
ATOM      4  C   LIG d   1      -6.776  75.542 115.770  0.00  0.00     0.028 C 
ATOM      5  C   LIG d   1      -5.696  75.990 114.791  0.00  0.00    -0.047 C 
ATOM      6  C   LIG d   1      -4.488  76.531 115.589  0.00  0.00     0.091 C 
ENDROOT
BRANCH   1   7
ATOM      7  O   LIG d   1      -3.904  77.835 117.580  0.00  0.00    -0.368 OA
BRANCH   7   8
ATOM      8  C   LIG d   1      -3.334  79.162 117.692  0.00  0.00     0.119 C 
BRANCH   8   9
ATOM      9  C   LIG d   1      -1.807  79.025 117.539  0.00  0.00     0.028 C 
ATOM     10  C   LIG d   1      -1.267  77.732 118.175  0.00  0.00     0.006 C 
ENDBRANCH   8   9
BRANCH   8  11
ATOM     11  C   LIG d   1      -3.551  79.745 119.092  0.00  0.00     0.028 C 
ATOM     12  C   LIG d   1      -4.923  80.418 119.251  0.00  0.00     0.006 C 
ENDBRANCH   8  11
ENDBRANCH   7   8
ENDBRANCH   1   7
BRANCH   6  13
ATOM     13  N   LIG d   1      -3.420  77.068 114.706  0.00  0.00    -0.311 N 
ATOM     14  C   LIG d   1      -2.174  76.597 114.692  0.00  0.00     0.210 C 
ATOM     15  C   LIG d   1      -1.226  77.307 113.721  0.00  0.00     0.109 C 
ATOM     16  O   LIG d   1      -1.773  75.637 115.367  0.00  0.00    -0.276 OA
ATOM     17  H   LIG d   1      -3.667  77.828 114.102  0.00  0.00     0.149 HD
ENDBRANCH   6  13
BRANCH   5  18
ATOM     18  N   LIG d   1      -5.357  74.833 113.942  0.00  0.00     0.381 N 
ATOM     19  H   LIG d   1      -6.183  74.303 113.745  0.00  0.00    -0.090 HD
ATOM     20  H   LIG d   1      -4.714  74.242 114.439  0.00  0.00    -0.090 HD
ATOM     21  H   LIG d   1      -4.943  75.144 113.091  0.00  0.00    -0.090 HD
ENDBRANCH   5  18
BRANCH   3  22
ATOM     22  C   LIG d   1      -8.393  76.540 117.228  0.00  0.00     0.382 C 
ATOM     23  O   LIG d   1      -8.886  77.618 117.641  0.00  0.00    -0.241 OA
ATOM     24  O   LIG d   1      -9.056  75.489 117.316  0.00  0.00    -0.241 OA
ENDBRANCH   3  22
TORSDOF 7
ENDMDL
MODEL 9
REMARK VINA RESULT:      -4.6      3.216      5.168
REMARK  7 active torsions:
REMARK  status: ('A' for Active; 'I' for Inactive)
REMARK    1  A    between atoms: C_2  and  C_3 
REMARK    2  A    between atoms: C_3  and  O_6 
REMARK    3  A    between atoms: C_3  and  C_4 
REMARK    4  A    between atoms: C_7  and  O_6 
REMARK    5  A    between atoms: C_9  and  C_10 
REMARK    6  A    between atoms: N_15  and  C_14 
REMARK    7  A    between atoms: N_20  and  C_19 
REMARK       I    between atoms: C_22  and  N_20 
ROOT
ATOM      1  C   LIG d   1      -5.058  78.348 116.885  0.00  0.00     0.161 C 
ATOM      2  C   LIG d   1      -3.781  78.790 116.501  0.00  0.00     0.016 C 
ATOM      3  C   LIG d   1      -2.960  78.093 115.585  0.00  0.00     0.038 C 
ATOM      4  C   LIG d   1      -3.425  76.978 114.872  0.00  0.00     0.028 C 
ATOM      5  C   LIG d   1      -4.519  76.206 115.601  0.00  0.00    -0.047 C 
ATOM      6  C   LIG d   1      -5.626  77.194 116.034  0.00  0.00     0.091 C 
ENDROOT
BRANCH   1   7
ATOM      7  O   LIG d   1      -5.975  79.460 116.900  0.00  0.00    -0.368 OA
BRANCH   7   8
ATOM      8  C   LIG d   1      -6.634  79.726 118.162  0.00  0.00     0.119 C 
BRANCH   8   9
ATOM      9  C   LIG d   1      -8.121  79.999 117.860  0.00  0.00     0.028 C 
ATOM     10  C   LIG d   1      -9.060  79.055 118.629  0.00  0.00     0.006 C 
ENDBRANCH   8   9
BRANCH   8  11
ATOM     11  C   LIG d   1      -6.108  81.012 118.805  0.00  0.00     0.028 C 
ATOM     12  C   LIG d   1      -4.841  80.783 119.644  0.00  0.00     0.006 C 
ENDBRANCH   8  11
ENDBRANCH   7   8
ENDBRANCH   1   7
BRANCH   6  13
ATOM     13  N   LIG d   1      -6.696  76.534 116.828  0.00  0.00    -0.311 N 
ATOM     14  C   LIG d   1      -7.813  76.048 116.291  0.00  0.00     0.210 C 
ATOM     15  C   LIG d   1      -8.794  75.426 117.290  0.00  0.00     0.109 C 
ATOM     16  O   LIG d   1      -8.072  76.045 115.078  0.00  0.00    -0.276 OA
ATOM     17  H   LIG d   1      -6.554  76.466 117.817  0.00  0.00     0.149 HD
ENDBRANCH   6  13
BRANCH   5  18
ATOM     18  N   LIG d   1      -5.007  75.155 114.688  0.00  0.00     0.381 N 
ATOM     19  H   LIG d   1      -5.468  75.573 113.905  0.00  0.00    -0.090 HD
ATOM     20  H   LIG d   1      -5.672  74.582 115.177  0.00  0.00    -0.090 HD
ATOM     21  H   LIG d   1      -4.244  74.596 114.373  0.00  0.00    -0.090 HD
ENDBRANCH   5  18
BRANCH   3  22
ATOM     22  C   LIG d   1      -1.643  78.488 115.404  0.00  0.00     0.382 C 
ATOM     23  O   LIG d   1      -0.709  77.774 115.843  0.00  0.00    -0.241 OA
ATOM     24  O   LIG d   1      -1.378  79.570 114.847  0.00  0.00    -0.241 OA
ENDBRANCH   3  22
TORSDOF 7
ENDMDL
