MODEL 1
REMARK VINA RESULT:      -5.1      0.000      0.000
REMARK  7 active torsions:
REMARK  status: ('A' for Active; 'I' for Inactive)
REMARK    1  A    between atoms: C_2  and  C_3 
REMARK    2  A    between atoms: C_3  and  O_6 
REMARK    3  A    between atoms: C_3  and  C_4 
REMARK    4  A    between atoms: C_7  and  O_6 
REMARK    5  A    between atoms: C_9  and  C_10 
REMARK    6  A    between atoms: N_15  and  C_14 
REMARK    7  A    between atoms: N_20  and  C_19 
REMARK       I    between atoms: C_22  and  N_20 
ROOT
ATOM      1  C   LIG d   1      -2.434  78.319 114.866  0.00  0.00     0.161 C 
ATOM      2  C   LIG d   1      -2.837  79.295 113.940  0.00  0.00     0.016 C 
ATOM      3  C   LIG d   1      -1.995  80.341 113.495  0.00  0.00     0.038 C 
ATOM      4  C   LIG d   1      -0.635  80.393 113.836  0.00  0.00     0.028 C 
ATOM      5  C   LIG d   1      -0.318  79.718 115.166  0.00  0.00    -0.047 C 
ATOM      6  C   LIG d   1      -0.920  78.295 115.163  0.00  0.00     0.091 C 
ENDROOT
BRANCH   1   7
ATOM      7  O   LIG d   1      -2.880  77.019 114.431  0.00  0.00    -0.368 OA
BRANCH   7   8
ATOM      8  C   LIG d   1      -3.995  76.450 115.161  0.00  0.00     0.119 C 
BRANCH   8   9
ATOM      9  C   LIG d   1      -3.500  75.148 115.820  0.00  0.00     0.028 C 
ATOM     10  C   LIG d   1      -3.798  75.103 117.328  0.00  0.00     0.006 C 
ENDBRANCH   8   9
BRANCH   8  11
ATOM     11  C   LIG d   1      -5.121  76.023 114.215  0.00  0.00     0.028 C 
ATOM     12  C   LIG d   1      -6.505  76.057 114.883  0.00  0.00     0.006 C 
ENDBRANCH   8  11
ENDBRANCH   7   8
ENDBRANCH   1   7
BRANCH   6  13
ATOM     13  N   LIG d   1      -0.728  77.595 116.460  0.00  0.00    -0.311 N 
ATOM     14  C   LIG d   1      -0.273  76.347 116.560  0.00  0.00     0.210 C 
ATOM     15  C   LIG d   1      -0.169  75.809 117.990  0.00  0.00     0.109 C 
ATOM     16  O   LIG d   1       0.083  75.646 115.601  0.00  0.00    -0.276 OA
ATOM     17  H   LIG d   1      -0.963  78.102 117.291  0.00  0.00     0.149 HD
ENDBRANCH   6  13
BRANCH   5  18
ATOM     18  N   LIG d   1       1.148  79.725 115.330  0.00  0.00     0.381 N 
ATOM     19  H   LIG d   1       1.381  79.858 116.294  0.00  0.00    -0.090 HD
ATOM     20  H   LIG d   1       1.531  80.492 114.805  0.00  0.00    -0.090 HD
ATOM     21  H   LIG d   1       1.532  78.865 115.004  0.00  0.00    -0.090 HD
ENDBRANCH   5  18
BRANCH   3  22
ATOM     22  C   LIG d   1      -2.524  81.371 112.733  0.00  0.00     0.382 C 
ATOM     23  O   LIG d   1      -3.760  81.426 112.524  0.00  0.00    -0.241 OA
ATOM     24  O   LIG d   1      -1.775  82.222 112.215  0.00  0.00    -0.241 OA
ENDBRANCH   3  22
TORSDOF 7
ENDMDL
MODEL 2
REMARK VINA RESULT:      -4.9      2.964      3.621
REMARK  7 active torsions:
REMARK  status: ('A' for Active; 'I' for Inactive)
REMARK    1  A    between atoms: C_2  and  C_3 
REMARK    2  A    between atoms: C_3  and  O_6 
REMARK    3  A    between atoms: C_3  and  C_4 
REMARK    4  A    between atoms: C_7  and  O_6 
REMARK    5  A    between atoms: C_9  and  C_10 
REMARK    6  A    between atoms: N_15  and  C_14 
REMARK    7  A    between atoms: N_20  and  C_19 
REMARK       I    between atoms: C_22  and  N_20 
ROOT
ATOM      1  C   LIG d   1      -2.954  79.335 115.970  0.00  0.00     0.161 C 
ATOM      2  C   LIG d   1      -2.901  80.545 115.259  0.00  0.00     0.016 C 
ATOM      3  C   LIG d   1      -2.406  80.652 113.939  0.00  0.00     0.038 C 
ATOM      4  C   LIG d   1      -2.068  79.522 113.181  0.00  0.00     0.028 C 
ATOM      5  C   LIG d   1      -1.628  78.333 114.029  0.00  0.00    -0.047 C 
ATOM      6  C   LIG d   1      -2.692  78.074 115.119  0.00  0.00     0.091 C 
ENDROOT
BRANCH   1   7
ATOM      7  O   LIG d   1      -4.217  79.224 116.655  0.00  0.00    -0.368 OA
BRANCH   7   8
ATOM      8  C   LIG d   1      -4.689  80.422 117.319  0.00  0.00     0.119 C 
BRANCH   8   9
ATOM      9  C   LIG d   1      -3.928  80.541 118.654  0.00  0.00     0.028 C 
ATOM     10  C   LIG d   1      -3.489  81.985 118.952  0.00  0.00     0.006 C 
ENDBRANCH   8   9
BRANCH   8  11
ATOM     11  C   LIG d   1      -6.166  80.301 117.704  0.00  0.00     0.028 C 
ATOM     12  C   LIG d   1      -6.921  81.636 117.601  0.00  0.00     0.006 C 
ENDBRANCH   8  11
ENDBRANCH   7   8
ENDBRANCH   1   7
BRANCH   6  13
ATOM     13  N   LIG d   1      -2.300  76.980 116.046  0.00  0.00    -0.311 N 
ATOM     14  C   LIG d   1      -2.670  75.711 115.880  0.00  0.00     0.210 C 
ATOM     15  C   LIG d   1      -2.173  74.746 116.961  0.00  0.00     0.109 C 
ATOM     16  O   LIG d   1      -3.336  75.288 114.923  0.00  0.00    -0.276 OA
ATOM     17  H   LIG d   1      -1.734  77.230 116.833  0.00  0.00     0.149 HD
ENDBRANCH   6  13
BRANCH   5  18
ATOM     18  N   LIG d   1      -1.439  77.185 113.122  0.00  0.00     0.381 N 
ATOM     19  H   LIG d   1      -0.915  76.470 113.586  0.00  0.00    -0.090 HD
ATOM     20  H   LIG d   1      -0.916  77.488 112.319  0.00  0.00    -0.090 HD
ATOM     21  H   LIG d   1      -2.323  76.826 112.836  0.00  0.00    -0.090 HD
ENDBRANCH   5  18
BRANCH   3  22
ATOM     22  C   LIG d   1      -2.208  81.905 113.379  0.00  0.00     0.382 C 
ATOM     23  O   LIG d   1      -2.149  82.919 114.116  0.00  0.00    -0.241 OA
ATOM     24  O   LIG d   1      -2.131  82.039 112.143  0.00  0.00    -0.241 OA
ENDBRANCH   3  22
TORSDOF 7
ENDMDL
MODEL 3
REMARK VINA RESULT:      -4.6      2.846      4.081
REMARK  7 active torsions:
REMARK  status: ('A' for Active; 'I' for Inactive)
REMARK    1  A    between atoms: C_2  and  C_3 
REMARK    2  A    between atoms: C_3  and  O_6 
REMARK    3  A    between atoms: C_3  and  C_4 
REMARK    4  A    between atoms: C_7  and  O_6 
REMARK    5  A    between atoms: C_9  and  C_10 
REMARK    6  A    between atoms: N_15  and  C_14 
REMARK    7  A    between atoms: N_20  and  C_19 
REMARK       I    between atoms: C_22  and  N_20 
ROOT
ATOM      1  C   LIG d   1      -2.840  80.066 115.558  0.00  0.00     0.161 C 
ATOM      2  C   LIG d   1      -2.589  81.212 114.786  0.00  0.00     0.016 C 
ATOM      3  C   LIG d   1      -2.016  81.170 113.494  0.00  0.00     0.038 C 
ATOM      4  C   LIG d   1      -1.792  79.959 112.821  0.00  0.00     0.028 C 
ATOM      5  C   LIG d   1      -1.560  78.779 113.759  0.00  0.00    -0.047 C 
ATOM      6  C   LIG d   1      -2.705  78.731 114.796  0.00  0.00     0.091 C 
ENDROOT
BRANCH   1   7
ATOM      7  O   LIG d   1      -4.141  80.164 116.170  0.00  0.00    -0.368 OA
BRANCH   7   8
ATOM      8  C   LIG d   1      -4.160  80.537 117.570  0.00  0.00     0.119 C 
BRANCH   8   9
ATOM      9  C   LIG d   1      -4.935  81.864 117.686  0.00  0.00     0.028 C 
ATOM     10  C   LIG d   1      -6.459  81.659 117.628  0.00  0.00     0.006 C 
ENDBRANCH   8   9
BRANCH   8  11
ATOM     11  C   LIG d   1      -2.750  80.846 118.084  0.00  0.00     0.028 C 
ATOM     12  C   LIG d   1      -2.585  82.307 118.529  0.00  0.00     0.006 C 
ENDBRANCH   8  11
ENDBRANCH   7   8
ENDBRANCH   1   7
BRANCH   6  13
ATOM     13  N   LIG d   1      -2.511  77.655 115.804  0.00  0.00    -0.311 N 
ATOM     14  C   LIG d   1      -2.989  76.421 115.660  0.00  0.00     0.210 C 
ATOM     15  C   LIG d   1      -2.693  75.472 116.826  0.00  0.00     0.109 C 
ATOM     16  O   LIG d   1      -3.602  76.011 114.662  0.00  0.00    -0.276 OA
ATOM     17  H   LIG d   1      -1.998  77.892 116.631  0.00  0.00     0.149 HD
ENDBRANCH   6  13
BRANCH   5  18
ATOM     18  N   LIG d   1      -1.478  77.561 112.930  0.00  0.00     0.381 N 
ATOM     19  H   LIG d   1      -2.225  77.554 112.265  0.00  0.00    -0.090 HD
ATOM     20  H   LIG d   1      -1.577  76.757 113.525  0.00  0.00    -0.090 HD
ATOM     21  H   LIG d   1      -0.602  77.529 112.458  0.00  0.00    -0.090 HD
ENDBRANCH   5  18
BRANCH   3  22
ATOM     22  C   LIG d   1      -1.623  82.348 112.878  0.00  0.00     0.382 C 
ATOM     23  O   LIG d   1      -1.381  83.367 113.569  0.00  0.00    -0.241 OA
ATOM     24  O   LIG d   1      -1.550  82.418 111.636  0.00  0.00    -0.241 OA
ENDBRANCH   3  22
TORSDOF 7
ENDMDL
MODEL 4
REMARK VINA RESULT:      -4.5      2.913      3.886
REMARK  7 active torsions:
REMARK  status: ('A' for Active; 'I' for Inactive)
REMARK    1  A    between atoms: C_2  and  C_3 
REMARK    2  A    between atoms: C_3  and  O_6 
REMARK    3  A    between atoms: C_3  and  C_4 
REMARK    4  A    between atoms: C_7  and  O_6 
REMARK    5  A    between atoms: C_9  and  C_10 
REMARK    6  A    between atoms: N_15  and  C_14 
REMARK    7  A    between atoms: N_20  and  C_19 
REMARK       I    between atoms: C_22  and  N_20 
ROOT
ATOM      1  C   LIG d   1      -2.509  80.794 115.193  0.00  0.00     0.161 C 
ATOM      2  C   LIG d   1      -2.071  82.063 114.782  0.00  0.00     0.016 C 
ATOM      3  C   LIG d   1      -1.383  82.293 113.568  0.00  0.00     0.038 C 
ATOM      4  C   LIG d   1      -1.219  81.285 112.606  0.00  0.00     0.028 C 
ATOM      5  C   LIG d   1      -1.199  79.880 113.198  0.00  0.00    -0.047 C 
ATOM      6  C   LIG d   1      -2.438  79.701 114.106  0.00  0.00     0.091 C 
ENDROOT
BRANCH   1   7
ATOM      7  O   LIG d   1      -3.847  80.887 115.723  0.00  0.00    -0.368 OA
BRANCH   7   8
ATOM      8  C   LIG d   1      -3.975  80.739 117.158  0.00  0.00     0.119 C 
BRANCH   8   9
ATOM      9  C   LIG d   1      -4.812  79.472 117.420  0.00  0.00     0.028 C 
ATOM     10  C   LIG d   1      -3.994  78.356 118.091  0.00  0.00     0.006 C 
ENDBRANCH   8   9
BRANCH   8  11
ATOM     11  C   LIG d   1      -4.781  81.891 117.767  0.00  0.00     0.028 C 
ATOM     12  C   LIG d   1      -6.299  81.674 117.666  0.00  0.00     0.006 C 
ENDBRANCH   8  11
ENDBRANCH   7   8
ENDBRANCH   1   7
BRANCH   6  13
ATOM     13  N   LIG d   1      -2.452  78.383 114.792  0.00  0.00    -0.311 N 
ATOM     14  C   LIG d   1      -3.040  77.300 114.286  0.00  0.00     0.210 C 
ATOM     15  C   LIG d   1      -2.954  76.048 115.165  0.00  0.00     0.109 C 
ATOM     16  O   LIG d   1      -3.596  77.248 113.179  0.00  0.00    -0.276 OA
ATOM     17  H   LIG d   1      -1.997  78.327 115.682  0.00  0.00     0.149 HD
ENDBRANCH   6  13
BRANCH   5  18
ATOM     18  N   LIG d   1      -1.162  78.924 112.076  0.00  0.00     0.381 N 
ATOM     19  H   LIG d   1      -1.150  77.988 112.429  0.00  0.00    -0.090 HD
ATOM     20  H   LIG d   1      -0.319  79.073 111.550  0.00  0.00    -0.090 HD
ATOM     21  H   LIG d   1      -1.956  79.056 111.489  0.00  0.00    -0.090 HD
ENDBRANCH   5  18
BRANCH   3  22
ATOM     22  C   LIG d   1      -0.815  83.535 113.324  0.00  0.00     0.382 C 
ATOM     23  O   LIG d   1      -0.270  84.169 114.260  0.00  0.00    -0.241 OA
ATOM     24  O   LIG d   1      -0.880  84.048 112.191  0.00  0.00    -0.241 OA
ENDBRANCH   3  22
TORSDOF 7
ENDMDL
MODEL 5
REMARK VINA RESULT:      -4.4      3.093      6.449
REMARK  7 active torsions:
REMARK  status: ('A' for Active; 'I' for Inactive)
REMARK    1  A    between atoms: C_2  and  C_3 
REMARK    2  A    between atoms: C_3  and  O_6 
REMARK    3  A    between atoms: C_3  and  C_4 
REMARK    4  A    between atoms: C_7  and  O_6 
REMARK    5  A    between atoms: C_9  and  C_10 
REMARK    6  A    between atoms: N_15  and  C_14 
REMARK    7  A    between atoms: N_20  and  C_19 
REMARK       I    between atoms: C_22  and  N_20 
ROOT
ATOM      1  C   LIG d   1      -2.167  81.247 114.237  0.00  0.00     0.161 C 
ATOM      2  C   LIG d   1      -2.580  80.034 114.813  0.00  0.00     0.016 C 
ATOM      3  C   LIG d   1      -2.384  78.775 114.200  0.00  0.00     0.038 C 
ATOM      4  C   LIG d   1      -1.622  78.631 113.030  0.00  0.00     0.028 C 
ATOM      5  C   LIG d   1      -1.620  79.877 112.151  0.00  0.00    -0.047 C 
ATOM      6  C   LIG d   1      -1.237  81.100 113.015  0.00  0.00     0.091 C 
ENDROOT
BRANCH   1   7
ATOM      7  O   LIG d   1      -1.550  82.079 115.239  0.00  0.00    -0.368 OA
BRANCH   7   8
ATOM      8  C   LIG d   1      -2.419  83.033 115.898  0.00  0.00     0.119 C 
BRANCH   8   9
ATOM      9  C   LIG d   1      -1.988  84.442 115.445  0.00  0.00     0.028 C 
ATOM     10  C   LIG d   1      -0.493  84.513 115.091  0.00  0.00     0.006 C 
ENDBRANCH   8   9
BRANCH   8  11
ATOM     11  C   LIG d   1      -2.215  83.016 117.416  0.00  0.00     0.028 C 
ATOM     12  C   LIG d   1      -3.328  82.260 118.158  0.00  0.00     0.006 C 
ENDBRANCH   8  11
ENDBRANCH   7   8
ENDBRANCH   1   7
BRANCH   6  13
ATOM     13  N   LIG d   1      -1.292  82.373 112.251  0.00  0.00    -0.311 N 
ATOM     14  C   LIG d   1      -0.234  82.916 111.651  0.00  0.00     0.210 C 
ATOM     15  C   LIG d   1      -0.505  84.242 110.934  0.00  0.00     0.109 C 
ATOM     16  O   LIG d   1       0.897  82.408 111.618  0.00  0.00    -0.276 OA
ATOM     17  H   LIG d   1      -2.178  82.837 112.200  0.00  0.00     0.149 HD
ENDBRANCH   6  13
BRANCH   5  18
ATOM     18  N   LIG d   1      -0.680  79.636 111.040  0.00  0.00     0.381 N 
ATOM     19  H   LIG d   1      -0.191  78.776 111.190  0.00  0.00    -0.090 HD
ATOM     20  H   LIG d   1      -0.006  80.382 111.017  0.00  0.00    -0.090 HD
ATOM     21  H   LIG d   1      -1.175  79.599 110.176  0.00  0.00    -0.090 HD
ENDBRANCH   5  18
BRANCH   3  22
ATOM     22  C   LIG d   1      -2.987  77.648 114.736  0.00  0.00     0.382 C 
ATOM     23  O   LIG d   1      -2.667  76.508 114.322  0.00  0.00    -0.241 OA
ATOM     24  O   LIG d   1      -3.880  77.759 115.597  0.00  0.00    -0.241 OA
ENDBRANCH   3  22
TORSDOF 7
ENDMDL
MODEL 6
REMARK VINA RESULT:      -4.4      2.230      2.912
REMARK  7 active torsions:
REMARK  status: ('A' for Active; 'I' for Inactive)
REMARK    1  A    between atoms: C_2  and  C_3 
REMARK    2  A    between atoms: C_3  and  O_6 
REMARK    3  A    between atoms: C_3  and  C_4 
REMARK    4  A    between atoms: C_7  and  O_6 
REMARK    5  A    between atoms: C_9  and  C_10 
REMARK    6  A    between atoms: N_15  and  C_14 
REMARK    7  A    between atoms: N_20  and  C_19 
REMARK       I    between atoms: C_22  and  N_20 
ROOT
ATOM      1  C   LIG d   1      -2.837  78.013 115.406  0.00  0.00     0.161 C 
ATOM      2  C   LIG d   1      -2.658  78.650 114.167  0.00  0.00     0.016 C 
ATOM      3  C   LIG d   1      -2.525  80.050 114.023  0.00  0.00     0.038 C 
ATOM      4  C   LIG d   1      -2.410  80.901 115.132  0.00  0.00     0.028 C 
ATOM      5  C   LIG d   1      -3.091  80.360 116.385  0.00  0.00    -0.047 C 
ATOM      6  C   LIG d   1      -2.603  78.915 116.636  0.00  0.00     0.091 C 
ENDROOT
BRANCH   1   7
ATOM      7  O   LIG d   1      -2.002  76.841 115.478  0.00  0.00    -0.368 OA
BRANCH   7   8
ATOM      8  C   LIG d   1      -2.689  75.566 115.433  0.00  0.00     0.119 C 
BRANCH   8   9
ATOM      9  C   LIG d   1      -4.187  75.854 115.217  0.00  0.00     0.028 C 
ATOM     10  C   LIG d   1      -5.025  74.568 115.121  0.00  0.00     0.006 C 
ENDBRANCH   8   9
BRANCH   8  11
ATOM     11  C   LIG d   1      -2.605  74.840 116.779  0.00  0.00     0.028 C 
ATOM     12  C   LIG d   1      -1.160  74.655 117.267  0.00  0.00     0.006 C 
ENDBRANCH   8  11
ENDBRANCH   7   8
ENDBRANCH   1   7
BRANCH   6  13
ATOM     13  N   LIG d   1      -3.283  78.280 117.795  0.00  0.00    -0.311 N 
ATOM     14  C   LIG d   1      -2.633  77.794 118.851  0.00  0.00     0.210 C 
ATOM     15  C   LIG d   1      -3.524  77.163 119.925  0.00  0.00     0.109 C 
ATOM     16  O   LIG d   1      -1.405  77.853 119.014  0.00  0.00    -0.276 OA
ATOM     17  H   LIG d   1      -4.282  78.218 117.759  0.00  0.00     0.149 HD
ENDBRANCH   6  13
BRANCH   5  18
ATOM     18  N   LIG d   1      -2.776  81.278 117.496  0.00  0.00     0.381 N 
ATOM     19  H   LIG d   1      -3.314  82.116 117.405  0.00  0.00    -0.090 HD
ATOM     20  H   LIG d   1      -1.802  81.521 117.450  0.00  0.00    -0.090 HD
ATOM     21  H   LIG d   1      -2.975  80.839 118.368  0.00  0.00    -0.090 HD
ENDBRANCH   5  18
BRANCH   3  22
ATOM     22  C   LIG d   1      -2.546  80.617 112.758  0.00  0.00     0.382 C 
ATOM     23  O   LIG d   1      -3.332  81.562 112.507  0.00  0.00    -0.241 OA
ATOM     24  O   LIG d   1      -1.821  80.165 111.851  0.00  0.00    -0.241 OA
ENDBRANCH   3  22
TORSDOF 7
ENDMDL
MODEL 7
REMARK VINA RESULT:      -4.2      3.464      4.389
REMARK  7 active torsions:
REMARK  status: ('A' for Active; 'I' for Inactive)
REMARK    1  A    between atoms: C_2  and  C_3 
REMARK    2  A    between atoms: C_3  and  O_6 
REMARK    3  A    between atoms: C_3  and  C_4 
REMARK    4  A    between atoms: C_7  and  O_6 
REMARK    5  A    between atoms: C_9  and  C_10 
REMARK    6  A    between atoms: N_15  and  C_14 
REMARK    7  A    between atoms: N_20  and  C_19 
REMARK       I    between atoms: C_22  and  N_20 
ROOT
ATOM      1  C   LIG d   1      -4.442  77.729 117.336  0.00  0.00     0.161 C 
ATOM      2  C   LIG d   1      -5.788  78.120 117.430  0.00  0.00     0.016 C 
ATOM      3  C   LIG d   1      -6.199  79.466 117.569  0.00  0.00     0.038 C 
ATOM      4  C   LIG d   1      -5.293  80.532 117.470  0.00  0.00     0.028 C 
ATOM      5  C   LIG d   1      -3.872  80.160 117.880  0.00  0.00    -0.047 C 
ATOM      6  C   LIG d   1      -3.446  78.886 117.114  0.00  0.00     0.091 C 
ENDROOT
BRANCH   1   7
ATOM      7  O   LIG d   1      -4.293  76.735 116.302  0.00  0.00    -0.368 OA
BRANCH   7   8
ATOM      8  C   LIG d   1      -5.056  75.516 116.476  0.00  0.00     0.119 C 
BRANCH   8   9
ATOM      9  C   LIG d   1      -4.197  74.548 117.312  0.00  0.00     0.028 C 
ATOM     10  C   LIG d   1      -2.698  74.663 116.987  0.00  0.00     0.006 C 
ENDBRANCH   8   9
BRANCH   8  11
ATOM     11  C   LIG d   1      -5.282  74.805 115.138  0.00  0.00     0.028 C 
ATOM     12  C   LIG d   1      -5.595  75.779 113.991  0.00  0.00     0.006 C 
ENDBRANCH   8  11
ENDBRANCH   7   8
ENDBRANCH   1   7
BRANCH   6  13
ATOM     13  N   LIG d   1      -2.100  78.405 117.520  0.00  0.00    -0.311 N 
ATOM     14  C   LIG d   1      -1.120  78.153 116.654  0.00  0.00     0.210 C 
ATOM     15  C   LIG d   1       0.183  77.646 117.281  0.00  0.00     0.109 C 
ATOM     16  O   LIG d   1      -1.195  78.331 115.429  0.00  0.00    -0.276 OA
ATOM     17  H   LIG d   1      -1.942  78.263 118.498  0.00  0.00     0.149 HD
ENDBRANCH   6  13
BRANCH   5  18
ATOM     18  N   LIG d   1      -3.008  81.321 117.598  0.00  0.00     0.381 N 
ATOM     19  H   LIG d   1      -3.403  81.865 116.858  0.00  0.00    -0.090 HD
ATOM     20  H   LIG d   1      -2.107  80.991 117.301  0.00  0.00    -0.090 HD
ATOM     21  H   LIG d   1      -2.911  81.881 118.417  0.00  0.00    -0.090 HD
ENDBRANCH   5  18
BRANCH   3  22
ATOM     22  C   LIG d   1      -7.526  79.753 117.849  0.00  0.00     0.382 C 
ATOM     23  O   LIG d   1      -8.056  80.790 117.380  0.00  0.00    -0.241 OA
ATOM     24  O   LIG d   1      -8.188  79.012 118.600  0.00  0.00    -0.241 OA
ENDBRANCH   3  22
TORSDOF 7
ENDMDL
MODEL 8
REMARK VINA RESULT:      -4.1      2.706      5.275
REMARK  7 active torsions:
REMARK  status: ('A' for Active; 'I' for Inactive)
REMARK    1  A    between atoms: C_2  and  C_3 
REMARK    2  A    between atoms: C_3  and  O_6 
REMARK    3  A    between atoms: C_3  and  C_4 
REMARK    4  A    between atoms: C_7  and  O_6 
REMARK    5  A    between atoms: C_9  and  C_10 
REMARK    6  A    between atoms: N_15  and  C_14 
REMARK    7  A    between atoms: N_20  and  C_19 
REMARK       I    between atoms: C_22  and  N_20 
ROOT
ATOM      1  C   LIG d   1      -2.795  78.171 115.908  0.00  0.00     0.161 C 
ATOM      2  C   LIG d   1      -3.759  77.150 115.864  0.00  0.00     0.016 C 
ATOM      3  C   LIG d   1      -3.435  75.780 115.726  0.00  0.00     0.038 C 
ATOM      4  C   LIG d   1      -2.110  75.322 115.774  0.00  0.00     0.028 C 
ATOM      5  C   LIG d   1      -1.093  76.360 115.311  0.00  0.00    -0.047 C 
ATOM      6  C   LIG d   1      -1.341  77.681 116.075  0.00  0.00     0.091 C 
ENDROOT
BRANCH   1   7
ATOM      7  O   LIG d   1      -3.128  79.112 116.947  0.00  0.00    -0.368 OA
BRANCH   7   8
ATOM      8  C   LIG d   1      -3.556  80.424 116.505  0.00  0.00     0.119 C 
BRANCH   8   9
ATOM      9  C   LIG d   1      -2.429  81.418 116.849  0.00  0.00     0.028 C 
ATOM     10  C   LIG d   1      -1.895  82.152 115.607  0.00  0.00     0.006 C 
ENDBRANCH   8   9
BRANCH   8  11
ATOM     11  C   LIG d   1      -4.777  80.907 117.293  0.00  0.00     0.028 C 
ATOM     12  C   LIG d   1      -4.399  81.748 118.522  0.00  0.00     0.006 C 
ENDBRANCH   8  11
ENDBRANCH   7   8
ENDBRANCH   1   7
BRANCH   6  13
ATOM     13  N   LIG d   1      -0.443  78.775 115.621  0.00  0.00    -0.311 N 
ATOM     14  C   LIG d   1       0.668  79.126 116.266  0.00  0.00     0.210 C 
ATOM     15  C   LIG d   1       1.438  80.293 115.639  0.00  0.00     0.109 C 
ATOM     16  O   LIG d   1       1.107  78.561 117.279  0.00  0.00    -0.276 OA
ATOM     17  H   LIG d   1      -0.707  79.266 114.790  0.00  0.00     0.149 HD
ENDBRANCH   6  13
BRANCH   5  18
ATOM     18  N   LIG d   1       0.252  75.801 115.544  0.00  0.00     0.381 N 
ATOM     19  H   LIG d   1       0.249  74.820 115.351  0.00  0.00    -0.090 HD
ATOM     20  H   LIG d   1       0.495  75.932 116.510  0.00  0.00    -0.090 HD
ATOM     21  H   LIG d   1       0.917  76.260 114.961  0.00  0.00    -0.090 HD
ENDBRANCH   5  18
BRANCH   3  22
ATOM     22  C   LIG d   1      -4.443  74.856 115.496  0.00  0.00     0.382 C 
ATOM     23  O   LIG d   1      -4.820  74.617 114.323  0.00  0.00    -0.241 OA
ATOM     24  O   LIG d   1      -5.011  74.290 116.450  0.00  0.00    -0.241 OA
ENDBRANCH   3  22
TORSDOF 7
ENDMDL
MODEL 9
REMARK VINA RESULT:      -4.1      2.655      4.495
REMARK  7 active torsions:
REMARK  status: ('A' for Active; 'I' for Inactive)
REMARK    1  A    between atoms: C_2  and  C_3 
REMARK    2  A    between atoms: C_3  and  O_6 
REMARK    3  A    between atoms: C_3  and  C_4 
REMARK    4  A    between atoms: C_7  and  O_6 
REMARK    5  A    between atoms: C_9  and  C_10 
REMARK    6  A    between atoms: N_15  and  C_14 
REMARK    7  A    between atoms: N_20  and  C_19 
REMARK       I    between atoms: C_22  and  N_20 
ROOT
ATOM      1  C   LIG d   1      -1.054  79.895 115.115  0.00  0.00     0.161 C 
ATOM      2  C   LIG d   1      -0.716  81.031 114.361  0.00  0.00     0.016 C 
ATOM      3  C   LIG d   1      -1.109  81.218 113.016  0.00  0.00     0.038 C 
ATOM      4  C   LIG d   1      -2.001  80.345 112.376  0.00  0.00     0.028 C 
ATOM      5  C   LIG d   1      -1.963  78.925 112.932  0.00  0.00    -0.047 C 
ATOM      6  C   LIG d   1      -2.119  78.984 114.469  0.00  0.00     0.091 C 
ENDROOT
BRANCH   1   7
ATOM      7  O   LIG d   1      -1.469  80.291 116.437  0.00  0.00    -0.368 OA
BRANCH   7   8
ATOM      8  C   LIG d   1      -1.646  81.714 116.649  0.00  0.00     0.119 C 
BRANCH   8   9
ATOM      9  C   LIG d   1      -1.246  82.017 118.106  0.00  0.00     0.028 C 
ATOM     10  C   LIG d   1      -2.465  82.264 119.011  0.00  0.00     0.006 C 
ENDBRANCH   8   9
BRANCH   8  11
ATOM     11  C   LIG d   1      -3.121  82.113 116.543  0.00  0.00     0.028 C 
ATOM     12  C   LIG d   1      -3.349  83.299 115.592  0.00  0.00     0.006 C 
ENDBRANCH   8  11
ENDBRANCH   7   8
ENDBRANCH   1   7
BRANCH   6  13
ATOM     13  N   LIG d   1      -2.008  77.644 115.102  0.00  0.00    -0.311 N 
ATOM     14  C   LIG d   1      -3.056  76.856 115.339  0.00  0.00     0.210 C 
ATOM     15  C   LIG d   1      -2.722  75.524 116.018  0.00  0.00     0.109 C 
ATOM     16  O   LIG d   1      -4.225  77.121 115.022  0.00  0.00    -0.276 OA
ATOM     17  H   LIG d   1      -1.091  77.337 115.362  0.00  0.00     0.149 HD
ENDBRANCH   6  13
BRANCH   5  18
ATOM     18  N   LIG d   1      -3.035  78.158 112.271  0.00  0.00     0.381 N 
ATOM     19  H   LIG d   1      -2.764  77.937 111.333  0.00  0.00    -0.090 HD
ATOM     20  H   LIG d   1      -3.864  78.724 112.234  0.00  0.00    -0.090 HD
ATOM     21  H   LIG d   1      -3.218  77.321 112.778  0.00  0.00    -0.090 HD
ENDBRANCH   5  18
BRANCH   3  22
ATOM     22  C   LIG d   1      -0.576  82.268 112.284  0.00  0.00     0.382 C 
ATOM     23  O   LIG d   1       0.611  82.626 112.473  0.00  0.00    -0.241 OA
ATOM     24  O   LIG d   1      -1.282  82.892 111.468  0.00  0.00    -0.241 OA
ENDBRANCH   3  22
TORSDOF 7
ENDMDL
