MODEL 1
REMARK VINA RESULT:      -5.4      0.000      0.000
REMARK  7 active torsions:
REMARK  status: ('A' for Active; 'I' for Inactive)
REMARK    1  A    between atoms: C_2  and  C_3 
REMARK    2  A    between atoms: C_3  and  O_6 
REMARK    3  A    between atoms: C_3  and  C_4 
REMARK    4  A    between atoms: C_7  and  O_6 
REMARK    5  A    between atoms: C_9  and  C_10 
REMARK    6  A    between atoms: N_15  and  C_14 
REMARK    7  A    between atoms: N_20  and  C_19 
REMARK       I    between atoms: C_22  and  N_20 
ROOT
ATOM      1  C   LIG d   1      -2.839  79.606 114.899  0.00  0.00     0.161 C 
ATOM      2  C   LIG d   1      -2.367  80.838 114.415  0.00  0.00     0.016 C 
ATOM      3  C   LIG d   1      -1.677  80.981 113.190  0.00  0.00     0.038 C 
ATOM      4  C   LIG d   1      -1.542  79.916 112.287  0.00  0.00     0.028 C 
ATOM      5  C   LIG d   1      -1.558  78.546 112.958  0.00  0.00    -0.047 C 
ATOM      6  C   LIG d   1      -2.799  78.452 113.875  0.00  0.00     0.091 C 
ENDROOT
BRANCH   1   7
ATOM      7  O   LIG d   1      -4.172  79.765 115.423  0.00  0.00    -0.368 OA
BRANCH   7   8
ATOM      8  C   LIG d   1      -4.275  79.947 116.857  0.00  0.00     0.119 C 
BRANCH   8   9
ATOM      9  C   LIG d   1      -4.683  78.592 117.468  0.00  0.00     0.028 C 
ATOM     10  C   LIG d   1      -6.060  78.118 116.976  0.00  0.00     0.006 C 
ENDBRANCH   8   9
BRANCH   8  11
ATOM     11  C   LIG d   1      -5.409  80.912 117.216  0.00  0.00     0.028 C 
ATOM     12  C   LIG d   1      -5.090  81.775 118.447  0.00  0.00     0.006 C 
ENDBRANCH   8  11
ENDBRANCH   7   8
ENDBRANCH   1   7
BRANCH   6  13
ATOM     13  N   LIG d   1      -2.846  77.176 114.635  0.00  0.00    -0.311 N 
ATOM     14  C   LIG d   1      -3.833  76.289 114.519  0.00  0.00     0.210 C 
ATOM     15  C   LIG d   1      -3.697  75.049 115.408  0.00  0.00     0.109 C 
ATOM     16  O   LIG d   1      -4.792  76.397 113.739  0.00  0.00    -0.276 OA
ATOM     17  H   LIG d   1      -2.091  76.993 115.268  0.00  0.00     0.149 HD
ENDBRANCH   6  13
BRANCH   5  18
ATOM     18  N   LIG d   1      -1.549  77.527 111.892  0.00  0.00     0.381 N 
ATOM     19  H   LIG d   1      -1.242  77.938 111.033  0.00  0.00    -0.090 HD
ATOM     20  H   LIG d   1      -2.485  77.185 111.761  0.00  0.00    -0.090 HD
ATOM     21  H   LIG d   1      -0.945  76.776 112.144  0.00  0.00    -0.090 HD
ENDBRANCH   5  18
BRANCH   3  22
ATOM     22  C   LIG d   1      -1.077  82.191 112.875  0.00  0.00     0.382 C 
ATOM     23  O   LIG d   1      -1.568  82.919 111.979  0.00  0.00    -0.241 OA
ATOM     24  O   LIG d   1      -0.027  82.542 113.445  0.00  0.00    -0.241 OA
ENDBRANCH   3  22
TORSDOF 7
ENDMDL
MODEL 2
REMARK VINA RESULT:      -4.9      3.175      5.455
REMARK  7 active torsions:
REMARK  status: ('A' for Active; 'I' for Inactive)
REMARK    1  A    between atoms: C_2  and  C_3 
REMARK    2  A    between atoms: C_3  and  O_6 
REMARK    3  A    between atoms: C_3  and  C_4 
REMARK    4  A    between atoms: C_7  and  O_6 
REMARK    5  A    between atoms: C_9  and  C_10 
REMARK    6  A    between atoms: N_15  and  C_14 
REMARK    7  A    between atoms: N_20  and  C_19 
REMARK       I    between atoms: C_22  and  N_20 
ROOT
ATOM      1  C   LIG d   1      -1.950  75.780 115.055  0.00  0.00     0.161 C 
ATOM      2  C   LIG d   1      -1.750  75.392 116.390  0.00  0.00     0.016 C 
ATOM      3  C   LIG d   1      -1.084  76.197 117.343  0.00  0.00     0.038 C 
ATOM      4  C   LIG d   1      -0.703  77.517 117.062  0.00  0.00     0.028 C 
ATOM      5  C   LIG d   1      -0.432  77.768 115.582  0.00  0.00    -0.047 C 
ATOM      6  C   LIG d   1      -1.639  77.263 114.759  0.00  0.00     0.091 C 
ENDROOT
BRANCH   1   7
ATOM      7  O   LIG d   1      -3.295  75.459 114.649  0.00  0.00    -0.368 OA
BRANCH   7   8
ATOM      8  C   LIG d   1      -4.274  75.354 115.712  0.00  0.00     0.119 C 
BRANCH   8   9
ATOM      9  C   LIG d   1      -5.209  74.180 115.365  0.00  0.00     0.028 C 
ATOM     10  C   LIG d   1      -6.443  74.629 114.563  0.00  0.00     0.006 C 
ENDBRANCH   8   9
BRANCH   8  11
ATOM     11  C   LIG d   1      -5.176  76.591 115.763  0.00  0.00     0.028 C 
ATOM     12  C   LIG d   1      -4.710  77.626 116.798  0.00  0.00     0.006 C 
ENDBRANCH   8  11
ENDBRANCH   7   8
ENDBRANCH   1   7
BRANCH   6  13
ATOM     13  N   LIG d   1      -1.421  77.393 113.295  0.00  0.00    -0.311 N 
ATOM     14  C   LIG d   1      -2.337  77.876 112.457  0.00  0.00     0.210 C 
ATOM     15  C   LIG d   1      -1.915  77.905 110.985  0.00  0.00     0.109 C 
ATOM     16  O   LIG d   1      -3.446  78.313 112.798  0.00  0.00    -0.276 OA
ATOM     17  H   LIG d   1      -0.536  77.091 112.937  0.00  0.00     0.149 HD
ENDBRANCH   6  13
BRANCH   5  18
ATOM     18  N   LIG d   1      -0.180  79.211 115.413  0.00  0.00     0.381 N 
ATOM     19  H   LIG d   1       0.712  79.447 115.799  0.00  0.00    -0.090 HD
ATOM     20  H   LIG d   1      -0.885  79.725 115.913  0.00  0.00    -0.090 HD
ATOM     21  H   LIG d   1      -0.206  79.451 114.447  0.00  0.00    -0.090 HD
ENDBRANCH   5  18
BRANCH   3  22
ATOM     22  C   LIG d   1      -0.757  75.666 118.582  0.00  0.00     0.382 C 
ATOM     23  O   LIG d   1       0.005  74.673 118.657  0.00  0.00    -0.241 OA
ATOM     24  O   LIG d   1      -1.250  76.141 119.622  0.00  0.00    -0.241 OA
ENDBRANCH   3  22
TORSDOF 7
ENDMDL
MODEL 3
REMARK VINA RESULT:      -4.9      2.785      3.954
REMARK  7 active torsions:
REMARK  status: ('A' for Active; 'I' for Inactive)
REMARK    1  A    between atoms: C_2  and  C_3 
REMARK    2  A    between atoms: C_3  and  O_6 
REMARK    3  A    between atoms: C_3  and  C_4 
REMARK    4  A    between atoms: C_7  and  O_6 
REMARK    5  A    between atoms: C_9  and  C_10 
REMARK    6  A    between atoms: N_15  and  C_14 
REMARK    7  A    between atoms: N_20  and  C_19 
REMARK       I    between atoms: C_22  and  N_20 
ROOT
ATOM      1  C   LIG d   1      -2.681  78.179 115.250  0.00  0.00     0.161 C 
ATOM      2  C   LIG d   1      -3.035  79.160 114.309  0.00  0.00     0.016 C 
ATOM      3  C   LIG d   1      -2.205  80.255 113.977  0.00  0.00     0.038 C 
ATOM      4  C   LIG d   1      -0.891  80.362 114.456  0.00  0.00     0.028 C 
ATOM      5  C   LIG d   1      -0.677  79.667 115.797  0.00  0.00    -0.047 C 
ATOM      6  C   LIG d   1      -1.206  78.217 115.700  0.00  0.00     0.091 C 
ENDROOT
BRANCH   1   7
ATOM      7  O   LIG d   1      -3.016  76.872 114.742  0.00  0.00    -0.368 OA
BRANCH   7   8
ATOM      8  C   LIG d   1      -4.355  76.399 115.031  0.00  0.00     0.119 C 
BRANCH   8   9
ATOM      9  C   LIG d   1      -4.670  76.769 116.493  0.00  0.00     0.028 C 
ATOM     10  C   LIG d   1      -6.043  77.445 116.645  0.00  0.00     0.006 C 
ENDBRANCH   8   9
BRANCH   8  11
ATOM     11  C   LIG d   1      -4.431  74.871 114.973  0.00  0.00     0.028 C 
ATOM     12  C   LIG d   1      -5.810  74.360 114.528  0.00  0.00     0.006 C 
ENDBRANCH   8  11
ENDBRANCH   7   8
ENDBRANCH   1   7
BRANCH   6  13
ATOM     13  N   LIG d   1      -1.112  77.493 116.994  0.00  0.00    -0.311 N 
ATOM     14  C   LIG d   1      -0.093  76.698 117.317  0.00  0.00     0.210 C 
ATOM     15  C   LIG d   1      -0.203  76.031 118.692  0.00  0.00     0.109 C 
ATOM     16  O   LIG d   1       0.907  76.507 116.608  0.00  0.00    -0.276 OA
ATOM     17  H   LIG d   1      -1.865  77.615 117.642  0.00  0.00     0.149 HD
ENDBRANCH   6  13
BRANCH   5  18
ATOM     18  N   LIG d   1       0.762  79.738 116.110  0.00  0.00     0.381 N 
ATOM     19  H   LIG d   1       0.898  79.658 117.098  0.00  0.00    -0.090 HD
ATOM     20  H   LIG d   1       1.116  80.631 115.815  0.00  0.00    -0.090 HD
ATOM     21  H   LIG d   1       1.250  79.007 115.641  0.00  0.00    -0.090 HD
ENDBRANCH   5  18
BRANCH   3  22
ATOM     22  C   LIG d   1      -2.704  81.281 113.187  0.00  0.00     0.382 C 
ATOM     23  O   LIG d   1      -3.912  81.281 112.849  0.00  0.00    -0.241 OA
ATOM     24  O   LIG d   1      -1.950  82.181 112.772  0.00  0.00    -0.241 OA
ENDBRANCH   3  22
TORSDOF 7
ENDMDL
MODEL 4
REMARK VINA RESULT:      -4.9      3.105      4.379
REMARK  7 active torsions:
REMARK  status: ('A' for Active; 'I' for Inactive)
REMARK    1  A    between atoms: C_2  and  C_3 
REMARK    2  A    between atoms: C_3  and  O_6 
REMARK    3  A    between atoms: C_3  and  C_4 
REMARK    4  A    between atoms: C_7  and  O_6 
REMARK    5  A    between atoms: C_9  and  C_10 
REMARK    6  A    between atoms: N_15  and  C_14 
REMARK    7  A    between atoms: N_20  and  C_19 
REMARK       I    between atoms: C_22  and  N_20 
ROOT
ATOM      1  C   LIG d   1      -3.064  77.102 116.035  0.00  0.00     0.161 C 
ATOM      2  C   LIG d   1      -3.376  77.517 114.729  0.00  0.00     0.016 C 
ATOM      3  C   LIG d   1      -2.456  77.470 113.657  0.00  0.00     0.038 C 
ATOM      4  C   LIG d   1      -1.200  76.860 113.784  0.00  0.00     0.028 C 
ATOM      5  C   LIG d   1      -0.656  76.884 115.208  0.00  0.00    -0.047 C 
ATOM      6  C   LIG d   1      -1.735  76.330 116.167  0.00  0.00     0.091 C 
ENDROOT
BRANCH   1   7
ATOM      7  O   LIG d   1      -4.151  76.323 116.573  0.00  0.00    -0.368 OA
BRANCH   7   8
ATOM      8  C   LIG d   1      -5.485  76.753 116.207  0.00  0.00     0.119 C 
BRANCH   8   9
ATOM      9  C   LIG d   1      -6.127  77.386 117.456  0.00  0.00     0.028 C 
ATOM     10  C   LIG d   1      -7.661  77.448 117.360  0.00  0.00     0.006 C 
ENDBRANCH   8   9
BRANCH   8  11
ATOM     11  C   LIG d   1      -6.378  75.559 115.853  0.00  0.00     0.028 C 
ATOM     12  C   LIG d   1      -6.372  75.235 114.351  0.00  0.00     0.006 C 
ENDBRANCH   8  11
ENDBRANCH   7   8
ENDBRANCH   1   7
BRANCH   6  13
ATOM     13  N   LIG d   1      -1.316  76.397 117.591  0.00  0.00    -0.311 N 
ATOM     14  C   LIG d   1      -0.700  75.398 118.222  0.00  0.00     0.210 C 
ATOM     15  C   LIG d   1      -0.373  75.667 119.695  0.00  0.00     0.109 C 
ATOM     16  O   LIG d   1      -0.364  74.328 117.694  0.00  0.00    -0.276 OA
ATOM     17  H   LIG d   1      -1.521  77.242 118.088  0.00  0.00     0.149 HD
ENDBRANCH   6  13
BRANCH   5  18
ATOM     18  N   LIG d   1       0.591  76.096 115.223  0.00  0.00     0.381 N 
ATOM     19  H   LIG d   1       0.795  75.768 114.300  0.00  0.00    -0.090 HD
ATOM     20  H   LIG d   1       0.464  75.298 115.820  0.00  0.00    -0.090 HD
ATOM     21  H   LIG d   1       1.344  76.655 115.559  0.00  0.00    -0.090 HD
ENDBRANCH   5  18
BRANCH   3  22
ATOM     22  C   LIG d   1      -2.776  78.074 112.450  0.00  0.00     0.382 C 
ATOM     23  O   LIG d   1      -3.435  77.444 111.589  0.00  0.00    -0.241 OA
ATOM     24  O   LIG d   1      -2.376  79.226 112.195  0.00  0.00    -0.241 OA
ENDBRANCH   3  22
TORSDOF 7
ENDMDL
MODEL 5
REMARK VINA RESULT:      -4.8      2.084      5.159
REMARK  7 active torsions:
REMARK  status: ('A' for Active; 'I' for Inactive)
REMARK    1  A    between atoms: C_2  and  C_3 
REMARK    2  A    between atoms: C_3  and  O_6 
REMARK    3  A    between atoms: C_3  and  C_4 
REMARK    4  A    between atoms: C_7  and  O_6 
REMARK    5  A    between atoms: C_9  and  C_10 
REMARK    6  A    between atoms: N_15  and  C_14 
REMARK    7  A    between atoms: N_20  and  C_19 
REMARK       I    between atoms: C_22  and  N_20 
ROOT
ATOM      1  C   LIG d   1      -2.542  80.193 114.016  0.00  0.00     0.161 C 
ATOM      2  C   LIG d   1      -3.169  79.053 114.546  0.00  0.00     0.016 C 
ATOM      3  C   LIG d   1      -3.038  77.761 113.986  0.00  0.00     0.038 C 
ATOM      4  C   LIG d   1      -2.144  77.495 112.938  0.00  0.00     0.028 C 
ATOM      5  C   LIG d   1      -1.874  78.705 112.049  0.00  0.00    -0.047 C 
ATOM      6  C   LIG d   1      -1.474  79.903 112.940  0.00  0.00     0.091 C 
ENDROOT
BRANCH   1   7
ATOM      7  O   LIG d   1      -1.977  80.980 115.083  0.00  0.00    -0.368 OA
BRANCH   7   8
ATOM      8  C   LIG d   1      -1.458  80.241 116.215  0.00  0.00     0.119 C 
BRANCH   8   9
ATOM      9  C   LIG d   1      -1.884  80.990 117.492  0.00  0.00     0.028 C 
ATOM     10  C   LIG d   1      -3.407  80.966 117.706  0.00  0.00     0.006 C 
ENDBRANCH   8   9
BRANCH   8  11
ATOM     11  C   LIG d   1       0.073  80.249 116.232  0.00  0.00     0.028 C 
ATOM     12  C   LIG d   1       0.670  81.494 115.555  0.00  0.00     0.006 C 
ENDBRANCH   8  11
ENDBRANCH   7   8
ENDBRANCH   1   7
BRANCH   6  13
ATOM     13  N   LIG d   1      -1.275  81.150 112.157  0.00  0.00    -0.311 N 
ATOM     14  C   LIG d   1      -0.082  81.569 111.737  0.00  0.00     0.210 C 
ATOM     15  C   LIG d   1      -0.097  82.891 110.963  0.00  0.00     0.109 C 
ATOM     16  O   LIG d   1       0.982  80.955 111.905  0.00  0.00    -0.276 OA
ATOM     17  H   LIG d   1      -2.090  81.693 111.949  0.00  0.00     0.149 HD
ENDBRANCH   6  13
BRANCH   5  18
ATOM     18  N   LIG d   1      -0.824  78.325 111.086  0.00  0.00     0.381 N 
ATOM     19  H   LIG d   1      -0.742  79.028 110.379  0.00  0.00    -0.090 HD
ATOM     20  H   LIG d   1      -1.086  77.461 110.643  0.00  0.00    -0.090 HD
ATOM     21  H   LIG d   1       0.047  78.214 111.557  0.00  0.00    -0.090 HD
ENDBRANCH   5  18
BRANCH   3  22
ATOM     22  C   LIG d   1      -3.837  76.727 114.448  0.00  0.00     0.382 C 
ATOM     23  O   LIG d   1      -4.916  76.983 115.035  0.00  0.00    -0.241 OA
ATOM     24  O   LIG d   1      -3.472  75.543 114.325  0.00  0.00    -0.241 OA
ENDBRANCH   3  22
TORSDOF 7
ENDMDL
MODEL 6
REMARK VINA RESULT:      -4.7      2.953      6.061
REMARK  7 active torsions:
REMARK  status: ('A' for Active; 'I' for Inactive)
REMARK    1  A    between atoms: C_2  and  C_3 
REMARK    2  A    between atoms: C_3  and  O_6 
REMARK    3  A    between atoms: C_3  and  C_4 
REMARK    4  A    between atoms: C_7  and  O_6 
REMARK    5  A    between atoms: C_9  and  C_10 
REMARK    6  A    between atoms: N_15  and  C_14 
REMARK    7  A    between atoms: N_20  and  C_19 
REMARK       I    between atoms: C_22  and  N_20 
ROOT
ATOM      1  C   LIG d   1      -4.080  78.643 116.592  0.00  0.00     0.161 C 
ATOM      2  C   LIG d   1      -3.683  77.509 115.864  0.00  0.00     0.016 C 
ATOM      3  C   LIG d   1      -4.524  76.395 115.639  0.00  0.00     0.038 C 
ATOM      4  C   LIG d   1      -5.879  76.404 116.002  0.00  0.00     0.028 C 
ATOM      5  C   LIG d   1      -6.184  77.319 117.182  0.00  0.00    -0.047 C 
ATOM      6  C   LIG d   1      -5.591  78.718 116.899  0.00  0.00     0.091 C 
ENDROOT
BRANCH   1   7
ATOM      7  O   LIG d   1      -3.648  79.838 115.910  0.00  0.00    -0.368 OA
BRANCH   7   8
ATOM      8  C   LIG d   1      -2.624  79.660 114.901  0.00  0.00     0.119 C 
BRANCH   8   9
ATOM      9  C   LIG d   1      -1.378  80.440 115.363  0.00  0.00     0.028 C 
ATOM     10  C   LIG d   1      -0.570  79.678 116.426  0.00  0.00     0.006 C 
ENDBRANCH   8   9
BRANCH   8  11
ATOM     11  C   LIG d   1      -3.034  80.302 113.572  0.00  0.00     0.028 C 
ATOM     12  C   LIG d   1      -2.163  81.512 113.200  0.00  0.00     0.006 C 
ENDBRANCH   8  11
ENDBRANCH   7   8
ENDBRANCH   1   7
BRANCH   6  13
ATOM     13  N   LIG d   1      -5.771  79.652 118.041  0.00  0.00    -0.311 N 
ATOM     14  C   LIG d   1      -6.800  80.492 118.146  0.00  0.00     0.210 C 
ATOM     15  C   LIG d   1      -6.784  81.382 119.393  0.00  0.00     0.109 C 
ATOM     16  O   LIG d   1      -7.741  80.561 117.341  0.00  0.00    -0.276 OA
ATOM     17  H   LIG d   1      -5.070  79.640 118.756  0.00  0.00     0.149 HD
ENDBRANCH   6  13
BRANCH   5  18
ATOM     18  N   LIG d   1      -7.648  77.339 117.365  0.00  0.00     0.381 N 
ATOM     19  H   LIG d   1      -7.965  78.283 117.461  0.00  0.00    -0.090 HD
ATOM     20  H   LIG d   1      -7.877  76.842 118.207  0.00  0.00    -0.090 HD
ATOM     21  H   LIG d   1      -8.095  76.908 116.585  0.00  0.00    -0.090 HD
ENDBRANCH   5  18
BRANCH   3  22
ATOM     22  C   LIG d   1      -3.999  75.239 115.081  0.00  0.00     0.382 C 
ATOM     23  O   LIG d   1      -2.799  74.935 115.283  0.00  0.00    -0.241 OA
ATOM     24  O   LIG d   1      -4.698  74.521 114.341  0.00  0.00    -0.241 OA
ENDBRANCH   3  22
TORSDOF 7
ENDMDL
MODEL 7
REMARK VINA RESULT:      -4.7      2.259      5.099
REMARK  7 active torsions:
REMARK  status: ('A' for Active; 'I' for Inactive)
REMARK    1  A    between atoms: C_2  and  C_3 
REMARK    2  A    between atoms: C_3  and  O_6 
REMARK    3  A    between atoms: C_3  and  C_4 
REMARK    4  A    between atoms: C_7  and  O_6 
REMARK    5  A    between atoms: C_9  and  C_10 
REMARK    6  A    between atoms: N_15  and  C_14 
REMARK    7  A    between atoms: N_20  and  C_19 
REMARK       I    between atoms: C_22  and  N_20 
ROOT
ATOM      1  C   LIG d   1      -1.843  79.670 114.818  0.00  0.00     0.161 C 
ATOM      2  C   LIG d   1      -2.673  78.581 115.133  0.00  0.00     0.016 C 
ATOM      3  C   LIG d   1      -2.973  77.542 114.222  0.00  0.00     0.038 C 
ATOM      4  C   LIG d   1      -2.338  77.443 112.976  0.00  0.00     0.028 C 
ATOM      5  C   LIG d   1      -1.879  78.787 112.421  0.00  0.00    -0.047 C 
ATOM      6  C   LIG d   1      -1.053  79.521 113.501  0.00  0.00     0.091 C 
ENDROOT
BRANCH   1   7
ATOM      7  O   LIG d   1      -0.945  79.933 115.915  0.00  0.00    -0.368 OA
BRANCH   7   8
ATOM      8  C   LIG d   1      -1.206  81.137 116.677  0.00  0.00     0.119 C 
BRANCH   8   9
ATOM      9  C   LIG d   1       0.155  81.704 117.127  0.00  0.00     0.028 C 
ATOM     10  C   LIG d   1       1.177  81.754 115.979  0.00  0.00     0.006 C 
ENDBRANCH   8   9
BRANCH   8  11
ATOM     11  C   LIG d   1      -1.962  80.823 117.972  0.00  0.00     0.028 C 
ATOM     12  C   LIG d   1      -2.140  82.057 118.871  0.00  0.00     0.006 C 
ENDBRANCH   8  11
ENDBRANCH   7   8
ENDBRANCH   1   7
BRANCH   6  13
ATOM     13  N   LIG d   1      -0.636  80.880 113.070  0.00  0.00    -0.311 N 
ATOM     14  C   LIG d   1      -1.498  81.853 112.778  0.00  0.00     0.210 C 
ATOM     15  C   LIG d   1      -0.858  83.173 112.335  0.00  0.00     0.109 C 
ATOM     16  O   LIG d   1      -2.730  81.758 112.875  0.00  0.00    -0.276 OA
ATOM     17  H   LIG d   1       0.347  81.054 112.995  0.00  0.00     0.149 HD
ENDBRANCH   6  13
BRANCH   5  18
ATOM     18  N   LIG d   1      -1.113  78.522 111.188  0.00  0.00     0.381 N 
ATOM     19  H   LIG d   1      -0.920  77.544 111.113  0.00  0.00    -0.090 HD
ATOM     20  H   LIG d   1      -0.238  79.014 111.237  0.00  0.00    -0.090 HD
ATOM     21  H   LIG d   1      -1.630  78.828 110.393  0.00  0.00    -0.090 HD
ENDBRANCH   5  18
BRANCH   3  22
ATOM     22  C   LIG d   1      -3.949  76.610 114.540  0.00  0.00     0.382 C 
ATOM     23  O   LIG d   1      -5.027  76.984 115.063  0.00  0.00    -0.241 OA
ATOM     24  O   LIG d   1      -3.748  75.395 114.352  0.00  0.00    -0.241 OA
ENDBRANCH   3  22
TORSDOF 7
ENDMDL
MODEL 8
REMARK VINA RESULT:      -4.7      2.327      2.988
REMARK  7 active torsions:
REMARK  status: ('A' for Active; 'I' for Inactive)
REMARK    1  A    between atoms: C_2  and  C_3 
REMARK    2  A    between atoms: C_3  and  O_6 
REMARK    3  A    between atoms: C_3  and  C_4 
REMARK    4  A    between atoms: C_7  and  O_6 
REMARK    5  A    between atoms: C_9  and  C_10 
REMARK    6  A    between atoms: N_15  and  C_14 
REMARK    7  A    between atoms: N_20  and  C_19 
REMARK       I    between atoms: C_22  and  N_20 
ROOT
ATOM      1  C   LIG d   1      -2.541  79.262 116.582  0.00  0.00     0.161 C 
ATOM      2  C   LIG d   1      -2.880  80.156 115.552  0.00  0.00     0.016 C 
ATOM      3  C   LIG d   1      -2.474  79.985 114.209  0.00  0.00     0.038 C 
ATOM      4  C   LIG d   1      -1.824  78.821 113.773  0.00  0.00     0.028 C 
ATOM      5  C   LIG d   1      -1.020  78.129 114.869  0.00  0.00    -0.047 C 
ATOM      6  C   LIG d   1      -1.927  77.929 116.105  0.00  0.00     0.091 C 
ENDROOT
BRANCH   1   7
ATOM      7  O   LIG d   1      -3.693  79.014 117.413  0.00  0.00    -0.368 OA
BRANCH   7   8
ATOM      8  C   LIG d   1      -4.944  78.790 116.717  0.00  0.00     0.119 C 
BRANCH   8   9
ATOM      9  C   LIG d   1      -6.034  79.588 117.458  0.00  0.00     0.028 C 
ATOM     10  C   LIG d   1      -5.574  81.008 117.828  0.00  0.00     0.006 C 
ENDBRANCH   8   9
BRANCH   8  11
ATOM     11  C   LIG d   1      -5.379  77.325 116.811  0.00  0.00     0.028 C 
ATOM     12  C   LIG d   1      -6.904  77.161 116.908  0.00  0.00     0.006 C 
ENDBRANCH   8  11
ENDBRANCH   7   8
ENDBRANCH   1   7
BRANCH   6  13
ATOM     13  N   LIG d   1      -1.195  77.335 117.254  0.00  0.00    -0.311 N 
ATOM     14  C   LIG d   1      -1.074  76.022 117.446  0.00  0.00     0.210 C 
ATOM     15  C   LIG d   1      -0.297  75.622 118.704  0.00  0.00     0.109 C 
ATOM     16  O   LIG d   1      -1.508  75.152 116.677  0.00  0.00    -0.276 OA
ATOM     17  H   LIG d   1      -0.784  77.969 117.911  0.00  0.00     0.149 HD
ENDBRANCH   6  13
BRANCH   5  18
ATOM     18  N   LIG d   1      -0.510  76.861 114.315  0.00  0.00     0.381 N 
ATOM     19  H   LIG d   1      -0.962  76.089 114.763  0.00  0.00    -0.090 HD
ATOM     20  H   LIG d   1       0.476  76.799 114.499  0.00  0.00    -0.090 HD
ATOM     21  H   LIG d   1      -0.675  76.827 113.333  0.00  0.00    -0.090 HD
ENDBRANCH   5  18
BRANCH   3  22
ATOM     22  C   LIG d   1      -2.683  81.005 113.293  0.00  0.00     0.382 C 
ATOM     23  O   LIG d   1      -1.788  81.296 112.464  0.00  0.00    -0.241 OA
ATOM     24  O   LIG d   1      -3.738  81.666 113.314  0.00  0.00    -0.241 OA
ENDBRANCH   3  22
TORSDOF 7
ENDMDL
MODEL 9
REMARK VINA RESULT:      -4.6      3.975      5.685
REMARK  7 active torsions:
REMARK  status: ('A' for Active; 'I' for Inactive)
REMARK    1  A    between atoms: C_2  and  C_3 
REMARK    2  A    between atoms: C_3  and  O_6 
REMARK    3  A    between atoms: C_3  and  C_4 
REMARK    4  A    between atoms: C_7  and  O_6 
REMARK    5  A    between atoms: C_9  and  C_10 
REMARK    6  A    between atoms: N_15  and  C_14 
REMARK    7  A    between atoms: N_20  and  C_19 
REMARK       I    between atoms: C_22  and  N_20 
ROOT
ATOM      1  C   LIG d   1      -3.885  77.320 115.577  0.00  0.00     0.161 C 
ATOM      2  C   LIG d   1      -3.048  76.195 115.486  0.00  0.00     0.016 C 
ATOM      3  C   LIG d   1      -2.006  75.925 116.402  0.00  0.00     0.038 C 
ATOM      4  C   LIG d   1      -1.826  76.686 117.566  0.00  0.00     0.028 C 
ATOM      5  C   LIG d   1      -2.325  78.121 117.434  0.00  0.00    -0.047 C 
ATOM      6  C   LIG d   1      -3.776  78.102 116.902  0.00  0.00     0.091 C 
ENDROOT
BRANCH   1   7
ATOM      7  O   LIG d   1      -5.252  76.932 115.335  0.00  0.00    -0.368 OA
BRANCH   7   8
ATOM      8  C   LIG d   1      -5.917  76.233 116.416  0.00  0.00     0.119 C 
BRANCH   8   9
ATOM      9  C   LIG d   1      -6.303  74.835 115.896  0.00  0.00     0.028 C 
ATOM     10  C   LIG d   1      -6.262  74.748 114.361  0.00  0.00     0.006 C 
ENDBRANCH   8   9
BRANCH   8  11
ATOM     11  C   LIG d   1      -7.242  76.908 116.785  0.00  0.00     0.028 C 
ATOM     12  C   LIG d   1      -7.288  77.369 118.250  0.00  0.00     0.006 C 
ENDBRANCH   8  11
ENDBRANCH   7   8
ENDBRANCH   1   7
BRANCH   6  13
ATOM     13  N   LIG d   1      -4.311  79.468 116.664  0.00  0.00    -0.311 N 
ATOM     14  C   LIG d   1      -4.894  80.202 117.610  0.00  0.00     0.210 C 
ATOM     15  C   LIG d   1      -5.393  81.574 117.148  0.00  0.00     0.109 C 
ATOM     16  O   LIG d   1      -5.017  79.860 118.796  0.00  0.00    -0.276 OA
ATOM     17  H   LIG d   1      -4.225  79.836 115.737  0.00  0.00     0.149 HD
ENDBRANCH   6  13
BRANCH   5  18
ATOM     18  N   LIG d   1      -2.203  78.759 118.759  0.00  0.00     0.381 N 
ATOM     19  H   LIG d   1      -1.266  79.083 118.894  0.00  0.00    -0.090 HD
ATOM     20  H   LIG d   1      -2.406  78.077 119.468  0.00  0.00    -0.090 HD
ATOM     21  H   LIG d   1      -2.840  79.522 118.830  0.00  0.00    -0.090 HD
ENDBRANCH   5  18
BRANCH   3  22
ATOM     22  C   LIG d   1      -1.105  74.905 116.136  0.00  0.00     0.382 C 
ATOM     23  O   LIG d   1      -0.379  74.455 117.055  0.00  0.00    -0.241 OA
ATOM     24  O   LIG d   1      -0.977  74.460 114.980  0.00  0.00    -0.241 OA
ENDBRANCH   3  22
TORSDOF 7
ENDMDL
