MODEL 1
REMARK VINA RESULT:      -5.1      0.000      0.000
REMARK  7 active torsions:
REMARK  status: ('A' for Active; 'I' for Inactive)
REMARK    1  A    between atoms: C_2  and  C_3 
REMARK    2  A    between atoms: C_3  and  O_6 
REMARK    3  A    between atoms: C_3  and  C_4 
REMARK    4  A    between atoms: C_7  and  O_6 
REMARK    5  A    between atoms: C_9  and  C_10 
REMARK    6  A    between atoms: N_15  and  C_14 
REMARK    7  A    between atoms: N_20  and  C_19 
REMARK       I    between atoms: C_22  and  N_20 
ROOT
ATOM      1  C   LIG d   1      -2.694  81.309 113.163  0.00  0.00     0.161 C 
ATOM      2  C   LIG d   1      -3.105  80.022 113.549  0.00  0.00     0.016 C 
ATOM      3  C   LIG d   1      -2.294  78.872 113.408  0.00  0.00     0.038 C 
ATOM      4  C   LIG d   1      -0.952  78.955 113.009  0.00  0.00     0.028 C 
ATOM      5  C   LIG d   1      -0.655  80.166 112.131  0.00  0.00    -0.047 C 
ATOM      6  C   LIG d   1      -1.193  81.436 112.829  0.00  0.00     0.091 C 
ENDROOT
BRANCH   1   7
ATOM      7  O   LIG d   1      -3.065  82.264 114.177  0.00  0.00    -0.368 OA
BRANCH   7   8
ATOM      8  C   LIG d   1      -2.404  82.121 115.459  0.00  0.00     0.119 C 
BRANCH   8   9
ATOM      9  C   LIG d   1      -3.499  82.103 116.543  0.00  0.00     0.028 C 
ATOM     10  C   LIG d   1      -3.665  80.716 117.187  0.00  0.00     0.006 C 
ENDBRANCH   8   9
BRANCH   8  11
ATOM     11  C   LIG d   1      -1.537  83.343 115.778  0.00  0.00     0.028 C 
ATOM     12  C   LIG d   1      -0.863  83.251 117.156  0.00  0.00     0.006 C 
ENDBRANCH   8  11
ENDBRANCH   7   8
ENDBRANCH   1   7
BRANCH   6  13
ATOM     13  N   LIG d   1      -1.019  82.656 111.999  0.00  0.00    -0.311 N 
ATOM     14  C   LIG d   1       0.033  83.466 112.099  0.00  0.00     0.210 C 
ATOM     15  C   LIG d   1       0.006  84.679 111.164  0.00  0.00     0.109 C 
ATOM     16  O   LIG d   1       1.002  83.279 112.851  0.00  0.00    -0.276 OA
ATOM     17  H   LIG d   1      -1.742  82.867 111.340  0.00  0.00     0.149 HD
ENDBRANCH   6  13
BRANCH   5  18
ATOM     18  N   LIG d   1       0.802  80.204 111.904  0.00  0.00     0.381 N 
ATOM     19  H   LIG d   1       1.041  81.020 111.376  0.00  0.00    -0.090 HD
ATOM     20  H   LIG d   1       1.069  79.395 111.371  0.00  0.00    -0.090 HD
ATOM     21  H   LIG d   1       1.283  80.211 112.776  0.00  0.00    -0.090 HD
ENDBRANCH   5  18
BRANCH   3  22
ATOM     22  C   LIG d   1      -2.839  77.616 113.631  0.00  0.00     0.382 C 
ATOM     23  O   LIG d   1      -2.113  76.683 114.050  0.00  0.00    -0.241 OA
ATOM     24  O   LIG d   1      -4.037  77.393 113.375  0.00  0.00    -0.241 OA
ENDBRANCH   3  22
TORSDOF 7
ENDMDL
MODEL 2
REMARK VINA RESULT:      -5.0      2.706      5.222
REMARK  7 active torsions:
REMARK  status: ('A' for Active; 'I' for Inactive)
REMARK    1  A    between atoms: C_2  and  C_3 
REMARK    2  A    between atoms: C_3  and  O_6 
REMARK    3  A    between atoms: C_3  and  C_4 
REMARK    4  A    between atoms: C_7  and  O_6 
REMARK    5  A    between atoms: C_9  and  C_10 
REMARK    6  A    between atoms: N_15  and  C_14 
REMARK    7  A    between atoms: N_20  and  C_19 
REMARK       I    between atoms: C_22  and  N_20 
ROOT
ATOM      1  C   LIG d   1      -1.685  79.418 115.870  0.00  0.00     0.161 C 
ATOM      2  C   LIG d   1      -2.251  80.462 115.120  0.00  0.00     0.016 C 
ATOM      3  C   LIG d   1      -2.426  80.407 113.719  0.00  0.00     0.038 C 
ATOM      4  C   LIG d   1      -2.184  79.235 112.986  0.00  0.00     0.028 C 
ATOM      5  C   LIG d   1      -1.138  78.327 113.625  0.00  0.00    -0.047 C 
ATOM      6  C   LIG d   1      -1.517  78.089 115.104  0.00  0.00     0.091 C 
ENDROOT
BRANCH   1   7
ATOM      7  O   LIG d   1      -2.451  79.209 117.074  0.00  0.00    -0.368 OA
BRANCH   7   8
ATOM      8  C   LIG d   1      -3.468  80.200 117.361  0.00  0.00     0.119 C 
BRANCH   8   9
ATOM      9  C   LIG d   1      -3.060  80.916 118.664  0.00  0.00     0.028 C 
ATOM     10  C   LIG d   1      -2.768  82.411 118.445  0.00  0.00     0.006 C 
ENDBRANCH   8   9
BRANCH   8  11
ATOM     11  C   LIG d   1      -4.817  79.543 117.665  0.00  0.00     0.028 C 
ATOM     12  C   LIG d   1      -5.022  78.224 116.904  0.00  0.00     0.006 C 
ENDBRANCH   8  11
ENDBRANCH   7   8
ENDBRANCH   1   7
BRANCH   6  13
ATOM     13  N   LIG d   1      -0.502  77.278 115.826  0.00  0.00    -0.311 N 
ATOM     14  C   LIG d   1      -0.538  75.949 115.895  0.00  0.00     0.210 C 
ATOM     15  C   LIG d   1       0.595  75.312 116.706  0.00  0.00     0.109 C 
ATOM     16  O   LIG d   1      -1.383  75.235 115.334  0.00  0.00    -0.276 OA
ATOM     17  H   LIG d   1       0.237  77.776 116.284  0.00  0.00     0.149 HD
ENDBRANCH   6  13
BRANCH   5  18
ATOM     18  N   LIG d   1      -1.085  77.084 112.834  0.00  0.00     0.381 N 
ATOM     19  H   LIG d   1      -1.973  76.624 112.865  0.00  0.00    -0.090 HD
ATOM     20  H   LIG d   1      -0.399  76.471 113.237  0.00  0.00    -0.090 HD
ATOM     21  H   LIG d   1      -0.842  77.290 111.890  0.00  0.00    -0.090 HD
ENDBRANCH   5  18
BRANCH   3  22
ATOM     22  C   LIG d   1      -2.811  81.547 113.029  0.00  0.00     0.382 C 
ATOM     23  O   LIG d   1      -1.943  82.277 112.491  0.00  0.00    -0.241 OA
ATOM     24  O   LIG d   1      -4.010  81.879 112.976  0.00  0.00    -0.241 OA
ENDBRANCH   3  22
TORSDOF 7
ENDMDL
MODEL 3
REMARK VINA RESULT:      -4.8      2.358      5.075
REMARK  7 active torsions:
REMARK  status: ('A' for Active; 'I' for Inactive)
REMARK    1  A    between atoms: C_2  and  C_3 
REMARK    2  A    between atoms: C_3  and  O_6 
REMARK    3  A    between atoms: C_3  and  C_4 
REMARK    4  A    between atoms: C_7  and  O_6 
REMARK    5  A    between atoms: C_9  and  C_10 
REMARK    6  A    between atoms: N_15  and  C_14 
REMARK    7  A    between atoms: N_20  and  C_19 
REMARK       I    between atoms: C_22  and  N_20 
ROOT
ATOM      1  C   LIG d   1      -2.482  79.938 115.332  0.00  0.00     0.161 C 
ATOM      2  C   LIG d   1      -2.039  81.034 114.573  0.00  0.00     0.016 C 
ATOM      3  C   LIG d   1      -1.373  80.903 113.333  0.00  0.00     0.038 C 
ATOM      4  C   LIG d   1      -1.238  79.663 112.691  0.00  0.00     0.028 C 
ATOM      5  C   LIG d   1      -1.220  78.481 113.655  0.00  0.00    -0.047 C 
ATOM      6  C   LIG d   1      -2.442  78.583 114.596  0.00  0.00     0.091 C 
ENDROOT
BRANCH   1   7
ATOM      7  O   LIG d   1      -3.808  80.196 115.835  0.00  0.00    -0.368 OA
BRANCH   7   8
ATOM      8  C   LIG d   1      -3.911  80.454 117.257  0.00  0.00     0.119 C 
BRANCH   8   9
ATOM      9  C   LIG d   1      -5.285  79.937 117.723  0.00  0.00     0.028 C 
ATOM     10  C   LIG d   1      -5.543  78.483 117.292  0.00  0.00     0.006 C 
ENDBRANCH   8   9
BRANCH   8  11
ATOM     11  C   LIG d   1      -3.922  81.957 117.552  0.00  0.00     0.028 C 
ATOM     12  C   LIG d   1      -2.781  82.390 118.486  0.00  0.00     0.006 C 
ENDBRANCH   8  11
ENDBRANCH   7   8
ENDBRANCH   1   7
BRANCH   6  13
ATOM     13  N   LIG d   1      -2.455  77.511 115.625  0.00  0.00    -0.311 N 
ATOM     14  C   LIG d   1      -3.094  76.353 115.469  0.00  0.00     0.210 C 
ATOM     15  C   LIG d   1      -2.996  75.395 116.661  0.00  0.00     0.109 C 
ATOM     16  O   LIG d   1      -3.705  76.014 114.445  0.00  0.00    -0.276 OA
ATOM     17  H   LIG d   1      -1.958  77.689 116.476  0.00  0.00     0.149 HD
ENDBRANCH   6  13
BRANCH   5  18
ATOM     18  N   LIG d   1      -1.213  77.248 112.846  0.00  0.00     0.381 N 
ATOM     19  H   LIG d   1      -1.545  76.481 113.396  0.00  0.00    -0.090 HD
ATOM     20  H   LIG d   1      -0.269  77.049 112.565  0.00  0.00    -0.090 HD
ATOM     21  H   LIG d   1      -1.790  77.363 112.043  0.00  0.00    -0.090 HD
ENDBRANCH   5  18
BRANCH   3  22
ATOM     22  C   LIG d   1      -0.799  82.018 112.740  0.00  0.00     0.382 C 
ATOM     23  O   LIG d   1       0.416  82.271 112.927  0.00  0.00    -0.241 OA
ATOM     24  O   LIG d   1      -1.490  82.798 112.058  0.00  0.00    -0.241 OA
ENDBRANCH   3  22
TORSDOF 7
ENDMDL
MODEL 4
REMARK VINA RESULT:      -4.6      2.001      4.308
REMARK  7 active torsions:
REMARK  status: ('A' for Active; 'I' for Inactive)
REMARK    1  A    between atoms: C_2  and  C_3 
REMARK    2  A    between atoms: C_3  and  O_6 
REMARK    3  A    between atoms: C_3  and  C_4 
REMARK    4  A    between atoms: C_7  and  O_6 
REMARK    5  A    between atoms: C_9  and  C_10 
REMARK    6  A    between atoms: N_15  and  C_14 
REMARK    7  A    between atoms: N_20  and  C_19 
REMARK       I    between atoms: C_22  and  N_20 
ROOT
ATOM      1  C   LIG d   1       0.017  80.230 113.902  0.00  0.00     0.161 C 
ATOM      2  C   LIG d   1      -0.770  79.194 113.373  0.00  0.00     0.016 C 
ATOM      3  C   LIG d   1      -2.181  79.164 113.465  0.00  0.00     0.038 C 
ATOM      4  C   LIG d   1      -2.915  80.250 113.964  0.00  0.00     0.028 C 
ATOM      5  C   LIG d   1      -2.138  81.096 114.967  0.00  0.00    -0.047 C 
ATOM      6  C   LIG d   1      -0.773  81.477 114.351  0.00  0.00     0.091 C 
ENDROOT
BRANCH   1   7
ATOM      7  O   LIG d   1       1.040  80.598 112.956  0.00  0.00    -0.368 OA
BRANCH   7   8
ATOM      8  C   LIG d   1       0.576  81.134 111.692  0.00  0.00     0.119 C 
BRANCH   8   9
ATOM      9  C   LIG d   1       1.364  80.427 110.572  0.00  0.00     0.028 C 
ATOM     10  C   LIG d   1       0.447  79.887 109.461  0.00  0.00     0.006 C 
ENDBRANCH   8   9
BRANCH   8  11
ATOM     11  C   LIG d   1       0.923  82.620 111.556  0.00  0.00     0.028 C 
ATOM     12  C   LIG d   1      -0.301  83.490 111.227  0.00  0.00     0.006 C 
ENDBRANCH   8  11
ENDBRANCH   7   8
ENDBRANCH   1   7
BRANCH   6  13
ATOM     13  N   LIG d   1       0.085  82.235 115.299  0.00  0.00    -0.311 N 
ATOM     14  C   LIG d   1       0.107  83.565 115.366  0.00  0.00     0.210 C 
ATOM     15  C   LIG d   1       1.077  84.145 116.400  0.00  0.00     0.109 C 
ATOM     16  O   LIG d   1      -0.609  84.319 114.690  0.00  0.00    -0.276 OA
ATOM     17  H   LIG d   1       0.675  81.701 115.907  0.00  0.00     0.149 HD
ENDBRANCH   6  13
BRANCH   5  18
ATOM     18  N   LIG d   1      -2.970  82.268 115.300  0.00  0.00     0.381 N 
ATOM     19  H   LIG d   1      -3.223  82.240 116.267  0.00  0.00    -0.090 HD
ATOM     20  H   LIG d   1      -3.811  82.236 114.752  0.00  0.00    -0.090 HD
ATOM     21  H   LIG d   1      -2.470  83.108 115.104  0.00  0.00    -0.090 HD
ENDBRANCH   5  18
BRANCH   3  22
ATOM     22  C   LIG d   1      -2.870  78.020 113.091  0.00  0.00     0.382 C 
ATOM     23  O   LIG d   1      -2.434  76.890 113.420  0.00  0.00    -0.241 OA
ATOM     24  O   LIG d   1      -3.897  78.101 112.392  0.00  0.00    -0.241 OA
ENDBRANCH   3  22
TORSDOF 7
ENDMDL
MODEL 5
REMARK VINA RESULT:      -4.5      3.639      5.730
REMARK  7 active torsions:
REMARK  status: ('A' for Active; 'I' for Inactive)
REMARK    1  A    between atoms: C_2  and  C_3 
REMARK    2  A    between atoms: C_3  and  O_6 
REMARK    3  A    between atoms: C_3  and  C_4 
REMARK    4  A    between atoms: C_7  and  O_6 
REMARK    5  A    between atoms: C_9  and  C_10 
REMARK    6  A    between atoms: N_15  and  C_14 
REMARK    7  A    between atoms: N_20  and  C_19 
REMARK       I    between atoms: C_22  and  N_20 
ROOT
ATOM      1  C   LIG d   1      -3.716  79.558 116.504  0.00  0.00     0.161 C 
ATOM      2  C   LIG d   1      -3.485  78.408 115.731  0.00  0.00     0.016 C 
ATOM      3  C   LIG d   1      -4.267  77.234 115.829  0.00  0.00     0.038 C 
ATOM      4  C   LIG d   1      -5.436  77.185 116.604  0.00  0.00     0.028 C 
ATOM      5  C   LIG d   1      -5.421  78.150 117.785  0.00  0.00    -0.047 C 
ATOM      6  C   LIG d   1      -5.053  79.562 117.274  0.00  0.00     0.091 C 
ENDROOT
BRANCH   1   7
ATOM      7  O   LIG d   1      -3.611  80.733 115.676  0.00  0.00    -0.368 OA
BRANCH   7   8
ATOM      8  C   LIG d   1      -2.343  81.431 115.717  0.00  0.00     0.119 C 
BRANCH   8   9
ATOM      9  C   LIG d   1      -2.548  82.716 116.542  0.00  0.00     0.028 C 
ATOM     10  C   LIG d   1      -1.814  82.669 117.893  0.00  0.00     0.006 C 
ENDBRANCH   8   9
BRANCH   8  11
ATOM     11  C   LIG d   1      -1.923  81.907 114.323  0.00  0.00     0.028 C 
ATOM     12  C   LIG d   1      -2.868  81.414 113.216  0.00  0.00     0.006 C 
ENDBRANCH   8  11
ENDBRANCH   7   8
ENDBRANCH   1   7
BRANCH   6  13
ATOM     13  N   LIG d   1      -4.934  80.550 118.378  0.00  0.00    -0.311 N 
ATOM     14  C   LIG d   1      -5.623  81.689 118.420  0.00  0.00     0.210 C 
ATOM     15  C   LIG d   1      -5.335  82.574 119.636  0.00  0.00     0.109 C 
ATOM     16  O   LIG d   1      -6.469  82.034 117.582  0.00  0.00    -0.276 OA
ATOM     17  H   LIG d   1      -4.292  80.334 119.116  0.00  0.00     0.149 HD
ENDBRANCH   6  13
BRANCH   5  18
ATOM     18  N   LIG d   1      -6.749  78.093 118.423  0.00  0.00     0.381 N 
ATOM     19  H   LIG d   1      -6.728  77.456 119.194  0.00  0.00    -0.090 HD
ATOM     20  H   LIG d   1      -7.418  77.755 117.753  0.00  0.00    -0.090 HD
ATOM     21  H   LIG d   1      -7.014  79.000 118.739  0.00  0.00    -0.090 HD
ENDBRANCH   5  18
BRANCH   3  22
ATOM     22  C   LIG d   1      -3.860  76.081 115.177  0.00  0.00     0.382 C 
ATOM     23  O   LIG d   1      -4.670  75.449 114.456  0.00  0.00    -0.241 OA
ATOM     24  O   LIG d   1      -2.706  75.639 115.335  0.00  0.00    -0.241 OA
ENDBRANCH   3  22
TORSDOF 7
ENDMDL
MODEL 6
REMARK VINA RESULT:      -4.3      1.609      2.288
REMARK  7 active torsions:
REMARK  status: ('A' for Active; 'I' for Inactive)
REMARK    1  A    between atoms: C_2  and  C_3 
REMARK    2  A    between atoms: C_3  and  O_6 
REMARK    3  A    between atoms: C_3  and  C_4 
REMARK    4  A    between atoms: C_7  and  O_6 
REMARK    5  A    between atoms: C_9  and  C_10 
REMARK    6  A    between atoms: N_15  and  C_14 
REMARK    7  A    between atoms: N_20  and  C_19 
REMARK       I    between atoms: C_22  and  N_20 
ROOT
ATOM      1  C   LIG d   1      -2.303  80.680 115.082  0.00  0.00     0.161 C 
ATOM      2  C   LIG d   1      -2.921  79.466 115.424  0.00  0.00     0.016 C 
ATOM      3  C   LIG d   1      -2.949  78.339 114.570  0.00  0.00     0.038 C 
ATOM      4  C   LIG d   1      -2.224  78.301 113.370  0.00  0.00     0.028 C 
ATOM      5  C   LIG d   1      -2.003  79.677 112.751  0.00  0.00    -0.047 C 
ATOM      6  C   LIG d   1      -1.412  80.620 113.824  0.00  0.00     0.091 C 
ENDROOT
BRANCH   1   7
ATOM      7  O   LIG d   1      -1.551  81.178 116.206  0.00  0.00    -0.368 OA
BRANCH   7   8
ATOM      8  C   LIG d   1      -2.001  82.436 116.767  0.00  0.00     0.119 C 
BRANCH   8   9
ATOM      9  C   LIG d   1      -0.750  83.291 117.049  0.00  0.00     0.028 C 
ATOM     10  C   LIG d   1      -0.377  83.310 118.541  0.00  0.00     0.006 C 
ENDBRANCH   8   9
BRANCH   8  11
ATOM     11  C   LIG d   1      -2.668  82.231 118.130  0.00  0.00     0.028 C 
ATOM     12  C   LIG d   1      -4.187  82.021 118.025  0.00  0.00     0.006 C 
ENDBRANCH   8  11
ENDBRANCH   7   8
ENDBRANCH   1   7
BRANCH   6  13
ATOM     13  N   LIG d   1      -1.245  82.010 113.325  0.00  0.00    -0.311 N 
ATOM     14  C   LIG d   1      -0.099  82.685 113.408  0.00  0.00     0.210 C 
ATOM     15  C   LIG d   1      -0.148  84.112 112.852  0.00  0.00     0.109 C 
ATOM     16  O   LIG d   1       0.961  82.227 113.859  0.00  0.00    -0.276 OA
ATOM     17  H   LIG d   1      -2.046  82.448 112.915  0.00  0.00     0.149 HD
ENDBRANCH   6  13
BRANCH   5  18
ATOM     18  N   LIG d   1      -1.120  79.504 111.583  0.00  0.00     0.381 N 
ATOM     19  H   LIG d   1      -1.399  78.696 111.063  0.00  0.00    -0.090 HD
ATOM     20  H   LIG d   1      -0.179  79.362 111.905  0.00  0.00    -0.090 HD
ATOM     21  H   LIG d   1      -1.161  80.312 111.002  0.00  0.00    -0.090 HD
ENDBRANCH   5  18
BRANCH   3  22
ATOM     22  C   LIG d   1      -3.740  77.248 114.897  0.00  0.00     0.382 C 
ATOM     23  O   LIG d   1      -4.536  77.318 115.865  0.00  0.00    -0.241 OA
ATOM     24  O   LIG d   1      -3.637  76.181 114.264  0.00  0.00    -0.241 OA
ENDBRANCH   3  22
TORSDOF 7
ENDMDL
MODEL 7
REMARK VINA RESULT:      -4.2      2.517      5.308
REMARK  7 active torsions:
REMARK  status: ('A' for Active; 'I' for Inactive)
REMARK    1  A    between atoms: C_2  and  C_3 
REMARK    2  A    between atoms: C_3  and  O_6 
REMARK    3  A    between atoms: C_3  and  C_4 
REMARK    4  A    between atoms: C_7  and  O_6 
REMARK    5  A    between atoms: C_9  and  C_10 
REMARK    6  A    between atoms: N_15  and  C_14 
REMARK    7  A    between atoms: N_20  and  C_19 
REMARK       I    between atoms: C_22  and  N_20 
ROOT
ATOM      1  C   LIG d   1      -2.721  81.968 114.718  0.00  0.00     0.161 C 
ATOM      2  C   LIG d   1      -2.098  82.089 113.465  0.00  0.00     0.016 C 
ATOM      3  C   LIG d   1      -0.821  82.667 113.284  0.00  0.00     0.038 C 
ATOM      4  C   LIG d   1      -0.010  83.029 114.370  0.00  0.00     0.028 C 
ATOM      5  C   LIG d   1      -0.801  83.390 115.623  0.00  0.00    -0.047 C 
ATOM      6  C   LIG d   1      -1.806  82.255 115.926  0.00  0.00     0.091 C 
ENDROOT
BRANCH   1   7
ATOM      7  O   LIG d   1      -3.319  80.662 114.842  0.00  0.00    -0.368 OA
BRANCH   7   8
ATOM      8  C   LIG d   1      -2.401  79.553 115.000  0.00  0.00     0.119 C 
BRANCH   8   9
ATOM      9  C   LIG d   1      -2.621  78.597 113.812  0.00  0.00     0.028 C 
ATOM     10  C   LIG d   1      -1.469  77.592 113.645  0.00  0.00     0.006 C 
ENDBRANCH   8   9
BRANCH   8  11
ATOM     11  C   LIG d   1      -2.730  78.730 116.249  0.00  0.00     0.028 C 
ATOM     12  C   LIG d   1      -4.139  79.012 116.794  0.00  0.00     0.006 C 
ENDBRANCH   8  11
ENDBRANCH   7   8
ENDBRANCH   1   7
BRANCH   6  13
ATOM     13  N   LIG d   1      -2.679  82.567 117.088  0.00  0.00    -0.311 N 
ATOM     14  C   LIG d   1      -2.540  81.997 118.284  0.00  0.00     0.210 C 
ATOM     15  C   LIG d   1      -3.558  82.446 119.337  0.00  0.00     0.109 C 
ATOM     16  O   LIG d   1      -1.650  81.186 118.581  0.00  0.00    -0.276 OA
ATOM     17  H   LIG d   1      -3.408  83.238 116.944  0.00  0.00     0.149 HD
ENDBRANCH   6  13
BRANCH   5  18
ATOM     18  N   LIG d   1       0.167  83.612 116.713  0.00  0.00     0.381 N 
ATOM     19  H   LIG d   1       0.738  84.406 116.502  0.00  0.00    -0.090 HD
ATOM     20  H   LIG d   1       0.762  82.806 116.788  0.00  0.00    -0.090 HD
ATOM     21  H   LIG d   1      -0.315  83.760 117.573  0.00  0.00    -0.090 HD
ENDBRANCH   5  18
BRANCH   3  22
ATOM     22  C   LIG d   1      -0.358  82.926 112.003  0.00  0.00     0.382 C 
ATOM     23  O   LIG d   1       0.833  82.671 111.703  0.00  0.00    -0.241 OA
ATOM     24  O   LIG d   1      -1.105  83.451 111.156  0.00  0.00    -0.241 OA
ENDBRANCH   3  22
TORSDOF 7
ENDMDL
MODEL 8
REMARK VINA RESULT:      -4.1      1.758      5.072
REMARK  7 active torsions:
REMARK  status: ('A' for Active; 'I' for Inactive)
REMARK    1  A    between atoms: C_2  and  C_3 
REMARK    2  A    between atoms: C_3  and  O_6 
REMARK    3  A    between atoms: C_3  and  C_4 
REMARK    4  A    between atoms: C_7  and  O_6 
REMARK    5  A    between atoms: C_9  and  C_10 
REMARK    6  A    between atoms: N_15  and  C_14 
REMARK    7  A    between atoms: N_20  and  C_19 
REMARK       I    between atoms: C_22  and  N_20 
ROOT
ATOM      1  C   LIG d   1      -2.262  80.840 115.129  0.00  0.00     0.161 C 
ATOM      2  C   LIG d   1      -1.746  82.063 114.668  0.00  0.00     0.016 C 
ATOM      3  C   LIG d   1      -1.000  82.193 113.474  0.00  0.00     0.038 C 
ATOM      4  C   LIG d   1      -0.846  81.126 112.576  0.00  0.00     0.028 C 
ATOM      5  C   LIG d   1      -0.918  79.757 113.244  0.00  0.00    -0.047 C 
ATOM      6  C   LIG d   1      -2.199  79.686 114.106  0.00  0.00     0.091 C 
ENDROOT
BRANCH   1   7
ATOM      7  O   LIG d   1      -3.613  81.024 115.595  0.00  0.00    -0.368 OA
BRANCH   7   8
ATOM      8  C   LIG d   1      -3.759  81.475 116.963  0.00  0.00     0.119 C 
BRANCH   8   9
ATOM      9  C   LIG d   1      -2.465  81.106 117.714  0.00  0.00     0.028 C 
ATOM     10  C   LIG d   1      -1.905  82.281 118.532  0.00  0.00     0.006 C 
ENDBRANCH   8   9
BRANCH   8  11
ATOM     11  C   LIG d   1      -4.877  80.716 117.684  0.00  0.00     0.028 C 
ATOM     12  C   LIG d   1      -4.885  79.214 117.355  0.00  0.00     0.006 C 
ENDBRANCH   8  11
ENDBRANCH   7   8
ENDBRANCH   1   7
BRANCH   6  13
ATOM     13  N   LIG d   1      -2.304  78.410 114.861  0.00  0.00    -0.311 N 
ATOM     14  C   LIG d   1      -3.143  77.430 114.531  0.00  0.00     0.210 C 
ATOM     15  C   LIG d   1      -3.106  76.208 115.454  0.00  0.00     0.109 C 
ATOM     16  O   LIG d   1      -3.892  77.442 113.542  0.00  0.00    -0.276 OA
ATOM     17  H   LIG d   1      -1.710  78.302 115.660  0.00  0.00     0.149 HD
ENDBRANCH   6  13
BRANCH   5  18
ATOM     18  N   LIG d   1      -0.882  78.739 112.178  0.00  0.00     0.381 N 
ATOM     19  H   LIG d   1      -1.435  79.041 111.401  0.00  0.00    -0.090 HD
ATOM     20  H   LIG d   1      -1.274  77.884 112.531  0.00  0.00    -0.090 HD
ATOM     21  H   LIG d   1       0.058  78.585 111.885  0.00  0.00    -0.090 HD
ENDBRANCH   5  18
BRANCH   3  22
ATOM     22  C   LIG d   1      -0.364  83.391 113.189  0.00  0.00     0.382 C 
ATOM     23  O   LIG d   1      -0.824  84.468 113.638  0.00  0.00    -0.241 OA
ATOM     24  O   LIG d   1       0.639  83.414 112.450  0.00  0.00    -0.241 OA
ENDBRANCH   3  22
TORSDOF 7
ENDMDL
MODEL 9
REMARK VINA RESULT:      -4.1      3.369      5.406
REMARK  7 active torsions:
REMARK  status: ('A' for Active; 'I' for Inactive)
REMARK    1  A    between atoms: C_2  and  C_3 
REMARK    2  A    between atoms: C_3  and  O_6 
REMARK    3  A    between atoms: C_3  and  C_4 
REMARK    4  A    between atoms: C_7  and  O_6 
REMARK    5  A    between atoms: C_9  and  C_10 
REMARK    6  A    between atoms: N_15  and  C_14 
REMARK    7  A    between atoms: N_20  and  C_19 
REMARK       I    between atoms: C_22  and  N_20 
ROOT
ATOM      1  C   LIG d   1      -2.723  79.199 116.724  0.00  0.00     0.161 C 
ATOM      2  C   LIG d   1      -2.707  77.999 115.993  0.00  0.00     0.016 C 
ATOM      3  C   LIG d   1      -3.836  77.160 115.851  0.00  0.00     0.038 C 
ATOM      4  C   LIG d   1      -5.106  77.542 116.307  0.00  0.00     0.028 C 
ATOM      5  C   LIG d   1      -5.061  78.507 117.487  0.00  0.00    -0.047 C 
ATOM      6  C   LIG d   1      -4.127  79.688 117.135  0.00  0.00     0.091 C 
ENDROOT
BRANCH   1   7
ATOM      7  O   LIG d   1      -2.029  80.227 115.990  0.00  0.00    -0.368 OA
BRANCH   7   8
ATOM      8  C   LIG d   1      -2.765  80.841 114.903  0.00  0.00     0.119 C 
BRANCH   8   9
ATOM      9  C   LIG d   1      -1.952  80.624 113.612  0.00  0.00     0.028 C 
ATOM     10  C   LIG d   1      -2.588  79.571 112.688  0.00  0.00     0.006 C 
ENDBRANCH   8   9
BRANCH   8  11
ATOM     11  C   LIG d   1      -2.852  82.360 115.077  0.00  0.00     0.028 C 
ATOM     12  C   LIG d   1      -1.881  82.894 116.142  0.00  0.00     0.006 C 
ENDBRANCH   8  11
ENDBRANCH   7   8
ENDBRANCH   1   7
BRANCH   6  13
ATOM     13  N   LIG d   1      -3.960  80.636 118.267  0.00  0.00    -0.311 N 
ATOM     14  C   LIG d   1      -4.660  81.763 118.389  0.00  0.00     0.210 C 
ATOM     15  C   LIG d   1      -4.317  82.606 119.621  0.00  0.00     0.109 C 
ATOM     16  O   LIG d   1      -5.554  82.128 117.610  0.00  0.00    -0.276 OA
ATOM     17  H   LIG d   1      -3.278  80.402 118.961  0.00  0.00     0.149 HD
ENDBRANCH   6  13
BRANCH   5  18
ATOM     18  N   LIG d   1      -6.446  78.930 117.770  0.00  0.00     0.381 N 
ATOM     19  H   LIG d   1      -7.026  78.743 116.977  0.00  0.00    -0.090 HD
ATOM     20  H   LIG d   1      -6.455  79.920 117.942  0.00  0.00    -0.090 HD
ATOM     21  H   LIG d   1      -6.794  78.444 118.567  0.00  0.00    -0.090 HD
ENDBRANCH   5  18
BRANCH   3  22
ATOM     22  C   LIG d   1      -3.691  75.904 115.281  0.00  0.00     0.382 C 
ATOM     23  O   LIG d   1      -2.684  75.206 115.549  0.00  0.00    -0.241 OA
ATOM     24  O   LIG d   1      -4.533  75.479 114.468  0.00  0.00    -0.241 OA
ENDBRANCH   3  22
TORSDOF 7
ENDMDL
