MODEL 1
REMARK VINA RESULT:      -5.8      0.000      0.000
REMARK  7 active torsions:
REMARK  status: ('A' for Active; 'I' for Inactive)
REMARK    1  A    between atoms: C_2  and  C_3 
REMARK    2  A    between atoms: C_3  and  O_6 
REMARK    3  A    between atoms: C_3  and  C_4 
REMARK    4  A    between atoms: C_7  and  O_6 
REMARK    5  A    between atoms: C_9  and  C_10 
REMARK    6  A    between atoms: N_15  and  C_14 
REMARK    7  A    between atoms: N_20  and  C_19 
REMARK       I    between atoms: C_22  and  N_20 
ROOT
ATOM      1  C   LIG d   1      -1.878  80.507 114.435  0.00  0.00     0.161 C 
ATOM      2  C   LIG d   1      -1.694  81.888 114.252  0.00  0.00     0.016 C 
ATOM      3  C   LIG d   1      -1.222  82.457 113.046  0.00  0.00     0.038 C 
ATOM      4  C   LIG d   1      -1.045  81.690 111.884  0.00  0.00     0.028 C 
ATOM      5  C   LIG d   1      -0.736  80.224 112.167  0.00  0.00    -0.047 C 
ATOM      6  C   LIG d   1      -1.797  79.667 113.144  0.00  0.00     0.091 C 
ENDROOT
BRANCH   1   7
ATOM      7  O   LIG d   1      -3.128  80.267 115.111  0.00  0.00    -0.368 OA
BRANCH   7   8
ATOM      8  C   LIG d   1      -3.043  80.003 116.533  0.00  0.00     0.119 C 
BRANCH   8   9
ATOM      9  C   LIG d   1      -4.067  78.899 116.861  0.00  0.00     0.028 C 
ATOM     10  C   LIG d   1      -3.419  77.508 116.958  0.00  0.00     0.006 C 
ENDBRANCH   8   9
BRANCH   8  11
ATOM     11  C   LIG d   1      -3.483  81.220 117.353  0.00  0.00     0.028 C 
ATOM     12  C   LIG d   1      -2.315  81.893 118.092  0.00  0.00     0.006 C 
ENDBRANCH   8  11
ENDBRANCH   7   8
ENDBRANCH   1   7
BRANCH   6  13
ATOM     13  N   LIG d   1      -1.520  78.261 113.539  0.00  0.00    -0.311 N 
ATOM     14  C   LIG d   1      -2.394  77.269 113.377  0.00  0.00     0.210 C 
ATOM     15  C   LIG d   1      -1.916  75.900 113.870  0.00  0.00     0.109 C 
ATOM     16  O   LIG d   1      -3.507  77.386 112.842  0.00  0.00    -0.276 OA
ATOM     17  H   LIG d   1      -0.629  78.070 113.952  0.00  0.00     0.149 HD
ENDBRANCH   6  13
BRANCH   5  18
ATOM     18  N   LIG d   1      -0.713  79.516 110.873  0.00  0.00     0.381 N 
ATOM     19  H   LIG d   1      -1.363  78.756 110.891  0.00  0.00    -0.090 HD
ATOM     20  H   LIG d   1       0.207  79.141 110.724  0.00  0.00    -0.090 HD
ATOM     21  H   LIG d   1      -0.947  80.145 110.136  0.00  0.00    -0.090 HD
ENDBRANCH   5  18
BRANCH   3  22
ATOM     22  C   LIG d   1      -0.884  83.801 113.006  0.00  0.00     0.382 C 
ATOM     23  O   LIG d   1      -1.161  84.487 111.994  0.00  0.00    -0.241 OA
ATOM     24  O   LIG d   1      -0.265  84.325 113.952  0.00  0.00    -0.241 OA
ENDBRANCH   3  22
TORSDOF 7
ENDMDL
MODEL 2
REMARK VINA RESULT:      -5.3      0.819      1.734
REMARK  7 active torsions:
REMARK  status: ('A' for Active; 'I' for Inactive)
REMARK    1  A    between atoms: C_2  and  C_3 
REMARK    2  A    between atoms: C_3  and  O_6 
REMARK    3  A    between atoms: C_3  and  C_4 
REMARK    4  A    between atoms: C_7  and  O_6 
REMARK    5  A    between atoms: C_9  and  C_10 
REMARK    6  A    between atoms: N_15  and  C_14 
REMARK    7  A    between atoms: N_20  and  C_19 
REMARK       I    between atoms: C_22  and  N_20 
ROOT
ATOM      1  C   LIG d   1      -1.038  80.326 115.172  0.00  0.00     0.161 C 
ATOM      2  C   LIG d   1      -0.893  81.708 114.966  0.00  0.00     0.016 C 
ATOM      3  C   LIG d   1      -1.064  82.328 113.706  0.00  0.00     0.038 C 
ATOM      4  C   LIG d   1      -1.542  81.624 112.592  0.00  0.00     0.028 C 
ATOM      5  C   LIG d   1      -1.216  80.135 112.631  0.00  0.00    -0.047 C 
ATOM      6  C   LIG d   1      -1.667  79.558 113.992  0.00  0.00     0.091 C 
ENDROOT
BRANCH   1   7
ATOM      7  O   LIG d   1      -1.786  80.088 116.381  0.00  0.00    -0.368 OA
BRANCH   7   8
ATOM      8  C   LIG d   1      -3.229  80.122 116.254  0.00  0.00     0.119 C 
BRANCH   8   9
ATOM      9  C   LIG d   1      -3.741  81.301 117.104  0.00  0.00     0.028 C 
ATOM     10  C   LIG d   1      -2.743  81.712 118.199  0.00  0.00     0.006 C 
ENDBRANCH   8   9
BRANCH   8  11
ATOM     11  C   LIG d   1      -3.872  78.873 116.864  0.00  0.00     0.028 C 
ATOM     12  C   LIG d   1      -2.843  77.921 117.493  0.00  0.00     0.006 C 
ENDBRANCH   8  11
ENDBRANCH   7   8
ENDBRANCH   1   7
BRANCH   6  13
ATOM     13  N   LIG d   1      -1.309  78.123 114.146  0.00  0.00    -0.311 N 
ATOM     14  C   LIG d   1      -2.084  77.125 113.727  0.00  0.00     0.210 C 
ATOM     15  C   LIG d   1      -1.536  75.721 114.003  0.00  0.00     0.109 C 
ATOM     16  O   LIG d   1      -3.159  77.269 113.124  0.00  0.00    -0.276 OA
ATOM     17  H   LIG d   1      -0.439  77.917 114.597  0.00  0.00     0.149 HD
ENDBRANCH   6  13
BRANCH   5  18
ATOM     18  N   LIG d   1      -1.889  79.501 111.482  0.00  0.00     0.381 N 
ATOM     19  H   LIG d   1      -2.484  78.763 111.802  0.00  0.00    -0.090 HD
ATOM     20  H   LIG d   1      -1.193  79.103 110.875  0.00  0.00    -0.090 HD
ATOM     21  H   LIG d   1      -2.426  80.177 110.985  0.00  0.00    -0.090 HD
ENDBRANCH   5  18
BRANCH   3  22
ATOM     22  C   LIG d   1      -0.717  83.661 113.544  0.00  0.00     0.382 C 
ATOM     23  O   LIG d   1      -1.084  84.284 112.519  0.00  0.00    -0.241 OA
ATOM     24  O   LIG d   1      -0.003  84.235 114.389  0.00  0.00    -0.241 OA
ENDBRANCH   3  22
TORSDOF 7
ENDMDL
MODEL 3
REMARK VINA RESULT:      -5.1      2.424      3.491
REMARK  7 active torsions:
REMARK  status: ('A' for Active; 'I' for Inactive)
REMARK    1  A    between atoms: C_2  and  C_3 
REMARK    2  A    between atoms: C_3  and  O_6 
REMARK    3  A    between atoms: C_3  and  C_4 
REMARK    4  A    between atoms: C_7  and  O_6 
REMARK    5  A    between atoms: C_9  and  C_10 
REMARK    6  A    between atoms: N_15  and  C_14 
REMARK    7  A    between atoms: N_20  and  C_19 
REMARK       I    between atoms: C_22  and  N_20 
ROOT
ATOM      1  C   LIG d   1      -1.749  79.145 115.837  0.00  0.00     0.161 C 
ATOM      2  C   LIG d   1      -2.059  80.070 114.826  0.00  0.00     0.016 C 
ATOM      3  C   LIG d   1      -2.343  79.699 113.492  0.00  0.00     0.038 C 
ATOM      4  C   LIG d   1      -2.485  78.356 113.110  0.00  0.00     0.028 C 
ATOM      5  C   LIG d   1      -1.685  77.392 113.980  0.00  0.00    -0.047 C 
ATOM      6  C   LIG d   1      -2.008  77.670 115.465  0.00  0.00     0.091 C 
ENDROOT
BRANCH   1   7
ATOM      7  O   LIG d   1      -2.454  79.488 117.047  0.00  0.00    -0.368 OA
BRANCH   7   8
ATOM      8  C   LIG d   1      -3.874  79.738 116.908  0.00  0.00     0.119 C 
BRANCH   8   9
ATOM      9  C   LIG d   1      -4.176  81.088 117.587  0.00  0.00     0.028 C 
ATOM     10  C   LIG d   1      -2.931  81.702 118.250  0.00  0.00     0.006 C 
ENDBRANCH   8   9
BRANCH   8  11
ATOM     11  C   LIG d   1      -4.700  78.703 117.678  0.00  0.00     0.028 C 
ATOM     12  C   LIG d   1      -6.189  79.072 117.762  0.00  0.00     0.006 C 
ENDBRANCH   8  11
ENDBRANCH   7   8
ENDBRANCH   1   7
BRANCH   6  13
ATOM     13  N   LIG d   1      -1.204  76.826 116.388  0.00  0.00    -0.311 N 
ATOM     14  C   LIG d   1      -1.544  75.585 116.731  0.00  0.00     0.210 C 
ATOM     15  C   LIG d   1      -0.586  74.899 117.709  0.00  0.00     0.109 C 
ATOM     16  O   LIG d   1      -2.531  74.976 116.292  0.00  0.00    -0.276 OA
ATOM     17  H   LIG d   1      -0.369  77.231 116.766  0.00  0.00     0.149 HD
ENDBRANCH   6  13
BRANCH   5  18
ATOM     18  N   LIG d   1      -2.032  76.021 113.560  0.00  0.00     0.381 N 
ATOM     19  H   LIG d   1      -1.206  75.457 113.529  0.00  0.00    -0.090 HD
ATOM     20  H   LIG d   1      -2.426  76.054 112.636  0.00  0.00    -0.090 HD
ATOM     21  H   LIG d   1      -2.689  75.626 114.195  0.00  0.00    -0.090 HD
ENDBRANCH   5  18
BRANCH   3  22
ATOM     22  C   LIG d   1      -2.449  80.676 112.514  0.00  0.00     0.382 C 
ATOM     23  O   LIG d   1      -1.506  80.861 111.708  0.00  0.00    -0.241 OA
ATOM     24  O   LIG d   1      -3.458  81.405 112.457  0.00  0.00    -0.241 OA
ENDBRANCH   3  22
TORSDOF 7
ENDMDL
MODEL 4
REMARK VINA RESULT:      -4.9      2.315      5.406
REMARK  7 active torsions:
REMARK  status: ('A' for Active; 'I' for Inactive)
REMARK    1  A    between atoms: C_2  and  C_3 
REMARK    2  A    between atoms: C_3  and  O_6 
REMARK    3  A    between atoms: C_3  and  C_4 
REMARK    4  A    between atoms: C_7  and  O_6 
REMARK    5  A    between atoms: C_9  and  C_10 
REMARK    6  A    between atoms: N_15  and  C_14 
REMARK    7  A    between atoms: N_20  and  C_19 
REMARK       I    between atoms: C_22  and  N_20 
ROOT
ATOM      1  C   LIG d   1      -2.412  78.685 114.954  0.00  0.00     0.161 C 
ATOM      2  C   LIG d   1      -3.092  78.497 116.168  0.00  0.00     0.016 C 
ATOM      3  C   LIG d   1      -3.529  79.563 116.988  0.00  0.00     0.038 C 
ATOM      4  C   LIG d   1      -3.447  80.900 116.572  0.00  0.00     0.028 C 
ATOM      5  C   LIG d   1      -2.315  81.159 115.584  0.00  0.00    -0.047 C 
ATOM      6  C   LIG d   1      -2.412  80.136 114.430  0.00  0.00     0.091 C 
ENDROOT
BRANCH   1   7
ATOM      7  O   LIG d   1      -2.941  77.791 113.954  0.00  0.00    -0.368 OA
BRANCH   7   8
ATOM      8  C   LIG d   1      -3.021  76.393 114.328  0.00  0.00     0.119 C 
BRANCH   8   9
ATOM      9  C   LIG d   1      -1.821  75.672 113.683  0.00  0.00     0.028 C 
ATOM     10  C   LIG d   1      -0.682  75.419 114.685  0.00  0.00     0.006 C 
ENDBRANCH   8   9
BRANCH   8  11
ATOM     11  C   LIG d   1      -4.264  75.727 113.729  0.00  0.00     0.028 C 
ATOM     12  C   LIG d   1      -5.340  75.418 114.782  0.00  0.00     0.006 C 
ENDBRANCH   8  11
ENDBRANCH   7   8
ENDBRANCH   1   7
BRANCH   6  13
ATOM     13  N   LIG d   1      -1.292  80.265 113.462  0.00  0.00    -0.311 N 
ATOM     14  C   LIG d   1      -1.342  81.042 112.381  0.00  0.00     0.210 C 
ATOM     15  C   LIG d   1      -0.086  81.014 111.505  0.00  0.00     0.109 C 
ATOM     16  O   LIG d   1      -2.296  81.776 112.081  0.00  0.00    -0.276 OA
ATOM     17  H   LIG d   1      -0.467  79.728 113.645  0.00  0.00     0.149 HD
ENDBRANCH   6  13
BRANCH   5  18
ATOM     18  N   LIG d   1      -2.431  82.557 115.129  0.00  0.00     0.381 N 
ATOM     19  H   LIG d   1      -3.387  82.848 115.170  0.00  0.00    -0.090 HD
ATOM     20  H   LIG d   1      -2.124  82.615 114.174  0.00  0.00    -0.090 HD
ATOM     21  H   LIG d   1      -1.871  83.150 115.702  0.00  0.00    -0.090 HD
ENDBRANCH   5  18
BRANCH   3  22
ATOM     22  C   LIG d   1      -4.019  79.297 118.258  0.00  0.00     0.382 C 
ATOM     23  O   LIG d   1      -5.068  78.624 118.397  0.00  0.00    -0.241 OA
ATOM     24  O   LIG d   1      -3.449  79.760 119.264  0.00  0.00    -0.241 OA
ENDBRANCH   3  22
TORSDOF 7
ENDMDL
MODEL 5
REMARK VINA RESULT:      -4.9      1.713      2.757
REMARK  7 active torsions:
REMARK  status: ('A' for Active; 'I' for Inactive)
REMARK    1  A    between atoms: C_2  and  C_3 
REMARK    2  A    between atoms: C_3  and  O_6 
REMARK    3  A    between atoms: C_3  and  C_4 
REMARK    4  A    between atoms: C_7  and  O_6 
REMARK    5  A    between atoms: C_9  and  C_10 
REMARK    6  A    between atoms: N_15  and  C_14 
REMARK    7  A    between atoms: N_20  and  C_19 
REMARK       I    between atoms: C_22  and  N_20 
ROOT
ATOM      1  C   LIG d   1      -2.374  80.995 115.504  0.00  0.00     0.161 C 
ATOM      2  C   LIG d   1      -2.133  81.970 114.522  0.00  0.00     0.016 C 
ATOM      3  C   LIG d   1      -1.727  81.662 113.203  0.00  0.00     0.038 C 
ATOM      4  C   LIG d   1      -1.681  80.341 112.731  0.00  0.00     0.028 C 
ATOM      5  C   LIG d   1      -1.427  79.314 113.829  0.00  0.00    -0.047 C 
ATOM      6  C   LIG d   1      -2.436  79.547 114.976  0.00  0.00     0.091 C 
ENDROOT
BRANCH   1   7
ATOM      7  O   LIG d   1      -3.578  81.317 116.227  0.00  0.00    -0.368 OA
BRANCH   7   8
ATOM      8  C   LIG d   1      -3.400  81.788 117.586  0.00  0.00     0.119 C 
BRANCH   8   9
ATOM      9  C   LIG d   1      -2.015  81.310 118.063  0.00  0.00     0.028 C 
ATOM     10  C   LIG d   1      -1.360  82.297 119.044  0.00  0.00     0.006 C 
ENDBRANCH   8   9
BRANCH   8  11
ATOM     11  C   LIG d   1      -4.406  81.134 118.538  0.00  0.00     0.028 C 
ATOM     12  C   LIG d   1      -5.076  82.145 119.482  0.00  0.00     0.006 C 
ENDBRANCH   8  11
ENDBRANCH   7   8
ENDBRANCH   1   7
BRANCH   6  13
ATOM     13  N   LIG d   1      -2.203  78.638 116.129  0.00  0.00    -0.311 N 
ATOM     14  C   LIG d   1      -3.180  77.992 116.763  0.00  0.00     0.210 C 
ATOM     15  C   LIG d   1      -2.724  77.121 117.938  0.00  0.00     0.109 C 
ATOM     16  O   LIG d   1      -4.378  78.032 116.443  0.00  0.00    -0.276 OA
ATOM     17  H   LIG d   1      -1.256  78.522 116.435  0.00  0.00     0.149 HD
ENDBRANCH   6  13
BRANCH   5  18
ATOM     18  N   LIG d   1      -1.540  77.975 113.221  0.00  0.00     0.381 N 
ATOM     19  H   LIG d   1      -1.065  77.961 112.341  0.00  0.00    -0.090 HD
ATOM     20  H   LIG d   1      -2.511  77.773 113.059  0.00  0.00    -0.090 HD
ATOM     21  H   LIG d   1      -1.148  77.290 113.829  0.00  0.00    -0.090 HD
ENDBRANCH   5  18
BRANCH   3  22
ATOM     22  C   LIG d   1      -1.324  82.680 112.352  0.00  0.00     0.382 C 
ATOM     23  O   LIG d   1      -1.139  83.836 112.802  0.00  0.00    -0.241 OA
ATOM     24  O   LIG d   1      -1.186  82.467 111.133  0.00  0.00    -0.241 OA
ENDBRANCH   3  22
TORSDOF 7
ENDMDL
MODEL 6
REMARK VINA RESULT:      -4.8      2.862      5.976
REMARK  7 active torsions:
REMARK  status: ('A' for Active; 'I' for Inactive)
REMARK    1  A    between atoms: C_2  and  C_3 
REMARK    2  A    between atoms: C_3  and  O_6 
REMARK    3  A    between atoms: C_3  and  C_4 
REMARK    4  A    between atoms: C_7  and  O_6 
REMARK    5  A    between atoms: C_9  and  C_10 
REMARK    6  A    between atoms: N_15  and  C_14 
REMARK    7  A    between atoms: N_20  and  C_19 
REMARK       I    between atoms: C_22  and  N_20 
ROOT
ATOM      1  C   LIG d   1      -2.103  79.019 115.348  0.00  0.00     0.161 C 
ATOM      2  C   LIG d   1      -1.861  77.915 114.513  0.00  0.00     0.016 C 
ATOM      3  C   LIG d   1      -1.778  76.585 114.985  0.00  0.00     0.038 C 
ATOM      4  C   LIG d   1      -2.083  76.249 116.313  0.00  0.00     0.028 C 
ATOM      5  C   LIG d   1      -1.838  77.388 117.297  0.00  0.00    -0.047 C 
ATOM      6  C   LIG d   1      -2.549  78.660 116.781  0.00  0.00     0.091 C 
ENDROOT
BRANCH   1   7
ATOM      7  O   LIG d   1      -3.063  79.898 114.730  0.00  0.00    -0.368 OA
BRANCH   7   8
ATOM      8  C   LIG d   1      -2.547  81.157 114.232  0.00  0.00     0.119 C 
BRANCH   8   9
ATOM      9  C   LIG d   1      -2.460  81.047 112.698  0.00  0.00     0.028 C 
ATOM     10  C   LIG d   1      -1.028  80.769 112.210  0.00  0.00     0.006 C 
ENDBRANCH   8   9
BRANCH   8  11
ATOM     11  C   LIG d   1      -1.109  81.395 114.704  0.00  0.00     0.028 C 
ATOM     12  C   LIG d   1      -0.984  82.602 115.647  0.00  0.00     0.006 C 
ENDBRANCH   8  11
ENDBRANCH   7   8
ENDBRANCH   1   7
BRANCH   6  13
ATOM     13  N   LIG d   1      -2.290  79.843 117.642  0.00  0.00    -0.311 N 
ATOM     14  C   LIG d   1      -3.248  80.666 118.065  0.00  0.00     0.210 C 
ATOM     15  C   LIG d   1      -2.762  81.835 118.927  0.00  0.00     0.109 C 
ATOM     16  O   LIG d   1      -4.458  80.520 117.834  0.00  0.00    -0.276 OA
ATOM     17  H   LIG d   1      -1.339  80.018 117.903  0.00  0.00     0.149 HD
ENDBRANCH   6  13
BRANCH   5  18
ATOM     18  N   LIG d   1      -2.327  76.948 118.618  0.00  0.00     0.381 N 
ATOM     19  H   LIG d   1      -2.573  75.979 118.582  0.00  0.00    -0.090 HD
ATOM     20  H   LIG d   1      -3.151  77.474 118.851  0.00  0.00    -0.090 HD
ATOM     21  H   LIG d   1      -1.624  77.095 119.308  0.00  0.00    -0.090 HD
ENDBRANCH   5  18
BRANCH   3  22
ATOM     22  C   LIG d   1      -1.346  75.579 114.134  0.00  0.00     0.382 C 
ATOM     23  O   LIG d   1      -1.918  75.403 113.031  0.00  0.00    -0.241 OA
ATOM     24  O   LIG d   1      -0.422  74.817 114.474  0.00  0.00    -0.241 OA
ENDBRANCH   3  22
TORSDOF 7
ENDMDL
MODEL 7
REMARK VINA RESULT:      -4.8      1.716      2.158
REMARK  7 active torsions:
REMARK  status: ('A' for Active; 'I' for Inactive)
REMARK    1  A    between atoms: C_2  and  C_3 
REMARK    2  A    between atoms: C_3  and  O_6 
REMARK    3  A    between atoms: C_3  and  C_4 
REMARK    4  A    between atoms: C_7  and  O_6 
REMARK    5  A    between atoms: C_9  and  C_10 
REMARK    6  A    between atoms: N_15  and  C_14 
REMARK    7  A    between atoms: N_20  and  C_19 
REMARK       I    between atoms: C_22  and  N_20 
ROOT
ATOM      1  C   LIG d   1      -1.446  79.507 115.565  0.00  0.00     0.161 C 
ATOM      2  C   LIG d   1      -1.434  80.906 115.689  0.00  0.00     0.016 C 
ATOM      3  C   LIG d   1      -1.564  81.786 114.590  0.00  0.00     0.038 C 
ATOM      4  C   LIG d   1      -1.869  81.322 113.301  0.00  0.00     0.028 C 
ATOM      5  C   LIG d   1      -1.390  79.898 113.041  0.00  0.00    -0.047 C 
ATOM      6  C   LIG d   1      -1.889  78.984 114.183  0.00  0.00     0.091 C 
ENDROOT
BRANCH   1   7
ATOM      7  O   LIG d   1      -2.263  78.932 116.604  0.00  0.00    -0.368 OA
BRANCH   7   8
ATOM      8  C   LIG d   1      -1.569  78.126 117.588  0.00  0.00     0.119 C 
BRANCH   8   9
ATOM      9  C   LIG d   1      -2.187  76.714 117.549  0.00  0.00     0.028 C 
ATOM     10  C   LIG d   1      -1.159  75.635 117.171  0.00  0.00     0.006 C 
ENDBRANCH   8   9
BRANCH   8  11
ATOM     11  C   LIG d   1      -1.823  78.640 119.008  0.00  0.00     0.028 C 
ATOM     12  C   LIG d   1      -3.317  78.698 119.363  0.00  0.00     0.006 C 
ENDBRANCH   8  11
ENDBRANCH   7   8
ENDBRANCH   1   7
BRANCH   6  13
ATOM     13  N   LIG d   1      -1.394  77.589 114.050  0.00  0.00    -0.311 N 
ATOM     14  C   LIG d   1      -2.120  76.599 113.535  0.00  0.00     0.210 C 
ATOM     15  C   LIG d   1      -1.427  75.233 113.508  0.00  0.00     0.109 C 
ATOM     16  O   LIG d   1      -3.262  76.728 113.067  0.00  0.00    -0.276 OA
ATOM     17  H   LIG d   1      -0.466  77.401 114.375  0.00  0.00     0.149 HD
ENDBRANCH   6  13
BRANCH   5  18
ATOM     18  N   LIG d   1      -1.893  79.494 111.714  0.00  0.00     0.381 N 
ATOM     19  H   LIG d   1      -2.419  78.647 111.795  0.00  0.00    -0.090 HD
ATOM     20  H   LIG d   1      -1.111  79.323 111.108  0.00  0.00    -0.090 HD
ATOM     21  H   LIG d   1      -2.467  80.214 111.334  0.00  0.00    -0.090 HD
ENDBRANCH   5  18
BRANCH   3  22
ATOM     22  C   LIG d   1      -1.349  83.144 114.767  0.00  0.00     0.382 C 
ATOM     23  O   LIG d   1      -0.243  83.553 115.197  0.00  0.00    -0.241 OA
ATOM     24  O   LIG d   1      -2.261  83.962 114.545  0.00  0.00    -0.241 OA
ENDBRANCH   3  22
TORSDOF 7
ENDMDL
MODEL 8
REMARK VINA RESULT:      -4.7      2.905      4.290
REMARK  7 active torsions:
REMARK  status: ('A' for Active; 'I' for Inactive)
REMARK    1  A    between atoms: C_2  and  C_3 
REMARK    2  A    between atoms: C_3  and  O_6 
REMARK    3  A    between atoms: C_3  and  C_4 
REMARK    4  A    between atoms: C_7  and  O_6 
REMARK    5  A    between atoms: C_9  and  C_10 
REMARK    6  A    between atoms: N_15  and  C_14 
REMARK    7  A    between atoms: N_20  and  C_19 
REMARK       I    between atoms: C_22  and  N_20 
ROOT
ATOM      1  C   LIG d   1      -1.187  79.027 115.879  0.00  0.00     0.161 C 
ATOM      2  C   LIG d   1      -1.727  79.594 114.713  0.00  0.00     0.016 C 
ATOM      3  C   LIG d   1      -2.242  78.829 113.642  0.00  0.00     0.038 C 
ATOM      4  C   LIG d   1      -2.391  77.437 113.729  0.00  0.00     0.028 C 
ATOM      5  C   LIG d   1      -1.396  76.780 114.680  0.00  0.00    -0.047 C 
ATOM      6  C   LIG d   1      -1.443  77.514 116.040  0.00  0.00     0.091 C 
ENDROOT
BRANCH   1   7
ATOM      7  O   LIG d   1      -1.664  79.742 117.036  0.00  0.00    -0.368 OA
BRANCH   7   8
ATOM      8  C   LIG d   1      -1.947  81.149 116.844  0.00  0.00     0.119 C 
BRANCH   8   9
ATOM      9  C   LIG d   1      -0.715  81.940 117.326  0.00  0.00     0.028 C 
ATOM     10  C   LIG d   1      -0.043  82.729 116.189  0.00  0.00     0.006 C 
ENDBRANCH   8   9
BRANCH   8  11
ATOM     11  C   LIG d   1      -3.101  81.613 117.738  0.00  0.00     0.028 C 
ATOM     12  C   LIG d   1      -2.665  81.866 119.190  0.00  0.00     0.006 C 
ENDBRANCH   8  11
ENDBRANCH   7   8
ENDBRANCH   1   7
BRANCH   6  13
ATOM     13  N   LIG d   1      -0.439  76.988 117.002  0.00  0.00    -0.311 N 
ATOM     14  C   LIG d   1      -0.694  76.004 117.863  0.00  0.00     0.210 C 
ATOM     15  C   LIG d   1       0.474  75.628 118.779  0.00  0.00     0.109 C 
ATOM     16  O   LIG d   1      -1.766  75.385 117.932  0.00  0.00    -0.276 OA
ATOM     17  H   LIG d   1       0.468  77.412 116.993  0.00  0.00     0.149 HD
ENDBRANCH   6  13
BRANCH   5  18
ATOM     18  N   LIG d   1      -1.753  75.352 114.781  0.00  0.00     0.381 N 
ATOM     19  H   LIG d   1      -2.475  75.231 115.463  0.00  0.00    -0.090 HD
ATOM     20  H   LIG d   1      -0.945  74.836 115.083  0.00  0.00    -0.090 HD
ATOM     21  H   LIG d   1      -2.061  75.014 113.896  0.00  0.00    -0.090 HD
ENDBRANCH   5  18
BRANCH   3  22
ATOM     22  C   LIG d   1      -2.578  79.454 112.450  0.00  0.00     0.382 C 
ATOM     23  O   LIG d   1      -3.417  80.386 112.446  0.00  0.00    -0.241 OA
ATOM     24  O   LIG d   1      -2.086  79.067 111.373  0.00  0.00    -0.241 OA
ENDBRANCH   3  22
TORSDOF 7
ENDMDL
MODEL 9
REMARK VINA RESULT:      -4.7      2.358      4.377
REMARK  7 active torsions:
REMARK  status: ('A' for Active; 'I' for Inactive)
REMARK    1  A    between atoms: C_2  and  C_3 
REMARK    2  A    between atoms: C_3  and  O_6 
REMARK    3  A    between atoms: C_3  and  C_4 
REMARK    4  A    between atoms: C_7  and  O_6 
REMARK    5  A    between atoms: C_9  and  C_10 
REMARK    6  A    between atoms: N_15  and  C_14 
REMARK    7  A    between atoms: N_20  and  C_19 
REMARK       I    between atoms: C_22  and  N_20 
ROOT
ATOM      1  C   LIG d   1      -2.286  78.860 114.155  0.00  0.00     0.161 C 
ATOM      2  C   LIG d   1      -1.704  79.421 113.006  0.00  0.00     0.016 C 
ATOM      3  C   LIG d   1      -1.363  80.789 112.896  0.00  0.00     0.038 C 
ATOM      4  C   LIG d   1      -1.442  81.663 113.991  0.00  0.00     0.028 C 
ATOM      5  C   LIG d   1      -2.495  81.256 115.016  0.00  0.00    -0.047 C 
ATOM      6  C   LIG d   1      -2.277  79.775 115.398  0.00  0.00     0.091 C 
ENDROOT
BRANCH   1   7
ATOM      7  O   LIG d   1      -1.654  77.600 114.456  0.00  0.00    -0.368 OA
BRANCH   7   8
ATOM      8  C   LIG d   1      -2.366  76.412 114.030  0.00  0.00     0.119 C 
BRANCH   8   9
ATOM      9  C   LIG d   1      -3.046  75.808 115.273  0.00  0.00     0.028 C 
ATOM     10  C   LIG d   1      -4.578  75.765 115.141  0.00  0.00     0.006 C 
ENDBRANCH   8   9
BRANCH   8  11
ATOM     11  C   LIG d   1      -1.400  75.332 113.531  0.00  0.00     0.028 C 
ATOM     12  C   LIG d   1      -0.246  75.068 114.511  0.00  0.00     0.006 C 
ENDBRANCH   8  11
ENDBRANCH   7   8
ENDBRANCH   1   7
BRANCH   6  13
ATOM     13  N   LIG d   1      -3.316  79.272 116.334  0.00  0.00    -0.311 N 
ATOM     14  C   LIG d   1      -3.165  79.256 117.657  0.00  0.00     0.210 C 
ATOM     15  C   LIG d   1      -4.350  78.678 118.436  0.00  0.00     0.109 C 
ATOM     16  O   LIG d   1      -2.175  79.696 118.261  0.00  0.00    -0.276 OA
ATOM     17  H   LIG d   1      -4.164  78.925 115.930  0.00  0.00     0.149 HD
ENDBRANCH   6  13
BRANCH   5  18
ATOM     18  N   LIG d   1      -2.375  82.173 116.166  0.00  0.00     0.381 N 
ATOM     19  H   LIG d   1      -1.872  82.994 115.893  0.00  0.00    -0.090 HD
ATOM     20  H   LIG d   1      -1.859  81.714 116.895  0.00  0.00    -0.090 HD
ATOM     21  H   LIG d   1      -3.280  82.425 116.497  0.00  0.00    -0.090 HD
ENDBRANCH   5  18
BRANCH   3  22
ATOM     22  C   LIG d   1      -0.974  81.304 111.669  0.00  0.00     0.382 C 
ATOM     23  O   LIG d   1      -0.282  80.607 110.888  0.00  0.00    -0.241 OA
ATOM     24  O   LIG d   1      -1.270  82.471 111.351  0.00  0.00    -0.241 OA
ENDBRANCH   3  22
TORSDOF 7
ENDMDL
