MODEL 1
REMARK VINA RESULT:      -4.8      0.000      0.000
REMARK  7 active torsions:
REMARK  status: ('A' for Active; 'I' for Inactive)
REMARK    1  A    between atoms: C_2  and  C_3 
REMARK    2  A    between atoms: C_3  and  O_6 
REMARK    3  A    between atoms: C_3  and  C_4 
REMARK    4  A    between atoms: C_7  and  O_6 
REMARK    5  A    between atoms: C_9  and  C_10 
REMARK    6  A    between atoms: N_15  and  C_14 
REMARK    7  A    between atoms: N_20  and  C_19 
REMARK       I    between atoms: C_22  and  N_20 
ROOT
ATOM      1  C   LIG d   1      -2.989  79.095 115.919  0.00  0.00     0.161 C 
ATOM      2  C   LIG d   1      -3.018  79.957 114.810  0.00  0.00     0.016 C 
ATOM      3  C   LIG d   1      -2.325  79.699 113.605  0.00  0.00     0.038 C 
ATOM      4  C   LIG d   1      -1.673  78.479 113.372  0.00  0.00     0.028 C 
ATOM      5  C   LIG d   1      -1.195  77.794 114.647  0.00  0.00    -0.047 C 
ATOM      6  C   LIG d   1      -2.375  77.707 115.642  0.00  0.00     0.091 C 
ENDROOT
BRANCH   1   7
ATOM      7  O   LIG d   1      -4.316  78.956 116.464  0.00  0.00    -0.368 OA
BRANCH   7   8
ATOM      8  C   LIG d   1      -4.735  79.987 117.392  0.00  0.00     0.119 C 
BRANCH   8   9
ATOM      9  C   LIG d   1      -4.049  79.702 118.742  0.00  0.00     0.028 C 
ATOM     10  C   LIG d   1      -3.361  80.948 119.325  0.00  0.00     0.006 C 
ENDBRANCH   8   9
BRANCH   8  11
ATOM     11  C   LIG d   1      -6.238  79.904 117.675  0.00  0.00     0.028 C 
ATOM     12  C   LIG d   1      -6.910  81.285 117.736  0.00  0.00     0.006 C 
ENDBRANCH   8  11
ENDBRANCH   7   8
ENDBRANCH   1   7
BRANCH   6  13
ATOM     13  N   LIG d   1      -1.972  77.125 116.949  0.00  0.00    -0.311 N 
ATOM     14  C   LIG d   1      -2.093  75.832 117.245  0.00  0.00     0.210 C 
ATOM     15  C   LIG d   1      -1.637  75.446 118.655  0.00  0.00     0.109 C 
ATOM     16  O   LIG d   1      -2.506  74.963 116.462  0.00  0.00    -0.276 OA
ATOM     17  H   LIG d   1      -1.597  77.754 117.633  0.00  0.00     0.149 HD
ENDBRANCH   6  13
BRANCH   5  18
ATOM     18  N   LIG d   1      -0.659  76.472 114.269  0.00  0.00     0.381 N 
ATOM     19  H   LIG d   1      -0.447  76.460 113.291  0.00  0.00    -0.090 HD
ATOM     20  H   LIG d   1      -1.359  75.774 114.449  0.00  0.00    -0.090 HD
ATOM     21  H   LIG d   1       0.162  76.274 114.797  0.00  0.00    -0.090 HD
ENDBRANCH   5  18
BRANCH   3  22
ATOM     22  C   LIG d   1      -2.246  80.685 112.633  0.00  0.00     0.382 C 
ATOM     23  O   LIG d   1      -2.973  81.704 112.714  0.00  0.00    -0.241 OA
ATOM     24  O   LIG d   1      -1.488  80.547 111.654  0.00  0.00    -0.241 OA
ENDBRANCH   3  22
TORSDOF 7
ENDMDL
MODEL 2
REMARK VINA RESULT:      -4.7      2.759      3.583
REMARK  7 active torsions:
REMARK  status: ('A' for Active; 'I' for Inactive)
REMARK    1  A    between atoms: C_2  and  C_3 
REMARK    2  A    between atoms: C_3  and  O_6 
REMARK    3  A    between atoms: C_3  and  C_4 
REMARK    4  A    between atoms: C_7  and  O_6 
REMARK    5  A    between atoms: C_9  and  C_10 
REMARK    6  A    between atoms: N_15  and  C_14 
REMARK    7  A    between atoms: N_20  and  C_19 
REMARK       I    between atoms: C_22  and  N_20 
ROOT
ATOM      1  C   LIG d   1      -2.985  77.169 114.775  0.00  0.00     0.161 C 
ATOM      2  C   LIG d   1      -3.070  78.112 113.737  0.00  0.00     0.016 C 
ATOM      3  C   LIG d   1      -2.102  79.120 113.520  0.00  0.00     0.038 C 
ATOM      4  C   LIG d   1      -0.899  79.159 114.240  0.00  0.00     0.028 C 
ATOM      5  C   LIG d   1      -1.002  78.536 115.628  0.00  0.00    -0.047 C 
ATOM      6  C   LIG d   1      -1.624  77.127 115.500  0.00  0.00     0.091 C 
ENDROOT
BRANCH   1   7
ATOM      7  O   LIG d   1      -3.327  75.861 114.275  0.00  0.00    -0.368 OA
BRANCH   7   8
ATOM      8  C   LIG d   1      -4.468  75.219 114.896  0.00  0.00     0.119 C 
BRANCH   8   9
ATOM      9  C   LIG d   1      -5.409  74.754 113.768  0.00  0.00     0.028 C 
ATOM     10  C   LIG d   1      -5.976  75.930 112.955  0.00  0.00     0.006 C 
ENDBRANCH   8   9
BRANCH   8  11
ATOM     11  C   LIG d   1      -5.287  76.217 115.721  0.00  0.00     0.028 C 
ATOM     12  C   LIG d   1      -5.502  75.755 117.171  0.00  0.00     0.006 C 
ENDBRANCH   8  11
ENDBRANCH   7   8
ENDBRANCH   1   7
BRANCH   6  13
ATOM     13  N   LIG d   1      -1.838  76.480 116.821  0.00  0.00    -0.311 N 
ATOM     14  C   LIG d   1      -1.578  75.196 117.060  0.00  0.00     0.210 C 
ATOM     15  C   LIG d   1      -1.890  74.727 118.484  0.00  0.00     0.109 C 
ATOM     16  O   LIG d   1      -1.088  74.409 116.236  0.00  0.00    -0.276 OA
ATOM     17  H   LIG d   1      -2.204  77.054 117.556  0.00  0.00     0.149 HD
ENDBRANCH   6  13
BRANCH   5  18
ATOM     18  N   LIG d   1       0.353  78.520 116.211  0.00  0.00     0.381 N 
ATOM     19  H   LIG d   1       0.996  78.964 115.587  0.00  0.00    -0.090 HD
ATOM     20  H   LIG d   1       0.642  77.566 116.336  0.00  0.00    -0.090 HD
ATOM     21  H   LIG d   1       0.352  78.992 117.089  0.00  0.00    -0.090 HD
ENDBRANCH   5  18
BRANCH   3  22
ATOM     22  C   LIG d   1      -2.353  80.127 112.601  0.00  0.00     0.382 C 
ATOM     23  O   LIG d   1      -1.605  80.265 111.603  0.00  0.00    -0.241 OA
ATOM     24  O   LIG d   1      -3.291  80.927 112.781  0.00  0.00    -0.241 OA
ENDBRANCH   3  22
TORSDOF 7
ENDMDL
MODEL 3
REMARK VINA RESULT:      -4.7      2.773      3.409
REMARK  7 active torsions:
REMARK  status: ('A' for Active; 'I' for Inactive)
REMARK    1  A    between atoms: C_2  and  C_3 
REMARK    2  A    between atoms: C_3  and  O_6 
REMARK    3  A    between atoms: C_3  and  C_4 
REMARK    4  A    between atoms: C_7  and  O_6 
REMARK    5  A    between atoms: C_9  and  C_10 
REMARK    6  A    between atoms: N_15  and  C_14 
REMARK    7  A    between atoms: N_20  and  C_19 
REMARK       I    between atoms: C_22  and  N_20 
ROOT
ATOM      1  C   LIG d   1      -2.508  78.230 114.889  0.00  0.00     0.161 C 
ATOM      2  C   LIG d   1      -2.713  79.072 113.784  0.00  0.00     0.016 C 
ATOM      3  C   LIG d   1      -1.793  80.068 113.383  0.00  0.00     0.038 C 
ATOM      4  C   LIG d   1      -0.526  80.189 113.975  0.00  0.00     0.028 C 
ATOM      5  C   LIG d   1      -0.482  79.695 115.417  0.00  0.00    -0.047 C 
ATOM      6  C   LIG d   1      -1.082  78.272 115.479  0.00  0.00     0.091 C 
ENDROOT
BRANCH   1   7
ATOM      7  O   LIG d   1      -2.868  76.877 114.546  0.00  0.00    -0.368 OA
BRANCH   7   8
ATOM      8  C   LIG d   1      -4.115  76.390 115.100  0.00  0.00     0.119 C 
BRANCH   8   9
ATOM      9  C   LIG d   1      -3.765  75.400 116.228  0.00  0.00     0.028 C 
ATOM     10  C   LIG d   1      -4.123  75.946 117.620  0.00  0.00     0.006 C 
ENDBRANCH   8   9
BRANCH   8  11
ATOM     11  C   LIG d   1      -4.899  75.570 114.071  0.00  0.00     0.028 C 
ATOM     12  C   LIG d   1      -5.979  74.685 114.712  0.00  0.00     0.006 C 
ENDBRANCH   8  11
ENDBRANCH   7   8
ENDBRANCH   1   7
BRANCH   6  13
ATOM     13  N   LIG d   1      -1.154  77.747 116.867  0.00  0.00    -0.311 N 
ATOM     14  C   LIG d   1      -0.216  76.970 117.407  0.00  0.00     0.210 C 
ATOM     15  C   LIG d   1      -0.496  76.523 118.845  0.00  0.00     0.109 C 
ATOM     16  O   LIG d   1       0.836  76.635 116.842  0.00  0.00    -0.276 OA
ATOM     17  H   LIG d   1      -1.959  77.995 117.408  0.00  0.00     0.149 HD
ENDBRANCH   6  13
BRANCH   5  18
ATOM     18  N   LIG d   1       0.923  79.750 115.863  0.00  0.00     0.381 N 
ATOM     19  H   LIG d   1       1.533  79.678 115.073  0.00  0.00    -0.090 HD
ATOM     20  H   LIG d   1       1.102  78.969 116.471  0.00  0.00    -0.090 HD
ATOM     21  H   LIG d   1       1.094  80.603 116.348  0.00  0.00    -0.090 HD
ENDBRANCH   5  18
BRANCH   3  22
ATOM     22  C   LIG d   1      -2.153  80.984 112.406  0.00  0.00     0.382 C 
ATOM     23  O   LIG d   1      -1.327  81.315 111.522  0.00  0.00    -0.241 OA
ATOM     24  O   LIG d   1      -3.279  81.516 112.423  0.00  0.00    -0.241 OA
ENDBRANCH   3  22
TORSDOF 7
ENDMDL
MODEL 4
REMARK VINA RESULT:      -4.6      2.644      3.517
REMARK  7 active torsions:
REMARK  status: ('A' for Active; 'I' for Inactive)
REMARK    1  A    between atoms: C_2  and  C_3 
REMARK    2  A    between atoms: C_3  and  O_6 
REMARK    3  A    between atoms: C_3  and  C_4 
REMARK    4  A    between atoms: C_7  and  O_6 
REMARK    5  A    between atoms: C_9  and  C_10 
REMARK    6  A    between atoms: N_15  and  C_14 
REMARK    7  A    between atoms: N_20  and  C_19 
REMARK       I    between atoms: C_22  and  N_20 
ROOT
ATOM      1  C   LIG d   1      -3.445  78.648 116.676  0.00  0.00     0.161 C 
ATOM      2  C   LIG d   1      -2.516  79.570 117.186  0.00  0.00     0.016 C 
ATOM      3  C   LIG d   1      -1.192  79.688 116.705  0.00  0.00     0.038 C 
ATOM      4  C   LIG d   1      -0.751  78.990 115.570  0.00  0.00     0.028 C 
ATOM      5  C   LIG d   1      -1.496  77.681 115.337  0.00  0.00    -0.047 C 
ATOM      6  C   LIG d   1      -3.017  77.956 115.365  0.00  0.00     0.091 C 
ENDROOT
BRANCH   1   7
ATOM      7  O   LIG d   1      -4.727  79.286 116.510  0.00  0.00    -0.368 OA
BRANCH   7   8
ATOM      8  C   LIG d   1      -5.616  79.237 117.653  0.00  0.00     0.119 C 
BRANCH   8   9
ATOM      9  C   LIG d   1      -6.622  78.095 117.407  0.00  0.00     0.028 C 
ATOM     10  C   LIG d   1      -8.009  78.398 117.999  0.00  0.00     0.006 C 
ENDBRANCH   8   9
BRANCH   8  11
ATOM     11  C   LIG d   1      -6.464  80.509 117.755  0.00  0.00     0.028 C 
ATOM     12  C   LIG d   1      -6.063  81.398 118.942  0.00  0.00     0.006 C 
ENDBRANCH   8  11
ENDBRANCH   7   8
ENDBRANCH   1   7
BRANCH   6  13
ATOM     13  N   LIG d   1      -3.821  76.714 115.228  0.00  0.00    -0.311 N 
ATOM     14  C   LIG d   1      -4.299  76.274 114.065  0.00  0.00     0.210 C 
ATOM     15  C   LIG d   1      -5.119  74.983 114.150  0.00  0.00     0.109 C 
ATOM     16  O   LIG d   1      -4.095  76.814 112.967  0.00  0.00    -0.276 OA
ATOM     17  H   LIG d   1      -4.008  76.197 116.065  0.00  0.00     0.149 HD
ENDBRANCH   6  13
BRANCH   5  18
ATOM     18  N   LIG d   1      -1.033  77.128 114.050  0.00  0.00     0.381 N 
ATOM     19  H   LIG d   1      -1.377  76.195 113.938  0.00  0.00    -0.090 HD
ATOM     20  H   LIG d   1      -0.028  77.094 114.053  0.00  0.00    -0.090 HD
ATOM     21  H   LIG d   1      -1.351  77.699 113.299  0.00  0.00    -0.090 HD
ENDBRANCH   5  18
BRANCH   3  22
ATOM     22  C   LIG d   1      -0.282  80.482 117.385  0.00  0.00     0.382 C 
ATOM     23  O   LIG d   1       0.299  81.421 116.790  0.00  0.00    -0.241 OA
ATOM     24  O   LIG d   1       0.000  80.242 118.575  0.00  0.00    -0.241 OA
ENDBRANCH   3  22
TORSDOF 7
ENDMDL
MODEL 5
REMARK VINA RESULT:      -4.3      2.886      5.783
REMARK  7 active torsions:
REMARK  status: ('A' for Active; 'I' for Inactive)
REMARK    1  A    between atoms: C_2  and  C_3 
REMARK    2  A    between atoms: C_3  and  O_6 
REMARK    3  A    between atoms: C_3  and  C_4 
REMARK    4  A    between atoms: C_7  and  O_6 
REMARK    5  A    between atoms: C_9  and  C_10 
REMARK    6  A    between atoms: N_15  and  C_14 
REMARK    7  A    between atoms: N_20  and  C_19 
REMARK       I    between atoms: C_22  and  N_20 
ROOT
ATOM      1  C   LIG d   1      -1.004  76.405 115.235  0.00  0.00     0.161 C 
ATOM      2  C   LIG d   1      -0.613  75.798 116.440  0.00  0.00     0.016 C 
ATOM      3  C   LIG d   1      -0.262  76.525 117.601  0.00  0.00     0.038 C 
ATOM      4  C   LIG d   1      -0.426  77.916 117.681  0.00  0.00     0.028 C 
ATOM      5  C   LIG d   1      -0.337  78.616 116.329  0.00  0.00    -0.047 C 
ATOM      6  C   LIG d   1      -1.296  77.917 115.338  0.00  0.00     0.091 C 
ENDROOT
BRANCH   1   7
ATOM      7  O   LIG d   1      -2.142  75.712 114.686  0.00  0.00    -0.368 OA
BRANCH   7   8
ATOM      8  C   LIG d   1      -3.444  76.209 115.083  0.00  0.00     0.119 C 
BRANCH   8   9
ATOM      9  C   LIG d   1      -3.972  75.284 116.197  0.00  0.00     0.028 C 
ATOM     10  C   LIG d   1      -4.112  76.010 117.545  0.00  0.00     0.006 C 
ENDBRANCH   8   9
BRANCH   8  11
ATOM     11  C   LIG d   1      -4.458  76.089 113.941  0.00  0.00     0.028 C 
ATOM     12  C   LIG d   1      -5.509  74.996 114.190  0.00  0.00     0.006 C 
ENDBRANCH   8  11
ENDBRANCH   7   8
ENDBRANCH   1   7
BRANCH   6  13
ATOM     13  N   LIG d   1      -1.208  78.486 113.968  0.00  0.00    -0.311 N 
ATOM     14  C   LIG d   1      -2.059  79.397 113.497  0.00  0.00     0.210 C 
ATOM     15  C   LIG d   1      -1.801  79.835 112.052  0.00  0.00     0.109 C 
ATOM     16  O   LIG d   1      -2.982  79.907 114.150  0.00  0.00    -0.276 OA
ATOM     17  H   LIG d   1      -0.470  78.151 113.381  0.00  0.00     0.149 HD
ENDBRANCH   6  13
BRANCH   5  18
ATOM     18  N   LIG d   1      -0.662  80.039 116.542  0.00  0.00     0.381 N 
ATOM     19  H   LIG d   1      -1.047  80.427 115.704  0.00  0.00    -0.090 HD
ATOM     20  H   LIG d   1       0.184  80.536 116.760  0.00  0.00    -0.090 HD
ATOM     21  H   LIG d   1      -1.314  80.132 117.289  0.00  0.00    -0.090 HD
ENDBRANCH   5  18
BRANCH   3  22
ATOM     22  C   LIG d   1       0.296  75.864 118.684  0.00  0.00     0.382 C 
ATOM     23  O   LIG d   1       1.372  76.274 119.182  0.00  0.00    -0.241 OA
ATOM     24  O   LIG d   1      -0.238  74.836 119.141  0.00  0.00    -0.241 OA
ENDBRANCH   3  22
TORSDOF 7
ENDMDL
MODEL 6
REMARK VINA RESULT:      -4.2      2.570      4.023
REMARK  7 active torsions:
REMARK  status: ('A' for Active; 'I' for Inactive)
REMARK    1  A    between atoms: C_2  and  C_3 
REMARK    2  A    between atoms: C_3  and  O_6 
REMARK    3  A    between atoms: C_3  and  C_4 
REMARK    4  A    between atoms: C_7  and  O_6 
REMARK    5  A    between atoms: C_9  and  C_10 
REMARK    6  A    between atoms: N_15  and  C_14 
REMARK    7  A    between atoms: N_20  and  C_19 
REMARK       I    between atoms: C_22  and  N_20 
ROOT
ATOM      1  C   LIG d   1      -2.531  78.705 116.261  0.00  0.00     0.161 C 
ATOM      2  C   LIG d   1      -2.982  79.186 115.021  0.00  0.00     0.016 C 
ATOM      3  C   LIG d   1      -2.143  79.837 114.087  0.00  0.00     0.038 C 
ATOM      4  C   LIG d   1      -0.755  79.917 114.268  0.00  0.00     0.028 C 
ATOM      5  C   LIG d   1      -0.332  79.894 115.733  0.00  0.00    -0.047 C 
ATOM      6  C   LIG d   1      -0.998  78.685 116.428  0.00  0.00     0.091 C 
ENDROOT
BRANCH   1   7
ATOM      7  O   LIG d   1      -3.080  77.395 116.506  0.00  0.00    -0.368 OA
BRANCH   7   8
ATOM      8  C   LIG d   1      -2.864  76.409 115.466  0.00  0.00     0.119 C 
BRANCH   8   9
ATOM      9  C   LIG d   1      -4.172  75.610 115.306  0.00  0.00     0.028 C 
ATOM     10  C   LIG d   1      -4.767  75.735 113.894  0.00  0.00     0.006 C 
ENDBRANCH   8   9
BRANCH   8  11
ATOM     11  C   LIG d   1      -1.809  75.381 115.884  0.00  0.00     0.028 C 
ATOM     12  C   LIG d   1      -0.570  75.394 114.974  0.00  0.00     0.006 C 
ENDBRANCH   8  11
ENDBRANCH   7   8
ENDBRANCH   1   7
BRANCH   6  13
ATOM     13  N   LIG d   1      -0.704  78.636 117.884  0.00  0.00    -0.311 N 
ATOM     14  C   LIG d   1       0.323  77.966 118.403  0.00  0.00     0.210 C 
ATOM     15  C   LIG d   1       0.432  78.030 119.930  0.00  0.00     0.109 C 
ATOM     16  O   LIG d   1       1.173  77.351 117.742  0.00  0.00    -0.276 OA
ATOM     17  H   LIG d   1      -1.326  79.133 118.492  0.00  0.00     0.149 HD
ENDBRANCH   6  13
BRANCH   5  18
ATOM     18  N   LIG d   1       1.141  79.845 115.771  0.00  0.00     0.381 N 
ATOM     19  H   LIG d   1       1.505  80.746 116.010  0.00  0.00    -0.090 HD
ATOM     20  H   LIG d   1       1.482  79.599 114.859  0.00  0.00    -0.090 HD
ATOM     21  H   LIG d   1       1.443  79.170 116.439  0.00  0.00    -0.090 HD
ENDBRANCH   5  18
BRANCH   3  22
ATOM     22  C   LIG d   1      -2.699  80.452 112.976  0.00  0.00     0.382 C 
ATOM     23  O   LIG d   1      -2.563  81.688 112.809  0.00  0.00    -0.241 OA
ATOM     24  O   LIG d   1      -3.373  79.794 112.160  0.00  0.00    -0.241 OA
ENDBRANCH   3  22
TORSDOF 7
ENDMDL
MODEL 7
REMARK VINA RESULT:      -4.1      2.646      4.586
REMARK  7 active torsions:
REMARK  status: ('A' for Active; 'I' for Inactive)
REMARK    1  A    between atoms: C_2  and  C_3 
REMARK    2  A    between atoms: C_3  and  O_6 
REMARK    3  A    between atoms: C_3  and  C_4 
REMARK    4  A    between atoms: C_7  and  O_6 
REMARK    5  A    between atoms: C_9  and  C_10 
REMARK    6  A    between atoms: N_15  and  C_14 
REMARK    7  A    between atoms: N_20  and  C_19 
REMARK       I    between atoms: C_22  and  N_20 
ROOT
ATOM      1  C   LIG d   1      -2.166  76.091 115.616  0.00  0.00     0.161 C 
ATOM      2  C   LIG d   1      -3.217  76.190 114.689  0.00  0.00     0.016 C 
ATOM      3  C   LIG d   1      -4.526  75.722 114.945  0.00  0.00     0.038 C 
ATOM      4  C   LIG d   1      -4.914  75.257 116.210  0.00  0.00     0.028 C 
ATOM      5  C   LIG d   1      -3.761  74.671 117.019  0.00  0.00    -0.047 C 
ATOM      6  C   LIG d   1      -2.597  75.687 117.042  0.00  0.00     0.091 C 
ENDROOT
BRANCH   1   7
ATOM      7  O   LIG d   1      -1.424  77.326 115.647  0.00  0.00    -0.368 OA
BRANCH   7   8
ATOM      8  C   LIG d   1      -2.140  78.510 115.219  0.00  0.00     0.119 C 
BRANCH   8   9
ATOM      9  C   LIG d   1      -1.185  79.332 114.331  0.00  0.00     0.028 C 
ATOM     10  C   LIG d   1      -1.662  79.410 112.871  0.00  0.00     0.006 C 
ENDBRANCH   8   9
BRANCH   8  11
ATOM     11  C   LIG d   1      -2.475  79.419 116.405  0.00  0.00     0.028 C 
ATOM     12  C   LIG d   1      -3.949  79.327 116.829  0.00  0.00     0.006 C 
ENDBRANCH   8  11
ENDBRANCH   7   8
ENDBRANCH   1   7
BRANCH   6  13
ATOM     13  N   LIG d   1      -1.397  75.159 117.742  0.00  0.00    -0.311 N 
ATOM     14  C   LIG d   1      -1.158  75.356 119.037  0.00  0.00     0.210 C 
ATOM     15  C   LIG d   1       0.147  74.742 119.554  0.00  0.00     0.109 C 
ATOM     16  O   LIG d   1      -1.918  75.953 119.814  0.00  0.00    -0.276 OA
ATOM     17  H   LIG d   1      -0.742  74.636 117.193  0.00  0.00     0.149 HD
ENDBRANCH   6  13
BRANCH   5  18
ATOM     18  N   LIG d   1      -4.277  74.353 118.364  0.00  0.00     0.381 N 
ATOM     19  H   LIG d   1      -4.944  73.610 118.303  0.00  0.00    -0.090 HD
ATOM     20  H   LIG d   1      -4.741  75.163 118.734  0.00  0.00    -0.090 HD
ATOM     21  H   LIG d   1      -3.527  74.087 118.963  0.00  0.00    -0.090 HD
ENDBRANCH   5  18
BRANCH   3  22
ATOM     22  C   LIG d   1      -5.454  75.680 113.915  0.00  0.00     0.382 C 
ATOM     23  O   LIG d   1      -6.471  76.414 113.957  0.00  0.00    -0.241 OA
ATOM     24  O   LIG d   1      -5.310  74.885 112.967  0.00  0.00    -0.241 OA
ENDBRANCH   3  22
TORSDOF 7
ENDMDL
MODEL 8
REMARK VINA RESULT:      -4.1      3.036      5.033
REMARK  7 active torsions:
REMARK  status: ('A' for Active; 'I' for Inactive)
REMARK    1  A    between atoms: C_2  and  C_3 
REMARK    2  A    between atoms: C_3  and  O_6 
REMARK    3  A    between atoms: C_3  and  C_4 
REMARK    4  A    between atoms: C_7  and  O_6 
REMARK    5  A    between atoms: C_9  and  C_10 
REMARK    6  A    between atoms: N_15  and  C_14 
REMARK    7  A    between atoms: N_20  and  C_19 
REMARK       I    between atoms: C_22  and  N_20 
ROOT
ATOM      1  C   LIG d   1      -4.249  76.724 117.105  0.00  0.00     0.161 C 
ATOM      2  C   LIG d   1      -5.229  77.600 117.600  0.00  0.00     0.016 C 
ATOM      3  C   LIG d   1      -5.195  78.999 117.401  0.00  0.00     0.038 C 
ATOM      4  C   LIG d   1      -4.252  79.605 116.557  0.00  0.00     0.028 C 
ATOM      5  C   LIG d   1      -2.948  78.822 116.445  0.00  0.00    -0.047 C 
ATOM      6  C   LIG d   1      -3.274  77.354 116.089  0.00  0.00     0.091 C 
ENDROOT
BRANCH   1   7
ATOM      7  O   LIG d   1      -4.878  75.557 116.539  0.00  0.00    -0.368 OA
BRANCH   7   8
ATOM      8  C   LIG d   1      -6.252  75.720 116.107  0.00  0.00     0.119 C 
BRANCH   8   9
ATOM      9  C   LIG d   1      -7.034  74.477 116.575  0.00  0.00     0.028 C 
ATOM     10  C   LIG d   1      -6.824  74.180 118.069  0.00  0.00     0.006 C 
ENDBRANCH   8   9
BRANCH   8  11
ATOM     11  C   LIG d   1      -6.360  75.715 114.579  0.00  0.00     0.028 C 
ATOM     12  C   LIG d   1      -5.218  74.938 113.903  0.00  0.00     0.006 C 
ENDBRANCH   8  11
ENDBRANCH   7   8
ENDBRANCH   1   7
BRANCH   6  13
ATOM     13  N   LIG d   1      -2.059  76.499 116.043  0.00  0.00    -0.311 N 
ATOM     14  C   LIG d   1      -1.343  76.300 114.937  0.00  0.00     0.210 C 
ATOM     15  C   LIG d   1      -0.140  75.368 115.104  0.00  0.00     0.109 C 
ATOM     16  O   LIG d   1      -1.573  76.834 113.841  0.00  0.00    -0.276 OA
ATOM     17  H   LIG d   1      -1.782  76.053 116.895  0.00  0.00     0.149 HD
ENDBRANCH   6  13
BRANCH   5  18
ATOM     18  N   LIG d   1      -2.112  79.492 115.432  0.00  0.00     0.381 N 
ATOM     19  H   LIG d   1      -2.077  80.474 115.617  0.00  0.00    -0.090 HD
ATOM     20  H   LIG d   1      -2.527  79.356 114.527  0.00  0.00    -0.090 HD
ATOM     21  H   LIG d   1      -1.191  79.111 115.444  0.00  0.00    -0.090 HD
ENDBRANCH   5  18
BRANCH   3  22
ATOM     22  C   LIG d   1      -6.089  79.813 118.081  0.00  0.00     0.382 C 
ATOM     23  O   LIG d   1      -6.678  80.741 117.476  0.00  0.00    -0.241 OA
ATOM     24  O   LIG d   1      -6.279  79.658 119.302  0.00  0.00    -0.241 OA
ENDBRANCH   3  22
TORSDOF 7
ENDMDL
MODEL 9
REMARK VINA RESULT:      -3.9      2.039      2.735
REMARK  7 active torsions:
REMARK  status: ('A' for Active; 'I' for Inactive)
REMARK    1  A    between atoms: C_2  and  C_3 
REMARK    2  A    between atoms: C_3  and  O_6 
REMARK    3  A    between atoms: C_3  and  C_4 
REMARK    4  A    between atoms: C_7  and  O_6 
REMARK    5  A    between atoms: C_9  and  C_10 
REMARK    6  A    between atoms: N_15  and  C_14 
REMARK    7  A    between atoms: N_20  and  C_19 
REMARK       I    between atoms: C_22  and  N_20 
ROOT
ATOM      1  C   LIG d   1      -0.809  78.710 115.499  0.00  0.00     0.161 C 
ATOM      2  C   LIG d   1      -1.051  79.760 114.597  0.00  0.00     0.016 C 
ATOM      3  C   LIG d   1      -2.091  79.740 113.639  0.00  0.00     0.038 C 
ATOM      4  C   LIG d   1      -3.060  78.726 113.619  0.00  0.00     0.028 C 
ATOM      5  C   LIG d   1      -2.560  77.398 114.178  0.00  0.00    -0.047 C 
ATOM      6  C   LIG d   1      -1.924  77.646 115.566  0.00  0.00     0.091 C 
ENDROOT
BRANCH   1   7
ATOM      7  O   LIG d   1      -0.547  79.244 116.812  0.00  0.00    -0.368 OA
BRANCH   7   8
ATOM      8  C   LIG d   1      -1.511  80.202 117.314  0.00  0.00     0.119 C 
BRANCH   8   9
ATOM      9  C   LIG d   1      -0.727  81.302 118.056  0.00  0.00     0.028 C 
ATOM     10  C   LIG d   1       0.663  81.546 117.445  0.00  0.00     0.006 C 
ENDBRANCH   8   9
BRANCH   8  11
ATOM     11  C   LIG d   1      -2.424  79.572 118.370  0.00  0.00     0.028 C 
ATOM     12  C   LIG d   1      -1.691  78.558 119.263  0.00  0.00     0.006 C 
ENDBRANCH   8  11
ENDBRANCH   7   8
ENDBRANCH   1   7
BRANCH   6  13
ATOM     13  N   LIG d   1      -1.334  76.412 116.147  0.00  0.00    -0.311 N 
ATOM     14  C   LIG d   1      -1.984  75.617 116.995  0.00  0.00     0.210 C 
ATOM     15  C   LIG d   1      -1.185  74.408 117.490  0.00  0.00     0.109 C 
ATOM     16  O   LIG d   1      -3.159  75.781 117.358  0.00  0.00    -0.276 OA
ATOM     17  H   LIG d   1      -0.395  76.187 115.881  0.00  0.00     0.149 HD
ENDBRANCH   6  13
BRANCH   5  18
ATOM     18  N   LIG d   1      -3.708  76.473 114.225  0.00  0.00     0.381 N 
ATOM     19  H   LIG d   1      -4.005  76.255 113.295  0.00  0.00    -0.090 HD
ATOM     20  H   LIG d   1      -4.469  76.923 114.703  0.00  0.00    -0.090 HD
ATOM     21  H   LIG d   1      -3.453  75.637 114.704  0.00  0.00    -0.090 HD
ENDBRANCH   5  18
BRANCH   3  22
ATOM     22  C   LIG d   1      -2.145  80.722 112.662  0.00  0.00     0.382 C 
ATOM     23  O   LIG d   1      -1.365  80.672 111.680  0.00  0.00    -0.241 OA
ATOM     24  O   LIG d   1      -2.932  81.680 112.773  0.00  0.00    -0.241 OA
ENDBRANCH   3  22
TORSDOF 7
ENDMDL
