MODEL 1
REMARK VINA RESULT:      -5.3      0.000      0.000
REMARK  7 active torsions:
REMARK  status: ('A' for Active; 'I' for Inactive)
REMARK    1  A    between atoms: C_2  and  C_3 
REMARK    2  A    between atoms: C_3  and  O_6 
REMARK    3  A    between atoms: C_3  and  C_4 
REMARK    4  A    between atoms: C_7  and  O_6 
REMARK    5  A    between atoms: C_9  and  C_10 
REMARK    6  A    between atoms: N_15  and  C_14 
REMARK    7  A    between atoms: N_20  and  C_19 
REMARK       I    between atoms: C_22  and  N_20 
ROOT
ATOM      1  C   LIG d   1      -2.446  78.016 114.520  0.00  0.00     0.161 C 
ATOM      2  C   LIG d   1      -2.795  79.017 113.597  0.00  0.00     0.016 C 
ATOM      3  C   LIG d   1      -1.970  80.128 113.306  0.00  0.00     0.038 C 
ATOM      4  C   LIG d   1      -0.664  80.234 113.808  0.00  0.00     0.028 C 
ATOM      5  C   LIG d   1      -0.465  79.508 115.135  0.00  0.00    -0.047 C 
ATOM      6  C   LIG d   1      -0.979  78.057 114.995  0.00  0.00     0.091 C 
ENDROOT
BRANCH   1   7
ATOM      7  O   LIG d   1      -2.761  76.719 113.976  0.00  0.00    -0.368 OA
BRANCH   7   8
ATOM      8  C   LIG d   1      -3.896  76.039 114.566  0.00  0.00     0.119 C 
BRANCH   8   9
ATOM      9  C   LIG d   1      -3.407  74.661 115.053  0.00  0.00     0.028 C 
ATOM     10  C   LIG d   1      -3.727  74.416 116.537  0.00  0.00     0.006 C 
ENDBRANCH   8   9
BRANCH   8  11
ATOM     11  C   LIG d   1      -4.973  75.740 113.519  0.00  0.00     0.028 C 
ATOM     12  C   LIG d   1      -6.397  75.804 114.093  0.00  0.00     0.006 C 
ENDBRANCH   8  11
ENDBRANCH   7   8
ENDBRANCH   1   7
BRANCH   6  13
ATOM     13  N   LIG d   1      -0.898  77.301 116.272  0.00  0.00    -0.311 N 
ATOM     14  C   LIG d   1      -0.318  76.108 116.383  0.00  0.00     0.210 C 
ATOM     15  C   LIG d   1      -0.363  75.494 117.785  0.00  0.00     0.109 C 
ATOM     16  O   LIG d   1       0.258  75.513 115.459  0.00  0.00    -0.276 OA
ATOM     17  H   LIG d   1      -1.313  77.725 117.079  0.00  0.00     0.149 HD
ENDBRANCH   6  13
BRANCH   5  18
ATOM     18  N   LIG d   1       0.969  79.584 115.473  0.00  0.00     0.381 N 
ATOM     19  H   LIG d   1       1.495  79.008 114.847  0.00  0.00    -0.090 HD
ATOM     20  H   LIG d   1       1.101  79.237 116.407  0.00  0.00    -0.090 HD
ATOM     21  H   LIG d   1       1.284  80.527 115.413  0.00  0.00    -0.090 HD
ENDBRANCH   5  18
BRANCH   3  22
ATOM     22  C   LIG d   1      -2.465  81.168 112.534  0.00  0.00     0.382 C 
ATOM     23  O   LIG d   1      -3.698  81.258 112.320  0.00  0.00    -0.241 OA
ATOM     24  O   LIG d   1      -1.690  81.991 112.011  0.00  0.00    -0.241 OA
ENDBRANCH   3  22
TORSDOF 7
ENDMDL
MODEL 2
REMARK VINA RESULT:      -5.1      0.681      1.433
REMARK  7 active torsions:
REMARK  status: ('A' for Active; 'I' for Inactive)
REMARK    1  A    between atoms: C_2  and  C_3 
REMARK    2  A    between atoms: C_3  and  O_6 
REMARK    3  A    between atoms: C_3  and  C_4 
REMARK    4  A    between atoms: C_7  and  O_6 
REMARK    5  A    between atoms: C_9  and  C_10 
REMARK    6  A    between atoms: N_15  and  C_14 
REMARK    7  A    between atoms: N_20  and  C_19 
REMARK       I    between atoms: C_22  and  N_20 
ROOT
ATOM      1  C   LIG d   1      -2.647  77.739 114.541  0.00  0.00     0.161 C 
ATOM      2  C   LIG d   1      -2.910  78.768 113.622  0.00  0.00     0.016 C 
ATOM      3  C   LIG d   1      -2.037  79.859 113.404  0.00  0.00     0.038 C 
ATOM      4  C   LIG d   1      -0.762  79.916 113.986  0.00  0.00     0.028 C 
ATOM      5  C   LIG d   1      -0.664  79.158 115.306  0.00  0.00    -0.047 C 
ATOM      6  C   LIG d   1      -1.210  77.726 115.104  0.00  0.00     0.091 C 
ENDROOT
BRANCH   1   7
ATOM      7  O   LIG d   1      -2.965  76.463 113.951  0.00  0.00    -0.368 OA
BRANCH   7   8
ATOM      8  C   LIG d   1      -3.932  75.654 114.664  0.00  0.00     0.119 C 
BRANCH   8   9
ATOM      9  C   LIG d   1      -4.952  75.133 113.633  0.00  0.00     0.028 C 
ATOM     10  C   LIG d   1      -6.344  75.762 113.815  0.00  0.00     0.006 C 
ENDBRANCH   8   9
BRANCH   8  11
ATOM     11  C   LIG d   1      -4.746  76.498 115.649  0.00  0.00     0.028 C 
ATOM     12  C   LIG d   1      -4.647  75.987 117.096  0.00  0.00     0.006 C 
ENDBRANCH   8  11
ENDBRANCH   7   8
ENDBRANCH   1   7
BRANCH   6  13
ATOM     13  N   LIG d   1      -1.228  76.943 116.367  0.00  0.00    -0.311 N 
ATOM     14  C   LIG d   1      -0.656  75.747 116.496  0.00  0.00     0.210 C 
ATOM     15  C   LIG d   1      -0.809  75.103 117.878  0.00  0.00     0.109 C 
ATOM     16  O   LIG d   1      -0.008  75.173 115.608  0.00  0.00    -0.276 OA
ATOM     17  H   LIG d   1      -1.706  77.348 117.148  0.00  0.00     0.149 HD
ENDBRANCH   6  13
BRANCH   5  18
ATOM     18  N   LIG d   1       0.748  79.184 115.731  0.00  0.00     0.381 N 
ATOM     19  H   LIG d   1       1.110  78.251 115.762  0.00  0.00    -0.090 HD
ATOM     20  H   LIG d   1       0.802  79.574 116.655  0.00  0.00    -0.090 HD
ATOM     21  H   LIG d   1       1.285  79.735 115.098  0.00  0.00    -0.090 HD
ENDBRANCH   5  18
BRANCH   3  22
ATOM     22  C   LIG d   1      -2.455  80.929 112.627  0.00  0.00     0.382 C 
ATOM     23  O   LIG d   1      -3.615  81.386 112.762  0.00  0.00    -0.241 OA
ATOM     24  O   LIG d   1      -1.701  81.413 111.762  0.00  0.00    -0.241 OA
ENDBRANCH   3  22
TORSDOF 7
ENDMDL
MODEL 3
REMARK VINA RESULT:      -5.1      4.004      5.010
REMARK  7 active torsions:
REMARK  status: ('A' for Active; 'I' for Inactive)
REMARK    1  A    between atoms: C_2  and  C_3 
REMARK    2  A    between atoms: C_3  and  O_6 
REMARK    3  A    between atoms: C_3  and  C_4 
REMARK    4  A    between atoms: C_7  and  O_6 
REMARK    5  A    between atoms: C_9  and  C_10 
REMARK    6  A    between atoms: N_15  and  C_14 
REMARK    7  A    between atoms: N_20  and  C_19 
REMARK       I    between atoms: C_22  and  N_20 
ROOT
ATOM      1  C   LIG d   1      -6.040  76.557 117.753  0.00  0.00     0.161 C 
ATOM      2  C   LIG d   1      -6.975  77.605 117.739  0.00  0.00     0.016 C 
ATOM      3  C   LIG d   1      -6.624  78.958 117.529  0.00  0.00     0.038 C 
ATOM      4  C   LIG d   1      -5.324  79.340 117.168  0.00  0.00     0.028 C 
ATOM      5  C   LIG d   1      -4.250  78.378 117.667  0.00  0.00    -0.047 C 
ATOM      6  C   LIG d   1      -4.632  76.940 117.251  0.00  0.00     0.091 C 
ENDROOT
BRANCH   1   7
ATOM      7  O   LIG d   1      -6.551  75.435 117.006  0.00  0.00    -0.368 OA
BRANCH   7   8
ATOM      8  C   LIG d   1      -6.849  75.682 115.610  0.00  0.00     0.119 C 
BRANCH   8   9
ATOM      9  C   LIG d   1      -8.342  75.368 115.393  0.00  0.00     0.028 C 
ATOM     10  C   LIG d   1      -8.940  74.539 116.542  0.00  0.00     0.006 C 
ENDBRANCH   8   9
BRANCH   8  11
ATOM     11  C   LIG d   1      -6.093  74.710 114.699  0.00  0.00     0.028 C 
ATOM     12  C   LIG d   1      -5.466  75.403 113.479  0.00  0.00     0.006 C 
ENDBRANCH   8  11
ENDBRANCH   7   8
ENDBRANCH   1   7
BRANCH   6  13
ATOM     13  N   LIG d   1      -3.678  75.926 117.772  0.00  0.00    -0.311 N 
ATOM     14  C   LIG d   1      -2.854  75.226 116.993  0.00  0.00     0.210 C 
ATOM     15  C   LIG d   1      -1.967  74.219 117.732  0.00  0.00     0.109 C 
ATOM     16  O   LIG d   1      -2.752  75.366 115.765  0.00  0.00    -0.276 OA
ATOM     17  H   LIG d   1      -3.672  75.771 118.761  0.00  0.00     0.149 HD
ENDBRANCH   6  13
BRANCH   5  18
ATOM     18  N   LIG d   1      -2.960  78.820 117.103  0.00  0.00     0.381 N 
ATOM     19  H   LIG d   1      -3.039  79.761 116.773  0.00  0.00    -0.090 HD
ATOM     20  H   LIG d   1      -2.727  78.231 116.323  0.00  0.00    -0.090 HD
ATOM     21  H   LIG d   1      -2.247  78.762 117.797  0.00  0.00    -0.090 HD
ENDBRANCH   5  18
BRANCH   3  22
ATOM     22  C   LIG d   1      -7.573  79.952 117.721  0.00  0.00     0.382 C 
ATOM     23  O   LIG d   1      -8.406  79.852 118.653  0.00  0.00    -0.241 OA
ATOM     24  O   LIG d   1      -7.633  80.925 116.945  0.00  0.00    -0.241 OA
ENDBRANCH   3  22
TORSDOF 7
ENDMDL
MODEL 4
REMARK VINA RESULT:      -4.9      4.242      5.400
REMARK  7 active torsions:
REMARK  status: ('A' for Active; 'I' for Inactive)
REMARK    1  A    between atoms: C_2  and  C_3 
REMARK    2  A    between atoms: C_3  and  O_6 
REMARK    3  A    between atoms: C_3  and  C_4 
REMARK    4  A    between atoms: C_7  and  O_6 
REMARK    5  A    between atoms: C_9  and  C_10 
REMARK    6  A    between atoms: N_15  and  C_14 
REMARK    7  A    between atoms: N_20  and  C_19 
REMARK       I    between atoms: C_22  and  N_20 
ROOT
ATOM      1  C   LIG d   1      -6.037  77.525 116.676  0.00  0.00     0.161 C 
ATOM      2  C   LIG d   1      -7.073  78.130 117.406  0.00  0.00     0.016 C 
ATOM      3  C   LIG d   1      -6.993  79.441 117.930  0.00  0.00     0.038 C 
ATOM      4  C   LIG d   1      -5.922  80.296 117.629  0.00  0.00     0.028 C 
ATOM      5  C   LIG d   1      -4.625  79.556 117.318  0.00  0.00    -0.047 C 
ATOM      6  C   LIG d   1      -4.907  78.481 116.243  0.00  0.00     0.091 C 
ENDROOT
BRANCH   1   7
ATOM      7  O   LIG d   1      -6.581  76.840 115.531  0.00  0.00    -0.368 OA
BRANCH   7   8
ATOM      8  C   LIG d   1      -6.824  75.421 115.692  0.00  0.00     0.119 C 
BRANCH   8   9
ATOM      9  C   LIG d   1      -6.071  74.692 114.562  0.00  0.00     0.028 C 
ATOM     10  C   LIG d   1      -5.711  75.628 113.397  0.00  0.00     0.006 C 
ENDBRANCH   8   9
BRANCH   8  11
ATOM     11  C   LIG d   1      -8.302  75.081 115.480  0.00  0.00     0.028 C 
ATOM     12  C   LIG d   1      -9.060  74.868 116.800  0.00  0.00     0.006 C 
ENDBRANCH   8  11
ENDBRANCH   7   8
ENDBRANCH   1   7
BRANCH   6  13
ATOM     13  N   LIG d   1      -3.709  77.655 115.941  0.00  0.00    -0.311 N 
ATOM     14  C   LIG d   1      -2.934  77.849 114.875  0.00  0.00     0.210 C 
ATOM     15  C   LIG d   1      -1.762  76.872 114.742  0.00  0.00     0.109 C 
ATOM     16  O   LIG d   1      -3.087  78.758 114.045  0.00  0.00    -0.276 OA
ATOM     17  H   LIG d   1      -3.493  76.914 116.579  0.00  0.00     0.149 HD
ENDBRANCH   6  13
BRANCH   5  18
ATOM     18  N   LIG d   1      -3.633  80.558 116.887  0.00  0.00     0.381 N 
ATOM     19  H   LIG d   1      -2.758  80.386 117.342  0.00  0.00    -0.090 HD
ATOM     20  H   LIG d   1      -3.954  81.471 117.157  0.00  0.00    -0.090 HD
ATOM     21  H   LIG d   1      -3.514  80.519 115.899  0.00  0.00    -0.090 HD
ENDBRANCH   5  18
BRANCH   3  22
ATOM     22  C   LIG d   1      -7.973  79.895 118.800  0.00  0.00     0.382 C 
ATOM     23  O   LIG d   1      -8.904  79.130 119.150  0.00  0.00    -0.241 OA
ATOM     24  O   LIG d   1      -7.963  81.073 119.203  0.00  0.00    -0.241 OA
ENDBRANCH   3  22
TORSDOF 7
ENDMDL
MODEL 5
REMARK VINA RESULT:      -4.9      2.233      2.917
REMARK  7 active torsions:
REMARK  status: ('A' for Active; 'I' for Inactive)
REMARK    1  A    between atoms: C_2  and  C_3 
REMARK    2  A    between atoms: C_3  and  O_6 
REMARK    3  A    between atoms: C_3  and  C_4 
REMARK    4  A    between atoms: C_7  and  O_6 
REMARK    5  A    between atoms: C_9  and  C_10 
REMARK    6  A    between atoms: N_15  and  C_14 
REMARK    7  A    between atoms: N_20  and  C_19 
REMARK       I    between atoms: C_22  and  N_20 
ROOT
ATOM      1  C   LIG d   1      -1.531  78.775 115.578  0.00  0.00     0.161 C 
ATOM      2  C   LIG d   1      -1.998  80.097 115.507  0.00  0.00     0.016 C 
ATOM      3  C   LIG d   1      -2.104  80.822 114.297  0.00  0.00     0.038 C 
ATOM      4  C   LIG d   1      -1.890  80.217 113.050  0.00  0.00     0.028 C 
ATOM      5  C   LIG d   1      -0.931  79.033 113.108  0.00  0.00    -0.047 C 
ATOM      6  C   LIG d   1      -1.398  78.062 114.216  0.00  0.00     0.091 C 
ENDROOT
BRANCH   1   7
ATOM      7  O   LIG d   1      -2.368  78.007 116.465  0.00  0.00    -0.368 OA
BRANCH   7   8
ATOM      8  C   LIG d   1      -3.656  77.604 115.937  0.00  0.00     0.119 C 
BRANCH   8   9
ATOM      9  C   LIG d   1      -4.720  78.533 116.554  0.00  0.00     0.028 C 
ATOM     10  C   LIG d   1      -6.101  77.862 116.648  0.00  0.00     0.006 C 
ENDBRANCH   8   9
BRANCH   8  11
ATOM     11  C   LIG d   1      -4.031  76.194 116.400  0.00  0.00     0.028 C 
ATOM     12  C   LIG d   1      -2.967  75.564 117.314  0.00  0.00     0.006 C 
ENDBRANCH   8  11
ENDBRANCH   7   8
ENDBRANCH   1   7
BRANCH   6  13
ATOM     13  N   LIG d   1      -0.468  76.917 114.396  0.00  0.00    -0.311 N 
ATOM     14  C   LIG d   1      -0.830  75.645 114.237  0.00  0.00     0.210 C 
ATOM     15  C   LIG d   1       0.279  74.620 114.490  0.00  0.00     0.109 C 
ATOM     16  O   LIG d   1      -1.957  75.271 113.878  0.00  0.00    -0.276 OA
ATOM     17  H   LIG d   1       0.475  77.132 114.657  0.00  0.00     0.149 HD
ENDBRANCH   6  13
BRANCH   5  18
ATOM     18  N   LIG d   1      -0.906  78.413 111.769  0.00  0.00     0.381 N 
ATOM     19  H   LIG d   1      -1.295  77.493 111.814  0.00  0.00    -0.090 HD
ATOM     20  H   LIG d   1       0.048  78.338 111.463  0.00  0.00    -0.090 HD
ATOM     21  H   LIG d   1      -1.425  78.970 111.126  0.00  0.00    -0.090 HD
ENDBRANCH   5  18
BRANCH   3  22
ATOM     22  C   LIG d   1      -2.388  82.178 114.331  0.00  0.00     0.382 C 
ATOM     23  O   LIG d   1      -1.571  83.002 113.854  0.00  0.00    -0.241 OA
ATOM     24  O   LIG d   1      -3.431  82.592 114.873  0.00  0.00    -0.241 OA
ENDBRANCH   3  22
TORSDOF 7
ENDMDL
MODEL 6
REMARK VINA RESULT:      -4.8      4.117      6.116
REMARK  7 active torsions:
REMARK  status: ('A' for Active; 'I' for Inactive)
REMARK    1  A    between atoms: C_2  and  C_3 
REMARK    2  A    between atoms: C_3  and  O_6 
REMARK    3  A    between atoms: C_3  and  C_4 
REMARK    4  A    between atoms: C_7  and  O_6 
REMARK    5  A    between atoms: C_9  and  C_10 
REMARK    6  A    between atoms: N_15  and  C_14 
REMARK    7  A    between atoms: N_20  and  C_19 
REMARK       I    between atoms: C_22  and  N_20 
ROOT
ATOM      1  C   LIG d   1      -4.931  77.609 116.124  0.00  0.00     0.161 C 
ATOM      2  C   LIG d   1      -4.075  76.499 116.035  0.00  0.00     0.016 C 
ATOM      3  C   LIG d   1      -3.322  76.008 117.126  0.00  0.00     0.038 C 
ATOM      4  C   LIG d   1      -3.490  76.505 118.427  0.00  0.00     0.028 C 
ATOM      5  C   LIG d   1      -3.966  77.954 118.465  0.00  0.00    -0.047 C 
ATOM      6  C   LIG d   1      -5.212  78.096 117.561  0.00  0.00     0.091 C 
ENDROOT
BRANCH   1   7
ATOM      7  O   LIG d   1      -6.168  77.329 115.439  0.00  0.00    -0.368 OA
BRANCH   7   8
ATOM      8  C   LIG d   1      -6.601  75.946 115.447  0.00  0.00     0.119 C 
BRANCH   8   9
ATOM      9  C   LIG d   1      -7.057  75.596 114.017  0.00  0.00     0.028 C 
ATOM     10  C   LIG d   1      -5.930  75.763 112.984  0.00  0.00     0.006 C 
ENDBRANCH   8   9
BRANCH   8  11
ATOM     11  C   LIG d   1      -7.841  75.755 116.326  0.00  0.00     0.028 C 
ATOM     12  C   LIG d   1      -7.512  75.139 117.695  0.00  0.00     0.006 C 
ENDBRANCH   8  11
ENDBRANCH   7   8
ENDBRANCH   1   7
BRANCH   6  13
ATOM     13  N   LIG d   1      -5.693  79.499 117.475  0.00  0.00    -0.311 N 
ATOM     14  C   LIG d   1      -6.966  79.850 117.646  0.00  0.00     0.210 C 
ATOM     15  C   LIG d   1      -7.250  81.348 117.495  0.00  0.00     0.109 C 
ATOM     16  O   LIG d   1      -7.882  79.068 117.940  0.00  0.00    -0.276 OA
ATOM     17  H   LIG d   1      -5.010  80.203 117.271  0.00  0.00     0.149 HD
ENDBRANCH   6  13
BRANCH   5  18
ATOM     18  N   LIG d   1      -4.232  78.299 119.874  0.00  0.00     0.381 N 
ATOM     19  H   LIG d   1      -3.553  78.960 120.195  0.00  0.00    -0.090 HD
ATOM     20  H   LIG d   1      -4.151  77.468 120.433  0.00  0.00    -0.090 HD
ATOM     21  H   LIG d   1      -5.147  78.681 119.965  0.00  0.00    -0.090 HD
ENDBRANCH   5  18
BRANCH   3  22
ATOM     22  C   LIG d   1      -2.358  75.034 116.913  0.00  0.00     0.382 C 
ATOM     23  O   LIG d   1      -1.303  75.036 117.593  0.00  0.00    -0.241 OA
ATOM     24  O   LIG d   1      -2.510  74.180 116.019  0.00  0.00    -0.241 OA
ENDBRANCH   3  22
TORSDOF 7
ENDMDL
MODEL 7
REMARK VINA RESULT:      -4.8      3.999      6.644
REMARK  7 active torsions:
REMARK  status: ('A' for Active; 'I' for Inactive)
REMARK    1  A    between atoms: C_2  and  C_3 
REMARK    2  A    between atoms: C_3  and  O_6 
REMARK    3  A    between atoms: C_3  and  C_4 
REMARK    4  A    between atoms: C_7  and  O_6 
REMARK    5  A    between atoms: C_9  and  C_10 
REMARK    6  A    between atoms: N_15  and  C_14 
REMARK    7  A    between atoms: N_20  and  C_19 
REMARK       I    between atoms: C_22  and  N_20 
ROOT
ATOM      1  C   LIG d   1      -4.472  78.262 116.358  0.00  0.00     0.161 C 
ATOM      2  C   LIG d   1      -3.951  77.350 115.425  0.00  0.00     0.016 C 
ATOM      3  C   LIG d   1      -4.693  76.267 114.898  0.00  0.00     0.038 C 
ATOM      4  C   LIG d   1      -6.063  76.112 115.156  0.00  0.00     0.028 C 
ATOM      5  C   LIG d   1      -6.501  76.715 116.486  0.00  0.00    -0.047 C 
ATOM      6  C   LIG d   1      -5.998  78.175 116.566  0.00  0.00     0.091 C 
ENDROOT
BRANCH   1   7
ATOM      7  O   LIG d   1      -4.092  79.604 115.993  0.00  0.00    -0.368 OA
BRANCH   7   8
ATOM      8  C   LIG d   1      -2.997  80.183 116.745  0.00  0.00     0.119 C 
BRANCH   8   9
ATOM      9  C   LIG d   1      -3.585  81.293 117.637  0.00  0.00     0.028 C 
ATOM     10  C   LIG d   1      -2.697  81.598 118.856  0.00  0.00     0.006 C 
ENDBRANCH   8   9
BRANCH   8  11
ATOM     11  C   LIG d   1      -2.000  80.890 115.822  0.00  0.00     0.028 C 
ATOM     12  C   LIG d   1      -2.359  80.745 114.334  0.00  0.00     0.006 C 
ENDBRANCH   8  11
ENDBRANCH   7   8
ENDBRANCH   1   7
BRANCH   6  13
ATOM     13  N   LIG d   1      -6.311  78.812 117.871  0.00  0.00    -0.311 N 
ATOM     14  C   LIG d   1      -6.996  79.948 117.987  0.00  0.00     0.210 C 
ATOM     15  C   LIG d   1      -7.191  80.442 119.424  0.00  0.00     0.109 C 
ATOM     16  O   LIG d   1      -7.489  80.577 117.038  0.00  0.00    -0.276 OA
ATOM     17  H   LIG d   1      -5.977  78.352 118.695  0.00  0.00     0.149 HD
ENDBRANCH   6  13
BRANCH   5  18
ATOM     18  N   LIG d   1      -7.970  76.605 116.563  0.00  0.00     0.381 N 
ATOM     19  H   LIG d   1      -8.228  75.670 116.809  0.00  0.00    -0.090 HD
ATOM     20  H   LIG d   1      -8.359  76.812 115.660  0.00  0.00    -0.090 HD
ATOM     21  H   LIG d   1      -8.325  77.244 117.240  0.00  0.00    -0.090 HD
ENDBRANCH   5  18
BRANCH   3  22
ATOM     22  C   LIG d   1      -4.053  75.303 114.135  0.00  0.00     0.382 C 
ATOM     23  O   LIG d   1      -2.823  75.101 114.282  0.00  0.00    -0.241 OA
ATOM     24  O   LIG d   1      -4.680  74.663 113.270  0.00  0.00    -0.241 OA
ENDBRANCH   3  22
TORSDOF 7
ENDMDL
MODEL 8
REMARK VINA RESULT:      -4.6      3.306      6.234
REMARK  7 active torsions:
REMARK  status: ('A' for Active; 'I' for Inactive)
REMARK    1  A    between atoms: C_2  and  C_3 
REMARK    2  A    between atoms: C_3  and  O_6 
REMARK    3  A    between atoms: C_3  and  C_4 
REMARK    4  A    between atoms: C_7  and  O_6 
REMARK    5  A    between atoms: C_9  and  C_10 
REMARK    6  A    between atoms: N_15  and  C_14 
REMARK    7  A    between atoms: N_20  and  C_19 
REMARK       I    between atoms: C_22  and  N_20 
ROOT
ATOM      1  C   LIG d   1      -3.587  78.482 115.555  0.00  0.00     0.161 C 
ATOM      2  C   LIG d   1      -3.318  77.362 114.750  0.00  0.00     0.016 C 
ATOM      3  C   LIG d   1      -4.065  76.163 114.811  0.00  0.00     0.038 C 
ATOM      4  C   LIG d   1      -5.234  76.056 115.580  0.00  0.00     0.028 C 
ATOM      5  C   LIG d   1      -5.252  76.986 116.788  0.00  0.00    -0.047 C 
ATOM      6  C   LIG d   1      -4.926  78.423 116.319  0.00  0.00     0.091 C 
ENDROOT
BRANCH   1   7
ATOM      7  O   LIG d   1      -3.516  79.683 114.760  0.00  0.00    -0.368 OA
BRANCH   7   8
ATOM      8  C   LIG d   1      -2.213  80.012 114.219  0.00  0.00     0.119 C 
BRANCH   8   9
ATOM      9  C   LIG d   1      -1.702  81.258 114.969  0.00  0.00     0.028 C 
ATOM     10  C   LIG d   1      -2.808  81.946 115.786  0.00  0.00     0.006 C 
ENDBRANCH   8   9
BRANCH   8  11
ATOM     11  C   LIG d   1      -2.311  80.436 112.750  0.00  0.00     0.028 C 
ATOM     12  C   LIG d   1      -1.355  81.586 112.397  0.00  0.00     0.006 C 
ENDBRANCH   8  11
ENDBRANCH   7   8
ENDBRANCH   1   7
BRANCH   6  13
ATOM     13  N   LIG d   1      -4.840  79.382 117.451  0.00  0.00    -0.311 N 
ATOM     14  C   LIG d   1      -5.818  80.229 117.770  0.00  0.00     0.210 C 
ATOM     15  C   LIG d   1      -5.517  81.146 118.959  0.00  0.00     0.109 C 
ATOM     16  O   LIG d   1      -6.919  80.285 117.201  0.00  0.00    -0.276 OA
ATOM     17  H   LIG d   1      -3.994  79.382 117.986  0.00  0.00     0.149 HD
ENDBRANCH   6  13
BRANCH   5  18
ATOM     18  N   LIG d   1      -6.580  76.871 117.419  0.00  0.00     0.381 N 
ATOM     19  H   LIG d   1      -7.290  77.136 116.765  0.00  0.00    -0.090 HD
ATOM     20  H   LIG d   1      -6.623  77.498 118.203  0.00  0.00    -0.090 HD
ATOM     21  H   LIG d   1      -6.733  75.935 117.724  0.00  0.00    -0.090 HD
ENDBRANCH   5  18
BRANCH   3  22
ATOM     22  C   LIG d   1      -3.621  75.041 114.128  0.00  0.00     0.382 C 
ATOM     23  O   LIG d   1      -2.428  74.669 114.243  0.00  0.00    -0.241 OA
ATOM     24  O   LIG d   1      -4.385  74.423 113.363  0.00  0.00    -0.241 OA
ENDBRANCH   3  22
TORSDOF 7
ENDMDL
MODEL 9
REMARK VINA RESULT:      -4.6      2.678      5.882
REMARK  7 active torsions:
REMARK  status: ('A' for Active; 'I' for Inactive)
REMARK    1  A    between atoms: C_2  and  C_3 
REMARK    2  A    between atoms: C_3  and  O_6 
REMARK    3  A    between atoms: C_3  and  C_4 
REMARK    4  A    between atoms: C_7  and  O_6 
REMARK    5  A    between atoms: C_9  and  C_10 
REMARK    6  A    between atoms: N_15  and  C_14 
REMARK    7  A    between atoms: N_20  and  C_19 
REMARK       I    between atoms: C_22  and  N_20 
ROOT
ATOM      1  C   LIG d   1      -3.113  77.877 115.248  0.00  0.00     0.161 C 
ATOM      2  C   LIG d   1      -1.949  77.281 114.736  0.00  0.00     0.016 C 
ATOM      3  C   LIG d   1      -1.780  75.882 114.611  0.00  0.00     0.038 C 
ATOM      4  C   LIG d   1      -2.832  74.985 114.850  0.00  0.00     0.028 C 
ATOM      5  C   LIG d   1      -3.859  75.507 115.849  0.00  0.00    -0.047 C 
ATOM      6  C   LIG d   1      -4.312  76.919 115.410  0.00  0.00     0.091 C 
ENDROOT
BRANCH   1   7
ATOM      7  O   LIG d   1      -3.482  79.007 114.434  0.00  0.00    -0.368 OA
BRANCH   7   8
ATOM      8  C   LIG d   1      -2.436  79.976 114.177  0.00  0.00     0.119 C 
BRANCH   8   9
ATOM      9  C   LIG d   1      -2.576  81.098 115.224  0.00  0.00     0.028 C 
ATOM     10  C   LIG d   1      -1.393  81.136 116.205  0.00  0.00     0.006 C 
ENDBRANCH   8   9
BRANCH   8  11
ATOM     11  C   LIG d   1      -2.631  80.660 112.820  0.00  0.00     0.028 C 
ATOM     12  C   LIG d   1      -1.455  81.574 112.440  0.00  0.00     0.006 C 
ENDBRANCH   8  11
ENDBRANCH   7   8
ENDBRANCH   1   7
BRANCH   6  13
ATOM     13  N   LIG d   1      -5.255  77.538 116.379  0.00  0.00    -0.311 N 
ATOM     14  C   LIG d   1      -6.571  77.337 116.351  0.00  0.00     0.210 C 
ATOM     15  C   LIG d   1      -7.362  78.086 117.427  0.00  0.00     0.109 C 
ATOM     16  O   LIG d   1      -7.155  76.584 115.557  0.00  0.00    -0.276 OA
ATOM     17  H   LIG d   1      -4.862  78.139 117.077  0.00  0.00     0.149 HD
ENDBRANCH   6  13
BRANCH   5  18
ATOM     18  N   LIG d   1      -4.966  74.534 115.900  0.00  0.00     0.381 N 
ATOM     19  H   LIG d   1      -5.385  74.450 114.995  0.00  0.00    -0.090 HD
ATOM     20  H   LIG d   1      -5.664  74.869 116.541  0.00  0.00    -0.090 HD
ATOM     21  H   LIG d   1      -4.627  73.647 116.201  0.00  0.00    -0.090 HD
ENDBRANCH   5  18
BRANCH   3  22
ATOM     22  C   LIG d   1      -0.536  75.367 114.280  0.00  0.00     0.382 C 
ATOM     23  O   LIG d   1       0.389  75.371 115.128  0.00  0.00    -0.241 OA
ATOM     24  O   LIG d   1      -0.315  74.939 113.132  0.00  0.00    -0.241 OA
ENDBRANCH   3  22
TORSDOF 7
ENDMDL
