MODEL 1
REMARK VINA RESULT:      -4.9      0.000      0.000
REMARK  7 active torsions:
REMARK  status: ('A' for Active; 'I' for Inactive)
REMARK    1  A    between atoms: C_2  and  C_3 
REMARK    2  A    between atoms: C_3  and  O_6 
REMARK    3  A    between atoms: C_3  and  C_4 
REMARK    4  A    between atoms: C_7  and  O_6 
REMARK    5  A    between atoms: C_9  and  C_10 
REMARK    6  A    between atoms: N_15  and  C_14 
REMARK    7  A    between atoms: N_20  and  C_19 
REMARK       I    between atoms: C_22  and  N_20 
ROOT
ATOM      1  C   LIG d   1      -2.837  76.825 114.809  0.00  0.00     0.161 C 
ATOM      2  C   LIG d   1      -3.026  77.802 113.817  0.00  0.00     0.016 C 
ATOM      3  C   LIG d   1      -2.189  78.931 113.666  0.00  0.00     0.038 C 
ATOM      4  C   LIG d   1      -1.007  79.081 114.407  0.00  0.00     0.028 C 
ATOM      5  C   LIG d   1      -1.049  78.382 115.762  0.00  0.00    -0.047 C 
ATOM      6  C   LIG d   1      -1.490  76.915 115.555  0.00  0.00     0.091 C 
ENDROOT
BRANCH   1   7
ATOM      7  O   LIG d   1      -3.009  75.512 114.241  0.00  0.00    -0.368 OA
BRANCH   7   8
ATOM      8  C   LIG d   1      -4.214  74.805 114.624  0.00  0.00     0.119 C 
BRANCH   8   9
ATOM      9  C   LIG d   1      -5.238  74.984 113.486  0.00  0.00     0.028 C 
ATOM     10  C   LIG d   1      -6.321  76.021 113.830  0.00  0.00     0.006 C 
ENDBRANCH   8   9
BRANCH   8  11
ATOM     11  C   LIG d   1      -4.864  75.438 115.858  0.00  0.00     0.028 C 
ATOM     12  C   LIG d   1      -5.019  74.449 117.024  0.00  0.00     0.006 C 
ENDBRANCH   8  11
ENDBRANCH   7   8
ENDBRANCH   1   7
BRANCH   6  13
ATOM     13  N   LIG d   1      -1.638  76.181 116.839  0.00  0.00    -0.311 N 
ATOM     14  C   LIG d   1      -1.262  74.914 117.008  0.00  0.00     0.210 C 
ATOM     15  C   LIG d   1      -1.522  74.343 118.405  0.00  0.00     0.109 C 
ATOM     16  O   LIG d   1      -0.710  74.220 116.142  0.00  0.00    -0.276 OA
ATOM     17  H   LIG d   1      -2.048  76.679 117.605  0.00  0.00     0.149 HD
ENDBRANCH   6  13
BRANCH   5  18
ATOM     18  N   LIG d   1       0.291  78.503 116.367  0.00  0.00     0.381 N 
ATOM     19  H   LIG d   1       0.991  78.460 115.653  0.00  0.00    -0.090 HD
ATOM     20  H   LIG d   1       0.435  77.732 116.996  0.00  0.00    -0.090 HD
ATOM     21  H   LIG d   1       0.365  79.364 116.863  0.00  0.00    -0.090 HD
ENDBRANCH   5  18
BRANCH   3  22
ATOM     22  C   LIG d   1      -2.552  79.944 112.792  0.00  0.00     0.382 C 
ATOM     23  O   LIG d   1      -2.013  80.020 111.662  0.00  0.00    -0.241 OA
ATOM     24  O   LIG d   1      -3.379  80.809 113.137  0.00  0.00    -0.241 OA
ENDBRANCH   3  22
TORSDOF 7
ENDMDL
MODEL 2
REMARK VINA RESULT:      -4.7      1.680      4.940
REMARK  7 active torsions:
REMARK  status: ('A' for Active; 'I' for Inactive)
REMARK    1  A    between atoms: C_2  and  C_3 
REMARK    2  A    between atoms: C_3  and  O_6 
REMARK    3  A    between atoms: C_3  and  C_4 
REMARK    4  A    between atoms: C_7  and  O_6 
REMARK    5  A    between atoms: C_9  and  C_10 
REMARK    6  A    between atoms: N_15  and  C_14 
REMARK    7  A    between atoms: N_20  and  C_19 
REMARK       I    between atoms: C_22  and  N_20 
ROOT
ATOM      1  C   LIG d   1      -1.037  76.129 115.030  0.00  0.00     0.161 C 
ATOM      2  C   LIG d   1      -0.728  75.430 116.209  0.00  0.00     0.016 C 
ATOM      3  C   LIG d   1      -0.396  76.067 117.427  0.00  0.00     0.038 C 
ATOM      4  C   LIG d   1      -0.498  77.457 117.589  0.00  0.00     0.028 C 
ATOM      5  C   LIG d   1      -0.316  78.233 116.289  0.00  0.00    -0.047 C 
ATOM      6  C   LIG d   1      -1.262  77.644 115.217  0.00  0.00     0.091 C 
ENDROOT
BRANCH   1   7
ATOM      7  O   LIG d   1      -2.180  75.528 114.391  0.00  0.00    -0.368 OA
BRANCH   7   8
ATOM      8  C   LIG d   1      -3.476  76.042 114.788  0.00  0.00     0.119 C 
BRANCH   8   9
ATOM      9  C   LIG d   1      -4.136  74.984 115.692  0.00  0.00     0.028 C 
ATOM     10  C   LIG d   1      -4.213  75.433 117.161  0.00  0.00     0.006 C 
ENDBRANCH   8   9
BRANCH   8  11
ATOM     11  C   LIG d   1      -4.410  76.186 113.583  0.00  0.00     0.028 C 
ATOM     12  C   LIG d   1      -5.847  75.733 113.886  0.00  0.00     0.006 C 
ENDBRANCH   8  11
ENDBRANCH   7   8
ENDBRANCH   1   7
BRANCH   6  13
ATOM     13  N   LIG d   1      -1.087  78.292 113.891  0.00  0.00    -0.311 N 
ATOM     14  C   LIG d   1      -1.890  79.250 113.431  0.00  0.00     0.210 C 
ATOM     15  C   LIG d   1      -1.545  79.767 112.031  0.00  0.00     0.109 C 
ATOM     16  O   LIG d   1      -2.836  79.744 114.064  0.00  0.00    -0.276 OA
ATOM     17  H   LIG d   1      -0.325  77.973 113.324  0.00  0.00     0.149 HD
ENDBRANCH   6  13
BRANCH   5  18
ATOM     18  N   LIG d   1      -0.584  79.655 116.578  0.00  0.00     0.381 N 
ATOM     19  H   LIG d   1       0.248  80.093 116.921  0.00  0.00    -0.090 HD
ATOM     20  H   LIG d   1      -1.289  79.714 117.291  0.00  0.00    -0.090 HD
ATOM     21  H   LIG d   1      -0.895  80.118 115.753  0.00  0.00    -0.090 HD
ENDBRANCH   5  18
BRANCH   3  22
ATOM     22  C   LIG d   1       0.083  75.314 118.488  0.00  0.00     0.382 C 
ATOM     23  O   LIG d   1       1.213  75.562 118.974  0.00  0.00    -0.241 OA
ATOM     24  O   LIG d   1      -0.582  74.361 118.937  0.00  0.00    -0.241 OA
ENDBRANCH   3  22
TORSDOF 7
ENDMDL
MODEL 3
REMARK VINA RESULT:      -4.7      3.149      4.278
REMARK  7 active torsions:
REMARK  status: ('A' for Active; 'I' for Inactive)
REMARK    1  A    between atoms: C_2  and  C_3 
REMARK    2  A    between atoms: C_3  and  O_6 
REMARK    3  A    between atoms: C_3  and  C_4 
REMARK    4  A    between atoms: C_7  and  O_6 
REMARK    5  A    between atoms: C_9  and  C_10 
REMARK    6  A    between atoms: N_15  and  C_14 
REMARK    7  A    between atoms: N_20  and  C_19 
REMARK       I    between atoms: C_22  and  N_20 
ROOT
ATOM      1  C   LIG d   1      -3.624  77.936 116.569  0.00  0.00     0.161 C 
ATOM      2  C   LIG d   1      -2.823  78.908 117.191  0.00  0.00     0.016 C 
ATOM      3  C   LIG d   1      -1.516  79.231 116.759  0.00  0.00     0.038 C 
ATOM      4  C   LIG d   1      -0.975  78.707 115.576  0.00  0.00     0.028 C 
ATOM      5  C   LIG d   1      -1.550  77.347 115.197  0.00  0.00    -0.047 C 
ATOM      6  C   LIG d   1      -3.093  77.433 115.210  0.00  0.00     0.091 C 
ENDROOT
BRANCH   1   7
ATOM      7  O   LIG d   1      -4.971  78.429 116.429  0.00  0.00    -0.368 OA
BRANCH   7   8
ATOM      8  C   LIG d   1      -5.942  77.906 117.369  0.00  0.00     0.119 C 
BRANCH   8   9
ATOM      9  C   LIG d   1      -6.813  76.883 116.614  0.00  0.00     0.028 C 
ATOM     10  C   LIG d   1      -6.584  75.443 117.103  0.00  0.00     0.006 C 
ENDBRANCH   8   9
BRANCH   8  11
ATOM     11  C   LIG d   1      -6.911  78.997 117.835  0.00  0.00     0.028 C 
ATOM     12  C   LIG d   1      -6.289  80.402 117.796  0.00  0.00     0.006 C 
ENDBRANCH   8  11
ENDBRANCH   7   8
ENDBRANCH   1   7
BRANCH   6  13
ATOM     13  N   LIG d   1      -3.737  76.123 114.932  0.00  0.00    -0.311 N 
ATOM     14  C   LIG d   1      -4.393  75.852 113.805  0.00  0.00     0.210 C 
ATOM     15  C   LIG d   1      -4.998  74.447 113.730  0.00  0.00     0.109 C 
ATOM     16  O   LIG d   1      -4.504  76.632 112.847  0.00  0.00    -0.276 OA
ATOM     17  H   LIG d   1      -3.669  75.422 115.643  0.00  0.00     0.149 HD
ENDBRANCH   6  13
BRANCH   5  18
ATOM     18  N   LIG d   1      -1.002  76.983 113.877  0.00  0.00     0.381 N 
ATOM     19  H   LIG d   1      -0.501  76.120 113.944  0.00  0.00    -0.090 HD
ATOM     20  H   LIG d   1      -0.360  77.698 113.583  0.00  0.00    -0.090 HD
ATOM     21  H   LIG d   1      -1.740  76.896 113.214  0.00  0.00    -0.090 HD
ENDBRANCH   5  18
BRANCH   3  22
ATOM     22  C   LIG d   1      -0.721  80.058 117.538  0.00  0.00     0.382 C 
ATOM     23  O   LIG d   1      -0.931  80.151 118.771  0.00  0.00    -0.241 OA
ATOM     24  O   LIG d   1       0.176  80.747 117.015  0.00  0.00    -0.241 OA
ENDBRANCH   3  22
TORSDOF 7
ENDMDL
MODEL 4
REMARK VINA RESULT:      -4.7      2.001      2.414
REMARK  7 active torsions:
REMARK  status: ('A' for Active; 'I' for Inactive)
REMARK    1  A    between atoms: C_2  and  C_3 
REMARK    2  A    between atoms: C_3  and  O_6 
REMARK    3  A    between atoms: C_3  and  C_4 
REMARK    4  A    between atoms: C_7  and  O_6 
REMARK    5  A    between atoms: C_9  and  C_10 
REMARK    6  A    between atoms: N_15  and  C_14 
REMARK    7  A    between atoms: N_20  and  C_19 
REMARK       I    between atoms: C_22  and  N_20 
ROOT
ATOM      1  C   LIG d   1      -2.341  78.320 116.385  0.00  0.00     0.161 C 
ATOM      2  C   LIG d   1      -2.765  79.116 115.308  0.00  0.00     0.016 C 
ATOM      3  C   LIG d   1      -2.415  78.855 113.963  0.00  0.00     0.038 C 
ATOM      4  C   LIG d   1      -1.738  77.685 113.587  0.00  0.00     0.028 C 
ATOM      5  C   LIG d   1      -0.856  77.114 114.692  0.00  0.00    -0.047 C 
ATOM      6  C   LIG d   1      -1.695  76.978 115.983  0.00  0.00     0.091 C 
ENDROOT
BRANCH   1   7
ATOM      7  O   LIG d   1      -3.442  78.096 117.289  0.00  0.00    -0.368 OA
BRANCH   7   8
ATOM      8  C   LIG d   1      -4.348  77.023 116.935  0.00  0.00     0.119 C 
BRANCH   8   9
ATOM      9  C   LIG d   1      -5.758  77.631 116.808  0.00  0.00     0.028 C 
ATOM     10  C   LIG d   1      -5.858  79.022 117.457  0.00  0.00     0.006 C 
ENDBRANCH   8   9
BRANCH   8  11
ATOM     11  C   LIG d   1      -4.453  75.988 118.059  0.00  0.00     0.028 C 
ATOM     12  C   LIG d   1      -3.795  76.459 119.365  0.00  0.00     0.006 C 
ENDBRANCH   8  11
ENDBRANCH   7   8
ENDBRANCH   1   7
BRANCH   6  13
ATOM     13  N   LIG d   1      -0.887  76.505 117.137  0.00  0.00    -0.311 N 
ATOM     14  C   LIG d   1      -0.794  75.224 117.492  0.00  0.00     0.210 C 
ATOM     15  C   LIG d   1       0.076  74.955 118.723  0.00  0.00     0.109 C 
ATOM     16  O   LIG d   1      -1.325  74.282 116.884  0.00  0.00    -0.276 OA
ATOM     17  H   LIG d   1      -0.398  77.200 117.667  0.00  0.00     0.149 HD
ENDBRANCH   6  13
BRANCH   5  18
ATOM     18  N   LIG d   1      -0.320  75.825 114.213  0.00  0.00     0.381 N 
ATOM     19  H   LIG d   1      -0.989  75.099 114.374  0.00  0.00    -0.090 HD
ATOM     20  H   LIG d   1       0.513  75.608 114.730  0.00  0.00    -0.090 HD
ATOM     21  H   LIG d   1      -0.111  75.884 113.241  0.00  0.00    -0.090 HD
ENDBRANCH   5  18
BRANCH   3  22
ATOM     22  C   LIG d   1      -2.709  79.790 112.982  0.00  0.00     0.382 C 
ATOM     23  O   LIG d   1      -2.251  79.648 111.823  0.00  0.00    -0.241 OA
ATOM     24  O   LIG d   1      -3.390  80.797 113.254  0.00  0.00    -0.241 OA
ENDBRANCH   3  22
TORSDOF 7
ENDMDL
MODEL 5
REMARK VINA RESULT:      -4.7      1.845      2.481
REMARK  7 active torsions:
REMARK  status: ('A' for Active; 'I' for Inactive)
REMARK    1  A    between atoms: C_2  and  C_3 
REMARK    2  A    between atoms: C_3  and  O_6 
REMARK    3  A    between atoms: C_3  and  C_4 
REMARK    4  A    between atoms: C_7  and  O_6 
REMARK    5  A    between atoms: C_9  and  C_10 
REMARK    6  A    between atoms: N_15  and  C_14 
REMARK    7  A    between atoms: N_20  and  C_19 
REMARK       I    between atoms: C_22  and  N_20 
ROOT
ATOM      1  C   LIG d   1      -2.664  75.845 116.330  0.00  0.00     0.161 C 
ATOM      2  C   LIG d   1      -3.092  76.872 115.472  0.00  0.00     0.016 C 
ATOM      3  C   LIG d   1      -2.318  77.357 114.392  0.00  0.00     0.038 C 
ATOM      4  C   LIG d   1      -1.119  76.740 114.004  0.00  0.00     0.028 C 
ATOM      5  C   LIG d   1      -0.406  76.027 115.147  0.00  0.00    -0.047 C 
ATOM      6  C   LIG d   1      -1.408  75.085 115.853  0.00  0.00     0.091 C 
ENDROOT
BRANCH   1   7
ATOM      7  O   LIG d   1      -3.747  74.924 116.567  0.00  0.00    -0.368 OA
BRANCH   7   8
ATOM      8  C   LIG d   1      -5.047  75.325 116.068  0.00  0.00     0.119 C 
BRANCH   8   9
ATOM      9  C   LIG d   1      -6.030  75.286 117.253  0.00  0.00     0.028 C 
ATOM     10  C   LIG d   1      -7.402  74.715 116.859  0.00  0.00     0.006 C 
ENDBRANCH   8   9
BRANCH   8  11
ATOM     11  C   LIG d   1      -5.591  74.314 115.055  0.00  0.00     0.028 C 
ATOM     12  C   LIG d   1      -4.903  74.413 113.685  0.00  0.00     0.006 C 
ENDBRANCH   8  11
ENDBRANCH   7   8
ENDBRANCH   1   7
BRANCH   6  13
ATOM     13  N   LIG d   1      -0.815  74.411 117.037  0.00  0.00    -0.311 N 
ATOM     14  C   LIG d   1      -0.381  75.065 118.113  0.00  0.00     0.210 C 
ATOM     15  C   LIG d   1       0.214  74.180 119.213  0.00  0.00     0.109 C 
ATOM     16  O   LIG d   1      -0.463  76.292 118.275  0.00  0.00    -0.276 OA
ATOM     17  H   LIG d   1      -0.739  73.413 117.004  0.00  0.00     0.149 HD
ENDBRANCH   6  13
BRANCH   5  18
ATOM     18  N   LIG d   1       0.752  75.314 114.575  0.00  0.00     0.381 N 
ATOM     19  H   LIG d   1       1.199  74.770 115.285  0.00  0.00    -0.090 HD
ATOM     20  H   LIG d   1       1.412  75.990 114.233  0.00  0.00    -0.090 HD
ATOM     21  H   LIG d   1       0.454  74.723 113.831  0.00  0.00    -0.090 HD
ENDBRANCH   5  18
BRANCH   3  22
ATOM     22  C   LIG d   1      -2.722  78.497 113.714  0.00  0.00     0.382 C 
ATOM     23  O   LIG d   1      -2.467  79.631 114.186  0.00  0.00    -0.241 OA
ATOM     24  O   LIG d   1      -3.378  78.405 112.659  0.00  0.00    -0.241 OA
ENDBRANCH   3  22
TORSDOF 7
ENDMDL
MODEL 6
REMARK VINA RESULT:      -4.3      3.048      6.018
REMARK  7 active torsions:
REMARK  status: ('A' for Active; 'I' for Inactive)
REMARK    1  A    between atoms: C_2  and  C_3 
REMARK    2  A    between atoms: C_3  and  O_6 
REMARK    3  A    between atoms: C_3  and  C_4 
REMARK    4  A    between atoms: C_7  and  O_6 
REMARK    5  A    between atoms: C_9  and  C_10 
REMARK    6  A    between atoms: N_15  and  C_14 
REMARK    7  A    between atoms: N_20  and  C_19 
REMARK       I    between atoms: C_22  and  N_20 
ROOT
ATOM      1  C   LIG d   1      -4.358  76.117 117.135  0.00  0.00     0.161 C 
ATOM      2  C   LIG d   1      -5.452  75.531 117.794  0.00  0.00     0.016 C 
ATOM      3  C   LIG d   1      -6.553  74.959 117.116  0.00  0.00     0.038 C 
ATOM      4  C   LIG d   1      -6.563  74.798 115.722  0.00  0.00     0.028 C 
ATOM      5  C   LIG d   1      -5.712  75.827 114.987  0.00  0.00    -0.047 C 
ATOM      6  C   LIG d   1      -4.300  75.851 115.616  0.00  0.00     0.091 C 
ENDROOT
BRANCH   1   7
ATOM      7  O   LIG d   1      -3.129  75.701 117.764  0.00  0.00    -0.368 OA
BRANCH   7   8
ATOM      8  C   LIG d   1      -2.440  76.708 118.544  0.00  0.00     0.119 C 
BRANCH   8   9
ATOM      9  C   LIG d   1      -3.079  78.070 118.210  0.00  0.00     0.028 C 
ATOM     10  C   LIG d   1      -2.074  79.051 117.583  0.00  0.00     0.006 C 
ENDBRANCH   8   9
BRANCH   8  11
ATOM     11  C   LIG d   1      -0.973  76.834 118.122  0.00  0.00     0.028 C 
ATOM     12  C   LIG d   1      -0.483  75.627 117.306  0.00  0.00     0.006 C 
ENDBRANCH   8  11
ENDBRANCH   7   8
ENDBRANCH   1   7
BRANCH   6  13
ATOM     13  N   LIG d   1      -3.427  76.891 115.011  0.00  0.00    -0.311 N 
ATOM     14  C   LIG d   1      -2.321  76.611 114.324  0.00  0.00     0.210 C 
ATOM     15  C   LIG d   1      -1.557  77.833 113.803  0.00  0.00     0.109 C 
ATOM     16  O   LIG d   1      -1.917  75.467 114.070  0.00  0.00    -0.276 OA
ATOM     17  H   LIG d   1      -3.698  77.846 115.142  0.00  0.00     0.149 HD
ENDBRANCH   6  13
BRANCH   5  18
ATOM     18  N   LIG d   1      -5.702  75.460 113.559  0.00  0.00     0.381 N 
ATOM     19  H   LIG d   1      -6.636  75.280 113.249  0.00  0.00    -0.090 HD
ATOM     20  H   LIG d   1      -5.164  74.619 113.443  0.00  0.00    -0.090 HD
ATOM     21  H   LIG d   1      -5.302  76.196 113.020  0.00  0.00    -0.090 HD
ENDBRANCH   5  18
BRANCH   3  22
ATOM     22  C   LIG d   1      -7.677  74.576 117.831  0.00  0.00     0.382 C 
ATOM     23  O   LIG d   1      -7.561  74.180 119.016  0.00  0.00    -0.241 OA
ATOM     24  O   LIG d   1      -8.800  74.580 117.293  0.00  0.00    -0.241 OA
ENDBRANCH   3  22
TORSDOF 7
ENDMDL
MODEL 7
REMARK VINA RESULT:      -4.3      1.836      2.226
REMARK  7 active torsions:
REMARK  status: ('A' for Active; 'I' for Inactive)
REMARK    1  A    between atoms: C_2  and  C_3 
REMARK    2  A    between atoms: C_3  and  O_6 
REMARK    3  A    between atoms: C_3  and  C_4 
REMARK    4  A    between atoms: C_7  and  O_6 
REMARK    5  A    between atoms: C_9  and  C_10 
REMARK    6  A    between atoms: N_15  and  C_14 
REMARK    7  A    between atoms: N_20  and  C_19 
REMARK       I    between atoms: C_22  and  N_20 
ROOT
ATOM      1  C   LIG d   1      -2.809  75.771 115.993  0.00  0.00     0.161 C 
ATOM      2  C   LIG d   1      -3.219  76.818 115.152  0.00  0.00     0.016 C 
ATOM      3  C   LIG d   1      -2.341  77.513 114.288  0.00  0.00     0.038 C 
ATOM      4  C   LIG d   1      -1.013  77.104 114.096  0.00  0.00     0.028 C 
ATOM      5  C   LIG d   1      -0.425  76.372 115.297  0.00  0.00    -0.047 C 
ATOM      6  C   LIG d   1      -1.388  75.238 115.715  0.00  0.00     0.091 C 
ENDROOT
BRANCH   1   7
ATOM      7  O   LIG d   1      -3.767  74.696 115.938  0.00  0.00    -0.368 OA
BRANCH   7   8
ATOM      8  C   LIG d   1      -4.514  74.445 117.154  0.00  0.00     0.119 C 
BRANCH   8   9
ATOM      9  C   LIG d   1      -5.986  74.226 116.756  0.00  0.00     0.028 C 
ATOM     10  C   LIG d   1      -6.181  74.180 115.231  0.00  0.00     0.006 C 
ENDBRANCH   8   9
BRANCH   8  11
ATOM     11  C   LIG d   1      -4.520  75.675 118.068  0.00  0.00     0.028 C 
ATOM     12  C   LIG d   1      -5.914  75.991 118.632  0.00  0.00     0.006 C 
ENDBRANCH   8  11
ENDBRANCH   7   8
ENDBRANCH   1   7
BRANCH   6  13
ATOM     13  N   LIG d   1      -0.928  74.525 116.936  0.00  0.00    -0.311 N 
ATOM     14  C   LIG d   1      -0.420  75.145 117.999  0.00  0.00     0.210 C 
ATOM     15  C   LIG d   1       0.011  74.220 119.142  0.00  0.00     0.109 C 
ATOM     16  O   LIG d   1      -0.314  76.375 118.117  0.00  0.00    -0.276 OA
ATOM     17  H   LIG d   1      -1.006  73.527 116.938  0.00  0.00     0.149 HD
ENDBRANCH   6  13
BRANCH   5  18
ATOM     18  N   LIG d   1       0.912  75.883 114.910  0.00  0.00     0.381 N 
ATOM     19  H   LIG d   1       1.537  75.952 115.688  0.00  0.00    -0.090 HD
ATOM     20  H   LIG d   1       1.267  76.460 114.168  0.00  0.00    -0.090 HD
ATOM     21  H   LIG d   1       0.853  74.936 114.605  0.00  0.00    -0.090 HD
ENDBRANCH   5  18
BRANCH   3  22
ATOM     22  C   LIG d   1      -2.780  78.655 113.636  0.00  0.00     0.382 C 
ATOM     23  O   LIG d   1      -2.781  79.758 114.235  0.00  0.00    -0.241 OA
ATOM     24  O   LIG d   1      -3.216  78.590 112.471  0.00  0.00    -0.241 OA
ENDBRANCH   3  22
TORSDOF 7
ENDMDL
MODEL 8
REMARK VINA RESULT:      -4.2      3.124      5.307
REMARK  7 active torsions:
REMARK  status: ('A' for Active; 'I' for Inactive)
REMARK    1  A    between atoms: C_2  and  C_3 
REMARK    2  A    between atoms: C_3  and  O_6 
REMARK    3  A    between atoms: C_3  and  C_4 
REMARK    4  A    between atoms: C_7  and  O_6 
REMARK    5  A    between atoms: C_9  and  C_10 
REMARK    6  A    between atoms: N_15  and  C_14 
REMARK    7  A    between atoms: N_20  and  C_19 
REMARK       I    between atoms: C_22  and  N_20 
ROOT
ATOM      1  C   LIG d   1      -4.063  76.102 117.393  0.00  0.00     0.161 C 
ATOM      2  C   LIG d   1      -5.328  75.533 117.614  0.00  0.00     0.016 C 
ATOM      3  C   LIG d   1      -6.516  76.293 117.719  0.00  0.00     0.038 C 
ATOM      4  C   LIG d   1      -6.539  77.671 117.458  0.00  0.00     0.028 C 
ATOM      5  C   LIG d   1      -5.207  78.362 117.729  0.00  0.00    -0.047 C 
ATOM      6  C   LIG d   1      -4.084  77.593 116.995  0.00  0.00     0.091 C 
ENDROOT
BRANCH   1   7
ATOM      7  O   LIG d   1      -3.345  75.331 116.409  0.00  0.00    -0.368 OA
BRANCH   7   8
ATOM      8  C   LIG d   1      -3.346  75.861 115.060  0.00  0.00     0.119 C 
BRANCH   8   9
ATOM      9  C   LIG d   1      -4.247  74.948 114.205  0.00  0.00     0.028 C 
ATOM     10  C   LIG d   1      -5.566  75.632 113.808  0.00  0.00     0.006 C 
ENDBRANCH   8   9
BRANCH   8  11
ATOM     11  C   LIG d   1      -1.956  75.769 114.425  0.00  0.00     0.028 C 
ATOM     12  C   LIG d   1      -0.846  75.504 115.455  0.00  0.00     0.006 C 
ENDBRANCH   8  11
ENDBRANCH   7   8
ENDBRANCH   1   7
BRANCH   6  13
ATOM     13  N   LIG d   1      -2.737  78.153 117.275  0.00  0.00    -0.311 N 
ATOM     14  C   LIG d   1      -2.103  78.986 116.452  0.00  0.00     0.210 C 
ATOM     15  C   LIG d   1      -0.714  79.429 116.922  0.00  0.00     0.109 C 
ATOM     16  O   LIG d   1      -2.574  79.427 115.392  0.00  0.00    -0.276 OA
ATOM     17  H   LIG d   1      -2.295  77.872 118.129  0.00  0.00     0.149 HD
ENDBRANCH   6  13
BRANCH   5  18
ATOM     18  N   LIG d   1      -5.333  79.763 117.285  0.00  0.00     0.381 N 
ATOM     19  H   LIG d   1      -4.942  80.373 117.975  0.00  0.00    -0.090 HD
ATOM     20  H   LIG d   1      -6.307  79.985 117.182  0.00  0.00    -0.090 HD
ATOM     21  H   LIG d   1      -4.863  79.889 116.415  0.00  0.00    -0.090 HD
ENDBRANCH   5  18
BRANCH   3  22
ATOM     22  C   LIG d   1      -7.690  75.680 118.128  0.00  0.00     0.382 C 
ATOM     23  O   LIG d   1      -7.644  74.625 118.805  0.00  0.00    -0.241 OA
ATOM     24  O   LIG d   1      -8.796  76.144 117.791  0.00  0.00    -0.241 OA
ENDBRANCH   3  22
TORSDOF 7
ENDMDL
MODEL 9
REMARK VINA RESULT:      -4.2      2.568      5.308
REMARK  7 active torsions:
REMARK  status: ('A' for Active; 'I' for Inactive)
REMARK    1  A    between atoms: C_2  and  C_3 
REMARK    2  A    between atoms: C_3  and  O_6 
REMARK    3  A    between atoms: C_3  and  C_4 
REMARK    4  A    between atoms: C_7  and  O_6 
REMARK    5  A    between atoms: C_9  and  C_10 
REMARK    6  A    between atoms: N_15  and  C_14 
REMARK    7  A    between atoms: N_20  and  C_19 
REMARK       I    between atoms: C_22  and  N_20 
ROOT
ATOM      1  C   LIG d   1      -1.757  78.414 115.332  0.00  0.00     0.161 C 
ATOM      2  C   LIG d   1      -0.926  77.463 114.716  0.00  0.00     0.016 C 
ATOM      3  C   LIG d   1      -1.169  76.071 114.763  0.00  0.00     0.038 C 
ATOM      4  C   LIG d   1      -2.350  75.542 115.306  0.00  0.00     0.028 C 
ATOM      5  C   LIG d   1      -2.971  76.426 116.382  0.00  0.00    -0.047 C 
ATOM      6  C   LIG d   1      -3.109  77.864 115.833  0.00  0.00     0.091 C 
ENDROOT
BRANCH   1   7
ATOM      7  O   LIG d   1      -1.969  79.528 114.441  0.00  0.00    -0.368 OA
BRANCH   7   8
ATOM      8  C   LIG d   1      -1.563  79.329 113.065  0.00  0.00     0.119 C 
BRANCH   8   9
ATOM      9  C   LIG d   1      -0.675  80.523 112.666  0.00  0.00     0.028 C 
ATOM     10  C   LIG d   1      -0.177  80.426 111.214  0.00  0.00     0.006 C 
ENDBRANCH   8   9
BRANCH   8  11
ATOM     11  C   LIG d   1      -2.765  79.384 112.117  0.00  0.00     0.028 C 
ATOM     12  C   LIG d   1      -3.586  78.085 112.119  0.00  0.00     0.006 C 
ENDBRANCH   8  11
ENDBRANCH   7   8
ENDBRANCH   1   7
BRANCH   6  13
ATOM     13  N   LIG d   1      -3.631  78.812 116.851  0.00  0.00    -0.311 N 
ATOM     14  C   LIG d   1      -4.929  78.995 117.086  0.00  0.00     0.210 C 
ATOM     15  C   LIG d   1      -5.251  80.034 118.165  0.00  0.00     0.109 C 
ATOM     16  O   LIG d   1      -5.843  78.372 116.526  0.00  0.00    -0.276 OA
ATOM     17  H   LIG d   1      -2.957  79.336 117.374  0.00  0.00     0.149 HD
ENDBRANCH   6  13
BRANCH   5  18
ATOM     18  N   LIG d   1      -4.263  75.825 116.761  0.00  0.00     0.381 N 
ATOM     19  H   LIG d   1      -4.874  75.806 115.969  0.00  0.00    -0.090 HD
ATOM     20  H   LIG d   1      -4.689  76.391 117.474  0.00  0.00    -0.090 HD
ATOM     21  H   LIG d   1      -4.122  74.899 117.102  0.00  0.00    -0.090 HD
ENDBRANCH   5  18
BRANCH   3  22
ATOM     22  C   LIG d   1      -0.205  75.189 114.299  0.00  0.00     0.382 C 
ATOM     23  O   LIG d   1      -0.545  74.181 113.635  0.00  0.00    -0.241 OA
ATOM     24  O   LIG d   1       0.997  75.366 114.574  0.00  0.00    -0.241 OA
ENDBRANCH   3  22
TORSDOF 7
ENDMDL
