MODEL 1
REMARK VINA RESULT:      -5.5      0.000      0.000
REMARK  7 active torsions:
REMARK  status: ('A' for Active; 'I' for Inactive)
REMARK    1  A    between atoms: C_2  and  C_3 
REMARK    2  A    between atoms: C_3  and  O_6 
REMARK    3  A    between atoms: C_3  and  C_4 
REMARK    4  A    between atoms: C_7  and  O_6 
REMARK    5  A    between atoms: C_9  and  C_10 
REMARK    6  A    between atoms: N_15  and  C_14 
REMARK    7  A    between atoms: N_20  and  C_19 
REMARK       I    between atoms: C_22  and  N_20 
ROOT
ATOM      1  C   LIG d   1      -3.199  78.613 115.592  0.00  0.00     0.161 C 
ATOM      2  C   LIG d   1      -3.145  79.748 114.766  0.00  0.00     0.016 C 
ATOM      3  C   LIG d   1      -2.288  79.855 113.646  0.00  0.00     0.038 C 
ATOM      4  C   LIG d   1      -1.532  78.767 113.184  0.00  0.00     0.028 C 
ATOM      5  C   LIG d   1      -1.175  77.769 114.280  0.00  0.00    -0.047 C 
ATOM      6  C   LIG d   1      -2.463  77.374 115.039  0.00  0.00     0.091 C 
ENDROOT
BRANCH   1   7
ATOM      7  O   LIG d   1      -4.572  78.289 115.887  0.00  0.00    -0.368 OA
BRANCH   7   8
ATOM      8  C   LIG d   1      -5.018  78.572 117.236  0.00  0.00     0.119 C 
BRANCH   8   9
ATOM      9  C   LIG d   1      -6.354  77.834 117.447  0.00  0.00     0.028 C 
ATOM     10  C   LIG d   1      -6.495  76.604 116.533  0.00  0.00     0.006 C 
ENDBRANCH   8   9
BRANCH   8  11
ATOM     11  C   LIG d   1      -5.344  80.058 117.414  0.00  0.00     0.028 C 
ATOM     12  C   LIG d   1      -6.840  80.316 117.652  0.00  0.00     0.006 C 
ENDBRANCH   8  11
ENDBRANCH   7   8
ENDBRANCH   1   7
BRANCH   6  13
ATOM     13  N   LIG d   1      -2.191  76.465 116.182  0.00  0.00    -0.311 N 
ATOM     14  C   LIG d   1      -2.249  75.137 116.093  0.00  0.00     0.210 C 
ATOM     15  C   LIG d   1      -1.953  74.388 117.396  0.00  0.00     0.109 C 
ATOM     16  O   LIG d   1      -2.485  74.508 115.050  0.00  0.00    -0.276 OA
ATOM     17  H   LIG d   1      -1.961  76.890 117.059  0.00  0.00     0.149 HD
ENDBRANCH   6  13
BRANCH   5  18
ATOM     18  N   LIG d   1      -0.508  76.621 113.638  0.00  0.00     0.381 N 
ATOM     19  H   LIG d   1      -0.074  76.048 114.334  0.00  0.00    -0.090 HD
ATOM     20  H   LIG d   1       0.208  76.964 113.022  0.00  0.00    -0.090 HD
ATOM     21  H   LIG d   1      -1.171  76.086 113.122  0.00  0.00    -0.090 HD
ENDBRANCH   5  18
BRANCH   3  22
ATOM     22  C   LIG d   1      -2.152  81.073 112.999  0.00  0.00     0.382 C 
ATOM     23  O   LIG d   1      -3.172  81.712 112.645  0.00  0.00    -0.241 OA
ATOM     24  O   LIG d   1      -1.022  81.521 112.725  0.00  0.00    -0.241 OA
ENDBRANCH   3  22
TORSDOF 7
ENDMDL
MODEL 2
REMARK VINA RESULT:      -5.5      0.654      1.514
REMARK  7 active torsions:
REMARK  status: ('A' for Active; 'I' for Inactive)
REMARK    1  A    between atoms: C_2  and  C_3 
REMARK    2  A    between atoms: C_3  and  O_6 
REMARK    3  A    between atoms: C_3  and  C_4 
REMARK    4  A    between atoms: C_7  and  O_6 
REMARK    5  A    between atoms: C_9  and  C_10 
REMARK    6  A    between atoms: N_15  and  C_14 
REMARK    7  A    between atoms: N_20  and  C_19 
REMARK       I    between atoms: C_22  and  N_20 
ROOT
ATOM      1  C   LIG d   1      -3.144  78.613 115.624  0.00  0.00     0.161 C 
ATOM      2  C   LIG d   1      -3.131  79.754 114.804  0.00  0.00     0.016 C 
ATOM      3  C   LIG d   1      -2.337  79.866 113.640  0.00  0.00     0.038 C 
ATOM      4  C   LIG d   1      -1.611  78.780 113.130  0.00  0.00     0.028 C 
ATOM      5  C   LIG d   1      -1.198  77.773 114.198  0.00  0.00    -0.047 C 
ATOM      6  C   LIG d   1      -2.443  77.377 115.023  0.00  0.00     0.091 C 
ENDROOT
BRANCH   1   7
ATOM      7  O   LIG d   1      -4.500  78.292 115.992  0.00  0.00    -0.368 OA
BRANCH   7   8
ATOM      8  C   LIG d   1      -5.074  79.081 117.063  0.00  0.00     0.119 C 
BRANCH   8   9
ATOM      9  C   LIG d   1      -4.240  78.816 118.332  0.00  0.00     0.028 C 
ATOM     10  C   LIG d   1      -3.811  80.115 119.034  0.00  0.00     0.006 C 
ENDBRANCH   8   9
BRANCH   8  11
ATOM     11  C   LIG d   1      -6.491  78.610 117.404  0.00  0.00     0.028 C 
ATOM     12  C   LIG d   1      -7.422  79.765 117.806  0.00  0.00     0.006 C 
ENDBRANCH   8  11
ENDBRANCH   7   8
ENDBRANCH   1   7
BRANCH   6  13
ATOM     13  N   LIG d   1      -2.112  76.458 116.144  0.00  0.00    -0.311 N 
ATOM     14  C   LIG d   1      -2.197  75.132 116.054  0.00  0.00     0.210 C 
ATOM     15  C   LIG d   1      -1.829  74.373 117.333  0.00  0.00     0.109 C 
ATOM     16  O   LIG d   1      -2.511  74.511 115.027  0.00  0.00    -0.276 OA
ATOM     17  H   LIG d   1      -1.819  76.877 117.005  0.00  0.00     0.149 HD
ENDBRANCH   6  13
BRANCH   5  18
ATOM     18  N   LIG d   1      -0.571  76.627 113.511  0.00  0.00     0.381 N 
ATOM     19  H   LIG d   1       0.424  76.735 113.512  0.00  0.00    -0.090 HD
ATOM     20  H   LIG d   1      -0.885  76.608 112.557  0.00  0.00    -0.090 HD
ATOM     21  H   LIG d   1      -0.821  75.778 113.968  0.00  0.00    -0.090 HD
ENDBRANCH   5  18
BRANCH   3  22
ATOM     22  C   LIG d   1      -2.232  81.089 112.994  0.00  0.00     0.382 C 
ATOM     23  O   LIG d   1      -1.102  81.590 112.780  0.00  0.00    -0.241 OA
ATOM     24  O   LIG d   1      -3.255  81.718 112.663  0.00  0.00    -0.241 OA
ENDBRANCH   3  22
TORSDOF 7
ENDMDL
MODEL 3
REMARK VINA RESULT:      -5.2      2.707      4.046
REMARK  7 active torsions:
REMARK  status: ('A' for Active; 'I' for Inactive)
REMARK    1  A    between atoms: C_2  and  C_3 
REMARK    2  A    between atoms: C_3  and  O_6 
REMARK    3  A    between atoms: C_3  and  C_4 
REMARK    4  A    between atoms: C_7  and  O_6 
REMARK    5  A    between atoms: C_9  and  C_10 
REMARK    6  A    between atoms: N_15  and  C_14 
REMARK    7  A    between atoms: N_20  and  C_19 
REMARK       I    between atoms: C_22  and  N_20 
ROOT
ATOM      1  C   LIG d   1      -4.676  77.077 117.236  0.00  0.00     0.161 C 
ATOM      2  C   LIG d   1      -5.487  78.193 117.504  0.00  0.00     0.016 C 
ATOM      3  C   LIG d   1      -5.144  79.512 117.129  0.00  0.00     0.038 C 
ATOM      4  C   LIG d   1      -4.030  79.787 116.322  0.00  0.00     0.028 C 
ATOM      5  C   LIG d   1      -2.915  78.756 116.456  0.00  0.00    -0.047 C 
ATOM      6  C   LIG d   1      -3.511  77.344 116.260  0.00  0.00     0.091 C 
ENDROOT
BRANCH   1   7
ATOM      7  O   LIG d   1      -5.488  75.985 116.762  0.00  0.00    -0.368 OA
BRANCH   7   8
ATOM      8  C   LIG d   1      -6.446  76.308 115.724  0.00  0.00     0.119 C 
BRANCH   8   9
ATOM      9  C   LIG d   1      -7.759  75.574 116.061  0.00  0.00     0.028 C 
ATOM     10  C   LIG d   1      -8.357  76.028 117.404  0.00  0.00     0.006 C 
ENDBRANCH   8   9
BRANCH   8  11
ATOM     11  C   LIG d   1      -6.007  75.750 114.367  0.00  0.00     0.028 C 
ATOM     12  C   LIG d   1      -5.165  74.470 114.493  0.00  0.00     0.006 C 
ENDBRANCH   8  11
ENDBRANCH   7   8
ENDBRANCH   1   7
BRANCH   6  13
ATOM     13  N   LIG d   1      -2.503  76.270 116.459  0.00  0.00    -0.311 N 
ATOM     14  C   LIG d   1      -1.786  75.745 115.467  0.00  0.00     0.210 C 
ATOM     15  C   LIG d   1      -0.817  74.635 115.887  0.00  0.00     0.109 C 
ATOM     16  O   LIG d   1      -1.837  76.115 114.284  0.00  0.00    -0.276 OA
ATOM     17  H   LIG d   1      -2.375  75.932 117.393  0.00  0.00     0.149 HD
ENDBRANCH   6  13
BRANCH   5  18
ATOM     18  N   LIG d   1      -1.878  79.089 115.461  0.00  0.00     0.381 N 
ATOM     19  H   LIG d   1      -1.265  79.787 115.832  0.00  0.00    -0.090 HD
ATOM     20  H   LIG d   1      -2.322  79.462 114.641  0.00  0.00    -0.090 HD
ATOM     21  H   LIG d   1      -1.358  78.273 115.225  0.00  0.00    -0.090 HD
ENDBRANCH   5  18
BRANCH   3  22
ATOM     22  C   LIG d   1      -5.898  80.578 117.596  0.00  0.00     0.382 C 
ATOM     23  O   LIG d   1      -5.585  81.144 118.670  0.00  0.00    -0.241 OA
ATOM     24  O   LIG d   1      -6.914  80.951 116.979  0.00  0.00    -0.241 OA
ENDBRANCH   3  22
TORSDOF 7
ENDMDL
MODEL 4
REMARK VINA RESULT:      -5.2      2.277      5.214
REMARK  7 active torsions:
REMARK  status: ('A' for Active; 'I' for Inactive)
REMARK    1  A    between atoms: C_2  and  C_3 
REMARK    2  A    between atoms: C_3  and  O_6 
REMARK    3  A    between atoms: C_3  and  C_4 
REMARK    4  A    between atoms: C_7  and  O_6 
REMARK    5  A    between atoms: C_9  and  C_10 
REMARK    6  A    between atoms: N_15  and  C_14 
REMARK    7  A    between atoms: N_20  and  C_19 
REMARK       I    between atoms: C_22  and  N_20 
ROOT
ATOM      1  C   LIG d   1      -1.914  75.591 115.043  0.00  0.00     0.161 C 
ATOM      2  C   LIG d   1      -1.773  74.947 116.283  0.00  0.00     0.016 C 
ATOM      3  C   LIG d   1      -0.940  75.428 117.319  0.00  0.00     0.038 C 
ATOM      4  C   LIG d   1      -0.305  76.676 117.241  0.00  0.00     0.028 C 
ATOM      5  C   LIG d   1      -0.017  77.121 115.811  0.00  0.00    -0.047 C 
ATOM      6  C   LIG d   1      -1.316  77.012 114.980  0.00  0.00     0.091 C 
ENDROOT
BRANCH   1   7
ATOM      7  O   LIG d   1      -3.304  75.615 114.661  0.00  0.00    -0.368 OA
BRANCH   7   8
ATOM      8  C   LIG d   1      -4.264  75.531 115.743  0.00  0.00     0.119 C 
BRANCH   8   9
ATOM      9  C   LIG d   1      -5.452  74.686 115.243  0.00  0.00     0.028 C 
ATOM     10  C   LIG d   1      -6.747  75.507 115.124  0.00  0.00     0.006 C 
ENDBRANCH   8   9
BRANCH   8  11
ATOM     11  C   LIG d   1      -4.854  76.906 116.072  0.00  0.00     0.028 C 
ATOM     12  C   LIG d   1      -4.223  77.542 117.320  0.00  0.00     0.006 C 
ENDBRANCH   8  11
ENDBRANCH   7   8
ENDBRANCH   1   7
BRANCH   6  13
ATOM     13  N   LIG d   1      -1.103  77.348 113.548  0.00  0.00    -0.311 N 
ATOM     14  C   LIG d   1      -1.899  78.165 112.861  0.00  0.00     0.210 C 
ATOM     15  C   LIG d   1      -1.512  78.360 111.392  0.00  0.00     0.109 C 
ATOM     16  O   LIG d   1      -2.871  78.772 113.337  0.00  0.00    -0.276 OA
ATOM     17  H   LIG d   1      -0.320  76.924 113.092  0.00  0.00     0.149 HD
ENDBRANCH   6  13
BRANCH   5  18
ATOM     18  N   LIG d   1       0.518  78.494 115.870  0.00  0.00     0.381 N 
ATOM     19  H   LIG d   1       1.498  78.467 116.073  0.00  0.00    -0.090 HD
ATOM     20  H   LIG d   1       0.056  78.991 116.611  0.00  0.00    -0.090 HD
ATOM     21  H   LIG d   1       0.365  78.958 115.002  0.00  0.00    -0.090 HD
ENDBRANCH   5  18
BRANCH   3  22
ATOM     22  C   LIG d   1      -0.704  74.638 118.434  0.00  0.00     0.382 C 
ATOM     23  O   LIG d   1      -1.669  74.182 119.095  0.00  0.00    -0.241 OA
ATOM     24  O   LIG d   1       0.460  74.413 118.814  0.00  0.00    -0.241 OA
ENDBRANCH   3  22
TORSDOF 7
ENDMDL
MODEL 5
REMARK VINA RESULT:      -5.1      2.736      6.175
REMARK  7 active torsions:
REMARK  status: ('A' for Active; 'I' for Inactive)
REMARK    1  A    between atoms: C_2  and  C_3 
REMARK    2  A    between atoms: C_3  and  O_6 
REMARK    3  A    between atoms: C_3  and  C_4 
REMARK    4  A    between atoms: C_7  and  O_6 
REMARK    5  A    between atoms: C_9  and  C_10 
REMARK    6  A    between atoms: N_15  and  C_14 
REMARK    7  A    between atoms: N_20  and  C_19 
REMARK       I    between atoms: C_22  and  N_20 
ROOT
ATOM      1  C   LIG d   1      -4.207  78.499 116.387  0.00  0.00     0.161 C 
ATOM      2  C   LIG d   1      -4.041  77.278 115.712  0.00  0.00     0.016 C 
ATOM      3  C   LIG d   1      -5.020  76.258 115.699  0.00  0.00     0.038 C 
ATOM      4  C   LIG d   1      -6.301  76.452 116.237  0.00  0.00     0.028 C 
ATOM      5  C   LIG d   1      -6.335  77.477 117.366  0.00  0.00    -0.047 C 
ATOM      6  C   LIG d   1      -5.641  78.773 116.887  0.00  0.00     0.091 C 
ENDROOT
BRANCH   1   7
ATOM      7  O   LIG d   1      -3.751  79.583 115.554  0.00  0.00    -0.368 OA
BRANCH   7   8
ATOM      8  C   LIG d   1      -2.643  79.285 114.670  0.00  0.00     0.119 C 
BRANCH   8   9
ATOM      9  C   LIG d   1      -1.343  79.474 115.476  0.00  0.00     0.028 C 
ATOM     10  C   LIG d   1      -0.407  78.258 115.373  0.00  0.00     0.006 C 
ENDBRANCH   8   9
BRANCH   8  11
ATOM     11  C   LIG d   1      -2.558  80.296 113.522  0.00  0.00     0.028 C 
ATOM     12  C   LIG d   1      -1.986  79.686 112.232  0.00  0.00     0.006 C 
ENDBRANCH   8  11
ENDBRANCH   7   8
ENDBRANCH   1   7
BRANCH   6  13
ATOM     13  N   LIG d   1      -5.555  79.799 117.958  0.00  0.00    -0.311 N 
ATOM     14  C   LIG d   1      -6.150  80.989 117.883  0.00  0.00     0.210 C 
ATOM     15  C   LIG d   1      -5.918  81.905 119.089  0.00  0.00     0.109 C 
ATOM     16  O   LIG d   1      -6.874  81.360 116.947  0.00  0.00    -0.276 OA
ATOM     17  H   LIG d   1      -5.013  79.569 118.768  0.00  0.00     0.149 HD
ENDBRANCH   6  13
BRANCH   5  18
ATOM     18  N   LIG d   1      -7.747  77.682 117.740  0.00  0.00     0.381 N 
ATOM     19  H   LIG d   1      -8.140  78.417 117.187  0.00  0.00    -0.090 HD
ATOM     20  H   LIG d   1      -7.791  77.956 118.705  0.00  0.00    -0.090 HD
ATOM     21  H   LIG d   1      -8.261  76.840 117.602  0.00  0.00    -0.090 HD
ENDBRANCH   5  18
BRANCH   3  22
ATOM     22  C   LIG d   1      -4.707  75.012 115.176  0.00  0.00     0.382 C 
ATOM     23  O   LIG d   1      -3.517  74.732 114.894  0.00  0.00    -0.241 OA
ATOM     24  O   LIG d   1      -5.605  74.182 114.942  0.00  0.00    -0.241 OA
ENDBRANCH   3  22
TORSDOF 7
ENDMDL
MODEL 6
REMARK VINA RESULT:      -5.1      2.595      5.005
REMARK  7 active torsions:
REMARK  status: ('A' for Active; 'I' for Inactive)
REMARK    1  A    between atoms: C_2  and  C_3 
REMARK    2  A    between atoms: C_3  and  O_6 
REMARK    3  A    between atoms: C_3  and  C_4 
REMARK    4  A    between atoms: C_7  and  O_6 
REMARK    5  A    between atoms: C_9  and  C_10 
REMARK    6  A    between atoms: N_15  and  C_14 
REMARK    7  A    between atoms: N_20  and  C_19 
REMARK       I    between atoms: C_22  and  N_20 
ROOT
ATOM      1  C   LIG d   1      -2.819  78.080 115.569  0.00  0.00     0.161 C 
ATOM      2  C   LIG d   1      -1.491  78.308 115.966  0.00  0.00     0.016 C 
ATOM      3  C   LIG d   1      -0.621  77.281 116.398  0.00  0.00     0.038 C 
ATOM      4  C   LIG d   1      -0.975  75.926 116.318  0.00  0.00     0.028 C 
ATOM      5  C   LIG d   1      -2.479  75.688 116.400  0.00  0.00    -0.047 C 
ATOM      6  C   LIG d   1      -3.189  76.595 115.369  0.00  0.00     0.091 C 
ENDROOT
BRANCH   1   7
ATOM      7  O   LIG d   1      -3.108  78.833 114.374  0.00  0.00    -0.368 OA
BRANCH   7   8
ATOM      8  C   LIG d   1      -2.156  78.699 113.290  0.00  0.00     0.119 C 
BRANCH   8   9
ATOM      9  C   LIG d   1      -1.610  80.106 112.978  0.00  0.00     0.028 C 
ATOM     10  C   LIG d   1      -2.705  81.185 113.028  0.00  0.00     0.006 C 
ENDBRANCH   8   9
BRANCH   8  11
ATOM     11  C   LIG d   1      -2.840  78.234 112.001  0.00  0.00     0.028 C 
ATOM     12  C   LIG d   1      -1.902  78.267 110.784  0.00  0.00     0.006 C 
ENDBRANCH   8  11
ENDBRANCH   7   8
ENDBRANCH   1   7
BRANCH   6  13
ATOM     13  N   LIG d   1      -4.669  76.486 115.442  0.00  0.00    -0.311 N 
ATOM     14  C   LIG d   1      -5.384  75.681 114.658  0.00  0.00     0.210 C 
ATOM     15  C   LIG d   1      -6.898  75.737 114.883  0.00  0.00     0.109 C 
ATOM     16  O   LIG d   1      -4.906  74.903 113.819  0.00  0.00    -0.276 OA
ATOM     17  H   LIG d   1      -5.136  77.060 116.117  0.00  0.00     0.149 HD
ENDBRANCH   6  13
BRANCH   5  18
ATOM     18  N   LIG d   1      -2.717  74.251 116.166  0.00  0.00     0.381 N 
ATOM     19  H   LIG d   1      -3.593  74.124 115.701  0.00  0.00    -0.090 HD
ATOM     20  H   LIG d   1      -2.759  73.779 117.053  0.00  0.00    -0.090 HD
ATOM     21  H   LIG d   1      -1.981  73.869 115.614  0.00  0.00    -0.090 HD
ENDBRANCH   5  18
BRANCH   3  22
ATOM     22  C   LIG d   1       0.606  77.609 116.954  0.00  0.00     0.382 C 
ATOM     23  O   LIG d   1       1.257  76.745 117.591  0.00  0.00    -0.241 OA
ATOM     24  O   LIG d   1       1.050  78.769 116.866  0.00  0.00    -0.241 OA
ENDBRANCH   3  22
TORSDOF 7
ENDMDL
MODEL 7
REMARK VINA RESULT:      -4.8      2.658      4.526
REMARK  7 active torsions:
REMARK  status: ('A' for Active; 'I' for Inactive)
REMARK    1  A    between atoms: C_2  and  C_3 
REMARK    2  A    between atoms: C_3  and  O_6 
REMARK    3  A    between atoms: C_3  and  C_4 
REMARK    4  A    between atoms: C_7  and  O_6 
REMARK    5  A    between atoms: C_9  and  C_10 
REMARK    6  A    between atoms: N_15  and  C_14 
REMARK    7  A    between atoms: N_20  and  C_19 
REMARK       I    between atoms: C_22  and  N_20 
ROOT
ATOM      1  C   LIG d   1      -2.382  77.464 115.298  0.00  0.00     0.161 C 
ATOM      2  C   LIG d   1      -2.062  77.447 116.666  0.00  0.00     0.016 C 
ATOM      3  C   LIG d   1      -0.987  78.177 117.223  0.00  0.00     0.038 C 
ATOM      4  C   LIG d   1      -0.247  79.099 116.468  0.00  0.00     0.028 C 
ATOM      5  C   LIG d   1      -0.209  78.771 114.979  0.00  0.00    -0.047 C 
ATOM      6  C   LIG d   1      -1.655  78.550 114.478  0.00  0.00     0.091 C 
ENDROOT
BRANCH   1   7
ATOM      7  O   LIG d   1      -3.808  77.581 115.131  0.00  0.00    -0.368 OA
BRANCH   7   8
ATOM      8  C   LIG d   1      -4.607  76.513 115.699  0.00  0.00     0.119 C 
BRANCH   8   9
ATOM      9  C   LIG d   1      -5.126  75.653 114.531  0.00  0.00     0.028 C 
ATOM     10  C   LIG d   1      -6.649  75.769 114.348  0.00  0.00     0.006 C 
ENDBRANCH   8   9
BRANCH   8  11
ATOM     11  C   LIG d   1      -5.860  77.061 116.388  0.00  0.00     0.028 C 
ATOM     12  C   LIG d   1      -5.656  78.471 116.963  0.00  0.00     0.006 C 
ENDBRANCH   8  11
ENDBRANCH   7   8
ENDBRANCH   1   7
BRANCH   6  13
ATOM     13  N   LIG d   1      -1.703  78.142 113.049  0.00  0.00    -0.311 N 
ATOM     14  C   LIG d   1      -2.399  78.797 112.123  0.00  0.00     0.210 C 
ATOM     15  C   LIG d   1      -2.329  78.197 110.715  0.00  0.00     0.109 C 
ATOM     16  O   LIG d   1      -3.043  79.838 112.326  0.00  0.00    -0.276 OA
ATOM     17  H   LIG d   1      -1.183  77.326 112.790  0.00  0.00     0.149 HD
ENDBRANCH   6  13
BRANCH   5  18
ATOM     18  N   LIG d   1       0.476  79.883 114.295  0.00  0.00     0.381 N 
ATOM     19  H   LIG d   1       0.889  80.494 114.971  0.00  0.00    -0.090 HD
ATOM     20  H   LIG d   1      -0.200  80.408 113.768  0.00  0.00    -0.090 HD
ATOM     21  H   LIG d   1       1.179  79.527 113.685  0.00  0.00    -0.090 HD
ENDBRANCH   5  18
BRANCH   3  22
ATOM     22  C   LIG d   1      -0.618  77.958 118.542  0.00  0.00     0.382 C 
ATOM     23  O   LIG d   1       0.580  77.715 118.825  0.00  0.00    -0.241 OA
ATOM     24  O   LIG d   1      -1.475  77.957 119.446  0.00  0.00    -0.241 OA
ENDBRANCH   3  22
TORSDOF 7
ENDMDL
MODEL 8
REMARK VINA RESULT:      -4.8      1.449      2.016
REMARK  7 active torsions:
REMARK  status: ('A' for Active; 'I' for Inactive)
REMARK    1  A    between atoms: C_2  and  C_3 
REMARK    2  A    between atoms: C_3  and  O_6 
REMARK    3  A    between atoms: C_3  and  C_4 
REMARK    4  A    between atoms: C_7  and  O_6 
REMARK    5  A    between atoms: C_9  and  C_10 
REMARK    6  A    between atoms: N_15  and  C_14 
REMARK    7  A    between atoms: N_20  and  C_19 
REMARK       I    between atoms: C_22  and  N_20 
ROOT
ATOM      1  C   LIG d   1      -2.325  78.655 116.252  0.00  0.00     0.161 C 
ATOM      2  C   LIG d   1      -2.700  79.410 115.128  0.00  0.00     0.016 C 
ATOM      3  C   LIG d   1      -2.312  79.085 113.808  0.00  0.00     0.038 C 
ATOM      4  C   LIG d   1      -1.643  77.889 113.505  0.00  0.00     0.028 C 
ATOM      5  C   LIG d   1      -0.808  77.353 114.662  0.00  0.00    -0.047 C 
ATOM      6  C   LIG d   1      -1.689  77.287 115.930  0.00  0.00     0.091 C 
ENDROOT
BRANCH   1   7
ATOM      7  O   LIG d   1      -3.458  78.488 117.128  0.00  0.00    -0.368 OA
BRANCH   7   8
ATOM      8  C   LIG d   1      -4.745  78.328 116.482  0.00  0.00     0.119 C 
BRANCH   8   9
ATOM      9  C   LIG d   1      -5.764  79.176 117.267  0.00  0.00     0.028 C 
ATOM     10  C   LIG d   1      -6.998  78.363 117.695  0.00  0.00     0.006 C 
ENDBRANCH   8   9
BRANCH   8  11
ATOM     11  C   LIG d   1      -5.248  76.886 116.590  0.00  0.00     0.028 C 
ATOM     12  C   LIG d   1      -5.155  76.121 115.260  0.00  0.00     0.006 C 
ENDBRANCH   8  11
ENDBRANCH   7   8
ENDBRANCH   1   7
BRANCH   6  13
ATOM     13  N   LIG d   1      -0.927  76.851 117.129  0.00  0.00    -0.311 N 
ATOM     14  C   LIG d   1      -1.279  75.813 117.884  0.00  0.00     0.210 C 
ATOM     15  C   LIG d   1      -0.366  75.548 119.085  0.00  0.00     0.109 C 
ATOM     16  O   LIG d   1      -2.243  75.067 117.656  0.00  0.00    -0.276 OA
ATOM     17  H   LIG d   1      -0.112  77.382 117.369  0.00  0.00     0.149 HD
ENDBRANCH   6  13
BRANCH   5  18
ATOM     18  N   LIG d   1      -0.279  76.037 114.256  0.00  0.00     0.381 N 
ATOM     19  H   LIG d   1      -0.152  75.459 115.064  0.00  0.00    -0.090 HD
ATOM     20  H   LIG d   1       0.616  76.167 113.818  0.00  0.00    -0.090 HD
ATOM     21  H   LIG d   1      -0.907  75.598 113.620  0.00  0.00    -0.090 HD
ENDBRANCH   5  18
BRANCH   3  22
ATOM     22  C   LIG d   1      -2.558  79.981 112.779  0.00  0.00     0.382 C 
ATOM     23  O   LIG d   1      -3.377  80.917 112.945  0.00  0.00    -0.241 OA
ATOM     24  O   LIG d   1      -2.005  79.839 111.672  0.00  0.00    -0.241 OA
ENDBRANCH   3  22
TORSDOF 7
ENDMDL
MODEL 9
REMARK VINA RESULT:      -4.8      3.327      5.138
REMARK  7 active torsions:
REMARK  status: ('A' for Active; 'I' for Inactive)
REMARK    1  A    between atoms: C_2  and  C_3 
REMARK    2  A    between atoms: C_3  and  O_6 
REMARK    3  A    between atoms: C_3  and  C_4 
REMARK    4  A    between atoms: C_7  and  O_6 
REMARK    5  A    between atoms: C_9  and  C_10 
REMARK    6  A    between atoms: N_15  and  C_14 
REMARK    7  A    between atoms: N_20  and  C_19 
REMARK       I    between atoms: C_22  and  N_20 
ROOT
ATOM      1  C   LIG d   1      -3.916  77.579 116.210  0.00  0.00     0.161 C 
ATOM      2  C   LIG d   1      -3.162  76.516 115.684  0.00  0.00     0.016 C 
ATOM      3  C   LIG d   1      -2.217  75.785 116.439  0.00  0.00     0.038 C 
ATOM      4  C   LIG d   1      -2.070  75.970 117.822  0.00  0.00     0.028 C 
ATOM      5  C   LIG d   1      -2.446  77.372 118.289  0.00  0.00    -0.047 C 
ATOM      6  C   LIG d   1      -3.850  77.722 117.744  0.00  0.00     0.091 C 
ENDROOT
BRANCH   1   7
ATOM      7  O   LIG d   1      -5.286  77.467 115.776  0.00  0.00    -0.368 OA
BRANCH   7   8
ATOM      8  C   LIG d   1      -6.065  76.411 116.390  0.00  0.00     0.119 C 
BRANCH   8   9
ATOM      9  C   LIG d   1      -6.613  75.521 115.258  0.00  0.00     0.028 C 
ATOM     10  C   LIG d   1      -5.864  74.182 115.149  0.00  0.00     0.006 C 
ENDBRANCH   8   9
BRANCH   8  11
ATOM     11  C   LIG d   1      -7.302  76.972 117.100  0.00  0.00     0.028 C 
ATOM     12  C   LIG d   1      -8.499  76.009 117.061  0.00  0.00     0.006 C 
ENDBRANCH   8  11
ENDBRANCH   7   8
ENDBRANCH   1   7
BRANCH   6  13
ATOM     13  N   LIG d   1      -4.260  79.109 118.085  0.00  0.00    -0.311 N 
ATOM     14  C   LIG d   1      -5.049  79.408 119.115  0.00  0.00     0.210 C 
ATOM     15  C   LIG d   1      -5.365  80.899 119.276  0.00  0.00     0.109 C 
ATOM     16  O   LIG d   1      -5.492  78.585 119.930  0.00  0.00    -0.276 OA
ATOM     17  H   LIG d   1      -3.921  79.843 117.494  0.00  0.00     0.149 HD
ENDBRANCH   6  13
BRANCH   5  18
ATOM     18  N   LIG d   1      -2.378  77.384 119.763  0.00  0.00     0.381 N 
ATOM     19  H   LIG d   1      -3.153  77.896 120.133  0.00  0.00    -0.090 HD
ATOM     20  H   LIG d   1      -1.531  77.844 120.045  0.00  0.00    -0.090 HD
ATOM     21  H   LIG d   1      -2.390  76.451 120.112  0.00  0.00    -0.090 HD
ENDBRANCH   5  18
BRANCH   3  22
ATOM     22  C   LIG d   1      -1.378  74.883 115.802  0.00  0.00     0.382 C 
ATOM     23  O   LIG d   1      -0.586  74.180 116.475  0.00  0.00    -0.241 OA
ATOM     24  O   LIG d   1      -1.371  74.796 114.560  0.00  0.00    -0.241 OA
ENDBRANCH   3  22
TORSDOF 7
ENDMDL
