MODEL 1
REMARK VINA RESULT:      -5.6      0.000      0.000
REMARK  7 active torsions:
REMARK  status: ('A' for Active; 'I' for Inactive)
REMARK    1  A    between atoms: C_2  and  C_3 
REMARK    2  A    between atoms: C_3  and  O_6 
REMARK    3  A    between atoms: C_3  and  C_4 
REMARK    4  A    between atoms: C_7  and  O_6 
REMARK    5  A    between atoms: C_9  and  C_10 
REMARK    6  A    between atoms: N_15  and  C_14 
REMARK    7  A    between atoms: N_20  and  C_19 
REMARK       I    between atoms: C_22  and  N_20 
ROOT
ATOM      1  C   LIG d   1      -3.262  77.670 114.307  0.00  0.00     0.161 C 
ATOM      2  C   LIG d   1      -3.280  77.809 112.909  0.00  0.00     0.016 C 
ATOM      3  C   LIG d   1      -2.218  77.394 112.072  0.00  0.00     0.038 C 
ATOM      4  C   LIG d   1      -1.124  76.669 112.567  0.00  0.00     0.028 C 
ATOM      5  C   LIG d   1      -0.825  76.950 114.035  0.00  0.00    -0.047 C 
ATOM      6  C   LIG d   1      -2.125  76.781 114.853  0.00  0.00     0.091 C 
ENDROOT
BRANCH   1   7
ATOM      7  O   LIG d   1      -4.540  77.188 114.766  0.00  0.00    -0.368 OA
BRANCH   7   8
ATOM      8  C   LIG d   1      -5.146  76.135 113.976  0.00  0.00     0.119 C 
BRANCH   8   9
ATOM      9  C   LIG d   1      -6.653  76.439 113.877  0.00  0.00     0.028 C 
ATOM     10  C   LIG d   1      -7.068  76.897 112.468  0.00  0.00     0.006 C 
ENDBRANCH   8   9
BRANCH   8  11
ATOM     11  C   LIG d   1      -5.051  74.781 114.685  0.00  0.00     0.028 C 
ATOM     12  C   LIG d   1      -5.997  74.674 115.892  0.00  0.00     0.006 C 
ENDBRANCH   8  11
ENDBRANCH   7   8
ENDBRANCH   1   7
BRANCH   6  13
ATOM     13  N   LIG d   1      -1.940  77.119 116.289  0.00  0.00    -0.311 N 
ATOM     14  C   LIG d   1      -2.036  76.225 117.271  0.00  0.00     0.210 C 
ATOM     15  C   LIG d   1      -1.830  76.789 118.681  0.00  0.00     0.109 C 
ATOM     16  O   LIG d   1      -2.241  75.013 117.107  0.00  0.00    -0.276 OA
ATOM     17  H   LIG d   1      -1.740  78.075 116.510  0.00  0.00     0.149 HD
ENDBRANCH   6  13
BRANCH   5  18
ATOM     18  N   LIG d   1       0.247  76.029 114.456  0.00  0.00     0.381 N 
ATOM     19  H   LIG d   1       1.118  76.520 114.500  0.00  0.00    -0.090 HD
ATOM     20  H   LIG d   1       0.333  75.296 113.774  0.00  0.00    -0.090 HD
ATOM     21  H   LIG d   1       0.032  75.640 115.348  0.00  0.00    -0.090 HD
ENDBRANCH   5  18
BRANCH   3  22
ATOM     22  C   LIG d   1      -2.227  77.740 110.729  0.00  0.00     0.382 C 
ATOM     23  O   LIG d   1      -1.382  78.556 110.286  0.00  0.00    -0.241 OA
ATOM     24  O   LIG d   1      -3.095  77.280 109.964  0.00  0.00    -0.241 OA
ENDBRANCH   3  22
TORSDOF 7
ENDMDL
MODEL 2
REMARK VINA RESULT:      -5.3      2.547      3.699
REMARK  7 active torsions:
REMARK  status: ('A' for Active; 'I' for Inactive)
REMARK    1  A    between atoms: C_2  and  C_3 
REMARK    2  A    between atoms: C_3  and  O_6 
REMARK    3  A    between atoms: C_3  and  C_4 
REMARK    4  A    between atoms: C_7  and  O_6 
REMARK    5  A    between atoms: C_9  and  C_10 
REMARK    6  A    between atoms: N_15  and  C_14 
REMARK    7  A    between atoms: N_20  and  C_19 
REMARK       I    between atoms: C_22  and  N_20 
ROOT
ATOM      1  C   LIG d   1      -2.069  77.033 113.760  0.00  0.00     0.161 C 
ATOM      2  C   LIG d   1      -1.366  76.801 112.567  0.00  0.00     0.016 C 
ATOM      3  C   LIG d   1      -1.159  77.792 111.580  0.00  0.00     0.038 C 
ATOM      4  C   LIG d   1      -1.513  79.133 111.791  0.00  0.00     0.028 C 
ATOM      5  C   LIG d   1      -2.674  79.307 112.764  0.00  0.00    -0.047 C 
ATOM      6  C   LIG d   1      -2.367  78.517 114.057  0.00  0.00     0.091 C 
ENDROOT
BRANCH   1   7
ATOM      7  O   LIG d   1      -1.367  76.432 114.866  0.00  0.00    -0.368 OA
BRANCH   7   8
ATOM      8  C   LIG d   1      -1.688  75.048 115.149  0.00  0.00     0.119 C 
BRANCH   8   9
ATOM      9  C   LIG d   1      -2.552  75.024 116.425  0.00  0.00     0.028 C 
ATOM     10  C   LIG d   1      -4.057  74.973 116.114  0.00  0.00     0.006 C 
ENDBRANCH   8   9
BRANCH   8  11
ATOM     11  C   LIG d   1      -0.432  74.243 115.495  0.00  0.00     0.028 C 
ATOM     12  C   LIG d   1       0.867  74.994 115.163  0.00  0.00     0.006 C 
ENDBRANCH   8  11
ENDBRANCH   7   8
ENDBRANCH   1   7
BRANCH   6  13
ATOM     13  N   LIG d   1      -3.489  78.565 115.031  0.00  0.00    -0.311 N 
ATOM     14  C   LIG d   1      -3.321  78.779 116.334  0.00  0.00     0.210 C 
ATOM     15  C   LIG d   1      -4.609  78.769 117.163  0.00  0.00     0.109 C 
ATOM     16  O   LIG d   1      -2.230  79.009 116.878  0.00  0.00    -0.276 OA
ATOM     17  H   LIG d   1      -4.412  78.419 114.670  0.00  0.00     0.149 HD
ENDBRANCH   6  13
BRANCH   5  18
ATOM     18  N   LIG d   1      -2.848  80.753 112.997  0.00  0.00     0.381 N 
ATOM     19  H   LIG d   1      -3.656  80.909 113.566  0.00  0.00    -0.090 HD
ATOM     20  H   LIG d   1      -2.991  81.210 112.114  0.00  0.00    -0.090 HD
ATOM     21  H   LIG d   1      -2.040  81.126 113.445  0.00  0.00    -0.090 HD
ENDBRANCH   5  18
BRANCH   3  22
ATOM     22  C   LIG d   1      -0.626  77.437 110.350  0.00  0.00     0.382 C 
ATOM     23  O   LIG d   1      -0.480  76.226 110.056  0.00  0.00    -0.241 OA
ATOM     24  O   LIG d   1      -0.248  78.313 109.549  0.00  0.00    -0.241 OA
ENDBRANCH   3  22
TORSDOF 7
ENDMDL
MODEL 3
REMARK VINA RESULT:      -5.3      2.007      5.142
REMARK  7 active torsions:
REMARK  status: ('A' for Active; 'I' for Inactive)
REMARK    1  A    between atoms: C_2  and  C_3 
REMARK    2  A    between atoms: C_3  and  O_6 
REMARK    3  A    between atoms: C_3  and  C_4 
REMARK    4  A    between atoms: C_7  and  O_6 
REMARK    5  A    between atoms: C_9  and  C_10 
REMARK    6  A    between atoms: N_15  and  C_14 
REMARK    7  A    between atoms: N_20  and  C_19 
REMARK       I    between atoms: C_22  and  N_20 
ROOT
ATOM      1  C   LIG d   1      -2.250  75.270 115.030  0.00  0.00     0.161 C 
ATOM      2  C   LIG d   1      -1.967  74.903 116.356  0.00  0.00     0.016 C 
ATOM      3  C   LIG d   1      -1.235  75.719 117.250  0.00  0.00     0.038 C 
ATOM      4  C   LIG d   1      -0.864  77.031 116.921  0.00  0.00     0.028 C 
ATOM      5  C   LIG d   1      -0.688  77.254 115.423  0.00  0.00    -0.047 C 
ATOM      6  C   LIG d   1      -1.950  76.745 114.689  0.00  0.00     0.091 C 
ENDROOT
BRANCH   1   7
ATOM      7  O   LIG d   1      -3.621  74.953 114.718  0.00  0.00    -0.368 OA
BRANCH   7   8
ATOM      8  C   LIG d   1      -4.597  75.266 115.742  0.00  0.00     0.119 C 
BRANCH   8   9
ATOM      9  C   LIG d   1      -5.689  74.180 115.688  0.00  0.00     0.028 C 
ATOM     10  C   LIG d   1      -6.647  74.251 116.890  0.00  0.00     0.006 C 
ENDBRANCH   8   9
BRANCH   8  11
ATOM     11  C   LIG d   1      -5.319  76.582 115.440  0.00  0.00     0.028 C 
ATOM     12  C   LIG d   1      -5.029  77.674 116.482  0.00  0.00     0.006 C 
ENDBRANCH   8  11
ENDBRANCH   7   8
ENDBRANCH   1   7
BRANCH   6  13
ATOM     13  N   LIG d   1      -1.826  76.849 113.212  0.00  0.00    -0.311 N 
ATOM     14  C   LIG d   1      -2.611  77.621 112.463  0.00  0.00     0.210 C 
ATOM     15  C   LIG d   1      -2.328  77.566 110.958  0.00  0.00     0.109 C 
ATOM     16  O   LIG d   1      -3.495  78.371 112.905  0.00  0.00    -0.276 OA
ATOM     17  H   LIG d   1      -1.115  76.297 112.773  0.00  0.00     0.149 HD
ENDBRANCH   6  13
BRANCH   5  18
ATOM     18  N   LIG d   1      -0.438  78.693 115.213  0.00  0.00     0.381 N 
ATOM     19  H   LIG d   1       0.249  78.816 114.496  0.00  0.00    -0.090 HD
ATOM     20  H   LIG d   1      -0.080  79.088 116.064  0.00  0.00    -0.090 HD
ATOM     21  H   LIG d   1      -1.284  79.152 114.955  0.00  0.00    -0.090 HD
ENDBRANCH   5  18
BRANCH   3  22
ATOM     22  C   LIG d   1      -0.831  75.207 118.474  0.00  0.00     0.382 C 
ATOM     23  O   LIG d   1      -1.138  75.804 119.534  0.00  0.00    -0.241 OA
ATOM     24  O   LIG d   1      -0.128  74.181 118.529  0.00  0.00    -0.241 OA
ENDBRANCH   3  22
TORSDOF 7
ENDMDL
MODEL 4
REMARK VINA RESULT:      -5.1      1.675      1.968
REMARK  7 active torsions:
REMARK  status: ('A' for Active; 'I' for Inactive)
REMARK    1  A    between atoms: C_2  and  C_3 
REMARK    2  A    between atoms: C_3  and  O_6 
REMARK    3  A    between atoms: C_3  and  C_4 
REMARK    4  A    between atoms: C_7  and  O_6 
REMARK    5  A    between atoms: C_9  and  C_10 
REMARK    6  A    between atoms: N_15  and  C_14 
REMARK    7  A    between atoms: N_20  and  C_19 
REMARK       I    between atoms: C_22  and  N_20 
ROOT
ATOM      1  C   LIG d   1      -3.088  77.001 115.528  0.00  0.00     0.161 C 
ATOM      2  C   LIG d   1      -3.247  78.174 114.772  0.00  0.00     0.016 C 
ATOM      3  C   LIG d   1      -2.451  78.488 113.646  0.00  0.00     0.038 C 
ATOM      4  C   LIG d   1      -1.535  77.573 113.107  0.00  0.00     0.028 C 
ATOM      5  C   LIG d   1      -0.986  76.589 114.135  0.00  0.00    -0.047 C 
ATOM      6  C   LIG d   1      -2.168  75.939 114.889  0.00  0.00     0.091 C 
ENDROOT
BRANCH   1   7
ATOM      7  O   LIG d   1      -4.378  76.432 115.826  0.00  0.00    -0.368 OA
BRANCH   7   8
ATOM      8  C   LIG d   1      -4.959  75.595 114.796  0.00  0.00     0.119 C 
BRANCH   8   9
ATOM      9  C   LIG d   1      -6.211  76.317 114.263  0.00  0.00     0.028 C 
ATOM     10  C   LIG d   1      -6.050  76.772 112.803  0.00  0.00     0.006 C 
ENDBRANCH   8   9
BRANCH   8  11
ATOM     11  C   LIG d   1      -5.469  74.272 115.375  0.00  0.00     0.028 C 
ATOM     12  C   LIG d   1      -6.480  74.471 116.515  0.00  0.00     0.006 C 
ENDBRANCH   8  11
ENDBRANCH   7   8
ENDBRANCH   1   7
BRANCH   6  13
ATOM     13  N   LIG d   1      -1.717  75.025 115.971  0.00  0.00    -0.311 N 
ATOM     14  C   LIG d   1      -0.967  75.419 116.998  0.00  0.00     0.210 C 
ATOM     15  C   LIG d   1      -0.597  74.313 117.991  0.00  0.00     0.109 C 
ATOM     16  O   LIG d   1      -0.600  76.587 117.199  0.00  0.00    -0.276 OA
ATOM     17  H   LIG d   1      -1.996  74.066 115.903  0.00  0.00     0.149 HD
ENDBRANCH   6  13
BRANCH   5  18
ATOM     18  N   LIG d   1      -0.152  75.609 113.413  0.00  0.00     0.381 N 
ATOM     19  H   LIG d   1      -0.680  74.777 113.241  0.00  0.00    -0.090 HD
ATOM     20  H   LIG d   1       0.638  75.370 113.986  0.00  0.00    -0.090 HD
ATOM     21  H   LIG d   1       0.159  75.997 112.550  0.00  0.00    -0.090 HD
ENDBRANCH   5  18
BRANCH   3  22
ATOM     22  C   LIG d   1      -2.539  79.747 113.072  0.00  0.00     0.382 C 
ATOM     23  O   LIG d   1      -1.770  80.064 112.133  0.00  0.00    -0.241 OA
ATOM     24  O   LIG d   1      -3.349  80.586 113.511  0.00  0.00    -0.241 OA
ENDBRANCH   3  22
TORSDOF 7
ENDMDL
MODEL 5
REMARK VINA RESULT:      -5.0      2.608      4.377
REMARK  7 active torsions:
REMARK  status: ('A' for Active; 'I' for Inactive)
REMARK    1  A    between atoms: C_2  and  C_3 
REMARK    2  A    between atoms: C_3  and  O_6 
REMARK    3  A    between atoms: C_3  and  C_4 
REMARK    4  A    between atoms: C_7  and  O_6 
REMARK    5  A    between atoms: C_9  and  C_10 
REMARK    6  A    between atoms: N_15  and  C_14 
REMARK    7  A    between atoms: N_20  and  C_19 
REMARK       I    between atoms: C_22  and  N_20 
ROOT
ATOM      1  C   LIG d   1      -2.067  77.438 113.255  0.00  0.00     0.161 C 
ATOM      2  C   LIG d   1      -2.616  78.722 113.412  0.00  0.00     0.016 C 
ATOM      3  C   LIG d   1      -2.233  79.833 112.627  0.00  0.00     0.038 C 
ATOM      4  C   LIG d   1      -1.379  79.701 111.522  0.00  0.00     0.028 C 
ATOM      5  C   LIG d   1      -0.413  78.527 111.639  0.00  0.00    -0.047 C 
ATOM      6  C   LIG d   1      -1.215  77.250 111.982  0.00  0.00     0.091 C 
ENDROOT
BRANCH   1   7
ATOM      7  O   LIG d   1      -3.114  76.449 113.308  0.00  0.00    -0.368 OA
BRANCH   7   8
ATOM      8  C   LIG d   1      -3.730  76.242 114.603  0.00  0.00     0.119 C 
BRANCH   8   9
ATOM      9  C   LIG d   1      -2.600  75.976 115.616  0.00  0.00     0.028 C 
ATOM     10  C   LIG d   1      -2.669  74.560 116.213  0.00  0.00     0.006 C 
ENDBRANCH   8   9
BRANCH   8  11
ATOM     11  C   LIG d   1      -4.591  74.975 114.613  0.00  0.00     0.028 C 
ATOM     12  C   LIG d   1      -6.029  75.236 115.090  0.00  0.00     0.006 C 
ENDBRANCH   8  11
ENDBRANCH   7   8
ENDBRANCH   1   7
BRANCH   6  13
ATOM     13  N   LIG d   1      -0.338  76.070 112.198  0.00  0.00    -0.311 N 
ATOM     14  C   LIG d   1       0.218  75.378 111.205  0.00  0.00     0.210 C 
ATOM     15  C   LIG d   1       1.071  74.185 111.646  0.00  0.00     0.109 C 
ATOM     16  O   LIG d   1       0.110  75.658 110.001  0.00  0.00    -0.276 OA
ATOM     17  H   LIG d   1      -0.172  75.793 113.146  0.00  0.00     0.149 HD
ENDBRANCH   6  13
BRANCH   5  18
ATOM     18  N   LIG d   1       0.321  78.423 110.364  0.00  0.00     0.381 N 
ATOM     19  H   LIG d   1       0.488  79.338 109.994  0.00  0.00    -0.090 HD
ATOM     20  H   LIG d   1      -0.243  77.915 109.705  0.00  0.00    -0.090 HD
ATOM     21  H   LIG d   1       1.186  77.951 110.506  0.00  0.00    -0.090 HD
ENDBRANCH   5  18
BRANCH   3  22
ATOM     22  C   LIG d   1      -2.676  81.102 112.969  0.00  0.00     0.382 C 
ATOM     23  O   LIG d   1      -3.632  81.237 113.769  0.00  0.00    -0.241 OA
ATOM     24  O   LIG d   1      -2.161  82.111 112.453  0.00  0.00    -0.241 OA
ENDBRANCH   3  22
TORSDOF 7
ENDMDL
MODEL 6
REMARK VINA RESULT:      -5.0      1.793      2.153
REMARK  7 active torsions:
REMARK  status: ('A' for Active; 'I' for Inactive)
REMARK    1  A    between atoms: C_2  and  C_3 
REMARK    2  A    between atoms: C_3  and  O_6 
REMARK    3  A    between atoms: C_3  and  C_4 
REMARK    4  A    between atoms: C_7  and  O_6 
REMARK    5  A    between atoms: C_9  and  C_10 
REMARK    6  A    between atoms: N_15  and  C_14 
REMARK    7  A    between atoms: N_20  and  C_19 
REMARK       I    between atoms: C_22  and  N_20 
ROOT
ATOM      1  C   LIG d   1      -3.362  78.346 115.102  0.00  0.00     0.161 C 
ATOM      2  C   LIG d   1      -3.223  77.861 113.791  0.00  0.00     0.016 C 
ATOM      3  C   LIG d   1      -2.010  77.348 113.276  0.00  0.00     0.038 C 
ATOM      4  C   LIG d   1      -0.887  77.143 114.090  0.00  0.00     0.028 C 
ATOM      5  C   LIG d   1      -0.827  78.085 115.288  0.00  0.00    -0.047 C 
ATOM      6  C   LIG d   1      -2.177  78.029 116.038  0.00  0.00     0.091 C 
ENDROOT
BRANCH   1   7
ATOM      7  O   LIG d   1      -4.595  77.865 115.673  0.00  0.00    -0.368 OA
BRANCH   7   8
ATOM      8  C   LIG d   1      -5.011  76.539 115.264  0.00  0.00     0.119 C 
BRANCH   8   9
ATOM      9  C   LIG d   1      -6.549  76.545 115.171  0.00  0.00     0.028 C 
ATOM     10  C   LIG d   1      -7.209  75.761 116.318  0.00  0.00     0.006 C 
ENDBRANCH   8   9
BRANCH   8  11
ATOM     11  C   LIG d   1      -4.673  75.494 116.332  0.00  0.00     0.028 C 
ATOM     12  C   LIG d   1      -3.376  74.728 116.027  0.00  0.00     0.006 C 
ENDBRANCH   8  11
ENDBRANCH   7   8
ENDBRANCH   1   7
BRANCH   6  13
ATOM     13  N   LIG d   1      -2.234  78.984 117.176  0.00  0.00    -0.311 N 
ATOM     14  C   LIG d   1      -2.516  78.619 118.425  0.00  0.00     0.210 C 
ATOM     15  C   LIG d   1      -2.542  79.765 119.442  0.00  0.00     0.109 C 
ATOM     16  O   LIG d   1      -2.714  77.452 118.794  0.00  0.00    -0.276 OA
ATOM     17  H   LIG d   1      -2.055  79.947 116.971  0.00  0.00     0.149 HD
ENDBRANCH   6  13
BRANCH   5  18
ATOM     18  N   LIG d   1       0.316  77.672 116.123  0.00  0.00     0.381 N 
ATOM     19  H   LIG d   1       0.197  76.722 116.414  0.00  0.00    -0.090 HD
ATOM     20  H   LIG d   1       0.346  78.251 116.943  0.00  0.00    -0.090 HD
ATOM     21  H   LIG d   1       1.165  77.766 115.610  0.00  0.00    -0.090 HD
ENDBRANCH   5  18
BRANCH   3  22
ATOM     22  C   LIG d   1      -1.902  77.070 111.922  0.00  0.00     0.382 C 
ATOM     23  O   LIG d   1      -2.791  77.463 111.128  0.00  0.00    -0.241 OA
ATOM     24  O   LIG d   1      -0.950  76.393 111.490  0.00  0.00    -0.241 OA
ENDBRANCH   3  22
TORSDOF 7
ENDMDL
MODEL 7
REMARK VINA RESULT:      -5.0      1.875      2.496
REMARK  7 active torsions:
REMARK  status: ('A' for Active; 'I' for Inactive)
REMARK    1  A    between atoms: C_2  and  C_3 
REMARK    2  A    between atoms: C_3  and  O_6 
REMARK    3  A    between atoms: C_3  and  C_4 
REMARK    4  A    between atoms: C_7  and  O_6 
REMARK    5  A    between atoms: C_9  and  C_10 
REMARK    6  A    between atoms: N_15  and  C_14 
REMARK    7  A    between atoms: N_20  and  C_19 
REMARK       I    between atoms: C_22  and  N_20 
ROOT
ATOM      1  C   LIG d   1      -2.520  77.202 116.312  0.00  0.00     0.161 C 
ATOM      2  C   LIG d   1      -3.126  77.640 115.123  0.00  0.00     0.016 C 
ATOM      3  C   LIG d   1      -2.544  77.473 113.846  0.00  0.00     0.038 C 
ATOM      4  C   LIG d   1      -1.378  76.716 113.655  0.00  0.00     0.028 C 
ATOM      5  C   LIG d   1      -0.468  76.688 114.878  0.00  0.00    -0.047 C 
ATOM      6  C   LIG d   1      -1.301  76.276 116.114  0.00  0.00     0.091 C 
ENDROOT
BRANCH   1   7
ATOM      7  O   LIG d   1      -3.501  76.565 117.155  0.00  0.00    -0.368 OA
BRANCH   7   8
ATOM      8  C   LIG d   1      -4.809  76.359 116.567  0.00  0.00     0.119 C 
BRANCH   8   9
ATOM      9  C   LIG d   1      -5.858  76.702 117.642  0.00  0.00     0.028 C 
ATOM     10  C   LIG d   1      -7.297  76.447 117.160  0.00  0.00     0.006 C 
ENDBRANCH   8   9
BRANCH   8  11
ATOM     11  C   LIG d   1      -5.042  74.883 116.230  0.00  0.00     0.028 C 
ATOM     12  C   LIG d   1      -5.077  74.617 114.717  0.00  0.00     0.006 C 
ENDBRANCH   8  11
ENDBRANCH   7   8
ENDBRANCH   1   7
BRANCH   6  13
ATOM     13  N   LIG d   1      -0.506  76.305 117.369  0.00  0.00    -0.311 N 
ATOM     14  C   LIG d   1       0.196  75.265 117.816  0.00  0.00     0.210 C 
ATOM     15  C   LIG d   1       0.928  75.500 119.141  0.00  0.00     0.109 C 
ATOM     16  O   LIG d   1       0.307  74.180 117.225  0.00  0.00    -0.276 OA
ATOM     17  H   LIG d   1      -0.515  77.156 117.896  0.00  0.00     0.149 HD
ENDBRANCH   6  13
BRANCH   5  18
ATOM     18  N   LIG d   1       0.637  75.755 114.590  0.00  0.00     0.381 N 
ATOM     19  H   LIG d   1       0.786  75.153 115.375  0.00  0.00    -0.090 HD
ATOM     20  H   LIG d   1       1.477  76.284 114.434  0.00  0.00    -0.090 HD
ATOM     21  H   LIG d   1       0.423  75.212 113.782  0.00  0.00    -0.090 HD
ENDBRANCH   5  18
BRANCH   3  22
ATOM     22  C   LIG d   1      -3.109  78.101 112.746  0.00  0.00     0.382 C 
ATOM     23  O   LIG d   1      -3.311  77.454 111.690  0.00  0.00    -0.241 OA
ATOM     24  O   LIG d   1      -3.379  79.316 112.782  0.00  0.00    -0.241 OA
ENDBRANCH   3  22
TORSDOF 7
ENDMDL
MODEL 8
REMARK VINA RESULT:      -5.0      1.999      2.548
REMARK  7 active torsions:
REMARK  status: ('A' for Active; 'I' for Inactive)
REMARK    1  A    between atoms: C_2  and  C_3 
REMARK    2  A    between atoms: C_3  and  O_6 
REMARK    3  A    between atoms: C_3  and  C_4 
REMARK    4  A    between atoms: C_7  and  O_6 
REMARK    5  A    between atoms: C_9  and  C_10 
REMARK    6  A    between atoms: N_15  and  C_14 
REMARK    7  A    between atoms: N_20  and  C_19 
REMARK       I    between atoms: C_22  and  N_20 
ROOT
ATOM      1  C   LIG d   1      -2.755  77.108 115.740  0.00  0.00     0.161 C 
ATOM      2  C   LIG d   1      -3.019  78.239 114.949  0.00  0.00     0.016 C 
ATOM      3  C   LIG d   1      -2.358  78.505 113.727  0.00  0.00     0.038 C 
ATOM      4  C   LIG d   1      -1.491  77.575 113.135  0.00  0.00     0.028 C 
ATOM      5  C   LIG d   1      -0.813  76.652 114.142  0.00  0.00    -0.047 C 
ATOM      6  C   LIG d   1      -1.893  76.027 115.055  0.00  0.00     0.091 C 
ENDROOT
BRANCH   1   7
ATOM      7  O   LIG d   1      -3.994  76.539 116.207  0.00  0.00    -0.368 OA
BRANCH   7   8
ATOM      8  C   LIG d   1      -5.193  76.970 115.518  0.00  0.00     0.119 C 
BRANCH   8   9
ATOM      9  C   LIG d   1      -6.245  77.316 116.591  0.00  0.00     0.028 C 
ATOM     10  C   LIG d   1      -5.747  77.021 118.016  0.00  0.00     0.006 C 
ENDBRANCH   8   9
BRANCH   8  11
ATOM     11  C   LIG d   1      -5.807  75.830 114.701  0.00  0.00     0.028 C 
ATOM     12  C   LIG d   1      -5.551  74.447 115.322  0.00  0.00     0.006 C 
ENDBRANCH   8  11
ENDBRANCH   7   8
ENDBRANCH   1   7
BRANCH   6  13
ATOM     13  N   LIG d   1      -1.308  75.175 116.124  0.00  0.00    -0.311 N 
ATOM     14  C   LIG d   1      -0.397  75.611 116.992  0.00  0.00     0.210 C 
ATOM     15  C   LIG d   1       0.089  74.564 117.999  0.00  0.00     0.109 C 
ATOM     16  O   LIG d   1       0.032  76.773 117.044  0.00  0.00    -0.276 OA
ATOM     17  H   LIG d   1      -1.622  74.226 116.174  0.00  0.00     0.149 HD
ENDBRANCH   6  13
BRANCH   5  18
ATOM     18  N   LIG d   1      -0.047  75.647 113.381  0.00  0.00     0.381 N 
ATOM     19  H   LIG d   1       0.561  75.146 113.998  0.00  0.00    -0.090 HD
ATOM     20  H   LIG d   1       0.517  76.119 112.697  0.00  0.00    -0.090 HD
ATOM     21  H   LIG d   1      -0.670  75.014 112.929  0.00  0.00    -0.090 HD
ENDBRANCH   5  18
BRANCH   3  22
ATOM     22  C   LIG d   1      -2.533  79.732 113.105  0.00  0.00     0.382 C 
ATOM     23  O   LIG d   1      -3.379  80.545 113.548  0.00  0.00    -0.241 OA
ATOM     24  O   LIG d   1      -1.886  80.018 112.080  0.00  0.00    -0.241 OA
ENDBRANCH   3  22
TORSDOF 7
ENDMDL
MODEL 9
REMARK VINA RESULT:      -4.7      2.789      5.169
REMARK  7 active torsions:
REMARK  status: ('A' for Active; 'I' for Inactive)
REMARK    1  A    between atoms: C_2  and  C_3 
REMARK    2  A    between atoms: C_3  and  O_6 
REMARK    3  A    between atoms: C_3  and  C_4 
REMARK    4  A    between atoms: C_7  and  O_6 
REMARK    5  A    between atoms: C_9  and  C_10 
REMARK    6  A    between atoms: N_15  and  C_14 
REMARK    7  A    between atoms: N_20  and  C_19 
REMARK       I    between atoms: C_22  and  N_20 
ROOT
ATOM      1  C   LIG d   1      -1.543  78.550 114.219  0.00  0.00     0.161 C 
ATOM      2  C   LIG d   1      -2.695  77.746 114.222  0.00  0.00     0.016 C 
ATOM      3  C   LIG d   1      -3.299  77.248 113.044  0.00  0.00     0.038 C 
ATOM      4  C   LIG d   1      -2.701  77.396 111.784  0.00  0.00     0.028 C 
ATOM      5  C   LIG d   1      -1.809  78.629 111.679  0.00  0.00    -0.047 C 
ATOM      6  C   LIG d   1      -0.814  78.630 112.862  0.00  0.00     0.091 C 
ENDROOT
BRANCH   1   7
ATOM      7  O   LIG d   1      -0.637  78.109 115.249  0.00  0.00    -0.368 OA
BRANCH   7   8
ATOM      8  C   LIG d   1      -0.873  76.782 115.781  0.00  0.00     0.119 C 
BRANCH   8   9
ATOM      9  C   LIG d   1      -0.859  76.890 117.318  0.00  0.00     0.028 C 
ATOM     10  C   LIG d   1      -1.025  75.523 118.003  0.00  0.00     0.006 C 
ENDBRANCH   8   9
BRANCH   8  11
ATOM     11  C   LIG d   1       0.274  75.829 115.430  0.00  0.00     0.028 C 
ATOM     12  C   LIG d   1       0.067  75.118 114.083  0.00  0.00     0.006 C 
ENDBRANCH   8  11
ENDBRANCH   7   8
ENDBRANCH   1   7
BRANCH   6  13
ATOM     13  N   LIG d   1       0.041  79.846 112.881  0.00  0.00    -0.311 N 
ATOM     14  C   LIG d   1      -0.440  81.082 112.764  0.00  0.00     0.210 C 
ATOM     15  C   LIG d   1       0.616  82.192 112.790  0.00  0.00     0.109 C 
ATOM     16  O   LIG d   1      -1.643  81.367 112.674  0.00  0.00    -0.276 OA
ATOM     17  H   LIG d   1       1.028  79.708 112.983  0.00  0.00     0.149 HD
ENDBRANCH   6  13
BRANCH   5  18
ATOM     18  N   LIG d   1      -1.143  78.585 110.363  0.00  0.00     0.381 N 
ATOM     19  H   LIG d   1      -0.845  79.504 110.104  0.00  0.00    -0.090 HD
ATOM     20  H   LIG d   1      -1.801  78.262 109.676  0.00  0.00    -0.090 HD
ATOM     21  H   LIG d   1      -0.359  77.971 110.397  0.00  0.00    -0.090 HD
ENDBRANCH   5  18
BRANCH   3  22
ATOM     22  C   LIG d   1      -4.537  76.627 113.117  0.00  0.00     0.382 C 
ATOM     23  O   LIG d   1      -5.564  77.227 112.719  0.00  0.00    -0.241 OA
ATOM     24  O   LIG d   1      -4.645  75.491 113.616  0.00  0.00    -0.241 OA
ENDBRANCH   3  22
TORSDOF 7
ENDMDL
