MODEL 1
REMARK VINA RESULT:      -4.8      0.000      0.000
REMARK  7 active torsions:
REMARK  status: ('A' for Active; 'I' for Inactive)
REMARK    1  A    between atoms: C_2  and  C_3 
REMARK    2  A    between atoms: C_3  and  O_6 
REMARK    3  A    between atoms: C_3  and  C_4 
REMARK    4  A    between atoms: C_7  and  O_6 
REMARK    5  A    between atoms: C_9  and  C_10 
REMARK    6  A    between atoms: N_15  and  C_14 
REMARK    7  A    between atoms: N_20  and  C_19 
REMARK       I    between atoms: C_22  and  N_20 
ROOT
ATOM      1  C   LIG d   1      -1.102  80.991 112.702  0.00  0.00     0.161 C 
ATOM      2  C   LIG d   1      -1.598  79.744 112.285  0.00  0.00     0.016 C 
ATOM      3  C   LIG d   1      -2.486  78.962 113.057  0.00  0.00     0.038 C 
ATOM      4  C   LIG d   1      -3.062  79.445 114.241  0.00  0.00     0.028 C 
ATOM      5  C   LIG d   1      -2.203  80.485 114.952  0.00  0.00    -0.047 C 
ATOM      6  C   LIG d   1      -1.806  81.584 113.940  0.00  0.00     0.091 C 
ENDROOT
BRANCH   1   7
ATOM      7  O   LIG d   1      -1.144  81.925 111.606  0.00  0.00    -0.368 OA
BRANCH   7   8
ATOM      8  C   LIG d   1       0.125  82.225 110.975  0.00  0.00     0.119 C 
BRANCH   8   9
ATOM      9  C   LIG d   1       0.075  83.692 110.507  0.00  0.00     0.028 C 
ATOM     10  C   LIG d   1      -0.027  84.680 111.681  0.00  0.00     0.006 C 
ENDBRANCH   8   9
BRANCH   8  11
ATOM     11  C   LIG d   1       0.323  81.399 109.700  0.00  0.00     0.028 C 
ATOM     12  C   LIG d   1       1.429  80.342 109.841  0.00  0.00     0.006 C 
ENDBRANCH   8  11
ENDBRANCH   7   8
ENDBRANCH   1   7
BRANCH   6  13
ATOM     13  N   LIG d   1      -0.895  82.598 114.533  0.00  0.00    -0.311 N 
ATOM     14  C   LIG d   1      -1.311  83.775 114.997  0.00  0.00     0.210 C 
ATOM     15  C   LIG d   1      -0.204  84.680 115.548  0.00  0.00     0.109 C 
ATOM     16  O   LIG d   1      -2.495  84.143 115.034  0.00  0.00    -0.276 OA
ATOM     17  H   LIG d   1       0.079  82.369 114.571  0.00  0.00     0.149 HD
ENDBRANCH   6  13
BRANCH   5  18
ATOM     18  N   LIG d   1      -2.983  81.003 116.092  0.00  0.00     0.381 N 
ATOM     19  H   LIG d   1      -3.906  81.244 115.790  0.00  0.00    -0.090 HD
ATOM     20  H   LIG d   1      -2.538  81.834 116.440  0.00  0.00    -0.090 HD
ATOM     21  H   LIG d   1      -3.030  80.317 116.813  0.00  0.00    -0.090 HD
ENDBRANCH   5  18
BRANCH   3  22
ATOM     22  C   LIG d   1      -2.776  77.663 112.666  0.00  0.00     0.382 C 
ATOM     23  O   LIG d   1      -2.256  76.695 113.272  0.00  0.00    -0.241 OA
ATOM     24  O   LIG d   1      -3.515  77.449 111.687  0.00  0.00    -0.241 OA
ENDBRANCH   3  22
TORSDOF 7
ENDMDL
MODEL 2
REMARK VINA RESULT:      -4.8      3.028      6.862
REMARK  7 active torsions:
REMARK  status: ('A' for Active; 'I' for Inactive)
REMARK    1  A    between atoms: C_2  and  C_3 
REMARK    2  A    between atoms: C_3  and  O_6 
REMARK    3  A    between atoms: C_3  and  C_4 
REMARK    4  A    between atoms: C_7  and  O_6 
REMARK    5  A    between atoms: C_9  and  C_10 
REMARK    6  A    between atoms: N_15  and  C_14 
REMARK    7  A    between atoms: N_20  and  C_19 
REMARK       I    between atoms: C_22  and  N_20 
ROOT
ATOM      1  C   LIG d   1      -3.037  79.707 114.832  0.00  0.00     0.161 C 
ATOM      2  C   LIG d   1      -2.659  80.926 114.245  0.00  0.00     0.016 C 
ATOM      3  C   LIG d   1      -2.216  81.042 112.907  0.00  0.00     0.038 C 
ATOM      4  C   LIG d   1      -2.265  79.961 112.014  0.00  0.00     0.028 C 
ATOM      5  C   LIG d   1      -2.161  78.603 112.701  0.00  0.00    -0.047 C 
ATOM      6  C   LIG d   1      -3.202  78.536 113.841  0.00  0.00     0.091 C 
ENDROOT
BRANCH   1   7
ATOM      7  O   LIG d   1      -4.243  79.888 115.600  0.00  0.00    -0.368 OA
BRANCH   7   8
ATOM      8  C   LIG d   1      -4.065  80.159 117.012  0.00  0.00     0.119 C 
BRANCH   8   9
ATOM      9  C   LIG d   1      -5.049  79.259 117.784  0.00  0.00     0.028 C 
ATOM     10  C   LIG d   1      -5.816  78.299 116.859  0.00  0.00     0.006 C 
ENDBRANCH   8   9
BRANCH   8  11
ATOM     11  C   LIG d   1      -4.470  81.594 117.360  0.00  0.00     0.028 C 
ATOM     12  C   LIG d   1      -5.483  81.665 118.513  0.00  0.00     0.006 C 
ENDBRANCH   8  11
ENDBRANCH   7   8
ENDBRANCH   1   7
BRANCH   6  13
ATOM     13  N   LIG d   1      -3.111  77.273 114.619  0.00  0.00    -0.311 N 
ATOM     14  C   LIG d   1      -3.887  76.214 114.391  0.00  0.00     0.210 C 
ATOM     15  C   LIG d   1      -3.642  75.022 115.321  0.00  0.00     0.109 C 
ATOM     16  O   LIG d   1      -4.733  76.139 113.487  0.00  0.00    -0.276 OA
ATOM     17  H   LIG d   1      -2.430  77.236 115.352  0.00  0.00     0.149 HD
ENDBRANCH   6  13
BRANCH   5  18
ATOM     18  N   LIG d   1      -2.364  77.566 111.671  0.00  0.00     0.381 N 
ATOM     19  H   LIG d   1      -2.015  77.890 110.791  0.00  0.00    -0.090 HD
ATOM     20  H   LIG d   1      -3.349  77.392 111.575  0.00  0.00    -0.090 HD
ATOM     21  H   LIG d   1      -1.895  76.728 111.935  0.00  0.00    -0.090 HD
ENDBRANCH   5  18
BRANCH   3  22
ATOM     22  C   LIG d   1      -1.680  82.240 112.462  0.00  0.00     0.382 C 
ATOM     23  O   LIG d   1      -1.768  83.269 113.174  0.00  0.00    -0.241 OA
ATOM     24  O   LIG d   1      -1.150  82.316 111.337  0.00  0.00    -0.241 OA
ENDBRANCH   3  22
TORSDOF 7
ENDMDL
MODEL 3
REMARK VINA RESULT:      -4.8      3.205      6.836
REMARK  7 active torsions:
REMARK  status: ('A' for Active; 'I' for Inactive)
REMARK    1  A    between atoms: C_2  and  C_3 
REMARK    2  A    between atoms: C_3  and  O_6 
REMARK    3  A    between atoms: C_3  and  C_4 
REMARK    4  A    between atoms: C_7  and  O_6 
REMARK    5  A    between atoms: C_9  and  C_10 
REMARK    6  A    between atoms: N_15  and  C_14 
REMARK    7  A    between atoms: N_20  and  C_19 
REMARK       I    between atoms: C_22  and  N_20 
ROOT
ATOM      1  C   LIG d   1      -2.404  79.120 115.518  0.00  0.00     0.161 C 
ATOM      2  C   LIG d   1      -2.624  80.467 115.187  0.00  0.00     0.016 C 
ATOM      3  C   LIG d   1      -2.754  80.931 113.858  0.00  0.00     0.038 C 
ATOM      4  C   LIG d   1      -2.824  80.050 112.768  0.00  0.00     0.028 C 
ATOM      5  C   LIG d   1      -2.101  78.729 113.011  0.00  0.00    -0.047 C 
ATOM      6  C   LIG d   1      -2.588  78.129 114.350  0.00  0.00     0.091 C 
ENDROOT
BRANCH   1   7
ATOM      7  O   LIG d   1      -3.243  78.747 116.629  0.00  0.00    -0.368 OA
BRANCH   7   8
ATOM      8  C   LIG d   1      -4.662  78.991 116.467  0.00  0.00     0.119 C 
BRANCH   8   9
ATOM      9  C   LIG d   1      -5.139  79.783 117.700  0.00  0.00     0.028 C 
ATOM     10  C   LIG d   1      -5.527  81.230 117.353  0.00  0.00     0.006 C 
ENDBRANCH   8   9
BRANCH   8  11
ATOM     11  C   LIG d   1      -5.459  77.683 116.491  0.00  0.00     0.028 C 
ATOM     12  C   LIG d   1      -4.881  76.652 117.473  0.00  0.00     0.006 C 
ENDBRANCH   8  11
ENDBRANCH   7   8
ENDBRANCH   1   7
BRANCH   6  13
ATOM     13  N   LIG d   1      -1.870  76.877 114.704  0.00  0.00    -0.311 N 
ATOM     14  C   LIG d   1      -2.451  75.679 114.722  0.00  0.00     0.210 C 
ATOM     15  C   LIG d   1      -1.535  74.522 115.135  0.00  0.00     0.109 C 
ATOM     16  O   LIG d   1      -3.630  75.459 114.405  0.00  0.00    -0.276 OA
ATOM     17  H   LIG d   1      -0.902  76.959 114.945  0.00  0.00     0.149 HD
ENDBRANCH   6  13
BRANCH   5  18
ATOM     18  N   LIG d   1      -2.371  77.855 111.853  0.00  0.00     0.381 N 
ATOM     19  H   LIG d   1      -2.291  76.896 112.127  0.00  0.00    -0.090 HD
ATOM     20  H   LIG d   1      -1.685  78.038 111.142  0.00  0.00    -0.090 HD
ATOM     21  H   LIG d   1      -3.284  78.031 111.498  0.00  0.00    -0.090 HD
ENDBRANCH   5  18
BRANCH   3  22
ATOM     22  C   LIG d   1      -2.775  82.294 113.604  0.00  0.00     0.382 C 
ATOM     23  O   LIG d   1      -3.546  83.041 114.254  0.00  0.00    -0.241 OA
ATOM     24  O   LIG d   1      -2.065  82.781 112.704  0.00  0.00    -0.241 OA
ENDBRANCH   3  22
TORSDOF 7
ENDMDL
MODEL 4
REMARK VINA RESULT:      -4.7      2.231      4.250
REMARK  7 active torsions:
REMARK  status: ('A' for Active; 'I' for Inactive)
REMARK    1  A    between atoms: C_2  and  C_3 
REMARK    2  A    between atoms: C_3  and  O_6 
REMARK    3  A    between atoms: C_3  and  C_4 
REMARK    4  A    between atoms: C_7  and  O_6 
REMARK    5  A    between atoms: C_9  and  C_10 
REMARK    6  A    between atoms: N_15  and  C_14 
REMARK    7  A    between atoms: N_20  and  C_19 
REMARK       I    between atoms: C_22  and  N_20 
ROOT
ATOM      1  C   LIG d   1      -2.097  79.977 113.879  0.00  0.00     0.161 C 
ATOM      2  C   LIG d   1      -2.726  78.837 114.407  0.00  0.00     0.016 C 
ATOM      3  C   LIG d   1      -3.035  77.692 113.638  0.00  0.00     0.038 C 
ATOM      4  C   LIG d   1      -2.597  77.549 112.313  0.00  0.00     0.028 C 
ATOM      5  C   LIG d   1      -2.402  78.879 111.592  0.00  0.00    -0.047 C 
ATOM      6  C   LIG d   1      -1.512  79.795 112.463  0.00  0.00     0.091 C 
ENDROOT
BRANCH   1   7
ATOM      7  O   LIG d   1      -1.077  80.437 114.788  0.00  0.00    -0.368 OA
BRANCH   7   8
ATOM      8  C   LIG d   1      -1.357  81.676 115.486  0.00  0.00     0.119 C 
BRANCH   8   9
ATOM      9  C   LIG d   1      -2.740  82.168 115.019  0.00  0.00     0.028 C 
ATOM     10  C   LIG d   1      -3.740  82.298 116.180  0.00  0.00     0.006 C 
ENDBRANCH   8   9
BRANCH   8  11
ATOM     11  C   LIG d   1      -0.375  82.779 115.078  0.00  0.00     0.028 C 
ATOM     12  C   LIG d   1      -1.061  83.950 114.356  0.00  0.00     0.006 C 
ENDBRANCH   8  11
ENDBRANCH   7   8
ENDBRANCH   1   7
BRANCH   6  13
ATOM     13  N   LIG d   1      -1.340  81.147 111.871  0.00  0.00    -0.311 N 
ATOM     14  C   LIG d   1      -0.175  81.608 111.420  0.00  0.00     0.210 C 
ATOM     15  C   LIG d   1      -0.214  83.036 110.866  0.00  0.00     0.109 C 
ATOM     16  O   LIG d   1       0.881  80.957 111.397  0.00  0.00    -0.276 OA
ATOM     17  H   LIG d   1      -2.153  81.731 111.822  0.00  0.00     0.149 HD
ENDBRANCH   6  13
BRANCH   5  18
ATOM     18  N   LIG d   1      -1.813  78.588 110.271  0.00  0.00     0.381 N 
ATOM     19  H   LIG d   1      -2.525  78.262 109.648  0.00  0.00    -0.090 HD
ATOM     20  H   LIG d   1      -1.127  77.861 110.374  0.00  0.00    -0.090 HD
ATOM     21  H   LIG d   1      -1.386  79.408 109.900  0.00  0.00    -0.090 HD
ENDBRANCH   5  18
BRANCH   3  22
ATOM     22  C   LIG d   1      -3.825  76.691 114.182  0.00  0.00     0.382 C 
ATOM     23  O   LIG d   1      -3.607  76.285 115.349  0.00  0.00    -0.241 OA
ATOM     24  O   LIG d   1      -4.725  76.159 113.505  0.00  0.00    -0.241 OA
ENDBRANCH   3  22
TORSDOF 7
ENDMDL
MODEL 5
REMARK VINA RESULT:      -4.7      4.840      8.275
REMARK  7 active torsions:
REMARK  status: ('A' for Active; 'I' for Inactive)
REMARK    1  A    between atoms: C_2  and  C_3 
REMARK    2  A    between atoms: C_3  and  O_6 
REMARK    3  A    between atoms: C_3  and  C_4 
REMARK    4  A    between atoms: C_7  and  O_6 
REMARK    5  A    between atoms: C_9  and  C_10 
REMARK    6  A    between atoms: N_15  and  C_14 
REMARK    7  A    between atoms: N_20  and  C_19 
REMARK       I    between atoms: C_22  and  N_20 
ROOT
ATOM      1  C   LIG d   1      -4.781  77.372 116.416  0.00  0.00     0.161 C 
ATOM      2  C   LIG d   1      -5.311  78.625 116.765  0.00  0.00     0.016 C 
ATOM      3  C   LIG d   1      -4.614  79.842 116.585  0.00  0.00     0.038 C 
ATOM      4  C   LIG d   1      -3.392  79.902 115.899  0.00  0.00     0.028 C 
ATOM      5  C   LIG d   1      -2.588  78.609 115.980  0.00  0.00    -0.047 C 
ATOM      6  C   LIG d   1      -3.495  77.428 115.565  0.00  0.00     0.091 C 
ENDROOT
BRANCH   1   7
ATOM      7  O   LIG d   1      -5.788  76.584 115.750  0.00  0.00    -0.368 OA
BRANCH   7   8
ATOM      8  C   LIG d   1      -6.357  75.496 116.520  0.00  0.00     0.119 C 
BRANCH   8   9
ATOM      9  C   LIG d   1      -5.966  74.180 115.820  0.00  0.00     0.028 C 
ATOM     10  C   LIG d   1      -5.691  74.372 114.319  0.00  0.00     0.006 C 
ENDBRANCH   8   9
BRANCH   8  11
ATOM     11  C   LIG d   1      -7.888  75.533 116.488  0.00  0.00     0.028 C 
ATOM     12  C   LIG d   1      -8.478  76.595 117.430  0.00  0.00     0.006 C 
ENDBRANCH   8  11
ENDBRANCH   7   8
ENDBRANCH   1   7
BRANCH   6  13
ATOM     13  N   LIG d   1      -2.811  76.115 115.697  0.00  0.00    -0.311 N 
ATOM     14  C   LIG d   1      -2.125  75.544 114.709  0.00  0.00     0.210 C 
ATOM     15  C   LIG d   1      -1.515  74.180 115.049  0.00  0.00     0.109 C 
ATOM     16  O   LIG d   1      -1.935  76.052 113.593  0.00  0.00    -0.276 OA
ATOM     17  H   LIG d   1      -2.887  75.647 116.579  0.00  0.00     0.149 HD
ENDBRANCH   6  13
BRANCH   5  18
ATOM     18  N   LIG d   1      -1.406  78.764 115.111  0.00  0.00     0.381 N 
ATOM     19  H   LIG d   1      -1.450  78.105 114.359  0.00  0.00    -0.090 HD
ATOM     20  H   LIG d   1      -0.580  78.573 115.649  0.00  0.00    -0.090 HD
ATOM     21  H   LIG d   1      -1.368  79.691 114.749  0.00  0.00    -0.090 HD
ENDBRANCH   5  18
BRANCH   3  22
ATOM     22  C   LIG d   1      -5.122  81.012 117.129  0.00  0.00     0.382 C 
ATOM     23  O   LIG d   1      -4.420  81.696 117.912  0.00  0.00    -0.241 OA
ATOM     24  O   LIG d   1      -6.290  81.369 116.882  0.00  0.00    -0.241 OA
ENDBRANCH   3  22
TORSDOF 7
ENDMDL
MODEL 6
REMARK VINA RESULT:      -4.6      3.696      5.321
REMARK  7 active torsions:
REMARK  status: ('A' for Active; 'I' for Inactive)
REMARK    1  A    between atoms: C_2  and  C_3 
REMARK    2  A    between atoms: C_3  and  O_6 
REMARK    3  A    between atoms: C_3  and  C_4 
REMARK    4  A    between atoms: C_7  and  O_6 
REMARK    5  A    between atoms: C_9  and  C_10 
REMARK    6  A    between atoms: N_15  and  C_14 
REMARK    7  A    between atoms: N_20  and  C_19 
REMARK       I    between atoms: C_22  and  N_20 
ROOT
ATOM      1  C   LIG d   1      -4.157  78.604 116.003  0.00  0.00     0.161 C 
ATOM      2  C   LIG d   1      -3.976  77.425 115.260  0.00  0.00     0.016 C 
ATOM      3  C   LIG d   1      -4.890  76.347 115.277  0.00  0.00     0.038 C 
ATOM      4  C   LIG d   1      -6.131  76.436 115.925  0.00  0.00     0.028 C 
ATOM      5  C   LIG d   1      -6.132  77.410 117.099  0.00  0.00    -0.047 C 
ATOM      6  C   LIG d   1      -5.559  78.765 116.628  0.00  0.00     0.091 C 
ENDROOT
BRANCH   1   7
ATOM      7  O   LIG d   1      -3.837  79.749 115.187  0.00  0.00    -0.368 OA
BRANCH   7   8
ATOM      8  C   LIG d   1      -2.498  80.282 115.335  0.00  0.00     0.119 C 
BRANCH   8   9
ATOM      9  C   LIG d   1      -2.587  81.504 116.269  0.00  0.00     0.028 C 
ATOM     10  C   LIG d   1      -3.500  82.607 115.709  0.00  0.00     0.006 C 
ENDBRANCH   8   9
BRANCH   8  11
ATOM     11  C   LIG d   1      -1.966  80.826 114.006  0.00  0.00     0.028 C 
ATOM     12  C   LIG d   1      -2.768  80.326 112.793  0.00  0.00     0.006 C 
ENDBRANCH   8  11
ENDBRANCH   7   8
ENDBRANCH   1   7
BRANCH   6  13
ATOM     13  N   LIG d   1      -5.446  79.750 117.736  0.00  0.00    -0.311 N 
ATOM     14  C   LIG d   1      -6.070  80.927 117.737  0.00  0.00     0.210 C 
ATOM     15  C   LIG d   1      -5.802  81.799 118.968  0.00  0.00     0.109 C 
ATOM     16  O   LIG d   1      -6.844  81.318 116.851  0.00  0.00    -0.276 OA
ATOM     17  H   LIG d   1      -4.862  79.500 118.510  0.00  0.00     0.149 HD
ENDBRANCH   6  13
BRANCH   5  18
ATOM     18  N   LIG d   1      -7.518  77.509 117.595  0.00  0.00     0.381 N 
ATOM     19  H   LIG d   1      -7.825  78.460 117.555  0.00  0.00    -0.090 HD
ATOM     20  H   LIG d   1      -7.543  77.209 118.553  0.00  0.00    -0.090 HD
ATOM     21  H   LIG d   1      -8.119  76.935 117.044  0.00  0.00    -0.090 HD
ENDBRANCH   5  18
BRANCH   3  22
ATOM     22  C   LIG d   1      -4.548  75.146 114.674  0.00  0.00     0.382 C 
ATOM     23  O   LIG d   1      -5.397  74.522 113.993  0.00  0.00    -0.241 OA
ATOM     24  O   LIG d   1      -3.414  74.657 114.838  0.00  0.00    -0.241 OA
ENDBRANCH   3  22
TORSDOF 7
ENDMDL
MODEL 7
REMARK VINA RESULT:      -4.5      2.901      6.422
REMARK  7 active torsions:
REMARK  status: ('A' for Active; 'I' for Inactive)
REMARK    1  A    between atoms: C_2  and  C_3 
REMARK    2  A    between atoms: C_3  and  O_6 
REMARK    3  A    between atoms: C_3  and  C_4 
REMARK    4  A    between atoms: C_7  and  O_6 
REMARK    5  A    between atoms: C_9  and  C_10 
REMARK    6  A    between atoms: N_15  and  C_14 
REMARK    7  A    between atoms: N_20  and  C_19 
REMARK       I    between atoms: C_22  and  N_20 
ROOT
ATOM      1  C   LIG d   1      -2.962  80.391 115.228  0.00  0.00     0.161 C 
ATOM      2  C   LIG d   1      -2.588  81.482 114.425  0.00  0.00     0.016 C 
ATOM      3  C   LIG d   1      -2.159  81.351 113.084  0.00  0.00     0.038 C 
ATOM      4  C   LIG d   1      -2.219  80.126 112.403  0.00  0.00     0.028 C 
ATOM      5  C   LIG d   1      -2.111  78.915 113.323  0.00  0.00    -0.047 C 
ATOM      6  C   LIG d   1      -3.141  79.061 114.467  0.00  0.00     0.091 C 
ENDROOT
BRANCH   1   7
ATOM      7  O   LIG d   1      -4.160  80.713 115.962  0.00  0.00    -0.368 OA
BRANCH   7   8
ATOM      8  C   LIG d   1      -4.018  81.705 117.008  0.00  0.00     0.119 C 
BRANCH   8   9
ATOM      9  C   LIG d   1      -2.836  81.275 117.898  0.00  0.00     0.028 C 
ATOM     10  C   LIG d   1      -1.901  82.447 118.239  0.00  0.00     0.006 C 
ENDBRANCH   8   9
BRANCH   8  11
ATOM     11  C   LIG d   1      -5.239  81.718 117.933  0.00  0.00     0.028 C 
ATOM     12  C   LIG d   1      -6.360  80.783 117.452  0.00  0.00     0.006 C 
ENDBRANCH   8  11
ENDBRANCH   7   8
ENDBRANCH   1   7
BRANCH   6  13
ATOM     13  N   LIG d   1      -3.044  77.959 115.460  0.00  0.00    -0.311 N 
ATOM     14  C   LIG d   1      -3.807  76.868 115.421  0.00  0.00     0.210 C 
ATOM     15  C   LIG d   1      -3.559  75.865 116.552  0.00  0.00     0.109 C 
ATOM     16  O   LIG d   1      -4.643  76.621 114.540  0.00  0.00    -0.276 OA
ATOM     17  H   LIG d   1      -2.369  78.063 116.193  0.00  0.00     0.149 HD
ENDBRANCH   6  13
BRANCH   5  18
ATOM     18  N   LIG d   1      -2.327  77.710 112.501  0.00  0.00     0.381 N 
ATOM     19  H   LIG d   1      -2.233  77.940 111.532  0.00  0.00    -0.090 HD
ATOM     20  H   LIG d   1      -3.261  77.373 112.656  0.00  0.00    -0.090 HD
ATOM     21  H   LIG d   1      -1.667  77.006 112.748  0.00  0.00    -0.090 HD
ENDBRANCH   5  18
BRANCH   3  22
ATOM     22  C   LIG d   1      -1.625  82.447 112.423  0.00  0.00     0.382 C 
ATOM     23  O   LIG d   1      -1.204  82.326 111.248  0.00  0.00    -0.241 OA
ATOM     24  O   LIG d   1      -1.518  83.544 113.004  0.00  0.00    -0.241 OA
ENDBRANCH   3  22
TORSDOF 7
ENDMDL
MODEL 8
REMARK VINA RESULT:      -4.4      2.850      4.140
REMARK  7 active torsions:
REMARK  status: ('A' for Active; 'I' for Inactive)
REMARK    1  A    between atoms: C_2  and  C_3 
REMARK    2  A    between atoms: C_3  and  O_6 
REMARK    3  A    between atoms: C_3  and  C_4 
REMARK    4  A    between atoms: C_7  and  O_6 
REMARK    5  A    between atoms: C_9  and  C_10 
REMARK    6  A    between atoms: N_15  and  C_14 
REMARK    7  A    between atoms: N_20  and  C_19 
REMARK       I    between atoms: C_22  and  N_20 
ROOT
ATOM      1  C   LIG d   1      -2.461  78.336 115.181  0.00  0.00     0.161 C 
ATOM      2  C   LIG d   1      -2.838  77.077 114.686  0.00  0.00     0.016 C 
ATOM      3  C   LIG d   1      -4.092  76.480 114.951  0.00  0.00     0.038 C 
ATOM      4  C   LIG d   1      -5.119  77.174 115.609  0.00  0.00     0.028 C 
ATOM      5  C   LIG d   1      -4.609  78.249 116.562  0.00  0.00    -0.047 C 
ATOM      6  C   LIG d   1      -3.609  79.155 115.807  0.00  0.00     0.091 C 
ENDROOT
BRANCH   1   7
ATOM      7  O   LIG d   1      -1.813  79.096 114.141  0.00  0.00    -0.368 OA
BRANCH   7   8
ATOM      8  C   LIG d   1      -2.679  79.635 113.113  0.00  0.00     0.119 C 
BRANCH   8   9
ATOM      9  C   LIG d   1      -2.121  79.177 111.751  0.00  0.00     0.028 C 
ATOM     10  C   LIG d   1      -2.857  77.945 111.200  0.00  0.00     0.006 C 
ENDBRANCH   8   9
BRANCH   8  11
ATOM     11  C   LIG d   1      -2.620  81.165 113.081  0.00  0.00     0.028 C 
ATOM     12  C   LIG d   1      -1.328  81.725 113.697  0.00  0.00     0.006 C 
ENDBRANCH   8  11
ENDBRANCH   7   8
ENDBRANCH   1   7
BRANCH   6  13
ATOM     13  N   LIG d   1      -2.999  80.183 116.690  0.00  0.00    -0.311 N 
ATOM     14  C   LIG d   1      -3.442  81.437 116.771  0.00  0.00     0.210 C 
ATOM     15  C   LIG d   1      -2.656  82.340 117.727  0.00  0.00     0.109 C 
ATOM     16  O   LIG d   1      -4.430  81.878 116.165  0.00  0.00    -0.276 OA
ATOM     17  H   LIG d   1      -2.211  79.902 117.240  0.00  0.00     0.149 HD
ENDBRANCH   6  13
BRANCH   5  18
ATOM     18  N   LIG d   1      -5.782  78.984 117.073  0.00  0.00     0.381 N 
ATOM     19  H   LIG d   1      -6.589  78.757 116.526  0.00  0.00    -0.090 HD
ATOM     20  H   LIG d   1      -5.611  79.970 116.988  0.00  0.00    -0.090 HD
ATOM     21  H   LIG d   1      -5.942  78.748 118.028  0.00  0.00    -0.090 HD
ENDBRANCH   5  18
BRANCH   3  22
ATOM     22  C   LIG d   1      -4.315  75.160 114.590  0.00  0.00     0.382 C 
ATOM     23  O   LIG d   1      -3.447  74.288 114.835  0.00  0.00    -0.241 OA
ATOM     24  O   LIG d   1      -5.354  74.837 113.984  0.00  0.00    -0.241 OA
ENDBRANCH   3  22
TORSDOF 7
ENDMDL
MODEL 9
REMARK VINA RESULT:      -4.3      2.565      6.377
REMARK  7 active torsions:
REMARK  status: ('A' for Active; 'I' for Inactive)
REMARK    1  A    between atoms: C_2  and  C_3 
REMARK    2  A    between atoms: C_3  and  O_6 
REMARK    3  A    between atoms: C_3  and  C_4 
REMARK    4  A    between atoms: C_7  and  O_6 
REMARK    5  A    between atoms: C_9  and  C_10 
REMARK    6  A    between atoms: N_15  and  C_14 
REMARK    7  A    between atoms: N_20  and  C_19 
REMARK       I    between atoms: C_22  and  N_20 
ROOT
ATOM      1  C   LIG d   1      -1.481  81.168 114.666  0.00  0.00     0.161 C 
ATOM      2  C   LIG d   1      -1.102  82.451 114.238  0.00  0.00     0.016 C 
ATOM      3  C   LIG d   1      -0.830  82.773 112.889  0.00  0.00     0.038 C 
ATOM      4  C   LIG d   1      -1.066  81.864 111.847  0.00  0.00     0.028 C 
ATOM      5  C   LIG d   1      -0.965  80.405 112.282  0.00  0.00    -0.047 C 
ATOM      6  C   LIG d   1      -1.852  80.191 113.530  0.00  0.00     0.091 C 
ENDROOT
BRANCH   1   7
ATOM      7  O   LIG d   1      -2.563  81.268 115.614  0.00  0.00    -0.368 OA
BRANCH   7   8
ATOM      8  C   LIG d   1      -2.190  81.228 117.013  0.00  0.00     0.119 C 
BRANCH   8   9
ATOM      9  C   LIG d   1      -3.336  80.539 117.778  0.00  0.00     0.028 C 
ATOM     10  C   LIG d   1      -4.620  81.385 117.798  0.00  0.00     0.006 C 
ENDBRANCH   8   9
BRANCH   8  11
ATOM     11  C   LIG d   1      -2.096  82.637 117.605  0.00  0.00     0.028 C 
ATOM     12  C   LIG d   1      -1.237  82.692 118.879  0.00  0.00     0.006 C 
ENDBRANCH   8  11
ENDBRANCH   7   8
ENDBRANCH   1   7
BRANCH   6  13
ATOM     13  N   LIG d   1      -1.746  78.811 114.071  0.00  0.00    -0.311 N 
ATOM     14  C   LIG d   1      -2.552  77.816 113.705  0.00  0.00     0.210 C 
ATOM     15  C   LIG d   1      -2.283  76.477 114.399  0.00  0.00     0.109 C 
ATOM     16  O   LIG d   1      -3.443  77.907 112.847  0.00  0.00    -0.276 OA
ATOM     17  H   LIG d   1      -1.029  78.641 114.750  0.00  0.00     0.149 HD
ENDBRANCH   6  13
BRANCH   5  18
ATOM     18  N   LIG d   1      -1.369  79.570 111.136  0.00  0.00     0.381 N 
ATOM     19  H   LIG d   1      -2.366  79.491 111.109  0.00  0.00    -0.090 HD
ATOM     20  H   LIG d   1      -0.983  78.649 111.253  0.00  0.00    -0.090 HD
ATOM     21  H   LIG d   1      -1.037  79.972 110.287  0.00  0.00    -0.090 HD
ENDBRANCH   5  18
BRANCH   3  22
ATOM     22  C   LIG d   1      -0.277  84.005 112.574  0.00  0.00     0.382 C 
ATOM     23  O   LIG d   1      -0.747  84.680 111.627  0.00  0.00    -0.241 OA
ATOM     24  O   LIG d   1       0.714  84.430 113.197  0.00  0.00    -0.241 OA
ENDBRANCH   3  22
TORSDOF 7
ENDMDL
