MODEL 1
REMARK VINA RESULT:      -5.0      0.000      0.000
REMARK  7 active torsions:
REMARK  status: ('A' for Active; 'I' for Inactive)
REMARK    1  A    between atoms: C_2  and  C_3 
REMARK    2  A    between atoms: C_3  and  O_6 
REMARK    3  A    between atoms: C_3  and  C_4 
REMARK    4  A    between atoms: C_7  and  O_6 
REMARK    5  A    between atoms: C_9  and  C_10 
REMARK    6  A    between atoms: N_15  and  C_14 
REMARK    7  A    between atoms: N_20  and  C_19 
REMARK       I    between atoms: C_22  and  N_20 
ROOT
ATOM      1  C   LIG d   1      -2.381  78.197 115.117  0.00  0.00     0.161 C 
ATOM      2  C   LIG d   1      -2.810  79.135 114.163  0.00  0.00     0.016 C 
ATOM      3  C   LIG d   1      -2.005  80.205 113.707  0.00  0.00     0.038 C 
ATOM      4  C   LIG d   1      -0.654  80.321 114.066  0.00  0.00     0.028 C 
ATOM      5  C   LIG d   1      -0.329  79.689 115.415  0.00  0.00    -0.047 C 
ATOM      6  C   LIG d   1      -0.872  78.242 115.436  0.00  0.00     0.091 C 
ENDROOT
BRANCH   1   7
ATOM      7  O   LIG d   1      -2.766  76.870 114.705  0.00  0.00    -0.368 OA
BRANCH   7   8
ATOM      8  C   LIG d   1      -4.032  76.386 115.217  0.00  0.00     0.119 C 
BRANCH   8   9
ATOM      9  C   LIG d   1      -4.210  76.966 116.633  0.00  0.00     0.028 C 
ATOM     10  C   LIG d   1      -3.878  75.943 117.733  0.00  0.00     0.006 C 
ENDBRANCH   8   9
BRANCH   8  11
ATOM     11  C   LIG d   1      -4.014  74.865 115.401  0.00  0.00     0.028 C 
ATOM     12  C   LIG d   1      -5.261  74.180 114.821  0.00  0.00     0.006 C 
ENDBRANCH   8  11
ENDBRANCH   7   8
ENDBRANCH   1   7
BRANCH   6  13
ATOM     13  N   LIG d   1      -0.671  77.580 116.751  0.00  0.00    -0.311 N 
ATOM     14  C   LIG d   1      -0.245  76.324 116.882  0.00  0.00     0.210 C 
ATOM     15  C   LIG d   1      -0.124  75.830 118.326  0.00  0.00     0.109 C 
ATOM     16  O   LIG d   1       0.075  75.584 115.939  0.00  0.00    -0.276 OA
ATOM     17  H   LIG d   1      -0.876  78.118 117.569  0.00  0.00     0.149 HD
ENDBRANCH   6  13
BRANCH   5  18
ATOM     18  N   LIG d   1       1.133  79.760 115.600  0.00  0.00     0.381 N 
ATOM     19  H   LIG d   1       1.410  80.710 115.749  0.00  0.00    -0.090 HD
ATOM     20  H   LIG d   1       1.583  79.429 114.765  0.00  0.00    -0.090 HD
ATOM     21  H   LIG d   1       1.406  79.201 116.377  0.00  0.00    -0.090 HD
ENDBRANCH   5  18
BRANCH   3  22
ATOM     22  C   LIG d   1      -2.564  81.195 112.915  0.00  0.00     0.382 C 
ATOM     23  O   LIG d   1      -1.849  82.133 112.486  0.00  0.00    -0.241 OA
ATOM     24  O   LIG d   1      -3.783  81.188 112.660  0.00  0.00    -0.241 OA
ENDBRANCH   3  22
TORSDOF 7
ENDMDL
MODEL 2
REMARK VINA RESULT:      -4.8      2.011      2.894
REMARK  7 active torsions:
REMARK  status: ('A' for Active; 'I' for Inactive)
REMARK    1  A    between atoms: C_2  and  C_3 
REMARK    2  A    between atoms: C_3  and  O_6 
REMARK    3  A    between atoms: C_3  and  C_4 
REMARK    4  A    between atoms: C_7  and  O_6 
REMARK    5  A    between atoms: C_9  and  C_10 
REMARK    6  A    between atoms: N_15  and  C_14 
REMARK    7  A    between atoms: N_20  and  C_19 
REMARK       I    between atoms: C_22  and  N_20 
ROOT
ATOM      1  C   LIG d   1      -2.911  78.547 115.907  0.00  0.00     0.161 C 
ATOM      2  C   LIG d   1      -3.026  79.668 115.068  0.00  0.00     0.016 C 
ATOM      3  C   LIG d   1      -2.363  79.781 113.825  0.00  0.00     0.038 C 
ATOM      4  C   LIG d   1      -1.653  78.710 113.263  0.00  0.00     0.028 C 
ATOM      5  C   LIG d   1      -1.092  77.743 114.301  0.00  0.00    -0.047 C 
ATOM      6  C   LIG d   1      -2.230  77.323 115.260  0.00  0.00     0.091 C 
ENDROOT
BRANCH   1   7
ATOM      7  O   LIG d   1      -4.208  78.185 116.421  0.00  0.00    -0.368 OA
BRANCH   7   8
ATOM      8  C   LIG d   1      -4.473  78.552 117.797  0.00  0.00     0.119 C 
BRANCH   8   9
ATOM      9  C   LIG d   1      -4.758  77.253 118.575  0.00  0.00     0.028 C 
ATOM     10  C   LIG d   1      -5.187  76.099 117.654  0.00  0.00     0.006 C 
ENDBRANCH   8   9
BRANCH   8  11
ATOM     11  C   LIG d   1      -5.753  79.385 117.915  0.00  0.00     0.028 C 
ATOM     12  C   LIG d   1      -5.485  80.898 117.872  0.00  0.00     0.006 C 
ENDBRANCH   8  11
ENDBRANCH   7   8
ENDBRANCH   1   7
BRANCH   6  13
ATOM     13  N   LIG d   1      -1.749  76.443 116.357  0.00  0.00    -0.311 N 
ATOM     14  C   LIG d   1      -1.808  75.113 116.309  0.00  0.00     0.210 C 
ATOM     15  C   LIG d   1      -1.277  74.397 117.556  0.00  0.00     0.109 C 
ATOM     16  O   LIG d   1      -2.219  74.457 115.340  0.00  0.00    -0.276 OA
ATOM     17  H   LIG d   1      -1.372  76.891 117.169  0.00  0.00     0.149 HD
ENDBRANCH   6  13
BRANCH   5  18
ATOM     18  N   LIG d   1      -0.497  76.606 113.575  0.00  0.00     0.381 N 
ATOM     19  H   LIG d   1      -0.432  75.813 114.183  0.00  0.00    -0.090 HD
ATOM     20  H   LIG d   1       0.431  76.856 113.283  0.00  0.00    -0.090 HD
ATOM     21  H   LIG d   1      -1.054  76.379 112.781  0.00  0.00    -0.090 HD
ENDBRANCH   5  18
BRANCH   3  22
ATOM     22  C   LIG d   1      -2.372  80.992 113.149  0.00  0.00     0.382 C 
ATOM     23  O   LIG d   1      -3.430  81.402 112.613  0.00  0.00    -0.241 OA
ATOM     24  O   LIG d   1      -1.326  81.657 113.029  0.00  0.00    -0.241 OA
ENDBRANCH   3  22
TORSDOF 7
ENDMDL
MODEL 3
REMARK VINA RESULT:      -4.8      2.188      2.870
REMARK  7 active torsions:
REMARK  status: ('A' for Active; 'I' for Inactive)
REMARK    1  A    between atoms: C_2  and  C_3 
REMARK    2  A    between atoms: C_3  and  O_6 
REMARK    3  A    between atoms: C_3  and  C_4 
REMARK    4  A    between atoms: C_7  and  O_6 
REMARK    5  A    between atoms: C_9  and  C_10 
REMARK    6  A    between atoms: N_15  and  C_14 
REMARK    7  A    between atoms: N_20  and  C_19 
REMARK       I    between atoms: C_22  and  N_20 
ROOT
ATOM      1  C   LIG d   1      -2.622  78.770 116.062  0.00  0.00     0.161 C 
ATOM      2  C   LIG d   1      -2.933  79.843 115.211  0.00  0.00     0.016 C 
ATOM      3  C   LIG d   1      -2.533  79.904 113.856  0.00  0.00     0.038 C 
ATOM      4  C   LIG d   1      -1.919  78.818 113.215  0.00  0.00     0.028 C 
ATOM      5  C   LIG d   1      -1.137  77.917 114.165  0.00  0.00    -0.047 C 
ATOM      6  C   LIG d   1      -2.048  77.526 115.350  0.00  0.00     0.091 C 
ENDROOT
BRANCH   1   7
ATOM      7  O   LIG d   1      -3.780  78.412 116.841  0.00  0.00    -0.368 OA
BRANCH   7   8
ATOM      8  C   LIG d   1      -4.508  79.510 117.443  0.00  0.00     0.119 C 
BRANCH   8   9
ATOM      9  C   LIG d   1      -3.837  79.825 118.794  0.00  0.00     0.028 C 
ATOM     10  C   LIG d   1      -3.276  81.256 118.852  0.00  0.00     0.006 C 
ENDBRANCH   8   9
BRANCH   8  11
ATOM     11  C   LIG d   1      -5.944  79.105 117.788  0.00  0.00     0.028 C 
ATOM     12  C   LIG d   1      -6.282  77.674 117.342  0.00  0.00     0.006 C 
ENDBRANCH   8  11
ENDBRANCH   7   8
ENDBRANCH   1   7
BRANCH   6  13
ATOM     13  N   LIG d   1      -1.335  76.714 116.370  0.00  0.00    -0.311 N 
ATOM     14  C   LIG d   1      -1.333  75.382 116.376  0.00  0.00     0.210 C 
ATOM     15  C   LIG d   1      -0.552  74.741 117.528  0.00  0.00     0.109 C 
ATOM     16  O   LIG d   1      -1.877  74.670 115.518  0.00  0.00    -0.276 OA
ATOM     17  H   LIG d   1      -0.841  77.211 117.086  0.00  0.00     0.149 HD
ENDBRANCH   6  13
BRANCH   5  18
ATOM     18  N   LIG d   1      -0.666  76.754 113.390  0.00  0.00     0.381 N 
ATOM     19  H   LIG d   1      -0.031  77.056 112.677  0.00  0.00    -0.090 HD
ATOM     20  H   LIG d   1      -1.455  76.318 112.945  0.00  0.00    -0.090 HD
ATOM     21  H   LIG d   1      -0.213  76.103 113.993  0.00  0.00    -0.090 HD
ENDBRANCH   5  18
BRANCH   3  22
ATOM     22  C   LIG d   1      -2.711  81.077 113.139  0.00  0.00     0.382 C 
ATOM     23  O   LIG d   1      -3.814  81.314 112.589  0.00  0.00    -0.241 OA
ATOM     24  O   LIG d   1      -1.770  81.881 112.998  0.00  0.00    -0.241 OA
ENDBRANCH   3  22
TORSDOF 7
ENDMDL
MODEL 4
REMARK VINA RESULT:      -4.7      2.446      3.488
REMARK  7 active torsions:
REMARK  status: ('A' for Active; 'I' for Inactive)
REMARK    1  A    between atoms: C_2  and  C_3 
REMARK    2  A    between atoms: C_3  and  O_6 
REMARK    3  A    between atoms: C_3  and  C_4 
REMARK    4  A    between atoms: C_7  and  O_6 
REMARK    5  A    between atoms: C_9  and  C_10 
REMARK    6  A    between atoms: N_15  and  C_14 
REMARK    7  A    between atoms: N_20  and  C_19 
REMARK       I    between atoms: C_22  and  N_20 
ROOT
ATOM      1  C   LIG d   1      -2.273  79.497 114.845  0.00  0.00     0.161 C 
ATOM      2  C   LIG d   1      -1.919  80.650 114.125  0.00  0.00     0.016 C 
ATOM      3  C   LIG d   1      -1.308  80.614 112.850  0.00  0.00     0.038 C 
ATOM      4  C   LIG d   1      -1.146  79.416 112.139  0.00  0.00     0.028 C 
ATOM      5  C   LIG d   1      -1.028  78.190 113.038  0.00  0.00    -0.047 C 
ATOM      6  C   LIG d   1      -2.206  78.184 114.038  0.00  0.00     0.091 C 
ENDROOT
BRANCH   1   7
ATOM      7  O   LIG d   1      -3.584  79.665 115.421  0.00  0.00    -0.368 OA
BRANCH   7   8
ATOM      8  C   LIG d   1      -3.667  79.539 116.862  0.00  0.00     0.119 C 
BRANCH   8   9
ATOM      9  C   LIG d   1      -4.427  80.771 117.391  0.00  0.00     0.028 C 
ATOM     10  C   LIG d   1      -5.793  80.405 117.993  0.00  0.00     0.006 C 
ENDBRANCH   8   9
BRANCH   8  11
ATOM     11  C   LIG d   1      -2.281  79.608 117.509  0.00  0.00     0.028 C 
ATOM     12  C   LIG d   1      -1.982  78.400 118.410  0.00  0.00     0.006 C 
ENDBRANCH   8  11
ENDBRANCH   7   8
ENDBRANCH   1   7
BRANCH   6  13
ATOM     13  N   LIG d   1      -2.120  77.063 115.009  0.00  0.00    -0.311 N 
ATOM     14  C   LIG d   1      -2.998  76.062 115.053  0.00  0.00     0.210 C 
ATOM     15  C   LIG d   1      -2.736  75.020 116.145  0.00  0.00     0.109 C 
ATOM     16  O   LIG d   1      -3.951  75.922 114.271  0.00  0.00    -0.276 OA
ATOM     17  H   LIG d   1      -1.360  77.081 115.660  0.00  0.00     0.149 HD
ENDBRANCH   6  13
BRANCH   5  18
ATOM     18  N   LIG d   1      -1.003  77.000 112.166  0.00  0.00     0.381 N 
ATOM     19  H   LIG d   1      -1.353  77.236 111.259  0.00  0.00    -0.090 HD
ATOM     20  H   LIG d   1      -1.601  76.295 112.561  0.00  0.00    -0.090 HD
ATOM     21  H   LIG d   1      -0.073  76.651 112.091  0.00  0.00    -0.090 HD
ENDBRANCH   5  18
BRANCH   3  22
ATOM     22  C   LIG d   1      -0.815  81.784 112.291  0.00  0.00     0.382 C 
ATOM     23  O   LIG d   1       0.376  82.123 112.496  0.00  0.00    -0.241 OA
ATOM     24  O   LIG d   1      -1.558  82.526 111.622  0.00  0.00    -0.241 OA
ENDBRANCH   3  22
TORSDOF 7
ENDMDL
MODEL 5
REMARK VINA RESULT:      -4.6      2.856      5.384
REMARK  7 active torsions:
REMARK  status: ('A' for Active; 'I' for Inactive)
REMARK    1  A    between atoms: C_2  and  C_3 
REMARK    2  A    between atoms: C_3  and  O_6 
REMARK    3  A    between atoms: C_3  and  C_4 
REMARK    4  A    between atoms: C_7  and  O_6 
REMARK    5  A    between atoms: C_9  and  C_10 
REMARK    6  A    between atoms: N_15  and  C_14 
REMARK    7  A    between atoms: N_20  and  C_19 
REMARK       I    between atoms: C_22  and  N_20 
ROOT
ATOM      1  C   LIG d   1      -1.327  80.471 113.701  0.00  0.00     0.161 C 
ATOM      2  C   LIG d   1      -2.273  79.444 113.853  0.00  0.00     0.016 C 
ATOM      3  C   LIG d   1      -2.327  78.306 113.016  0.00  0.00     0.038 C 
ATOM      4  C   LIG d   1      -1.336  78.042 112.059  0.00  0.00     0.028 C 
ATOM      5  C   LIG d   1      -0.651  79.299 111.534  0.00  0.00    -0.047 C 
ATOM      6  C   LIG d   1      -0.170  80.147 112.734  0.00  0.00     0.091 C 
ENDROOT
BRANCH   1   7
ATOM      7  O   LIG d   1      -0.809  80.853 114.991  0.00  0.00    -0.368 OA
BRANCH   7   8
ATOM      8  C   LIG d   1      -1.048  79.921 116.075  0.00  0.00     0.119 C 
BRANCH   8   9
ATOM      9  C   LIG d   1      -1.193  80.744 117.369  0.00  0.00     0.028 C 
ATOM     10  C   LIG d   1      -2.510  80.449 118.108  0.00  0.00     0.006 C 
ENDBRANCH   8   9
BRANCH   8  11
ATOM     11  C   LIG d   1       0.164  79.013 116.306  0.00  0.00     0.028 C 
ATOM     12  C   LIG d   1      -0.181  77.519 116.194  0.00  0.00     0.006 C 
ENDBRANCH   8  11
ENDBRANCH   7   8
ENDBRANCH   1   7
BRANCH   6  13
ATOM     13  N   LIG d   1       0.437  81.435 112.310  0.00  0.00    -0.311 N 
ATOM     14  C   LIG d   1      -0.261  82.430 111.765  0.00  0.00     0.210 C 
ATOM     15  C   LIG d   1       0.563  83.664 111.382  0.00  0.00     0.109 C 
ATOM     16  O   LIG d   1      -1.489  82.421 111.593  0.00  0.00    -0.276 OA
ATOM     17  H   LIG d   1       1.424  81.540 112.442  0.00  0.00     0.149 HD
ENDBRANCH   6  13
BRANCH   5  18
ATOM     18  N   LIG d   1       0.449  78.870 110.650  0.00  0.00     0.381 N 
ATOM     19  H   LIG d   1       1.070  78.267 111.151  0.00  0.00    -0.090 HD
ATOM     20  H   LIG d   1       0.966  79.681 110.357  0.00  0.00    -0.090 HD
ATOM     21  H   LIG d   1       0.083  78.396 109.854  0.00  0.00    -0.090 HD
ENDBRANCH   5  18
BRANCH   3  22
ATOM     22  C   LIG d   1      -3.404  77.437 113.107  0.00  0.00     0.382 C 
ATOM     23  O   LIG d   1      -3.352  76.454 113.884  0.00  0.00    -0.241 OA
ATOM     24  O   LIG d   1      -4.408  77.599 112.388  0.00  0.00    -0.241 OA
ENDBRANCH   3  22
TORSDOF 7
ENDMDL
MODEL 6
REMARK VINA RESULT:      -4.5      3.257      4.212
REMARK  7 active torsions:
REMARK  status: ('A' for Active; 'I' for Inactive)
REMARK    1  A    between atoms: C_2  and  C_3 
REMARK    2  A    between atoms: C_3  and  O_6 
REMARK    3  A    between atoms: C_3  and  C_4 
REMARK    4  A    between atoms: C_7  and  O_6 
REMARK    5  A    between atoms: C_9  and  C_10 
REMARK    6  A    between atoms: N_15  and  C_14 
REMARK    7  A    between atoms: N_20  and  C_19 
REMARK       I    between atoms: C_22  and  N_20 
ROOT
ATOM      1  C   LIG d   1      -5.054  77.545 117.356  0.00  0.00     0.161 C 
ATOM      2  C   LIG d   1      -5.741  78.719 117.709  0.00  0.00     0.016 C 
ATOM      3  C   LIG d   1      -5.186  80.013 117.584  0.00  0.00     0.038 C 
ATOM      4  C   LIG d   1      -3.953  80.233 116.952  0.00  0.00     0.028 C 
ATOM      5  C   LIG d   1      -3.007  79.041 117.039  0.00  0.00    -0.047 C 
ATOM      6  C   LIG d   1      -3.751  77.773 116.562  0.00  0.00     0.091 C 
ENDROOT
BRANCH   1   7
ATOM      7  O   LIG d   1      -5.935  76.663 116.633  0.00  0.00    -0.368 OA
BRANCH   7   8
ATOM      8  C   LIG d   1      -6.127  75.345 117.205  0.00  0.00     0.119 C 
BRANCH   8   9
ATOM      9  C   LIG d   1      -5.842  74.313 116.097  0.00  0.00     0.028 C 
ATOM     10  C   LIG d   1      -5.765  74.956 114.702  0.00  0.00     0.006 C 
ENDBRANCH   8   9
BRANCH   8  11
ATOM     11  C   LIG d   1      -7.588  75.119 117.604  0.00  0.00     0.028 C 
ATOM     12  C   LIG d   1      -8.511  76.266 117.163  0.00  0.00     0.006 C 
ENDBRANCH   8  11
ENDBRANCH   7   8
ENDBRANCH   1   7
BRANCH   6  13
ATOM     13  N   LIG d   1      -2.924  76.546 116.694  0.00  0.00    -0.311 N 
ATOM     14  C   LIG d   1      -2.406  75.895 115.653  0.00  0.00     0.210 C 
ATOM     15  C   LIG d   1      -1.601  74.641 116.010  0.00  0.00     0.109 C 
ATOM     16  O   LIG d   1      -2.510  76.254 114.471  0.00  0.00    -0.276 OA
ATOM     17  H   LIG d   1      -2.763  76.202 117.620  0.00  0.00     0.149 HD
ENDBRANCH   6  13
BRANCH   5  18
ATOM     18  N   LIG d   1      -1.818  79.354 116.223  0.00  0.00     0.381 N 
ATOM     19  H   LIG d   1      -1.168  78.595 116.266  0.00  0.00    -0.090 HD
ATOM     20  H   LIG d   1      -1.373  80.173 116.600  0.00  0.00    -0.090 HD
ATOM     21  H   LIG d   1      -2.087  79.519 115.278  0.00  0.00    -0.090 HD
ENDBRANCH   5  18
BRANCH   3  22
ATOM     22  C   LIG d   1      -5.849  81.101 118.131  0.00  0.00     0.382 C 
ATOM     23  O   LIG d   1      -5.647  81.422 119.327  0.00  0.00    -0.241 OA
ATOM     24  O   LIG d   1      -6.680  81.739 117.457  0.00  0.00    -0.241 OA
ENDBRANCH   3  22
TORSDOF 7
ENDMDL
MODEL 7
REMARK VINA RESULT:      -4.3      2.763      4.114
REMARK  7 active torsions:
REMARK  status: ('A' for Active; 'I' for Inactive)
REMARK    1  A    between atoms: C_2  and  C_3 
REMARK    2  A    between atoms: C_3  and  O_6 
REMARK    3  A    between atoms: C_3  and  C_4 
REMARK    4  A    between atoms: C_7  and  O_6 
REMARK    5  A    between atoms: C_9  and  C_10 
REMARK    6  A    between atoms: N_15  and  C_14 
REMARK    7  A    between atoms: N_20  and  C_19 
REMARK       I    between atoms: C_22  and  N_20 
ROOT
ATOM      1  C   LIG d   1      -2.772  78.685 116.372  0.00  0.00     0.161 C 
ATOM      2  C   LIG d   1      -1.877  79.758 116.513  0.00  0.00     0.016 C 
ATOM      3  C   LIG d   1      -0.683  79.879 115.765  0.00  0.00     0.038 C 
ATOM      4  C   LIG d   1      -0.376  79.006 114.711  0.00  0.00     0.028 C 
ATOM      5  C   LIG d   1      -0.998  77.623 114.871  0.00  0.00    -0.047 C 
ATOM      6  C   LIG d   1      -2.510  77.781 115.149  0.00  0.00     0.091 C 
ENDROOT
BRANCH   1   7
ATOM      7  O   LIG d   1      -4.126  79.178 116.350  0.00  0.00    -0.368 OA
BRANCH   7   8
ATOM      8  C   LIG d   1      -4.784  79.291 117.636  0.00  0.00     0.119 C 
BRANCH   8   9
ATOM      9  C   LIG d   1      -6.004  78.350 117.616  0.00  0.00     0.028 C 
ATOM     10  C   LIG d   1      -5.657  76.929 118.091  0.00  0.00     0.006 C 
ENDBRANCH   8   9
BRANCH   8  11
ATOM     11  C   LIG d   1      -5.358  80.695 117.847  0.00  0.00     0.028 C 
ATOM     12  C   LIG d   1      -6.857  80.681 118.187  0.00  0.00     0.006 C 
ENDBRANCH   8  11
ENDBRANCH   7   8
ENDBRANCH   1   7
BRANCH   6  13
ATOM     13  N   LIG d   1      -3.180  76.478 115.401  0.00  0.00    -0.311 N 
ATOM     14  C   LIG d   1      -4.233  76.049 114.708  0.00  0.00     0.210 C 
ATOM     15  C   LIG d   1      -4.782  74.687 115.143  0.00  0.00     0.109 C 
ATOM     16  O   LIG d   1      -4.745  76.653 113.753  0.00  0.00    -0.276 OA
ATOM     17  H   LIG d   1      -2.810  75.910 116.138  0.00  0.00     0.149 HD
ENDBRANCH   6  13
BRANCH   5  18
ATOM     18  N   LIG d   1      -0.713  76.862 113.639  0.00  0.00     0.381 N 
ATOM     19  H   LIG d   1       0.154  76.373 113.736  0.00  0.00    -0.090 HD
ATOM     20  H   LIG d   1      -0.629  77.505 112.872  0.00  0.00    -0.090 HD
ATOM     21  H   LIG d   1      -1.449  76.214 113.461  0.00  0.00    -0.090 HD
ENDBRANCH   5  18
BRANCH   3  22
ATOM     22  C   LIG d   1       0.239  80.860 116.097  0.00  0.00     0.382 C 
ATOM     23  O   LIG d   1       1.257  81.031 115.384  0.00  0.00    -0.241 OA
ATOM     24  O   LIG d   1       0.089  81.547 117.126  0.00  0.00    -0.241 OA
ENDBRANCH   3  22
TORSDOF 7
ENDMDL
MODEL 8
REMARK VINA RESULT:      -4.3      2.537      3.365
REMARK  7 active torsions:
REMARK  status: ('A' for Active; 'I' for Inactive)
REMARK    1  A    between atoms: C_2  and  C_3 
REMARK    2  A    between atoms: C_3  and  O_6 
REMARK    3  A    between atoms: C_3  and  C_4 
REMARK    4  A    between atoms: C_7  and  O_6 
REMARK    5  A    between atoms: C_9  and  C_10 
REMARK    6  A    between atoms: N_15  and  C_14 
REMARK    7  A    between atoms: N_20  and  C_19 
REMARK       I    between atoms: C_22  and  N_20 
ROOT
ATOM      1  C   LIG d   1      -3.229  78.121 114.729  0.00  0.00     0.161 C 
ATOM      2  C   LIG d   1      -2.792  77.593 113.503  0.00  0.00     0.016 C 
ATOM      3  C   LIG d   1      -1.663  78.079 112.804  0.00  0.00     0.038 C 
ATOM      4  C   LIG d   1      -0.800  79.034 113.363  0.00  0.00     0.028 C 
ATOM      5  C   LIG d   1      -1.484  79.952 114.370  0.00  0.00    -0.047 C 
ATOM      6  C   LIG d   1      -2.236  79.088 115.408  0.00  0.00     0.091 C 
ENDROOT
BRANCH   1   7
ATOM      7  O   LIG d   1      -3.577  77.048 115.627  0.00  0.00    -0.368 OA
BRANCH   7   8
ATOM      8  C   LIG d   1      -3.148  75.722 115.232  0.00  0.00     0.119 C 
BRANCH   8   9
ATOM      9  C   LIG d   1      -4.344  74.771 115.430  0.00  0.00     0.028 C 
ATOM     10  C   LIG d   1      -5.586  75.217 114.641  0.00  0.00     0.006 C 
ENDBRANCH   8   9
BRANCH   8  11
ATOM     11  C   LIG d   1      -2.050  75.192 116.159  0.00  0.00     0.028 C 
ATOM     12  C   LIG d   1      -0.635  75.502 115.645  0.00  0.00     0.006 C 
ENDBRANCH   8  11
ENDBRANCH   7   8
ENDBRANCH   1   7
BRANCH   6  13
ATOM     13  N   LIG d   1      -3.002  79.909 116.381  0.00  0.00    -0.311 N 
ATOM     14  C   LIG d   1      -2.729  79.945 117.684  0.00  0.00     0.210 C 
ATOM     15  C   LIG d   1      -3.653  80.841 118.514  0.00  0.00     0.109 C 
ATOM     16  O   LIG d   1      -1.788  79.346 118.227  0.00  0.00    -0.276 OA
ATOM     17  H   LIG d   1      -3.763  80.451 116.022  0.00  0.00     0.149 HD
ENDBRANCH   6  13
BRANCH   5  18
ATOM     18  N   LIG d   1      -0.442  80.804 114.974  0.00  0.00     0.381 N 
ATOM     19  H   LIG d   1      -0.680  81.007 115.925  0.00  0.00    -0.090 HD
ATOM     20  H   LIG d   1      -0.397  81.671 114.468  0.00  0.00    -0.090 HD
ATOM     21  H   LIG d   1       0.440  80.343 114.936  0.00  0.00    -0.090 HD
ENDBRANCH   5  18
BRANCH   3  22
ATOM     22  C   LIG d   1      -1.411  77.638 111.514  0.00  0.00     0.382 C 
ATOM     23  O   LIG d   1      -1.389  78.457 110.565  0.00  0.00    -0.241 OA
ATOM     24  O   LIG d   1      -1.250  76.425 111.282  0.00  0.00    -0.241 OA
ENDBRANCH   3  22
TORSDOF 7
ENDMDL
MODEL 9
REMARK VINA RESULT:      -4.2      2.448      2.938
REMARK  7 active torsions:
REMARK  status: ('A' for Active; 'I' for Inactive)
REMARK    1  A    between atoms: C_2  and  C_3 
REMARK    2  A    between atoms: C_3  and  O_6 
REMARK    3  A    between atoms: C_3  and  C_4 
REMARK    4  A    between atoms: C_7  and  O_6 
REMARK    5  A    between atoms: C_9  and  C_10 
REMARK    6  A    between atoms: N_15  and  C_14 
REMARK    7  A    between atoms: N_20  and  C_19 
REMARK       I    between atoms: C_22  and  N_20 
ROOT
ATOM      1  C   LIG d   1      -2.988  77.596 115.026  0.00  0.00     0.161 C 
ATOM      2  C   LIG d   1      -2.585  77.219 113.734  0.00  0.00     0.016 C 
ATOM      3  C   LIG d   1      -1.635  77.940 112.974  0.00  0.00     0.038 C 
ATOM      4  C   LIG d   1      -0.908  79.009 113.518  0.00  0.00     0.028 C 
ATOM      5  C   LIG d   1      -1.643  79.734 114.639  0.00  0.00    -0.047 C 
ATOM      6  C   LIG d   1      -2.123  78.695 115.678  0.00  0.00     0.091 C 
ENDROOT
BRANCH   1   7
ATOM      7  O   LIG d   1      -3.048  76.435 115.878  0.00  0.00    -0.368 OA
BRANCH   7   8
ATOM      8  C   LIG d   1      -4.374  75.970 116.229  0.00  0.00     0.119 C 
BRANCH   8   9
ATOM      9  C   LIG d   1      -4.525  76.114 117.756  0.00  0.00     0.028 C 
ATOM     10  C   LIG d   1      -3.177  76.022 118.490  0.00  0.00     0.006 C 
ENDBRANCH   8   9
BRANCH   8  11
ATOM     11  C   LIG d   1      -4.534  74.473 115.945  0.00  0.00     0.028 C 
ATOM     12  C   LIG d   1      -5.578  74.182 114.856  0.00  0.00     0.006 C 
ENDBRANCH   8  11
ENDBRANCH   7   8
ENDBRANCH   1   7
BRANCH   6  13
ATOM     13  N   LIG d   1      -2.925  79.311 116.767  0.00  0.00    -0.311 N 
ATOM     14  C   LIG d   1      -2.410  79.679 117.939  0.00  0.00     0.210 C 
ATOM     15  C   LIG d   1      -3.415  80.276 118.929  0.00  0.00     0.109 C 
ATOM     16  O   LIG d   1      -1.210  79.598 118.241  0.00  0.00    -0.276 OA
ATOM     17  H   LIG d   1      -3.903  79.443 116.595  0.00  0.00     0.149 HD
ENDBRANCH   6  13
BRANCH   5  18
ATOM     18  N   LIG d   1      -0.717  80.733 115.206  0.00  0.00     0.381 N 
ATOM     19  H   LIG d   1      -0.612  80.579 116.189  0.00  0.00    -0.090 HD
ATOM     20  H   LIG d   1      -1.106  81.650 115.071  0.00  0.00    -0.090 HD
ATOM     21  H   LIG d   1       0.169  80.670 114.756  0.00  0.00    -0.090 HD
ENDBRANCH   5  18
BRANCH   3  22
ATOM     22  C   LIG d   1      -1.435  77.617 111.640  0.00  0.00     0.382 C 
ATOM     23  O   LIG d   1      -0.984  76.488 111.329  0.00  0.00    -0.241 OA
ATOM     24  O   LIG d   1      -1.658  78.456 110.747  0.00  0.00    -0.241 OA
ENDBRANCH   3  22
TORSDOF 7
ENDMDL
