MODEL 1
REMARK VINA RESULT:      -4.8      0.000      0.000
REMARK  7 active torsions:
REMARK  status: ('A' for Active; 'I' for Inactive)
REMARK    1  A    between atoms: C_2  and  C_3 
REMARK    2  A    between atoms: C_3  and  O_6 
REMARK    3  A    between atoms: C_3  and  C_4 
REMARK    4  A    between atoms: C_7  and  O_6 
REMARK    5  A    between atoms: C_9  and  C_10 
REMARK    6  A    between atoms: N_15  and  C_14 
REMARK    7  A    between atoms: N_20  and  C_19 
REMARK       I    between atoms: C_22  and  N_20 
ROOT
ATOM      1  C   LIG d   1      -3.280  76.901 115.912  0.00  0.00     0.161 C 
ATOM      2  C   LIG d   1      -3.474  77.457 114.637  0.00  0.00     0.016 C 
ATOM      3  C   LIG d   1      -2.441  77.590 113.680  0.00  0.00     0.038 C 
ATOM      4  C   LIG d   1      -1.169  77.033 113.881  0.00  0.00     0.028 C 
ATOM      5  C   LIG d   1      -0.787  76.910 115.352  0.00  0.00    -0.047 C 
ATOM      6  C   LIG d   1      -1.926  76.187 116.107  0.00  0.00     0.091 C 
ENDROOT
BRANCH   1   7
ATOM      7  O   LIG d   1      -4.367  76.008 116.226  0.00  0.00    -0.368 OA
BRANCH   7   8
ATOM      8  C   LIG d   1      -5.455  75.967 115.270  0.00  0.00     0.119 C 
BRANCH   8   9
ATOM      9  C   LIG d   1      -6.753  76.298 116.031  0.00  0.00     0.028 C 
ATOM     10  C   LIG d   1      -6.901  75.476 117.323  0.00  0.00     0.006 C 
ENDBRANCH   8   9
BRANCH   8  11
ATOM     11  C   LIG d   1      -5.658  74.554 114.717  0.00  0.00     0.028 C 
ATOM     12  C   LIG d   1      -5.154  74.400 113.273  0.00  0.00     0.006 C 
ENDBRANCH   8  11
ENDBRANCH   7   8
ENDBRANCH   1   7
BRANCH   6  13
ATOM     13  N   LIG d   1      -1.671  76.099 117.569  0.00  0.00    -0.311 N 
ATOM     14  C   LIG d   1      -0.984  75.109 118.134  0.00  0.00     0.210 C 
ATOM     15  C   LIG d   1      -0.854  75.200 119.658  0.00  0.00     0.109 C 
ATOM     16  O   LIG d   1      -0.442  74.180 117.516  0.00  0.00    -0.276 OA
ATOM     17  H   LIG d   1      -2.048  76.828 118.142  0.00  0.00     0.149 HD
ENDBRANCH   6  13
BRANCH   5  18
ATOM     18  N   LIG d   1       0.499  76.190 115.419  0.00  0.00     0.381 N 
ATOM     19  H   LIG d   1       1.255  76.842 115.363  0.00  0.00    -0.090 HD
ATOM     20  H   LIG d   1       0.562  75.564 114.636  0.00  0.00    -0.090 HD
ATOM     21  H   LIG d   1       0.557  75.676 116.270  0.00  0.00    -0.090 HD
ENDBRANCH   5  18
BRANCH   3  22
ATOM     22  C   LIG d   1      -2.665  78.321 112.524  0.00  0.00     0.382 C 
ATOM     23  O   LIG d   1      -3.535  77.944 111.702  0.00  0.00    -0.241 OA
ATOM     24  O   LIG d   1      -1.978  79.329 112.270  0.00  0.00    -0.241 OA
ENDBRANCH   3  22
TORSDOF 7
ENDMDL
MODEL 2
REMARK VINA RESULT:      -4.7      3.883      5.436
REMARK  7 active torsions:
REMARK  status: ('A' for Active; 'I' for Inactive)
REMARK    1  A    between atoms: C_2  and  C_3 
REMARK    2  A    between atoms: C_3  and  O_6 
REMARK    3  A    between atoms: C_3  and  C_4 
REMARK    4  A    between atoms: C_7  and  O_6 
REMARK    5  A    between atoms: C_9  and  C_10 
REMARK    6  A    between atoms: N_15  and  C_14 
REMARK    7  A    between atoms: N_20  and  C_19 
REMARK       I    between atoms: C_22  and  N_20 
ROOT
ATOM      1  C   LIG d   1      -2.760  81.043 114.513  0.00  0.00     0.161 C 
ATOM      2  C   LIG d   1      -2.350  82.112 113.698  0.00  0.00     0.016 C 
ATOM      3  C   LIG d   1      -1.676  81.938 112.468  0.00  0.00     0.038 C 
ATOM      4  C   LIG d   1      -1.498  80.671 111.892  0.00  0.00     0.028 C 
ATOM      5  C   LIG d   1      -1.446  79.542 112.916  0.00  0.00    -0.047 C 
ATOM      6  C   LIG d   1      -2.674  79.653 113.849  0.00  0.00     0.091 C 
ENDROOT
BRANCH   1   7
ATOM      7  O   LIG d   1      -4.095  81.284 115.000  0.00  0.00    -0.368 OA
BRANCH   7   8
ATOM      8  C   LIG d   1      -4.195  81.948 116.283  0.00  0.00     0.119 C 
BRANCH   8   9
ATOM      9  C   LIG d   1      -3.008  81.475 117.144  0.00  0.00     0.028 C 
ATOM     10  C   LIG d   1      -2.342  82.629 117.912  0.00  0.00     0.006 C 
ENDBRANCH   8   9
BRANCH   8  11
ATOM     11  C   LIG d   1      -5.449  81.505 117.043  0.00  0.00     0.028 C 
ATOM     12  C   LIG d   1      -5.614  79.978 117.081  0.00  0.00     0.006 C 
ENDBRANCH   8  11
ENDBRANCH   7   8
ENDBRANCH   1   7
BRANCH   6  13
ATOM     13  N   LIG d   1      -2.656  78.637 114.933  0.00  0.00    -0.311 N 
ATOM     14  C   LIG d   1      -3.294  77.470 114.854  0.00  0.00     0.210 C 
ATOM     15  C   LIG d   1      -3.162  76.577 116.092  0.00  0.00     0.109 C 
ATOM     16  O   LIG d   1      -3.929  77.077 113.865  0.00  0.00    -0.276 OA
ATOM     17  H   LIG d   1      -2.138  78.861 115.760  0.00  0.00     0.149 HD
ENDBRANCH   6  13
BRANCH   5  18
ATOM     18  N   LIG d   1      -1.397  78.268 112.174  0.00  0.00     0.381 N 
ATOM     19  H   LIG d   1      -1.286  78.450 111.196  0.00  0.00    -0.090 HD
ATOM     20  H   LIG d   1      -2.265  77.780 112.308  0.00  0.00    -0.090 HD
ATOM     21  H   LIG d   1      -0.639  77.711 112.503  0.00  0.00    -0.090 HD
ENDBRANCH   5  18
BRANCH   3  22
ATOM     22  C   LIG d   1      -1.135  83.037 111.819  0.00  0.00     0.382 C 
ATOM     23  O   LIG d   1      -0.554  83.932 112.479  0.00  0.00    -0.241 OA
ATOM     24  O   LIG d   1      -1.260  83.168 110.586  0.00  0.00    -0.241 OA
ENDBRANCH   3  22
TORSDOF 7
ENDMDL
MODEL 3
REMARK VINA RESULT:      -4.7      2.342      2.893
REMARK  7 active torsions:
REMARK  status: ('A' for Active; 'I' for Inactive)
REMARK    1  A    between atoms: C_2  and  C_3 
REMARK    2  A    between atoms: C_3  and  O_6 
REMARK    3  A    between atoms: C_3  and  C_4 
REMARK    4  A    between atoms: C_7  and  O_6 
REMARK    5  A    between atoms: C_9  and  C_10 
REMARK    6  A    between atoms: N_15  and  C_14 
REMARK    7  A    between atoms: N_20  and  C_19 
REMARK       I    between atoms: C_22  and  N_20 
ROOT
ATOM      1  C   LIG d   1      -2.402  78.323 114.541  0.00  0.00     0.161 C 
ATOM      2  C   LIG d   1      -2.808  79.218 113.536  0.00  0.00     0.016 C 
ATOM      3  C   LIG d   1      -2.067  80.364 113.170  0.00  0.00     0.038 C 
ATOM      4  C   LIG d   1      -0.785  80.614 113.682  0.00  0.00     0.028 C 
ATOM      5  C   LIG d   1      -0.558  80.012 115.065  0.00  0.00    -0.047 C 
ATOM      6  C   LIG d   1      -0.953  78.518 115.033  0.00  0.00     0.091 C 
ENDROOT
BRANCH   1   7
ATOM      7  O   LIG d   1      -2.602  76.967 114.097  0.00  0.00    -0.368 OA
BRANCH   7   8
ATOM      8  C   LIG d   1      -3.722  76.262 114.686  0.00  0.00     0.119 C 
BRANCH   8   9
ATOM      9  C   LIG d   1      -3.166  74.996 115.367  0.00  0.00     0.028 C 
ATOM     10  C   LIG d   1      -3.615  74.873 116.833  0.00  0.00     0.006 C 
ENDBRANCH   8   9
BRANCH   8  11
ATOM     11  C   LIG d   1      -4.689  75.753 113.612  0.00  0.00     0.028 C 
ATOM     12  C   LIG d   1      -6.135  75.637 114.119  0.00  0.00     0.006 C 
ENDBRANCH   8  11
ENDBRANCH   7   8
ENDBRANCH   1   7
BRANCH   6  13
ATOM     13  N   LIG d   1      -0.841  77.874 116.368  0.00  0.00    -0.311 N 
ATOM     14  C   LIG d   1      -0.233  76.706 116.569  0.00  0.00     0.210 C 
ATOM     15  C   LIG d   1      -0.248  76.211 118.019  0.00  0.00     0.109 C 
ATOM     16  O   LIG d   1       0.345  76.049 115.691  0.00  0.00    -0.276 OA
ATOM     17  H   LIG d   1      -1.255  78.354 117.143  0.00  0.00     0.149 HD
ENDBRANCH   6  13
BRANCH   5  18
ATOM     18  N   LIG d   1       0.858  80.229 115.418  0.00  0.00     0.381 N 
ATOM     19  H   LIG d   1       1.009  79.986 116.377  0.00  0.00    -0.090 HD
ATOM     20  H   LIG d   1       1.077  81.202 115.301  0.00  0.00    -0.090 HD
ATOM     21  H   LIG d   1       1.444  79.676 114.832  0.00  0.00    -0.090 HD
ENDBRANCH   5  18
BRANCH   3  22
ATOM     22  C   LIG d   1      -2.625  81.298 112.310  0.00  0.00     0.382 C 
ATOM     23  O   LIG d   1      -1.914  81.850 111.436  0.00  0.00    -0.241 OA
ATOM     24  O   LIG d   1      -3.821  81.627 112.425  0.00  0.00    -0.241 OA
ENDBRANCH   3  22
TORSDOF 7
ENDMDL
MODEL 4
REMARK VINA RESULT:      -4.6      3.758      5.262
REMARK  7 active torsions:
REMARK  status: ('A' for Active; 'I' for Inactive)
REMARK    1  A    between atoms: C_2  and  C_3 
REMARK    2  A    between atoms: C_3  and  O_6 
REMARK    3  A    between atoms: C_3  and  C_4 
REMARK    4  A    between atoms: C_7  and  O_6 
REMARK    5  A    between atoms: C_9  and  C_10 
REMARK    6  A    between atoms: N_15  and  C_14 
REMARK    7  A    between atoms: N_20  and  C_19 
REMARK       I    between atoms: C_22  and  N_20 
ROOT
ATOM      1  C   LIG d   1      -2.794  80.410 114.831  0.00  0.00     0.161 C 
ATOM      2  C   LIG d   1      -2.404  81.715 114.488  0.00  0.00     0.016 C 
ATOM      3  C   LIG d   1      -1.719  82.034 113.293  0.00  0.00     0.038 C 
ATOM      4  C   LIG d   1      -1.509  81.084 112.283  0.00  0.00     0.028 C 
ATOM      5  C   LIG d   1      -1.436  79.652 112.803  0.00  0.00    -0.047 C 
ATOM      6  C   LIG d   1      -2.672  79.378 113.690  0.00  0.00     0.091 C 
ENDROOT
BRANCH   1   7
ATOM      7  O   LIG d   1      -4.137  80.423 115.353  0.00  0.00    -0.368 OA
BRANCH   7   8
ATOM      8  C   LIG d   1      -4.278  80.094 116.757  0.00  0.00     0.119 C 
BRANCH   8   9
ATOM      9  C   LIG d   1      -5.522  79.196 116.900  0.00  0.00     0.028 C 
ATOM     10  C   LIG d   1      -6.716  79.942 117.521  0.00  0.00     0.006 C 
ENDBRANCH   8   9
BRANCH   8  11
ATOM     11  C   LIG d   1      -4.580  81.341 117.594  0.00  0.00     0.028 C 
ATOM     12  C   LIG d   1      -3.418  81.732 118.521  0.00  0.00     0.006 C 
ENDBRANCH   8  11
ENDBRANCH   7   8
ENDBRANCH   1   7
BRANCH   6  13
ATOM     13  N   LIG d   1      -2.637  78.027 114.308  0.00  0.00    -0.311 N 
ATOM     14  C   LIG d   1      -3.240  76.963 113.780  0.00  0.00     0.210 C 
ATOM     15  C   LIG d   1      -3.097  75.670 114.589  0.00  0.00     0.109 C 
ATOM     16  O   LIG d   1      -3.853  76.961 112.701  0.00  0.00    -0.276 OA
ATOM     17  H   LIG d   1      -2.135  77.932 115.169  0.00  0.00     0.149 HD
ENDBRANCH   6  13
BRANCH   5  18
ATOM     18  N   LIG d   1      -1.353  78.757 111.634  0.00  0.00     0.381 N 
ATOM     19  H   LIG d   1      -0.975  79.254 110.852  0.00  0.00    -0.090 HD
ATOM     20  H   LIG d   1      -2.279  78.449 111.394  0.00  0.00    -0.090 HD
ATOM     21  H   LIG d   1      -0.779  77.971 111.846  0.00  0.00    -0.090 HD
ENDBRANCH   5  18
BRANCH   3  22
ATOM     22  C   LIG d   1      -1.200  83.308 113.117  0.00  0.00     0.382 C 
ATOM     23  O   LIG d   1      -0.627  83.888 114.070  0.00  0.00    -0.241 OA
ATOM     24  O   LIG d   1      -1.337  83.902 112.031  0.00  0.00    -0.241 OA
ENDBRANCH   3  22
TORSDOF 7
ENDMDL
MODEL 5
REMARK VINA RESULT:      -4.5      2.867      3.912
REMARK  7 active torsions:
REMARK  status: ('A' for Active; 'I' for Inactive)
REMARK    1  A    between atoms: C_2  and  C_3 
REMARK    2  A    between atoms: C_3  and  O_6 
REMARK    3  A    between atoms: C_3  and  C_4 
REMARK    4  A    between atoms: C_7  and  O_6 
REMARK    5  A    between atoms: C_9  and  C_10 
REMARK    6  A    between atoms: N_15  and  C_14 
REMARK    7  A    between atoms: N_20  and  C_19 
REMARK       I    between atoms: C_22  and  N_20 
ROOT
ATOM      1  C   LIG d   1      -5.132  77.377 116.148  0.00  0.00     0.161 C 
ATOM      2  C   LIG d   1      -5.833  78.519 116.570  0.00  0.00     0.016 C 
ATOM      3  C   LIG d   1      -5.206  79.749 116.875  0.00  0.00     0.038 C 
ATOM      4  C   LIG d   1      -3.841  79.966 116.633  0.00  0.00     0.028 C 
ATOM      5  C   LIG d   1      -3.007  78.690 116.686  0.00  0.00    -0.047 C 
ATOM      6  C   LIG d   1      -3.656  77.627 115.771  0.00  0.00     0.091 C 
ENDROOT
BRANCH   1   7
ATOM      7  O   LIG d   1      -5.830  76.752 115.053  0.00  0.00    -0.368 OA
BRANCH   7   8
ATOM      8  C   LIG d   1      -6.508  75.508 115.357  0.00  0.00     0.119 C 
BRANCH   8   9
ATOM      9  C   LIG d   1      -6.335  75.243 116.865  0.00  0.00     0.028 C 
ATOM     10  C   LIG d   1      -7.674  75.262 117.622  0.00  0.00     0.006 C 
ENDBRANCH   8   9
BRANCH   8  11
ATOM     11  C   LIG d   1      -5.838  74.322 114.657  0.00  0.00     0.028 C 
ATOM     12  C   LIG d   1      -5.360  74.662 113.236  0.00  0.00     0.006 C 
ENDBRANCH   8  11
ENDBRANCH   7   8
ENDBRANCH   1   7
BRANCH   6  13
ATOM     13  N   LIG d   1      -2.950  76.321 115.830  0.00  0.00    -0.311 N 
ATOM     14  C   LIG d   1      -2.322  75.779 114.788  0.00  0.00     0.210 C 
ATOM     15  C   LIG d   1      -1.675  74.417 115.059  0.00  0.00     0.109 C 
ATOM     16  O   LIG d   1      -2.212  76.313 113.673  0.00  0.00    -0.276 OA
ATOM     17  H   LIG d   1      -2.963  75.834 116.705  0.00  0.00     0.149 HD
ENDBRANCH   6  13
BRANCH   5  18
ATOM     18  N   LIG d   1      -1.632  79.040 116.280  0.00  0.00     0.381 N 
ATOM     19  H   LIG d   1      -0.998  78.846 117.029  0.00  0.00    -0.090 HD
ATOM     20  H   LIG d   1      -1.593  80.024 116.080  0.00  0.00    -0.090 HD
ATOM     21  H   LIG d   1      -1.372  78.519 115.472  0.00  0.00    -0.090 HD
ENDBRANCH   5  18
BRANCH   3  22
ATOM     22  C   LIG d   1      -5.939  80.766 117.467  0.00  0.00     0.382 C 
ATOM     23  O   LIG d   1      -6.996  81.174 116.927  0.00  0.00    -0.241 OA
ATOM     24  O   LIG d   1      -5.534  81.311 118.511  0.00  0.00    -0.241 OA
ENDBRANCH   3  22
TORSDOF 7
ENDMDL
MODEL 6
REMARK VINA RESULT:      -4.5      4.134      6.014
REMARK  7 active torsions:
REMARK  status: ('A' for Active; 'I' for Inactive)
REMARK    1  A    between atoms: C_2  and  C_3 
REMARK    2  A    between atoms: C_3  and  O_6 
REMARK    3  A    between atoms: C_3  and  C_4 
REMARK    4  A    between atoms: C_7  and  O_6 
REMARK    5  A    between atoms: C_9  and  C_10 
REMARK    6  A    between atoms: N_15  and  C_14 
REMARK    7  A    between atoms: N_20  and  C_19 
REMARK       I    between atoms: C_22  and  N_20 
ROOT
ATOM      1  C   LIG d   1      -0.596  80.431 114.290  0.00  0.00     0.161 C 
ATOM      2  C   LIG d   1      -0.706  81.713 113.726  0.00  0.00     0.016 C 
ATOM      3  C   LIG d   1      -1.319  81.962 112.476  0.00  0.00     0.038 C 
ATOM      4  C   LIG d   1      -2.001  80.960 111.771  0.00  0.00     0.028 C 
ATOM      5  C   LIG d   1      -1.480  79.556 112.058  0.00  0.00    -0.047 C 
ATOM      6  C   LIG d   1      -1.432  79.341 113.588  0.00  0.00     0.091 C 
ENDROOT
BRANCH   1   7
ATOM      7  O   LIG d   1      -0.920  80.485 115.693  0.00  0.00    -0.368 OA
BRANCH   7   8
ATOM      8  C   LIG d   1      -1.526  81.716 116.160  0.00  0.00     0.119 C 
BRANCH   8   9
ATOM      9  C   LIG d   1      -0.953  82.013 117.559  0.00  0.00     0.028 C 
ATOM     10  C   LIG d   1      -1.090  83.494 117.948  0.00  0.00     0.006 C 
ENDBRANCH   8   9
BRANCH   8  11
ATOM     11  C   LIG d   1      -3.035  81.551 116.367  0.00  0.00     0.028 C 
ATOM     12  C   LIG d   1      -3.859  82.595 115.598  0.00  0.00     0.006 C 
ENDBRANCH   8  11
ENDBRANCH   7   8
ENDBRANCH   1   7
BRANCH   6  13
ATOM     13  N   LIG d   1      -0.854  78.023 113.958  0.00  0.00    -0.311 N 
ATOM     14  C   LIG d   1      -1.555  76.890 113.964  0.00  0.00     0.210 C 
ATOM     15  C   LIG d   1      -0.772  75.647 114.396  0.00  0.00     0.109 C 
ATOM     16  O   LIG d   1      -2.743  76.792 113.622  0.00  0.00    -0.276 OA
ATOM     17  H   LIG d   1       0.113  78.005 114.219  0.00  0.00     0.149 HD
ENDBRANCH   6  13
BRANCH   5  18
ATOM     18  N   LIG d   1      -2.367  78.601 111.367  0.00  0.00     0.381 N 
ATOM     19  H   LIG d   1      -2.601  77.849 111.984  0.00  0.00    -0.090 HD
ATOM     20  H   LIG d   1      -1.880  78.219 110.576  0.00  0.00    -0.090 HD
ATOM     21  H   LIG d   1      -3.196  79.063 111.066  0.00  0.00    -0.090 HD
ENDBRANCH   5  18
BRANCH   3  22
ATOM     22  C   LIG d   1      -1.218  83.220 111.900  0.00  0.00     0.382 C 
ATOM     23  O   LIG d   1      -1.167  84.240 112.628  0.00  0.00    -0.241 OA
ATOM     24  O   LIG d   1      -1.221  83.349 110.661  0.00  0.00    -0.241 OA
ENDBRANCH   3  22
TORSDOF 7
ENDMDL
MODEL 7
REMARK VINA RESULT:      -4.5      2.094      4.215
REMARK  7 active torsions:
REMARK  status: ('A' for Active; 'I' for Inactive)
REMARK    1  A    between atoms: C_2  and  C_3 
REMARK    2  A    between atoms: C_3  and  O_6 
REMARK    3  A    between atoms: C_3  and  C_4 
REMARK    4  A    between atoms: C_7  and  O_6 
REMARK    5  A    between atoms: C_9  and  C_10 
REMARK    6  A    between atoms: N_15  and  C_14 
REMARK    7  A    between atoms: N_20  and  C_19 
REMARK       I    between atoms: C_22  and  N_20 
ROOT
ATOM      1  C   LIG d   1      -1.940  76.478 114.625  0.00  0.00     0.161 C 
ATOM      2  C   LIG d   1      -3.125  76.315 113.888  0.00  0.00     0.016 C 
ATOM      3  C   LIG d   1      -4.219  75.539 114.335  0.00  0.00     0.038 C 
ATOM      4  C   LIG d   1      -4.261  74.991 115.626  0.00  0.00     0.028 C 
ATOM      5  C   LIG d   1      -2.882  74.708 116.209  0.00  0.00    -0.047 C 
ATOM      6  C   LIG d   1      -2.012  75.980 116.084  0.00  0.00     0.091 C 
ENDROOT
BRANCH   1   7
ATOM      7  O   LIG d   1      -1.526  77.858 114.587  0.00  0.00    -0.368 OA
BRANCH   7   8
ATOM      8  C   LIG d   1      -2.558  78.824 114.267  0.00  0.00     0.119 C 
BRANCH   8   9
ATOM      9  C   LIG d   1      -1.965  79.813 113.246  0.00  0.00     0.028 C 
ATOM     10  C   LIG d   1      -2.439  79.530 111.810  0.00  0.00     0.006 C 
ENDBRANCH   8   9
BRANCH   8  11
ATOM     11  C   LIG d   1      -2.924  79.672 115.488  0.00  0.00     0.028 C 
ATOM     12  C   LIG d   1      -4.188  79.170 116.205  0.00  0.00     0.006 C 
ENDBRANCH   8  11
ENDBRANCH   7   8
ENDBRANCH   1   7
BRANCH   6  13
ATOM     13  N   LIG d   1      -0.619  75.763 116.555  0.00  0.00    -0.311 N 
ATOM     14  C   LIG d   1      -0.220  76.012 117.801  0.00  0.00     0.210 C 
ATOM     15  C   LIG d   1       1.263  75.738 118.071  0.00  0.00     0.109 C 
ATOM     16  O   LIG d   1      -0.960  76.402 118.716  0.00  0.00    -0.276 OA
ATOM     17  H   LIG d   1       0.040  75.418 115.885  0.00  0.00     0.149 HD
ENDBRANCH   6  13
BRANCH   5  18
ATOM     18  N   LIG d   1      -3.069  74.271 117.606  0.00  0.00     0.381 N 
ATOM     19  H   LIG d   1      -2.356  73.616 117.855  0.00  0.00    -0.090 HD
ATOM     20  H   LIG d   1      -3.960  73.814 117.686  0.00  0.00    -0.090 HD
ATOM     21  H   LIG d   1      -3.035  75.058 118.217  0.00  0.00    -0.090 HD
ENDBRANCH   5  18
BRANCH   3  22
ATOM     22  C   LIG d   1      -5.269  75.270 113.470  0.00  0.00     0.382 C 
ATOM     23  O   LIG d   1      -6.191  76.107 113.325  0.00  0.00    -0.241 OA
ATOM     24  O   LIG d   1      -5.328  74.181 112.868  0.00  0.00    -0.241 OA
ENDBRANCH   3  22
TORSDOF 7
ENDMDL
MODEL 8
REMARK VINA RESULT:      -4.4      2.869      3.752
REMARK  7 active torsions:
REMARK  status: ('A' for Active; 'I' for Inactive)
REMARK    1  A    between atoms: C_2  and  C_3 
REMARK    2  A    between atoms: C_3  and  O_6 
REMARK    3  A    between atoms: C_3  and  C_4 
REMARK    4  A    between atoms: C_7  and  O_6 
REMARK    5  A    between atoms: C_9  and  C_10 
REMARK    6  A    between atoms: N_15  and  C_14 
REMARK    7  A    between atoms: N_20  and  C_19 
REMARK       I    between atoms: C_22  and  N_20 
ROOT
ATOM      1  C   LIG d   1      -4.028  78.164 116.167  0.00  0.00     0.161 C 
ATOM      2  C   LIG d   1      -4.412  79.512 116.268  0.00  0.00     0.016 C 
ATOM      3  C   LIG d   1      -3.619  80.584 115.798  0.00  0.00     0.038 C 
ATOM      4  C   LIG d   1      -2.449  80.370 115.054  0.00  0.00     0.028 C 
ATOM      5  C   LIG d   1      -1.766  79.043 115.367  0.00  0.00    -0.047 C 
ATOM      6  C   LIG d   1      -2.807  77.906 115.260  0.00  0.00     0.091 C 
ENDROOT
BRANCH   1   7
ATOM      7  O   LIG d   1      -5.150  77.368 115.738  0.00  0.00    -0.368 OA
BRANCH   7   8
ATOM      8  C   LIG d   1      -5.482  76.232 116.573  0.00  0.00     0.119 C 
BRANCH   8   9
ATOM      9  C   LIG d   1      -6.267  75.231 115.703  0.00  0.00     0.028 C 
ATOM     10  C   LIG d   1      -6.060  75.473 114.199  0.00  0.00     0.006 C 
ENDBRANCH   8   9
BRANCH   8  11
ATOM     11  C   LIG d   1      -6.442  76.630 117.699  0.00  0.00     0.028 C 
ATOM     12  C   LIG d   1      -7.906  76.697 117.237  0.00  0.00     0.006 C 
ENDBRANCH   8  11
ENDBRANCH   7   8
ENDBRANCH   1   7
BRANCH   6  13
ATOM     13  N   LIG d   1      -2.242  76.583 115.632  0.00  0.00    -0.311 N 
ATOM     14  C   LIG d   1      -2.193  75.545 114.799  0.00  0.00     0.210 C 
ATOM     15  C   LIG d   1      -1.588  74.268 115.391  0.00  0.00     0.109 C 
ATOM     16  O   LIG d   1      -2.564  75.570 113.616  0.00  0.00    -0.276 OA
ATOM     17  H   LIG d   1      -1.890  76.484 116.564  0.00  0.00     0.149 HD
ENDBRANCH   6  13
BRANCH   5  18
ATOM     18  N   LIG d   1      -0.641  78.888 114.425  0.00  0.00     0.381 N 
ATOM     19  H   LIG d   1      -0.944  78.384 113.616  0.00  0.00    -0.090 HD
ATOM     20  H   LIG d   1       0.086  78.359 114.873  0.00  0.00    -0.090 HD
ATOM     21  H   LIG d   1      -0.295  79.783 114.157  0.00  0.00    -0.090 HD
ENDBRANCH   5  18
BRANCH   3  22
ATOM     22  C   LIG d   1      -3.975  81.888 116.106  0.00  0.00     0.382 C 
ATOM     23  O   LIG d   1      -3.109  82.691 116.531  0.00  0.00    -0.241 OA
ATOM     24  O   LIG d   1      -5.159  82.260 116.007  0.00  0.00    -0.241 OA
ENDBRANCH   3  22
TORSDOF 7
ENDMDL
MODEL 9
REMARK VINA RESULT:      -4.4      2.599      4.916
REMARK  7 active torsions:
REMARK  status: ('A' for Active; 'I' for Inactive)
REMARK    1  A    between atoms: C_2  and  C_3 
REMARK    2  A    between atoms: C_3  and  O_6 
REMARK    3  A    between atoms: C_3  and  C_4 
REMARK    4  A    between atoms: C_7  and  O_6 
REMARK    5  A    between atoms: C_9  and  C_10 
REMARK    6  A    between atoms: N_15  and  C_14 
REMARK    7  A    between atoms: N_20  and  C_19 
REMARK       I    between atoms: C_22  and  N_20 
ROOT
ATOM      1  C   LIG d   1      -4.790  74.668 116.907  0.00  0.00     0.161 C 
ATOM      2  C   LIG d   1      -6.172  74.920 116.896  0.00  0.00     0.016 C 
ATOM      3  C   LIG d   1      -6.794  75.889 117.717  0.00  0.00     0.038 C 
ATOM      4  C   LIG d   1      -6.050  76.783 118.501  0.00  0.00     0.028 C 
ATOM      5  C   LIG d   1      -4.693  76.232 118.926  0.00  0.00    -0.047 C 
ATOM      6  C   LIG d   1      -3.950  75.710 117.675  0.00  0.00     0.091 C 
ENDROOT
BRANCH   1   7
ATOM      7  O   LIG d   1      -4.307  74.532 115.556  0.00  0.00    -0.368 OA
BRANCH   7   8
ATOM      8  C   LIG d   1      -4.137  75.764 114.813  0.00  0.00     0.119 C 
BRANCH   8   9
ATOM      9  C   LIG d   1      -4.942  75.633 113.506  0.00  0.00     0.028 C 
ATOM     10  C   LIG d   1      -5.373  74.183 113.226  0.00  0.00     0.006 C 
ENDBRANCH   8   9
BRANCH   8  11
ATOM     11  C   LIG d   1      -2.681  75.954 114.375  0.00  0.00     0.028 C 
ATOM     12  C   LIG d   1      -1.880  74.643 114.388  0.00  0.00     0.006 C 
ENDBRANCH   8  11
ENDBRANCH   7   8
ENDBRANCH   1   7
BRANCH   6  13
ATOM     13  N   LIG d   1      -2.648  75.077 118.012  0.00  0.00    -0.311 N 
ATOM     14  C   LIG d   1      -1.482  75.718 117.944  0.00  0.00     0.210 C 
ATOM     15  C   LIG d   1      -0.258  74.874 118.315  0.00  0.00     0.109 C 
ATOM     16  O   LIG d   1      -1.348  76.913 117.642  0.00  0.00    -0.276 OA
ATOM     17  H   LIG d   1      -2.667  74.118 118.297  0.00  0.00     0.149 HD
ENDBRANCH   6  13
BRANCH   5  18
ATOM     18  N   LIG d   1      -3.969  77.315 119.618  0.00  0.00     0.381 N 
ATOM     19  H   LIG d   1      -4.623  77.945 120.038  0.00  0.00    -0.090 HD
ATOM     20  H   LIG d   1      -3.426  77.826 118.945  0.00  0.00    -0.090 HD
ATOM     21  H   LIG d   1      -3.371  76.932 120.317  0.00  0.00    -0.090 HD
ENDBRANCH   5  18
BRANCH   3  22
ATOM     22  C   LIG d   1      -8.177  75.943 117.789  0.00  0.00     0.382 C 
ATOM     23  O   LIG d   1      -8.776  77.017 117.540  0.00  0.00    -0.241 OA
ATOM     24  O   LIG d   1      -8.831  74.944 118.142  0.00  0.00    -0.241 OA
ENDBRANCH   3  22
TORSDOF 7
ENDMDL
