MODEL 1
REMARK VINA RESULT:      -5.0      0.000      0.000
REMARK  7 active torsions:
REMARK  status: ('A' for Active; 'I' for Inactive)
REMARK    1  A    between atoms: C_2  and  C_3 
REMARK    2  A    between atoms: C_3  and  O_6 
REMARK    3  A    between atoms: C_3  and  C_4 
REMARK    4  A    between atoms: C_7  and  O_6 
REMARK    5  A    between atoms: C_9  and  C_10 
REMARK    6  A    between atoms: N_15  and  C_14 
REMARK    7  A    between atoms: N_20  and  C_19 
REMARK       I    between atoms: C_22  and  N_20 
ROOT
ATOM      1  C   LIG d   1      -2.796  77.231 115.218  0.00  0.00     0.161 C 
ATOM      2  C   LIG d   1      -2.954  78.109 114.133  0.00  0.00     0.016 C 
ATOM      3  C   LIG d   1      -1.993  79.082 113.774  0.00  0.00     0.038 C 
ATOM      4  C   LIG d   1      -0.733  79.142 114.387  0.00  0.00     0.028 C 
ATOM      5  C   LIG d   1      -0.728  78.609 115.815  0.00  0.00    -0.047 C 
ATOM      6  C   LIG d   1      -1.379  77.207 115.830  0.00  0.00     0.091 C 
ENDROOT
BRANCH   1   7
ATOM      7  O   LIG d   1      -3.198  75.901 114.833  0.00  0.00    -0.368 OA
BRANCH   7   8
ATOM      8  C   LIG d   1      -4.306  75.332 115.571  0.00  0.00     0.119 C 
BRANCH   8   9
ATOM      9  C   LIG d   1      -5.338  74.829 114.543  0.00  0.00     0.028 C 
ATOM     10  C   LIG d   1      -6.327  75.928 114.118  0.00  0.00     0.006 C 
ENDBRANCH   8   9
BRANCH   8  11
ATOM     11  C   LIG d   1      -5.038  76.399 116.391  0.00  0.00     0.028 C 
ATOM     12  C   LIG d   1      -5.418  75.914 117.798  0.00  0.00     0.006 C 
ENDBRANCH   8  11
ENDBRANCH   7   8
ENDBRANCH   1   7
BRANCH   6  13
ATOM     13  N   LIG d   1      -1.491  76.648 117.202  0.00  0.00    -0.311 N 
ATOM     14  C   LIG d   1      -1.183  75.389 117.509  0.00  0.00     0.210 C 
ATOM     15  C   LIG d   1      -1.390  75.012 118.979  0.00  0.00     0.109 C 
ATOM     16  O   LIG d   1      -0.728  74.558 116.709  0.00  0.00    -0.276 OA
ATOM     17  H   LIG d   1      -1.823  77.263 117.919  0.00  0.00     0.149 HD
ENDBRANCH   6  13
BRANCH   5  18
ATOM     18  N   LIG d   1       0.670  78.602 116.284  0.00  0.00     0.381 N 
ATOM     19  H   LIG d   1       1.247  79.099 115.636  0.00  0.00    -0.090 HD
ATOM     20  H   LIG d   1       0.993  77.652 116.329  0.00  0.00    -0.090 HD
ATOM     21  H   LIG d   1       0.730  79.024 117.185  0.00  0.00    -0.090 HD
ENDBRANCH   5  18
BRANCH   3  22
ATOM     22  C   LIG d   1      -2.306  80.036 112.816  0.00  0.00     0.382 C 
ATOM     23  O   LIG d   1      -1.563  80.187 111.817  0.00  0.00    -0.241 OA
ATOM     24  O   LIG d   1      -3.297  80.776 112.962  0.00  0.00    -0.241 OA
ENDBRANCH   3  22
TORSDOF 7
ENDMDL
MODEL 2
REMARK VINA RESULT:      -4.8      2.178      2.844
REMARK  7 active torsions:
REMARK  status: ('A' for Active; 'I' for Inactive)
REMARK    1  A    between atoms: C_2  and  C_3 
REMARK    2  A    between atoms: C_3  and  O_6 
REMARK    3  A    between atoms: C_3  and  C_4 
REMARK    4  A    between atoms: C_7  and  O_6 
REMARK    5  A    between atoms: C_9  and  C_10 
REMARK    6  A    between atoms: N_15  and  C_14 
REMARK    7  A    between atoms: N_20  and  C_19 
REMARK       I    between atoms: C_22  and  N_20 
ROOT
ATOM      1  C   LIG d   1      -3.072  78.649 116.085  0.00  0.00     0.161 C 
ATOM      2  C   LIG d   1      -3.122  79.492 114.963  0.00  0.00     0.016 C 
ATOM      3  C   LIG d   1      -2.326  79.301 113.810  0.00  0.00     0.038 C 
ATOM      4  C   LIG d   1      -1.529  78.159 113.640  0.00  0.00     0.028 C 
ATOM      5  C   LIG d   1      -1.064  77.543 114.955  0.00  0.00    -0.047 C 
ATOM      6  C   LIG d   1      -2.290  77.335 115.873  0.00  0.00     0.091 C 
ENDROOT
BRANCH   1   7
ATOM      7  O   LIG d   1      -4.408  78.368 116.546  0.00  0.00    -0.368 OA
BRANCH   7   8
ATOM      8  C   LIG d   1      -5.026  79.387 117.370  0.00  0.00     0.119 C 
BRANCH   8   9
ATOM      9  C   LIG d   1      -4.441  79.251 118.789  0.00  0.00     0.028 C 
ATOM     10  C   LIG d   1      -4.697  77.863 119.400  0.00  0.00     0.006 C 
ENDBRANCH   8   9
BRANCH   8  11
ATOM     11  C   LIG d   1      -6.530  79.142 117.526  0.00  0.00     0.028 C 
ATOM     12  C   LIG d   1      -7.311  80.423 117.857  0.00  0.00     0.006 C 
ENDBRANCH   8  11
ENDBRANCH   7   8
ENDBRANCH   1   7
BRANCH   6  13
ATOM     13  N   LIG d   1      -1.913  76.815 117.214  0.00  0.00    -0.311 N 
ATOM     14  C   LIG d   1      -1.956  75.524 117.537  0.00  0.00     0.210 C 
ATOM     15  C   LIG d   1      -1.545  75.204 118.978  0.00  0.00     0.109 C 
ATOM     16  O   LIG d   1      -2.264  74.609 116.758  0.00  0.00    -0.276 OA
ATOM     17  H   LIG d   1      -1.621  77.485 117.897  0.00  0.00     0.149 HD
ENDBRANCH   6  13
BRANCH   5  18
ATOM     18  N   LIG d   1      -0.361  76.287 114.636  0.00  0.00     0.381 N 
ATOM     19  H   LIG d   1      -1.005  75.629 114.244  0.00  0.00    -0.090 HD
ATOM     20  H   LIG d   1       0.010  75.897 115.484  0.00  0.00    -0.090 HD
ATOM     21  H   LIG d   1       0.378  76.464 113.991  0.00  0.00    -0.090 HD
ENDBRANCH   5  18
BRANCH   3  22
ATOM     22  C   LIG d   1      -2.292  80.280 112.829  0.00  0.00     0.382 C 
ATOM     23  O   LIG d   1      -1.484  80.182 111.874  0.00  0.00    -0.241 OA
ATOM     24  O   LIG d   1      -3.028  81.281 112.909  0.00  0.00    -0.241 OA
ENDBRANCH   3  22
TORSDOF 7
ENDMDL
MODEL 3
REMARK VINA RESULT:      -4.7      3.041      4.196
REMARK  7 active torsions:
REMARK  status: ('A' for Active; 'I' for Inactive)
REMARK    1  A    between atoms: C_2  and  C_3 
REMARK    2  A    between atoms: C_3  and  O_6 
REMARK    3  A    between atoms: C_3  and  C_4 
REMARK    4  A    between atoms: C_7  and  O_6 
REMARK    5  A    between atoms: C_9  and  C_10 
REMARK    6  A    between atoms: N_15  and  C_14 
REMARK    7  A    between atoms: N_20  and  C_19 
REMARK       I    between atoms: C_22  and  N_20 
ROOT
ATOM      1  C   LIG d   1      -3.379  78.399 116.913  0.00  0.00     0.161 C 
ATOM      2  C   LIG d   1      -2.528  79.371 117.466  0.00  0.00     0.016 C 
ATOM      3  C   LIG d   1      -1.159  79.488 117.130  0.00  0.00     0.038 C 
ATOM      4  C   LIG d   1      -0.581  78.733 116.099  0.00  0.00     0.028 C 
ATOM      5  C   LIG d   1      -1.275  77.395 115.866  0.00  0.00    -0.047 C 
ATOM      6  C   LIG d   1      -2.793  77.639 115.705  0.00  0.00     0.091 C 
ENDROOT
BRANCH   1   7
ATOM      7  O   LIG d   1      -4.642  78.998 116.563  0.00  0.00    -0.368 OA
BRANCH   7   8
ATOM      8  C   LIG d   1      -5.710  78.844 117.530  0.00  0.00     0.119 C 
BRANCH   8   9
ATOM      9  C   LIG d   1      -6.707  77.818 116.959  0.00  0.00     0.028 C 
ATOM     10  C   LIG d   1      -6.544  76.425 117.591  0.00  0.00     0.006 C 
ENDBRANCH   8   9
BRANCH   8  11
ATOM     11  C   LIG d   1      -6.509  80.141 117.690  0.00  0.00     0.028 C 
ATOM     12  C   LIG d   1      -7.994  79.891 117.997  0.00  0.00     0.006 C 
ENDBRANCH   8  11
ENDBRANCH   7   8
ENDBRANCH   1   7
BRANCH   6  13
ATOM     13  N   LIG d   1      -3.557  76.373 115.557  0.00  0.00    -0.311 N 
ATOM     14  C   LIG d   1      -4.333  76.103 114.509  0.00  0.00     0.210 C 
ATOM     15  C   LIG d   1      -5.048  74.749 114.564  0.00  0.00     0.109 C 
ATOM     16  O   LIG d   1      -4.471  76.842 113.522  0.00  0.00    -0.276 OA
ATOM     17  H   LIG d   1      -3.478  75.703 116.297  0.00  0.00     0.149 HD
ENDBRANCH   6  13
BRANCH   5  18
ATOM     18  N   LIG d   1      -0.659  76.775 114.678  0.00  0.00     0.381 N 
ATOM     19  H   LIG d   1      -0.400  75.831 114.885  0.00  0.00    -0.090 HD
ATOM     20  H   LIG d   1       0.172  77.285 114.439  0.00  0.00    -0.090 HD
ATOM     21  H   LIG d   1      -1.299  76.792 113.915  0.00  0.00    -0.090 HD
ENDBRANCH   5  18
BRANCH   3  22
ATOM     22  C   LIG d   1      -0.344  80.343 117.858  0.00  0.00     0.382 C 
ATOM     23  O   LIG d   1      -0.496  80.448 119.099  0.00  0.00    -0.241 OA
ATOM     24  O   LIG d   1       0.510  81.042 117.283  0.00  0.00    -0.241 OA
ENDBRANCH   3  22
TORSDOF 7
ENDMDL
MODEL 4
REMARK VINA RESULT:      -4.7      1.606      4.755
REMARK  7 active torsions:
REMARK  status: ('A' for Active; 'I' for Inactive)
REMARK    1  A    between atoms: C_2  and  C_3 
REMARK    2  A    between atoms: C_3  and  O_6 
REMARK    3  A    between atoms: C_3  and  C_4 
REMARK    4  A    between atoms: C_7  and  O_6 
REMARK    5  A    between atoms: C_9  and  C_10 
REMARK    6  A    between atoms: N_15  and  C_14 
REMARK    7  A    between atoms: N_20  and  C_19 
REMARK       I    between atoms: C_22  and  N_20 
ROOT
ATOM      1  C   LIG d   1      -1.839  75.747 115.088  0.00  0.00     0.161 C 
ATOM      2  C   LIG d   1      -1.631  75.055 116.294  0.00  0.00     0.016 C 
ATOM      3  C   LIG d   1      -0.822  75.547 117.343  0.00  0.00     0.038 C 
ATOM      4  C   LIG d   1      -0.282  76.842 117.319  0.00  0.00     0.028 C 
ATOM      5  C   LIG d   1      -0.048  77.374 115.910  0.00  0.00    -0.047 C 
ATOM      6  C   LIG d   1      -1.348  77.209 115.089  0.00  0.00     0.091 C 
ENDROOT
BRANCH   1   7
ATOM      7  O   LIG d   1      -3.232  75.685 114.723  0.00  0.00    -0.368 OA
BRANCH   7   8
ATOM      8  C   LIG d   1      -4.165  75.460 115.808  0.00  0.00     0.119 C 
BRANCH   8   9
ATOM      9  C   LIG d   1      -5.316  74.597 115.256  0.00  0.00     0.028 C 
ATOM     10  C   LIG d   1      -6.382  74.289 116.322  0.00  0.00     0.006 C 
ENDBRANCH   8   9
BRANCH   8  11
ATOM     11  C   LIG d   1      -4.821  76.769 116.260  0.00  0.00     0.028 C 
ATOM     12  C   LIG d   1      -4.267  77.281 117.599  0.00  0.00     0.006 C 
ENDBRANCH   8  11
ENDBRANCH   7   8
ENDBRANCH   1   7
BRANCH   6  13
ATOM     13  N   LIG d   1      -1.181  77.629 113.673  0.00  0.00    -0.311 N 
ATOM     14  C   LIG d   1      -2.037  78.430 113.041  0.00  0.00     0.210 C 
ATOM     15  C   LIG d   1      -1.688  78.721 111.577  0.00  0.00     0.109 C 
ATOM     16  O   LIG d   1      -3.033  78.954 113.561  0.00  0.00    -0.276 OA
ATOM     17  H   LIG d   1      -0.383  77.275 113.184  0.00  0.00     0.149 HD
ENDBRANCH   6  13
BRANCH   5  18
ATOM     18  N   LIG d   1       0.385  78.779 116.030  0.00  0.00     0.381 N 
ATOM     19  H   LIG d   1       0.826  79.072 115.181  0.00  0.00    -0.090 HD
ATOM     20  H   LIG d   1       1.056  78.850 116.774  0.00  0.00    -0.090 HD
ATOM     21  H   LIG d   1      -0.399  79.362 116.224  0.00  0.00    -0.090 HD
ENDBRANCH   5  18
BRANCH   3  22
ATOM     22  C   LIG d   1      -0.512  74.724 118.416  0.00  0.00     0.382 C 
ATOM     23  O   LIG d   1       0.625  74.201 118.496  0.00  0.00    -0.241 OA
ATOM     24  O   LIG d   1      -1.370  74.463 119.280  0.00  0.00    -0.241 OA
ENDBRANCH   3  22
TORSDOF 7
ENDMDL
MODEL 5
REMARK VINA RESULT:      -4.7      3.092      4.202
REMARK  7 active torsions:
REMARK  status: ('A' for Active; 'I' for Inactive)
REMARK    1  A    between atoms: C_2  and  C_3 
REMARK    2  A    between atoms: C_3  and  O_6 
REMARK    3  A    between atoms: C_3  and  C_4 
REMARK    4  A    between atoms: C_7  and  O_6 
REMARK    5  A    between atoms: C_9  and  C_10 
REMARK    6  A    between atoms: N_15  and  C_14 
REMARK    7  A    between atoms: N_20  and  C_19 
REMARK       I    between atoms: C_22  and  N_20 
ROOT
ATOM      1  C   LIG d   1      -5.159  76.836 118.331  0.00  0.00     0.161 C 
ATOM      2  C   LIG d   1      -5.963  77.987 118.398  0.00  0.00     0.016 C 
ATOM      3  C   LIG d   1      -5.615  79.215 117.790  0.00  0.00     0.038 C 
ATOM      4  C   LIG d   1      -4.506  79.334 116.940  0.00  0.00     0.028 C 
ATOM      5  C   LIG d   1      -3.395  78.337 117.251  0.00  0.00    -0.047 C 
ATOM      6  C   LIG d   1      -4.000  76.916 117.315  0.00  0.00     0.091 C 
ENDROOT
BRANCH   1   7
ATOM      7  O   LIG d   1      -5.980  75.682 118.064  0.00  0.00    -0.368 OA
BRANCH   7   8
ATOM      8  C   LIG d   1      -6.533  75.587 116.728  0.00  0.00     0.119 C 
BRANCH   8   9
ATOM      9  C   LIG d   1      -8.039  75.297 116.870  0.00  0.00     0.028 C 
ATOM     10  C   LIG d   1      -8.889  76.578 116.847  0.00  0.00     0.006 C 
ENDBRANCH   8   9
BRANCH   8  11
ATOM     11  C   LIG d   1      -5.957  74.386 115.971  0.00  0.00     0.028 C 
ATOM     12  C   LIG d   1      -5.488  74.745 114.553  0.00  0.00     0.006 C 
ENDBRANCH   8  11
ENDBRANCH   7   8
ENDBRANCH   1   7
BRANCH   6  13
ATOM     13  N   LIG d   1      -2.996  75.889 117.698  0.00  0.00    -0.311 N 
ATOM     14  C   LIG d   1      -2.271  75.207 116.813  0.00  0.00     0.210 C 
ATOM     15  C   LIG d   1      -1.309  74.181 117.419  0.00  0.00     0.109 C 
ATOM     16  O   LIG d   1      -2.311  75.377 115.585  0.00  0.00    -0.276 OA
ATOM     17  H   LIG d   1      -2.877  75.710 118.675  0.00  0.00     0.149 HD
ENDBRANCH   6  13
BRANCH   5  18
ATOM     18  N   LIG d   1      -2.363  78.479 116.207  0.00  0.00     0.381 N 
ATOM     19  H   LIG d   1      -1.727  77.708 116.252  0.00  0.00    -0.090 HD
ATOM     20  H   LIG d   1      -1.846  79.325 116.373  0.00  0.00    -0.090 HD
ATOM     21  H   LIG d   1      -2.790  78.514 115.307  0.00  0.00    -0.090 HD
ENDBRANCH   5  18
BRANCH   3  22
ATOM     22  C   LIG d   1      -6.361  80.352 118.063  0.00  0.00     0.382 C 
ATOM     23  O   LIG d   1      -7.163  80.796 117.206  0.00  0.00    -0.241 OA
ATOM     24  O   LIG d   1      -6.210  80.964 119.137  0.00  0.00    -0.241 OA
ENDBRANCH   3  22
TORSDOF 7
ENDMDL
MODEL 6
REMARK VINA RESULT:      -4.6      1.451      2.043
REMARK  7 active torsions:
REMARK  status: ('A' for Active; 'I' for Inactive)
REMARK    1  A    between atoms: C_2  and  C_3 
REMARK    2  A    between atoms: C_3  and  O_6 
REMARK    3  A    between atoms: C_3  and  C_4 
REMARK    4  A    between atoms: C_7  and  O_6 
REMARK    5  A    between atoms: C_9  and  C_10 
REMARK    6  A    between atoms: N_15  and  C_14 
REMARK    7  A    between atoms: N_20  and  C_19 
REMARK       I    between atoms: C_22  and  N_20 
ROOT
ATOM      1  C   LIG d   1      -2.661  78.161 116.581  0.00  0.00     0.161 C 
ATOM      2  C   LIG d   1      -2.963  79.012 115.505  0.00  0.00     0.016 C 
ATOM      3  C   LIG d   1      -2.371  78.891 114.227  0.00  0.00     0.038 C 
ATOM      4  C   LIG d   1      -1.543  77.809 113.892  0.00  0.00     0.028 C 
ATOM      5  C   LIG d   1      -0.814  77.211 115.091  0.00  0.00    -0.047 C 
ATOM      6  C   LIG d   1      -1.844  76.907 116.203  0.00  0.00     0.091 C 
ENDROOT
BRANCH   1   7
ATOM      7  O   LIG d   1      -3.874  77.782 117.260  0.00  0.00    -0.368 OA
BRANCH   7   8
ATOM      8  C   LIG d   1      -4.919  77.216 116.431  0.00  0.00     0.119 C 
BRANCH   8   9
ATOM      9  C   LIG d   1      -6.262  77.794 116.919  0.00  0.00     0.028 C 
ATOM     10  C   LIG d   1      -6.403  77.736 118.450  0.00  0.00     0.006 C 
ENDBRANCH   8   9
BRANCH   8  11
ATOM     11  C   LIG d   1      -5.032  75.702 116.632  0.00  0.00     0.028 C 
ATOM     12  C   LIG d   1      -5.819  75.008 115.509  0.00  0.00     0.006 C 
ENDBRANCH   8  11
ENDBRANCH   7   8
ENDBRANCH   1   7
BRANCH   6  13
ATOM     13  N   LIG d   1      -1.204  76.397 117.444  0.00  0.00    -0.311 N 
ATOM     14  C   LIG d   1      -1.136  75.104 117.756  0.00  0.00     0.210 C 
ATOM     15  C   LIG d   1      -0.451  74.796 119.091  0.00  0.00     0.109 C 
ATOM     16  O   LIG d   1      -1.549  74.181 117.038  0.00  0.00    -0.276 OA
ATOM     17  H   LIG d   1      -0.815  77.076 118.069  0.00  0.00     0.149 HD
ENDBRANCH   6  13
BRANCH   5  18
ATOM     18  N   LIG d   1      -0.097  76.010 114.623  0.00  0.00     0.381 N 
ATOM     19  H   LIG d   1      -0.755  75.314 114.333  0.00  0.00    -0.090 HD
ATOM     20  H   LIG d   1       0.442  75.636 115.384  0.00  0.00    -0.090 HD
ATOM     21  H   LIG d   1       0.504  76.246 113.864  0.00  0.00    -0.090 HD
ENDBRANCH   5  18
BRANCH   3  22
ATOM     22  C   LIG d   1      -2.574  79.882 113.279  0.00  0.00     0.382 C 
ATOM     23  O   LIG d   1      -2.028  79.794 112.153  0.00  0.00    -0.241 OA
ATOM     24  O   LIG d   1      -3.261  80.885 113.550  0.00  0.00    -0.241 OA
ENDBRANCH   3  22
TORSDOF 7
ENDMDL
MODEL 7
REMARK VINA RESULT:      -4.5      3.516      4.745
REMARK  7 active torsions:
REMARK  status: ('A' for Active; 'I' for Inactive)
REMARK    1  A    between atoms: C_2  and  C_3 
REMARK    2  A    between atoms: C_3  and  O_6 
REMARK    3  A    between atoms: C_3  and  C_4 
REMARK    4  A    between atoms: C_7  and  O_6 
REMARK    5  A    between atoms: C_9  and  C_10 
REMARK    6  A    between atoms: N_15  and  C_14 
REMARK    7  A    between atoms: N_20  and  C_19 
REMARK       I    between atoms: C_22  and  N_20 
ROOT
ATOM      1  C   LIG d   1      -4.801  77.831 116.922  0.00  0.00     0.161 C 
ATOM      2  C   LIG d   1      -6.163  78.171 116.974  0.00  0.00     0.016 C 
ATOM      3  C   LIG d   1      -6.666  79.252 117.735  0.00  0.00     0.038 C 
ATOM      4  C   LIG d   1      -5.817  80.164 118.379  0.00  0.00     0.028 C 
ATOM      5  C   LIG d   1      -4.469  79.566 118.768  0.00  0.00    -0.047 C 
ATOM      6  C   LIG d   1      -3.848  78.881 117.529  0.00  0.00     0.091 C 
ENDROOT
BRANCH   1   7
ATOM      7  O   LIG d   1      -4.423  77.538 115.562  0.00  0.00    -0.368 OA
BRANCH   7   8
ATOM      8  C   LIG d   1      -4.159  76.145 115.260  0.00  0.00     0.119 C 
BRANCH   8   9
ATOM      9  C   LIG d   1      -5.390  75.592 114.516  0.00  0.00     0.028 C 
ATOM     10  C   LIG d   1      -6.113  74.493 115.314  0.00  0.00     0.006 C 
ENDBRANCH   8   9
BRANCH   8  11
ATOM     11  C   LIG d   1      -4.048  75.309 116.538  0.00  0.00     0.028 C 
ATOM     12  C   LIG d   1      -2.635  74.748 116.762  0.00  0.00     0.006 C 
ENDBRANCH   8  11
ENDBRANCH   7   8
ENDBRANCH   1   7
BRANCH   6  13
ATOM     13  N   LIG d   1      -2.566  78.198 117.842  0.00  0.00    -0.311 N 
ATOM     14  C   LIG d   1      -1.391  78.580 117.344  0.00  0.00     0.210 C 
ATOM     15  C   LIG d   1      -0.196  77.725 117.779  0.00  0.00     0.109 C 
ATOM     16  O   LIG d   1      -1.220  79.564 116.610  0.00  0.00    -0.276 OA
ATOM     17  H   LIG d   1      -2.608  77.408 118.455  0.00  0.00     0.149 HD
ENDBRANCH   6  13
BRANCH   5  18
ATOM     18  N   LIG d   1      -3.634  80.658 119.303  0.00  0.00     0.381 N 
ATOM     19  H   LIG d   1      -3.166  81.126 118.553  0.00  0.00    -0.090 HD
ATOM     20  H   LIG d   1      -2.939  80.267 119.914  0.00  0.00    -0.090 HD
ATOM     21  H   LIG d   1      -4.201  81.306 119.805  0.00  0.00    -0.090 HD
ENDBRANCH   5  18
BRANCH   3  22
ATOM     22  C   LIG d   1      -8.035  79.405 117.890  0.00  0.00     0.382 C 
ATOM     23  O   LIG d   1      -8.711  78.495 118.428  0.00  0.00    -0.241 OA
ATOM     24  O   LIG d   1      -8.610  80.422 117.457  0.00  0.00    -0.241 OA
ENDBRANCH   3  22
TORSDOF 7
ENDMDL
MODEL 8
REMARK VINA RESULT:      -4.5      3.894      5.960
REMARK  7 active torsions:
REMARK  status: ('A' for Active; 'I' for Inactive)
REMARK    1  A    between atoms: C_2  and  C_3 
REMARK    2  A    between atoms: C_3  and  O_6 
REMARK    3  A    between atoms: C_3  and  C_4 
REMARK    4  A    between atoms: C_7  and  O_6 
REMARK    5  A    between atoms: C_9  and  C_10 
REMARK    6  A    between atoms: N_15  and  C_14 
REMARK    7  A    between atoms: N_20  and  C_19 
REMARK       I    between atoms: C_22  and  N_20 
ROOT
ATOM      1  C   LIG d   1      -5.381  78.037 117.414  0.00  0.00     0.161 C 
ATOM      2  C   LIG d   1      -5.697  79.387 117.641  0.00  0.00     0.016 C 
ATOM      3  C   LIG d   1      -7.022  79.865 117.766  0.00  0.00     0.038 C 
ATOM      4  C   LIG d   1      -8.122  78.997 117.824  0.00  0.00     0.028 C 
ATOM      5  C   LIG d   1      -7.891  77.678 117.095  0.00  0.00    -0.047 C 
ATOM      6  C   LIG d   1      -6.562  77.058 117.585  0.00  0.00     0.091 C 
ENDROOT
BRANCH   1   7
ATOM      7  O   LIG d   1      -4.279  77.645 118.257  0.00  0.00    -0.368 OA
BRANCH   7   8
ATOM      8  C   LIG d   1      -3.021  77.395 117.585  0.00  0.00     0.119 C 
BRANCH   8   9
ATOM      9  C   LIG d   1      -3.182  77.842 116.119  0.00  0.00     0.028 C 
ATOM     10  C   LIG d   1      -2.349  79.093 115.792  0.00  0.00     0.006 C 
ENDBRANCH   8   9
BRANCH   8  11
ATOM     11  C   LIG d   1      -2.711  75.896 117.520  0.00  0.00     0.028 C 
ATOM     12  C   LIG d   1      -2.435  75.406 116.090  0.00  0.00     0.006 C 
ENDBRANCH   8  11
ENDBRANCH   7   8
ENDBRANCH   1   7
BRANCH   6  13
ATOM     13  N   LIG d   1      -6.218  75.807 116.861  0.00  0.00    -0.311 N 
ATOM     14  C   LIG d   1      -6.172  75.718 115.533  0.00  0.00     0.210 C 
ATOM     15  C   LIG d   1      -5.816  74.330 114.990  0.00  0.00     0.109 C 
ATOM     16  O   LIG d   1      -6.361  76.664 114.754  0.00  0.00    -0.276 OA
ATOM     17  H   LIG d   1      -6.020  74.998 117.417  0.00  0.00     0.149 HD
ENDBRANCH   6  13
BRANCH   5  18
ATOM     18  N   LIG d   1      -9.060  76.816 117.352  0.00  0.00     0.381 N 
ATOM     19  H   LIG d   1      -9.869  77.381 117.511  0.00  0.00    -0.090 HD
ATOM     20  H   LIG d   1      -8.887  76.272 118.179  0.00  0.00    -0.090 HD
ATOM     21  H   LIG d   1      -9.216  76.212 116.575  0.00  0.00    -0.090 HD
ENDBRANCH   5  18
BRANCH   3  22
ATOM     22  C   LIG d   1      -7.259  81.231 117.795  0.00  0.00     0.382 C 
ATOM     23  O   LIG d   1      -6.933  81.903 118.804  0.00  0.00    -0.241 OA
ATOM     24  O   LIG d   1      -7.835  81.793 116.844  0.00  0.00    -0.241 OA
ENDBRANCH   3  22
TORSDOF 7
ENDMDL
MODEL 9
REMARK VINA RESULT:      -4.4      3.969      6.019
REMARK  7 active torsions:
REMARK  status: ('A' for Active; 'I' for Inactive)
REMARK    1  A    between atoms: C_2  and  C_3 
REMARK    2  A    between atoms: C_3  and  O_6 
REMARK    3  A    between atoms: C_3  and  C_4 
REMARK    4  A    between atoms: C_7  and  O_6 
REMARK    5  A    between atoms: C_9  and  C_10 
REMARK    6  A    between atoms: N_15  and  C_14 
REMARK    7  A    between atoms: N_20  and  C_19 
REMARK       I    between atoms: C_22  and  N_20 
ROOT
ATOM      1  C   LIG d   1      -5.372  78.096 117.458  0.00  0.00     0.161 C 
ATOM      2  C   LIG d   1      -5.680  79.452 117.661  0.00  0.00     0.016 C 
ATOM      3  C   LIG d   1      -7.002  79.943 117.764  0.00  0.00     0.038 C 
ATOM      4  C   LIG d   1      -8.109  79.084 117.824  0.00  0.00     0.028 C 
ATOM      5  C   LIG d   1      -7.881  77.752 117.117  0.00  0.00    -0.047 C 
ATOM      6  C   LIG d   1      -6.563  77.130 117.632  0.00  0.00     0.091 C 
ENDROOT
BRANCH   1   7
ATOM      7  O   LIG d   1      -4.283  77.709 118.318  0.00  0.00    -0.368 OA
BRANCH   7   8
ATOM      8  C   LIG d   1      -3.039  77.370 117.658  0.00  0.00     0.119 C 
BRANCH   8   9
ATOM      9  C   LIG d   1      -2.734  75.893 117.975  0.00  0.00     0.028 C 
ATOM     10  C   LIG d   1      -2.446  75.068 116.710  0.00  0.00     0.006 C 
ENDBRANCH   8   9
BRANCH   8  11
ATOM     11  C   LIG d   1      -1.864  78.161 118.241  0.00  0.00     0.028 C 
ATOM     12  C   LIG d   1      -2.103  79.679 118.228  0.00  0.00     0.006 C 
ENDBRANCH   8  11
ENDBRANCH   7   8
ENDBRANCH   1   7
BRANCH   6  13
ATOM     13  N   LIG d   1      -6.221  75.865 116.930  0.00  0.00    -0.311 N 
ATOM     14  C   LIG d   1      -6.062  75.778 115.611  0.00  0.00     0.210 C 
ATOM     15  C   LIG d   1      -5.732  74.376 115.090  0.00  0.00     0.109 C 
ATOM     16  O   LIG d   1      -6.131  76.735 114.826  0.00  0.00    -0.276 OA
ATOM     17  H   LIG d   1      -6.115  75.045 117.495  0.00  0.00     0.149 HD
ENDBRANCH   6  13
BRANCH   5  18
ATOM     18  N   LIG d   1      -9.060  76.903 117.375  0.00  0.00     0.381 N 
ATOM     19  H   LIG d   1      -9.101  76.166 116.699  0.00  0.00    -0.090 HD
ATOM     20  H   LIG d   1      -9.890  77.462 117.282  0.00  0.00    -0.090 HD
ATOM     21  H   LIG d   1      -9.010  76.520 118.293  0.00  0.00    -0.090 HD
ENDBRANCH   5  18
BRANCH   3  22
ATOM     22  C   LIG d   1      -7.229  81.311 117.770  0.00  0.00     0.382 C 
ATOM     23  O   LIG d   1      -6.894  81.998 118.765  0.00  0.00    -0.241 OA
ATOM     24  O   LIG d   1      -7.803  81.860 116.811  0.00  0.00    -0.241 OA
ENDBRANCH   3  22
TORSDOF 7
ENDMDL
