MODEL 1
REMARK VINA RESULT:      -5.1      0.000      0.000
REMARK  7 active torsions:
REMARK  status: ('A' for Active; 'I' for Inactive)
REMARK    1  A    between atoms: C_2  and  C_3 
REMARK    2  A    between atoms: C_3  and  O_6 
REMARK    3  A    between atoms: C_3  and  C_4 
REMARK    4  A    between atoms: C_7  and  O_6 
REMARK    5  A    between atoms: C_9  and  C_10 
REMARK    6  A    between atoms: N_15  and  C_14 
REMARK    7  A    between atoms: N_20  and  C_19 
REMARK       I    between atoms: C_22  and  N_20 
ROOT
ATOM      1  C   LIG d   1      -3.069  77.091 116.603  0.00  0.00     0.161 C 
ATOM      2  C   LIG d   1      -3.821  78.224 116.952  0.00  0.00     0.016 C 
ATOM      3  C   LIG d   1      -3.503  79.533 116.521  0.00  0.00     0.038 C 
ATOM      4  C   LIG d   1      -2.491  79.778 115.581  0.00  0.00     0.028 C 
ATOM      5  C   LIG d   1      -1.386  78.727 115.593  0.00  0.00    -0.047 C 
ATOM      6  C   LIG d   1      -2.027  77.324 115.489  0.00  0.00     0.091 C 
ENDROOT
BRANCH   1   7
ATOM      7  O   LIG d   1      -3.952  76.009 116.245  0.00  0.00    -0.368 OA
BRANCH   7   8
ATOM      8  C   LIG d   1      -5.173  76.384 115.561  0.00  0.00     0.119 C 
BRANCH   8   9
ATOM      9  C   LIG d   1      -6.339  75.669 116.271  0.00  0.00     0.028 C 
ATOM     10  C   LIG d   1      -7.086  76.593 117.247  0.00  0.00     0.006 C 
ENDBRANCH   8   9
BRANCH   8  11
ATOM     11  C   LIG d   1      -5.190  75.857 114.123  0.00  0.00     0.028 C 
ATOM     12  C   LIG d   1      -5.177  74.322 114.050  0.00  0.00     0.006 C 
ENDBRANCH   8  11
ENDBRANCH   7   8
ENDBRANCH   1   7
BRANCH   6  13
ATOM     13  N   LIG d   1      -1.021  76.234 115.578  0.00  0.00    -0.311 N 
ATOM     14  C   LIG d   1      -0.446  75.678 114.513  0.00  0.00     0.210 C 
ATOM     15  C   LIG d   1       0.549  74.556 114.827  0.00  0.00     0.109 C 
ATOM     16  O   LIG d   1      -0.641  76.030 113.340  0.00  0.00    -0.276 OA
ATOM     17  H   LIG d   1      -0.781  75.908 116.494  0.00  0.00     0.149 HD
ENDBRANCH   6  13
BRANCH   5  18
ATOM     18  N   LIG d   1      -0.472  79.029 114.475  0.00  0.00     0.381 N 
ATOM     19  H   LIG d   1      -0.047  79.924 114.618  0.00  0.00    -0.090 HD
ATOM     20  H   LIG d   1      -1.002  79.063 113.622  0.00  0.00    -0.090 HD
ATOM     21  H   LIG d   1       0.231  78.327 114.411  0.00  0.00    -0.090 HD
ENDBRANCH   5  18
BRANCH   3  22
ATOM     22  C   LIG d   1      -4.176  80.617 117.063  0.00  0.00     0.382 C 
ATOM     23  O   LIG d   1      -5.376  80.500 117.411  0.00  0.00    -0.241 OA
ATOM     24  O   LIG d   1      -3.613  81.723 117.166  0.00  0.00    -0.241 OA
ENDBRANCH   3  22
TORSDOF 7
ENDMDL
MODEL 2
REMARK VINA RESULT:      -5.0      2.598      4.223
REMARK  7 active torsions:
REMARK  status: ('A' for Active; 'I' for Inactive)
REMARK    1  A    between atoms: C_2  and  C_3 
REMARK    2  A    between atoms: C_3  and  O_6 
REMARK    3  A    between atoms: C_3  and  C_4 
REMARK    4  A    between atoms: C_7  and  O_6 
REMARK    5  A    between atoms: C_9  and  C_10 
REMARK    6  A    between atoms: N_15  and  C_14 
REMARK    7  A    between atoms: N_20  and  C_19 
REMARK       I    between atoms: C_22  and  N_20 
ROOT
ATOM      1  C   LIG d   1      -2.508  79.855 115.366  0.00  0.00     0.161 C 
ATOM      2  C   LIG d   1      -2.369  81.069 114.673  0.00  0.00     0.016 C 
ATOM      3  C   LIG d   1      -1.880  81.157 113.349  0.00  0.00     0.038 C 
ATOM      4  C   LIG d   1      -1.637  80.015 112.571  0.00  0.00     0.028 C 
ATOM      5  C   LIG d   1      -1.283  78.783 113.396  0.00  0.00    -0.047 C 
ATOM      6  C   LIG d   1      -2.354  78.591 114.495  0.00  0.00     0.091 C 
ENDROOT
BRANCH   1   7
ATOM      7  O   LIG d   1      -3.770  79.832 116.063  0.00  0.00    -0.368 OA
BRANCH   7   8
ATOM      8  C   LIG d   1      -3.700  79.883 117.509  0.00  0.00     0.119 C 
BRANCH   8   9
ATOM      9  C   LIG d   1      -4.759  78.907 118.058  0.00  0.00     0.028 C 
ATOM     10  C   LIG d   1      -5.257  77.920 116.989  0.00  0.00     0.006 C 
ENDBRANCH   8   9
BRANCH   8  11
ATOM     11  C   LIG d   1      -4.106  81.261 118.039  0.00  0.00     0.028 C 
ATOM     12  C   LIG d   1      -5.595  81.570 117.815  0.00  0.00     0.006 C 
ENDBRANCH   8  11
ENDBRANCH   7   8
ENDBRANCH   1   7
BRANCH   6  13
ATOM     13  N   LIG d   1      -2.038  77.456 115.401  0.00  0.00    -0.311 N 
ATOM     14  C   LIG d   1      -2.462  76.211 115.192  0.00  0.00     0.210 C 
ATOM     15  C   LIG d   1      -2.041  75.196 116.259  0.00  0.00     0.109 C 
ATOM     16  O   LIG d   1      -3.120  75.844 114.206  0.00  0.00    -0.276 OA
ATOM     17  H   LIG d   1      -1.483  77.658 116.209  0.00  0.00     0.149 HD
ENDBRANCH   6  13
BRANCH   5  18
ATOM     18  N   LIG d   1      -1.192  77.638 112.471  0.00  0.00     0.381 N 
ATOM     19  H   LIG d   1      -0.703  77.910 111.642  0.00  0.00    -0.090 HD
ATOM     20  H   LIG d   1      -2.121  77.355 112.211  0.00  0.00    -0.090 HD
ATOM     21  H   LIG d   1      -0.717  76.880 112.912  0.00  0.00    -0.090 HD
ENDBRANCH   5  18
BRANCH   3  22
ATOM     22  C   LIG d   1      -1.590  82.399 112.805  0.00  0.00     0.382 C 
ATOM     23  O   LIG d   1      -1.475  82.527 111.562  0.00  0.00    -0.241 OA
ATOM     24  O   LIG d   1      -1.399  83.383 113.543  0.00  0.00    -0.241 OA
ENDBRANCH   3  22
TORSDOF 7
ENDMDL
MODEL 3
REMARK VINA RESULT:      -5.0      2.385      3.324
REMARK  7 active torsions:
REMARK  status: ('A' for Active; 'I' for Inactive)
REMARK    1  A    between atoms: C_2  and  C_3 
REMARK    2  A    between atoms: C_3  and  O_6 
REMARK    3  A    between atoms: C_3  and  C_4 
REMARK    4  A    between atoms: C_7  and  O_6 
REMARK    5  A    between atoms: C_9  and  C_10 
REMARK    6  A    between atoms: N_15  and  C_14 
REMARK    7  A    between atoms: N_20  and  C_19 
REMARK       I    between atoms: C_22  and  N_20 
ROOT
ATOM      1  C   LIG d   1      -2.767  77.385 116.213  0.00  0.00     0.161 C 
ATOM      2  C   LIG d   1      -3.126  77.838 114.933  0.00  0.00     0.016 C 
ATOM      3  C   LIG d   1      -2.300  77.689 113.795  0.00  0.00     0.038 C 
ATOM      4  C   LIG d   1      -1.117  76.937 113.831  0.00  0.00     0.028 C 
ATOM      5  C   LIG d   1      -0.468  76.894 115.210  0.00  0.00    -0.047 C 
ATOM      6  C   LIG d   1      -1.529  76.464 116.250  0.00  0.00     0.091 C 
ENDROOT
BRANCH   1   7
ATOM      7  O   LIG d   1      -3.893  76.735 116.836  0.00  0.00    -0.368 OA
BRANCH   7   8
ATOM      8  C   LIG d   1      -5.064  76.553 116.003  0.00  0.00     0.119 C 
BRANCH   8   9
ATOM      9  C   LIG d   1      -6.303  76.746 116.898  0.00  0.00     0.028 C 
ATOM     10  C   LIG d   1      -7.196  75.494 116.942  0.00  0.00     0.006 C 
ENDBRANCH   8   9
BRANCH   8  11
ATOM     11  C   LIG d   1      -5.159  75.116 115.482  0.00  0.00     0.028 C 
ATOM     12  C   LIG d   1      -5.239  75.042 113.949  0.00  0.00     0.006 C 
ENDBRANCH   8  11
ENDBRANCH   7   8
ENDBRANCH   1   7
BRANCH   6  13
ATOM     13  N   LIG d   1      -0.999  76.477 117.638  0.00  0.00    -0.311 N 
ATOM     14  C   LIG d   1      -0.524  75.395 118.252  0.00  0.00     0.210 C 
ATOM     15  C   LIG d   1      -0.046  75.624 119.689  0.00  0.00     0.109 C 
ATOM     16  O   LIG d   1      -0.422  74.274 117.731  0.00  0.00    -0.276 OA
ATOM     17  H   LIG d   1      -1.015  77.353 118.124  0.00  0.00     0.149 HD
ENDBRANCH   6  13
BRANCH   5  18
ATOM     18  N   LIG d   1       0.677  75.967 115.136  0.00  0.00     0.381 N 
ATOM     19  H   LIG d   1       1.187  75.988 115.996  0.00  0.00    -0.090 HD
ATOM     20  H   LIG d   1       1.290  76.266 114.398  0.00  0.00    -0.090 HD
ATOM     21  H   LIG d   1       0.355  75.041 114.955  0.00  0.00    -0.090 HD
ENDBRANCH   5  18
BRANCH   3  22
ATOM     22  C   LIG d   1      -2.638  78.330 112.613  0.00  0.00     0.382 C 
ATOM     23  O   LIG d   1      -3.538  77.858 111.878  0.00  0.00    -0.241 OA
ATOM     24  O   LIG d   1      -2.023  79.351 112.250  0.00  0.00    -0.241 OA
ENDBRANCH   3  22
TORSDOF 7
ENDMDL
MODEL 4
REMARK VINA RESULT:      -4.9      2.265      4.368
REMARK  7 active torsions:
REMARK  status: ('A' for Active; 'I' for Inactive)
REMARK    1  A    between atoms: C_2  and  C_3 
REMARK    2  A    between atoms: C_3  and  O_6 
REMARK    3  A    between atoms: C_3  and  C_4 
REMARK    4  A    between atoms: C_7  and  O_6 
REMARK    5  A    between atoms: C_9  and  C_10 
REMARK    6  A    between atoms: N_15  and  C_14 
REMARK    7  A    between atoms: N_20  and  C_19 
REMARK       I    between atoms: C_22  and  N_20 
ROOT
ATOM      1  C   LIG d   1      -2.809  77.267 115.212  0.00  0.00     0.161 C 
ATOM      2  C   LIG d   1      -2.392  76.271 116.111  0.00  0.00     0.016 C 
ATOM      3  C   LIG d   1      -1.262  76.404 116.950  0.00  0.00     0.038 C 
ATOM      4  C   LIG d   1      -0.555  77.611 117.056  0.00  0.00     0.028 C 
ATOM      5  C   LIG d   1      -0.633  78.471 115.799  0.00  0.00    -0.047 C 
ATOM      6  C   LIG d   1      -2.116  78.633 115.394  0.00  0.00     0.091 C 
ENDROOT
BRANCH   1   7
ATOM      7  O   LIG d   1      -4.241  77.418 115.280  0.00  0.00    -0.368 OA
BRANCH   7   8
ATOM      8  C   LIG d   1      -4.967  76.335 115.913  0.00  0.00     0.119 C 
BRANCH   8   9
ATOM      9  C   LIG d   1      -5.787  75.626 114.818  0.00  0.00     0.028 C 
ATOM     10  C   LIG d   1      -5.064  74.393 114.249  0.00  0.00     0.006 C 
ENDBRANCH   8   9
BRANCH   8  11
ATOM     11  C   LIG d   1      -5.998  76.866 116.913  0.00  0.00     0.028 C 
ATOM     12  C   LIG d   1      -7.336  76.112 116.846  0.00  0.00     0.006 C 
ENDBRANCH   8  11
ENDBRANCH   7   8
ENDBRANCH   1   7
BRANCH   6  13
ATOM     13  N   LIG d   1      -2.277  79.392 114.126  0.00  0.00    -0.311 N 
ATOM     14  C   LIG d   1      -2.468  80.709 114.079  0.00  0.00     0.210 C 
ATOM     15  C   LIG d   1      -2.630  81.289 112.670  0.00  0.00     0.109 C 
ATOM     16  O   LIG d   1      -2.486  81.457 115.068  0.00  0.00    -0.276 OA
ATOM     17  H   LIG d   1      -2.245  78.867 113.274  0.00  0.00     0.149 HD
ENDBRANCH   6  13
BRANCH   5  18
ATOM     18  N   LIG d   1       0.029  79.755 116.097  0.00  0.00     0.381 N 
ATOM     19  H   LIG d   1      -0.047  80.366 115.308  0.00  0.00    -0.090 HD
ATOM     20  H   LIG d   1       1.004  79.586 116.271  0.00  0.00    -0.090 HD
ATOM     21  H   LIG d   1      -0.391  80.178 116.895  0.00  0.00    -0.090 HD
ENDBRANCH   5  18
BRANCH   3  22
ATOM     22  C   LIG d   1      -0.804  75.307 117.665  0.00  0.00     0.382 C 
ATOM     23  O   LIG d   1      -0.748  74.180 117.117  0.00  0.00    -0.241 OA
ATOM     24  O   LIG d   1      -0.488  75.422 118.864  0.00  0.00    -0.241 OA
ENDBRANCH   3  22
TORSDOF 7
ENDMDL
MODEL 5
REMARK VINA RESULT:      -4.9      1.986      3.070
REMARK  7 active torsions:
REMARK  status: ('A' for Active; 'I' for Inactive)
REMARK    1  A    between atoms: C_2  and  C_3 
REMARK    2  A    between atoms: C_3  and  O_6 
REMARK    3  A    between atoms: C_3  and  C_4 
REMARK    4  A    between atoms: C_7  and  O_6 
REMARK    5  A    between atoms: C_9  and  C_10 
REMARK    6  A    between atoms: N_15  and  C_14 
REMARK    7  A    between atoms: N_20  and  C_19 
REMARK       I    between atoms: C_22  and  N_20 
ROOT
ATOM      1  C   LIG d   1      -1.431  79.492 115.923  0.00  0.00     0.161 C 
ATOM      2  C   LIG d   1      -1.952  80.796 115.885  0.00  0.00     0.016 C 
ATOM      3  C   LIG d   1      -2.205  81.499 114.684  0.00  0.00     0.038 C 
ATOM      4  C   LIG d   1      -2.095  80.884 113.428  0.00  0.00     0.028 C 
ATOM      5  C   LIG d   1      -1.091  79.736 113.402  0.00  0.00    -0.047 C 
ATOM      6  C   LIG d   1      -1.409  78.765 114.562  0.00  0.00     0.091 C 
ENDROOT
BRANCH   1   7
ATOM      7  O   LIG d   1      -2.146  78.708 116.898  0.00  0.00    -0.368 OA
BRANCH   7   8
ATOM      8  C   LIG d   1      -3.577  78.601 116.704  0.00  0.00     0.119 C 
BRANCH   8   9
ATOM      9  C   LIG d   1      -4.257  79.078 118.002  0.00  0.00     0.028 C 
ATOM     10  C   LIG d   1      -5.033  80.392 117.810  0.00  0.00     0.006 C 
ENDBRANCH   8   9
BRANCH   8  11
ATOM     11  C   LIG d   1      -4.009  77.141 116.533  0.00  0.00     0.028 C 
ATOM     12  C   LIG d   1      -5.524  76.988 116.330  0.00  0.00     0.006 C 
ENDBRANCH   8  11
ENDBRANCH   7   8
ENDBRANCH   1   7
BRANCH   6  13
ATOM     13  N   LIG d   1      -0.423  77.657 114.660  0.00  0.00    -0.311 N 
ATOM     14  C   LIG d   1      -0.735  76.378 114.457  0.00  0.00     0.210 C 
ATOM     15  C   LIG d   1       0.427  75.394 114.628  0.00  0.00     0.109 C 
ATOM     16  O   LIG d   1      -1.856  75.968 114.121  0.00  0.00    -0.276 OA
ATOM     17  H   LIG d   1       0.518  77.903 114.898  0.00  0.00     0.149 HD
ENDBRANCH   6  13
BRANCH   5  18
ATOM     18  N   LIG d   1      -1.178  79.098 112.074  0.00  0.00     0.381 N 
ATOM     19  H   LIG d   1      -0.861  78.151 112.132  0.00  0.00    -0.090 HD
ATOM     20  H   LIG d   1      -0.579  79.592 111.437  0.00  0.00    -0.090 HD
ATOM     21  H   LIG d   1      -2.118  79.123 111.745  0.00  0.00    -0.090 HD
ENDBRANCH   5  18
BRANCH   3  22
ATOM     22  C   LIG d   1      -2.535  82.844 114.732  0.00  0.00     0.382 C 
ATOM     23  O   LIG d   1      -1.706  83.707 114.352  0.00  0.00    -0.241 OA
ATOM     24  O   LIG d   1      -3.634  83.210 115.191  0.00  0.00    -0.241 OA
ENDBRANCH   3  22
TORSDOF 7
ENDMDL
MODEL 6
REMARK VINA RESULT:      -4.9      4.534      7.437
REMARK  7 active torsions:
REMARK  status: ('A' for Active; 'I' for Inactive)
REMARK    1  A    between atoms: C_2  and  C_3 
REMARK    2  A    between atoms: C_3  and  O_6 
REMARK    3  A    between atoms: C_3  and  C_4 
REMARK    4  A    between atoms: C_7  and  O_6 
REMARK    5  A    between atoms: C_9  and  C_10 
REMARK    6  A    between atoms: N_15  and  C_14 
REMARK    7  A    between atoms: N_20  and  C_19 
REMARK       I    between atoms: C_22  and  N_20 
ROOT
ATOM      1  C   LIG d   1      -0.643  80.754 112.821  0.00  0.00     0.161 C 
ATOM      2  C   LIG d   1      -1.250  79.517 112.548  0.00  0.00     0.016 C 
ATOM      3  C   LIG d   1      -2.180  78.899 113.415  0.00  0.00     0.038 C 
ATOM      4  C   LIG d   1      -2.684  79.552 114.550  0.00  0.00     0.028 C 
ATOM      5  C   LIG d   1      -1.723  80.585 115.131  0.00  0.00    -0.047 C 
ATOM      6  C   LIG d   1      -1.263  81.533 114.000  0.00  0.00     0.091 C 
ENDROOT
BRANCH   1   7
ATOM      7  O   LIG d   1      -0.636  81.568 111.632  0.00  0.00    -0.368 OA
BRANCH   7   8
ATOM      8  C   LIG d   1       0.657  81.785 111.015  0.00  0.00     0.119 C 
BRANCH   8   9
ATOM      9  C   LIG d   1       0.867  83.307 110.903  0.00  0.00     0.028 C 
ATOM     10  C   LIG d   1      -0.459  84.074 110.762  0.00  0.00     0.006 C 
ENDBRANCH   8   9
BRANCH   8  11
ATOM     11  C   LIG d   1       0.683  81.264 109.575  0.00  0.00     0.028 C 
ATOM     12  C   LIG d   1       1.440  79.934 109.436  0.00  0.00     0.006 C 
ENDBRANCH   8  11
ENDBRANCH   7   8
ENDBRANCH   1   7
BRANCH   6  13
ATOM     13  N   LIG d   1      -0.256  82.522 114.465  0.00  0.00    -0.311 N 
ATOM     14  C   LIG d   1      -0.472  83.837 114.479  0.00  0.00     0.210 C 
ATOM     15  C   LIG d   1       0.706  84.680 114.977  0.00  0.00     0.109 C 
ATOM     16  O   LIG d   1      -1.538  84.382 114.156  0.00  0.00    -0.276 OA
ATOM     17  H   LIG d   1       0.626  82.164 114.774  0.00  0.00     0.149 HD
ENDBRANCH   6  13
BRANCH   5  18
ATOM     18  N   LIG d   1      -2.428  81.284 116.222  0.00  0.00     0.381 N 
ATOM     19  H   LIG d   1      -2.220  82.262 116.187  0.00  0.00    -0.090 HD
ATOM     20  H   LIG d   1      -2.103  80.924 117.102  0.00  0.00    -0.090 HD
ATOM     21  H   LIG d   1      -3.410  81.143 116.139  0.00  0.00    -0.090 HD
ENDBRANCH   5  18
BRANCH   3  22
ATOM     22  C   LIG d   1      -2.587  77.596 113.171  0.00  0.00     0.382 C 
ATOM     23  O   LIG d   1      -3.567  77.375 112.419  0.00  0.00    -0.241 OA
ATOM     24  O   LIG d   1      -2.013  76.640 113.727  0.00  0.00    -0.241 OA
ENDBRANCH   3  22
TORSDOF 7
ENDMDL
MODEL 7
REMARK VINA RESULT:      -4.9      3.212      4.513
REMARK  7 active torsions:
REMARK  status: ('A' for Active; 'I' for Inactive)
REMARK    1  A    between atoms: C_2  and  C_3 
REMARK    2  A    between atoms: C_3  and  O_6 
REMARK    3  A    between atoms: C_3  and  C_4 
REMARK    4  A    between atoms: C_7  and  O_6 
REMARK    5  A    between atoms: C_9  and  C_10 
REMARK    6  A    between atoms: N_15  and  C_14 
REMARK    7  A    between atoms: N_20  and  C_19 
REMARK       I    between atoms: C_22  and  N_20 
ROOT
ATOM      1  C   LIG d   1      -1.794  78.738 115.165  0.00  0.00     0.161 C 
ATOM      2  C   LIG d   1      -1.951  79.488 113.988  0.00  0.00     0.016 C 
ATOM      3  C   LIG d   1      -2.311  80.855 113.978  0.00  0.00     0.038 C 
ATOM      4  C   LIG d   1      -2.393  81.609 115.159  0.00  0.00     0.028 C 
ATOM      5  C   LIG d   1      -2.738  80.774 116.388  0.00  0.00    -0.047 C 
ATOM      6  C   LIG d   1      -1.770  79.571 116.464  0.00  0.00     0.091 C 
ENDROOT
BRANCH   1   7
ATOM      7  O   LIG d   1      -0.609  77.923 115.071  0.00  0.00    -0.368 OA
BRANCH   7   8
ATOM      8  C   LIG d   1      -0.796  76.586 114.545  0.00  0.00     0.119 C 
BRANCH   8   9
ATOM      9  C   LIG d   1      -1.996  75.961 115.283  0.00  0.00     0.028 C 
ATOM     10  C   LIG d   1      -1.563  75.091 116.476  0.00  0.00     0.006 C 
ENDBRANCH   8   9
BRANCH   8  11
ATOM     11  C   LIG d   1       0.398  75.685 114.877  0.00  0.00     0.028 C 
ATOM     12  C   LIG d   1       0.825  74.802 113.693  0.00  0.00     0.006 C 
ENDBRANCH   8  11
ENDBRANCH   7   8
ENDBRANCH   1   7
BRANCH   6  13
ATOM     13  N   LIG d   1      -2.091  78.656 117.591  0.00  0.00    -0.311 N 
ATOM     14  C   LIG d   1      -1.189  78.239 118.477  0.00  0.00     0.210 C 
ATOM     15  C   LIG d   1      -1.726  77.284 119.547  0.00  0.00     0.109 C 
ATOM     16  O   LIG d   1      -0.001  78.596 118.498  0.00  0.00    -0.276 OA
ATOM     17  H   LIG d   1      -3.039  78.342 117.668  0.00  0.00     0.149 HD
ENDBRANCH   6  13
BRANCH   5  18
ATOM     18  N   LIG d   1      -2.655  81.658 117.565  0.00  0.00     0.381 N 
ATOM     19  H   LIG d   1      -1.718  81.993 117.672  0.00  0.00    -0.090 HD
ATOM     20  H   LIG d   1      -2.897  81.131 118.385  0.00  0.00    -0.090 HD
ATOM     21  H   LIG d   1      -3.279  82.427 117.459  0.00  0.00    -0.090 HD
ENDBRANCH   5  18
BRANCH   3  22
ATOM     22  C   LIG d   1      -2.634  81.472 112.779  0.00  0.00     0.382 C 
ATOM     23  O   LIG d   1      -3.797  81.379 112.319  0.00  0.00    -0.241 OA
ATOM     24  O   LIG d   1      -1.765  82.084 112.130  0.00  0.00    -0.241 OA
ENDBRANCH   3  22
TORSDOF 7
ENDMDL
MODEL 8
REMARK VINA RESULT:      -4.8      3.097      5.281
REMARK  7 active torsions:
REMARK  status: ('A' for Active; 'I' for Inactive)
REMARK    1  A    between atoms: C_2  and  C_3 
REMARK    2  A    between atoms: C_3  and  O_6 
REMARK    3  A    between atoms: C_3  and  C_4 
REMARK    4  A    between atoms: C_7  and  O_6 
REMARK    5  A    between atoms: C_9  and  C_10 
REMARK    6  A    between atoms: N_15  and  C_14 
REMARK    7  A    between atoms: N_20  and  C_19 
REMARK       I    between atoms: C_22  and  N_20 
ROOT
ATOM      1  C   LIG d   1      -2.177  80.959 115.006  0.00  0.00     0.161 C 
ATOM      2  C   LIG d   1      -1.749  82.005 114.171  0.00  0.00     0.016 C 
ATOM      3  C   LIG d   1      -1.231  81.801 112.872  0.00  0.00     0.038 C 
ATOM      4  C   LIG d   1      -1.247  80.540 112.257  0.00  0.00     0.028 C 
ATOM      5  C   LIG d   1      -1.201  79.382 113.249  0.00  0.00    -0.047 C 
ATOM      6  C   LIG d   1      -2.305  79.588 114.311  0.00  0.00     0.091 C 
ENDROOT
BRANCH   1   7
ATOM      7  O   LIG d   1      -3.421  81.318 115.640  0.00  0.00    -0.368 OA
BRANCH   7   8
ATOM      8  C   LIG d   1      -3.325  81.816 116.997  0.00  0.00     0.119 C 
BRANCH   8   9
ATOM      9  C   LIG d   1      -2.100  81.146 117.650  0.00  0.00     0.028 C 
ATOM     10  C   LIG d   1      -1.646  81.872 118.928  0.00  0.00     0.006 C 
ENDBRANCH   8   9
BRANCH   8  11
ATOM     11  C   LIG d   1      -4.526  81.375 117.839  0.00  0.00     0.028 C 
ATOM     12  C   LIG d   1      -4.828  79.874 117.705  0.00  0.00     0.006 C 
ENDBRANCH   8  11
ENDBRANCH   7   8
ENDBRANCH   1   7
BRANCH   6  13
ATOM     13  N   LIG d   1      -2.276  78.543 115.368  0.00  0.00    -0.311 N 
ATOM     14  C   LIG d   1      -3.059  77.466 115.356  0.00  0.00     0.210 C 
ATOM     15  C   LIG d   1      -2.883  76.525 116.552  0.00  0.00     0.109 C 
ATOM     16  O   LIG d   1      -3.860  77.184 114.452  0.00  0.00    -0.276 OA
ATOM     17  H   LIG d   1      -1.633  78.677 116.124  0.00  0.00     0.149 HD
ENDBRANCH   6  13
BRANCH   5  18
ATOM     18  N   LIG d   1      -1.362  78.132 112.482  0.00  0.00     0.381 N 
ATOM     19  H   LIG d   1      -0.479  77.669 112.399  0.00  0.00    -0.090 HD
ATOM     20  H   LIG d   1      -1.689  78.357 111.559  0.00  0.00    -0.090 HD
ATOM     21  H   LIG d   1      -2.017  77.535 112.937  0.00  0.00    -0.090 HD
ENDBRANCH   5  18
BRANCH   3  22
ATOM     22  C   LIG d   1      -0.653  82.859 112.188  0.00  0.00     0.382 C 
ATOM     23  O   LIG d   1      -1.097  83.197 111.064  0.00  0.00    -0.241 OA
ATOM     24  O   LIG d   1       0.335  83.452 112.660  0.00  0.00    -0.241 OA
ENDBRANCH   3  22
TORSDOF 7
ENDMDL
MODEL 9
REMARK VINA RESULT:      -4.8      2.932      4.545
REMARK  7 active torsions:
REMARK  status: ('A' for Active; 'I' for Inactive)
REMARK    1  A    between atoms: C_2  and  C_3 
REMARK    2  A    between atoms: C_3  and  O_6 
REMARK    3  A    between atoms: C_3  and  C_4 
REMARK    4  A    between atoms: C_7  and  O_6 
REMARK    5  A    between atoms: C_9  and  C_10 
REMARK    6  A    between atoms: N_15  and  C_14 
REMARK    7  A    between atoms: N_20  and  C_19 
REMARK       I    between atoms: C_22  and  N_20 
ROOT
ATOM      1  C   LIG d   1      -2.502  79.556 116.157  0.00  0.00     0.161 C 
ATOM      2  C   LIG d   1      -2.747  80.366 115.036  0.00  0.00     0.016 C 
ATOM      3  C   LIG d   1      -2.276  80.062 113.738  0.00  0.00     0.038 C 
ATOM      4  C   LIG d   1      -1.652  78.840 113.443  0.00  0.00     0.028 C 
ATOM      5  C   LIG d   1      -0.938  78.220 114.640  0.00  0.00    -0.047 C 
ATOM      6  C   LIG d   1      -1.918  78.164 115.834  0.00  0.00     0.091 C 
ENDROOT
BRANCH   1   7
ATOM      7  O   LIG d   1      -3.706  79.425 116.938  0.00  0.00    -0.368 OA
BRANCH   7   8
ATOM      8  C   LIG d   1      -4.055  80.561 117.767  0.00  0.00     0.119 C 
BRANCH   8   9
ATOM      9  C   LIG d   1      -3.123  80.542 118.994  0.00  0.00     0.028 C 
ATOM     10  C   LIG d   1      -2.682  81.953 119.418  0.00  0.00     0.006 C 
ENDBRANCH   8   9
BRANCH   8  11
ATOM     11  C   LIG d   1      -5.472  80.425 118.332  0.00  0.00     0.028 C 
ATOM     12  C   LIG d   1      -6.364  81.631 118.000  0.00  0.00     0.006 C 
ENDBRANCH   8  11
ENDBRANCH   7   8
ENDBRANCH   1   7
BRANCH   6  13
ATOM     13  N   LIG d   1      -1.275  77.649 117.071  0.00  0.00    -0.311 N 
ATOM     14  C   LIG d   1      -1.291  76.364 117.424  0.00  0.00     0.210 C 
ATOM     15  C   LIG d   1      -0.585  76.049 118.747  0.00  0.00     0.109 C 
ATOM     16  O   LIG d   1      -1.793  75.452 116.752  0.00  0.00    -0.276 OA
ATOM     17  H   LIG d   1      -0.817  78.316 117.659  0.00  0.00     0.149 HD
ENDBRANCH   6  13
BRANCH   5  18
ATOM     18  N   LIG d   1      -0.452  76.890 114.228  0.00  0.00     0.381 N 
ATOM     19  H   LIG d   1      -0.004  76.954 113.336  0.00  0.00    -0.090 HD
ATOM     20  H   LIG d   1      -1.237  76.269 114.143  0.00  0.00    -0.090 HD
ATOM     21  H   LIG d   1       0.189  76.537 114.905  0.00  0.00    -0.090 HD
ENDBRANCH   5  18
BRANCH   3  22
ATOM     22  C   LIG d   1      -2.393  81.003 112.726  0.00  0.00     0.382 C 
ATOM     23  O   LIG d   1      -1.373  81.382 112.102  0.00  0.00    -0.241 OA
ATOM     24  O   LIG d   1      -3.499  81.509 112.459  0.00  0.00    -0.241 OA
ENDBRANCH   3  22
TORSDOF 7
ENDMDL
