MODEL 1
REMARK VINA RESULT:      -5.3      0.000      0.000
REMARK  7 active torsions:
REMARK  status: ('A' for Active; 'I' for Inactive)
REMARK    1  A    between atoms: C_2  and  C_3 
REMARK    2  A    between atoms: C_3  and  O_6 
REMARK    3  A    between atoms: C_3  and  C_4 
REMARK    4  A    between atoms: C_7  and  O_6 
REMARK    5  A    between atoms: C_9  and  C_10 
REMARK    6  A    between atoms: N_15  and  C_14 
REMARK    7  A    between atoms: N_20  and  C_19 
REMARK       I    between atoms: C_22  and  N_20 
ROOT
ATOM      1  C   LIG d   1      -4.651  77.824 116.197  0.00  0.00     0.161 C 
ATOM      2  C   LIG d   1      -5.376  78.834 116.851  0.00  0.00     0.016 C 
ATOM      3  C   LIG d   1      -4.915  80.164 116.979  0.00  0.00     0.038 C 
ATOM      4  C   LIG d   1      -3.759  80.615 116.324  0.00  0.00     0.028 C 
ATOM      5  C   LIG d   1      -2.736  79.512 116.075  0.00  0.00    -0.047 C 
ATOM      6  C   LIG d   1      -3.439  78.323 115.381  0.00  0.00     0.091 C 
ENDROOT
BRANCH   1   7
ATOM      7  O   LIG d   1      -5.534  77.052 115.360  0.00  0.00    -0.368 OA
BRANCH   7   8
ATOM      8  C   LIG d   1      -5.942  75.763 115.882  0.00  0.00     0.119 C 
BRANCH   8   9
ATOM      9  C   LIG d   1      -5.683  74.715 114.782  0.00  0.00     0.028 C 
ATOM     10  C   LIG d   1      -5.124  75.342 113.494  0.00  0.00     0.006 C 
ENDBRANCH   8   9
BRANCH   8  11
ATOM     11  C   LIG d   1      -7.451  75.718 116.138  0.00  0.00     0.028 C 
ATOM     12  C   LIG d   1      -7.940  74.328 116.575  0.00  0.00     0.006 C 
ENDBRANCH   8  11
ENDBRANCH   7   8
ENDBRANCH   1   7
BRANCH   6  13
ATOM     13  N   LIG d   1      -2.528  77.166 115.176  0.00  0.00    -0.311 N 
ATOM     14  C   LIG d   1      -1.864  76.948 114.043  0.00  0.00     0.210 C 
ATOM     15  C   LIG d   1      -0.994  75.687 114.035  0.00  0.00     0.109 C 
ATOM     16  O   LIG d   1      -1.887  77.697 113.054  0.00  0.00    -0.276 OA
ATOM     17  H   LIG d   1      -2.426  76.525 115.939  0.00  0.00     0.149 HD
ENDBRANCH   6  13
BRANCH   5  18
ATOM     18  N   LIG d   1      -1.646  80.090 115.267  0.00  0.00     0.381 N 
ATOM     19  H   LIG d   1      -1.499  81.044 115.529  0.00  0.00    -0.090 HD
ATOM     20  H   LIG d   1      -1.911  80.066 114.298  0.00  0.00    -0.090 HD
ATOM     21  H   LIG d   1      -0.808  79.568 115.402  0.00  0.00    -0.090 HD
ENDBRANCH   5  18
BRANCH   3  22
ATOM     22  C   LIG d   1      -5.594  81.051 117.801  0.00  0.00     0.382 C 
ATOM     23  O   LIG d   1      -5.018  81.546 118.799  0.00  0.00    -0.241 OA
ATOM     24  O   LIG d   1      -6.789  81.326 117.582  0.00  0.00    -0.241 OA
ENDBRANCH   3  22
TORSDOF 7
ENDMDL
MODEL 2
REMARK VINA RESULT:      -5.2      3.946      5.775
REMARK  7 active torsions:
REMARK  status: ('A' for Active; 'I' for Inactive)
REMARK    1  A    between atoms: C_2  and  C_3 
REMARK    2  A    between atoms: C_3  and  O_6 
REMARK    3  A    between atoms: C_3  and  C_4 
REMARK    4  A    between atoms: C_7  and  O_6 
REMARK    5  A    between atoms: C_9  and  C_10 
REMARK    6  A    between atoms: N_15  and  C_14 
REMARK    7  A    between atoms: N_20  and  C_19 
REMARK       I    between atoms: C_22  and  N_20 
ROOT
ATOM      1  C   LIG d   1      -1.791  80.868 113.883  0.00  0.00     0.161 C 
ATOM      2  C   LIG d   1      -1.605  82.226 113.575  0.00  0.00     0.016 C 
ATOM      3  C   LIG d   1      -1.085  82.681 112.342  0.00  0.00     0.038 C 
ATOM      4  C   LIG d   1      -0.856  81.809 111.267  0.00  0.00     0.028 C 
ATOM      5  C   LIG d   1      -0.553  80.379 111.702  0.00  0.00    -0.047 C 
ATOM      6  C   LIG d   1      -1.651  79.909 112.683  0.00  0.00     0.091 C 
ENDROOT
BRANCH   1   7
ATOM      7  O   LIG d   1      -3.067  80.683 114.526  0.00  0.00    -0.368 OA
BRANCH   7   8
ATOM      8  C   LIG d   1      -3.027  80.322 115.929  0.00  0.00     0.119 C 
BRANCH   8   9
ATOM      9  C   LIG d   1      -4.136  79.278 116.169  0.00  0.00     0.028 C 
ATOM     10  C   LIG d   1      -3.618  78.032 116.907  0.00  0.00     0.006 C 
ENDBRANCH   8   9
BRANCH   8  11
ATOM     11  C   LIG d   1      -3.391  81.512 116.821  0.00  0.00     0.028 C 
ATOM     12  C   LIG d   1      -2.162  82.159 117.481  0.00  0.00     0.006 C 
ENDBRANCH   8  11
ENDBRANCH   7   8
ENDBRANCH   1   7
BRANCH   6  13
ATOM     13  N   LIG d   1      -1.385  78.550 113.222  0.00  0.00    -0.311 N 
ATOM     14  C   LIG d   1      -2.324  77.612 113.343  0.00  0.00     0.210 C 
ATOM     15  C   LIG d   1      -1.841  76.287 113.941  0.00  0.00     0.109 C 
ATOM     16  O   LIG d   1      -3.503  77.742 112.982  0.00  0.00    -0.276 OA
ATOM     17  H   LIG d   1      -0.448  78.348 113.510  0.00  0.00     0.149 HD
ENDBRANCH   6  13
BRANCH   5  18
ATOM     18  N   LIG d   1      -0.472  79.550 110.484  0.00  0.00     0.381 N 
ATOM     19  H   LIG d   1      -0.178  80.113 109.710  0.00  0.00    -0.090 HD
ATOM     20  H   LIG d   1      -1.385  79.184 110.279  0.00  0.00    -0.090 HD
ATOM     21  H   LIG d   1       0.171  78.802 110.622  0.00  0.00    -0.090 HD
ENDBRANCH   5  18
BRANCH   3  22
ATOM     22  C   LIG d   1      -0.751  84.018 112.187  0.00  0.00     0.382 C 
ATOM     23  O   LIG d   1      -0.108  84.611 113.086  0.00  0.00    -0.241 OA
ATOM     24  O   LIG d   1      -1.124  84.650 111.180  0.00  0.00    -0.241 OA
ENDBRANCH   3  22
TORSDOF 7
ENDMDL
MODEL 3
REMARK VINA RESULT:      -5.1      2.936      4.285
REMARK  7 active torsions:
REMARK  status: ('A' for Active; 'I' for Inactive)
REMARK    1  A    between atoms: C_2  and  C_3 
REMARK    2  A    between atoms: C_3  and  O_6 
REMARK    3  A    between atoms: C_3  and  C_4 
REMARK    4  A    between atoms: C_7  and  O_6 
REMARK    5  A    between atoms: C_9  and  C_10 
REMARK    6  A    between atoms: N_15  and  C_14 
REMARK    7  A    between atoms: N_20  and  C_19 
REMARK       I    between atoms: C_22  and  N_20 
ROOT
ATOM      1  C   LIG d   1      -3.098  76.465 116.273  0.00  0.00     0.161 C 
ATOM      2  C   LIG d   1      -3.321  77.504 115.354  0.00  0.00     0.016 C 
ATOM      3  C   LIG d   1      -2.565  77.671 114.171  0.00  0.00     0.038 C 
ATOM      4  C   LIG d   1      -1.628  76.717 113.748  0.00  0.00     0.028 C 
ATOM      5  C   LIG d   1      -1.017  75.919 114.895  0.00  0.00    -0.047 C 
ATOM      6  C   LIG d   1      -2.154  75.351 115.774  0.00  0.00     0.091 C 
ENDROOT
BRANCH   1   7
ATOM      7  O   LIG d   1      -4.358  75.904 116.692  0.00  0.00    -0.368 OA
BRANCH   7   8
ATOM      8  C   LIG d   1      -5.493  76.176 115.833  0.00  0.00     0.119 C 
BRANCH   8   9
ATOM      9  C   LIG d   1      -6.721  76.383 116.741  0.00  0.00     0.028 C 
ATOM     10  C   LIG d   1      -7.969  75.654 116.216  0.00  0.00     0.006 C 
ENDBRANCH   8   9
BRANCH   8  11
ATOM     11  C   LIG d   1      -5.834  74.964 114.961  0.00  0.00     0.028 C 
ATOM     12  C   LIG d   1      -5.122  74.991 113.599  0.00  0.00     0.006 C 
ENDBRANCH   8  11
ENDBRANCH   7   8
ENDBRANCH   1   7
BRANCH   6  13
ATOM     13  N   LIG d   1      -1.642  74.628 116.966  0.00  0.00    -0.311 N 
ATOM     14  C   LIG d   1      -0.840  75.184 117.873  0.00  0.00     0.210 C 
ATOM     15  C   LIG d   1      -0.412  74.256 119.014  0.00  0.00     0.109 C 
ATOM     16  O   LIG d   1      -0.469  76.367 117.858  0.00  0.00    -0.276 OA
ATOM     17  H   LIG d   1      -1.919  73.671 117.074  0.00  0.00     0.149 HD
ENDBRANCH   6  13
BRANCH   5  18
ATOM     18  N   LIG d   1      -0.164  74.871 114.304  0.00  0.00     0.381 N 
ATOM     19  H   LIG d   1       0.566  75.292 113.765  0.00  0.00    -0.090 HD
ATOM     20  H   LIG d   1      -0.723  74.305 113.689  0.00  0.00    -0.090 HD
ATOM     21  H   LIG d   1       0.228  74.304 115.023  0.00  0.00    -0.090 HD
ENDBRANCH   5  18
BRANCH   3  22
ATOM     22  C   LIG d   1      -2.716  78.825 113.416  0.00  0.00     0.382 C 
ATOM     23  O   LIG d   1      -2.058  78.973 112.359  0.00  0.00    -0.241 OA
ATOM     24  O   LIG d   1      -3.469  79.739 113.803  0.00  0.00    -0.241 OA
ENDBRANCH   3  22
TORSDOF 7
ENDMDL
MODEL 4
REMARK VINA RESULT:      -5.1      2.360      6.065
REMARK  7 active torsions:
REMARK  status: ('A' for Active; 'I' for Inactive)
REMARK    1  A    between atoms: C_2  and  C_3 
REMARK    2  A    between atoms: C_3  and  O_6 
REMARK    3  A    between atoms: C_3  and  C_4 
REMARK    4  A    between atoms: C_7  and  O_6 
REMARK    5  A    between atoms: C_9  and  C_10 
REMARK    6  A    between atoms: N_15  and  C_14 
REMARK    7  A    between atoms: N_20  and  C_19 
REMARK       I    between atoms: C_22  and  N_20 
ROOT
ATOM      1  C   LIG d   1      -4.855  77.774 116.150  0.00  0.00     0.161 C 
ATOM      2  C   LIG d   1      -3.816  77.873 115.209  0.00  0.00     0.016 C 
ATOM      3  C   LIG d   1      -3.482  76.837 114.307  0.00  0.00     0.038 C 
ATOM      4  C   LIG d   1      -4.267  75.681 114.181  0.00  0.00     0.028 C 
ATOM      5  C   LIG d   1      -5.022  75.320 115.456  0.00  0.00    -0.047 C 
ATOM      6  C   LIG d   1      -5.793  76.565 115.952  0.00  0.00     0.091 C 
ENDROOT
BRANCH   1   7
ATOM      7  O   LIG d   1      -5.614  78.999 116.170  0.00  0.00    -0.368 OA
BRANCH   7   8
ATOM      8  C   LIG d   1      -5.605  79.734 117.418  0.00  0.00     0.119 C 
BRANCH   8   9
ATOM      9  C   LIG d   1      -7.071  79.957 117.836  0.00  0.00     0.028 C 
ATOM     10  C   LIG d   1      -7.394  79.329 119.202  0.00  0.00     0.006 C 
ENDBRANCH   8   9
BRANCH   8  11
ATOM     11  C   LIG d   1      -5.018  81.137 117.235  0.00  0.00     0.028 C 
ATOM     12  C   LIG d   1      -3.613  81.280 117.840  0.00  0.00     0.006 C 
ENDBRANCH   8  11
ENDBRANCH   7   8
ENDBRANCH   1   7
BRANCH   6  13
ATOM     13  N   LIG d   1      -6.492  76.323 117.241  0.00  0.00    -0.311 N 
ATOM     14  C   LIG d   1      -7.758  75.919 117.324  0.00  0.00     0.210 C 
ATOM     15  C   LIG d   1      -8.291  75.749 118.751  0.00  0.00     0.109 C 
ATOM     16  O   LIG d   1      -8.482  75.655 116.352  0.00  0.00    -0.276 OA
ATOM     17  H   LIG d   1      -5.969  76.482 118.080  0.00  0.00     0.149 HD
ENDBRANCH   6  13
BRANCH   5  18
ATOM     18  N   LIG d   1      -5.904  74.180 115.144  0.00  0.00     0.381 N 
ATOM     19  H   LIG d   1      -6.720  74.504 114.664  0.00  0.00    -0.090 HD
ATOM     20  H   LIG d   1      -6.195  73.749 116.004  0.00  0.00    -0.090 HD
ATOM     21  H   LIG d   1      -5.419  73.518 114.580  0.00  0.00    -0.090 HD
ENDBRANCH   5  18
BRANCH   3  22
ATOM     22  C   LIG d   1      -2.327  76.935 113.546  0.00  0.00     0.382 C 
ATOM     23  O   LIG d   1      -1.915  78.059 113.173  0.00  0.00    -0.241 OA
ATOM     24  O   LIG d   1      -1.717  75.909 113.190  0.00  0.00    -0.241 OA
ENDBRANCH   3  22
TORSDOF 7
ENDMDL
MODEL 5
REMARK VINA RESULT:      -5.0      4.744      7.538
REMARK  7 active torsions:
REMARK  status: ('A' for Active; 'I' for Inactive)
REMARK    1  A    between atoms: C_2  and  C_3 
REMARK    2  A    between atoms: C_3  and  O_6 
REMARK    3  A    between atoms: C_3  and  C_4 
REMARK    4  A    between atoms: C_7  and  O_6 
REMARK    5  A    between atoms: C_9  and  C_10 
REMARK    6  A    between atoms: N_15  and  C_14 
REMARK    7  A    between atoms: N_20  and  C_19 
REMARK       I    between atoms: C_22  and  N_20 
ROOT
ATOM      1  C   LIG d   1      -2.393  82.115 112.743  0.00  0.00     0.161 C 
ATOM      2  C   LIG d   1      -2.929  80.969 113.355  0.00  0.00     0.016 C 
ATOM      3  C   LIG d   1      -2.410  79.669 113.162  0.00  0.00     0.038 C 
ATOM      4  C   LIG d   1      -1.218  79.443 112.457  0.00  0.00     0.028 C 
ATOM      5  C   LIG d   1      -0.927  80.507 111.404  0.00  0.00    -0.047 C 
ATOM      6  C   LIG d   1      -1.026  81.903 112.060  0.00  0.00     0.091 C 
ENDROOT
BRANCH   1   7
ATOM      7  O   LIG d   1      -2.313  83.189 113.701  0.00  0.00    -0.368 OA
BRANCH   7   8
ATOM      8  C   LIG d   1      -1.321  83.039 114.746  0.00  0.00     0.119 C 
BRANCH   8   9
ATOM      9  C   LIG d   1      -2.072  82.957 116.089  0.00  0.00     0.028 C 
ATOM     10  C   LIG d   1      -1.171  82.472 117.237  0.00  0.00     0.006 C 
ENDBRANCH   8   9
BRANCH   8  11
ATOM     11  C   LIG d   1      -0.433  84.281 114.853  0.00  0.00     0.028 C 
ATOM     12  C   LIG d   1       1.059  83.965 114.663  0.00  0.00     0.006 C 
ENDBRANCH   8  11
ENDBRANCH   7   8
ENDBRANCH   1   7
BRANCH   6  13
ATOM     13  N   LIG d   1      -0.837  83.004 111.080  0.00  0.00    -0.311 N 
ATOM     14  C   LIG d   1       0.349  83.542 110.800  0.00  0.00     0.210 C 
ATOM     15  C   LIG d   1       0.317  84.680 109.775  0.00  0.00     0.109 C 
ATOM     16  O   LIG d   1       1.428  83.164 111.281  0.00  0.00    -0.276 OA
ATOM     17  H   LIG d   1      -1.656  83.351 110.620  0.00  0.00     0.149 HD
ENDBRANCH   6  13
BRANCH   5  18
ATOM     18  N   LIG d   1       0.408  80.225 110.843  0.00  0.00     0.381 N 
ATOM     19  H   LIG d   1       0.315  79.756 109.964  0.00  0.00    -0.090 HD
ATOM     20  H   LIG d   1       0.904  79.618 111.473  0.00  0.00    -0.090 HD
ATOM     21  H   LIG d   1       0.914  81.075 110.722  0.00  0.00    -0.090 HD
ENDBRANCH   5  18
BRANCH   3  22
ATOM     22  C   LIG d   1      -3.108  78.572 113.643  0.00  0.00     0.382 C 
ATOM     23  O   LIG d   1      -3.891  78.704 114.615  0.00  0.00    -0.241 OA
ATOM     24  O   LIG d   1      -2.931  77.443 113.147  0.00  0.00    -0.241 OA
ENDBRANCH   3  22
TORSDOF 7
ENDMDL
MODEL 6
REMARK VINA RESULT:      -4.8      2.460      4.785
REMARK  7 active torsions:
REMARK  status: ('A' for Active; 'I' for Inactive)
REMARK    1  A    between atoms: C_2  and  C_3 
REMARK    2  A    between atoms: C_3  and  O_6 
REMARK    3  A    between atoms: C_3  and  C_4 
REMARK    4  A    between atoms: C_7  and  O_6 
REMARK    5  A    between atoms: C_9  and  C_10 
REMARK    6  A    between atoms: N_15  and  C_14 
REMARK    7  A    between atoms: N_20  and  C_19 
REMARK       I    between atoms: C_22  and  N_20 
ROOT
ATOM      1  C   LIG d   1      -5.079  77.589 116.443  0.00  0.00     0.161 C 
ATOM      2  C   LIG d   1      -6.100  76.628 116.530  0.00  0.00     0.016 C 
ATOM      3  C   LIG d   1      -7.315  76.845 117.220  0.00  0.00     0.038 C 
ATOM      4  C   LIG d   1      -7.656  78.100 117.744  0.00  0.00     0.028 C 
ATOM      5  C   LIG d   1      -6.446  78.949 118.119  0.00  0.00    -0.047 C 
ATOM      6  C   LIG d   1      -5.479  79.003 116.914  0.00  0.00     0.091 C 
ENDROOT
BRANCH   1   7
ATOM      7  O   LIG d   1      -4.566  77.636 115.097  0.00  0.00    -0.368 OA
BRANCH   7   8
ATOM      8  C   LIG d   1      -3.352  76.884 114.850  0.00  0.00     0.119 C 
BRANCH   8   9
ATOM      9  C   LIG d   1      -2.388  77.802 114.075  0.00  0.00     0.028 C 
ATOM     10  C   LIG d   1      -3.027  79.155 113.716  0.00  0.00     0.006 C 
ENDBRANCH   8   9
BRANCH   8  11
ATOM     11  C   LIG d   1      -3.613  75.694 113.922  0.00  0.00     0.028 C 
ATOM     12  C   LIG d   1      -4.952  75.804 113.174  0.00  0.00     0.006 C 
ENDBRANCH   8  11
ENDBRANCH   7   8
ENDBRANCH   1   7
BRANCH   6  13
ATOM     13  N   LIG d   1      -4.229  79.744 117.224  0.00  0.00    -0.311 N 
ATOM     14  C   LIG d   1      -4.051  81.033 116.939  0.00  0.00     0.210 C 
ATOM     15  C   LIG d   1      -2.680  81.598 117.325  0.00  0.00     0.109 C 
ATOM     16  O   LIG d   1      -4.910  81.771 116.434  0.00  0.00    -0.276 OA
ATOM     17  H   LIG d   1      -3.490  79.230 117.663  0.00  0.00     0.149 HD
ENDBRANCH   6  13
BRANCH   5  18
ATOM     18  N   LIG d   1      -6.942  80.279 118.521  0.00  0.00     0.381 N 
ATOM     19  H   LIG d   1      -7.820  80.462 118.077  0.00  0.00    -0.090 HD
ATOM     20  H   LIG d   1      -6.284  80.976 118.220  0.00  0.00    -0.090 HD
ATOM     21  H   LIG d   1      -7.048  80.318 119.511  0.00  0.00    -0.090 HD
ENDBRANCH   5  18
BRANCH   3  22
ATOM     22  C   LIG d   1      -8.187  75.787 117.424  0.00  0.00     0.382 C 
ATOM     23  O   LIG d   1      -8.073  75.069 118.447  0.00  0.00    -0.241 OA
ATOM     24  O   LIG d   1      -9.059  75.513 116.577  0.00  0.00    -0.241 OA
ENDBRANCH   3  22
TORSDOF 7
ENDMDL
MODEL 7
REMARK VINA RESULT:      -4.7      2.405      4.349
REMARK  7 active torsions:
REMARK  status: ('A' for Active; 'I' for Inactive)
REMARK    1  A    between atoms: C_2  and  C_3 
REMARK    2  A    between atoms: C_3  and  O_6 
REMARK    3  A    between atoms: C_3  and  C_4 
REMARK    4  A    between atoms: C_7  and  O_6 
REMARK    5  A    between atoms: C_9  and  C_10 
REMARK    6  A    between atoms: N_15  and  C_14 
REMARK    7  A    between atoms: N_20  and  C_19 
REMARK       I    between atoms: C_22  and  N_20 
ROOT
ATOM      1  C   LIG d   1      -4.714  77.668 116.284  0.00  0.00     0.161 C 
ATOM      2  C   LIG d   1      -4.128  78.942 116.356  0.00  0.00     0.016 C 
ATOM      3  C   LIG d   1      -4.746  80.049 116.983  0.00  0.00     0.038 C 
ATOM      4  C   LIG d   1      -5.934  79.916 117.717  0.00  0.00     0.028 C 
ATOM      5  C   LIG d   1      -6.813  78.763 117.244  0.00  0.00    -0.047 C 
ATOM      6  C   LIG d   1      -5.959  77.477 117.175  0.00  0.00     0.091 C 
ENDROOT
BRANCH   1   7
ATOM      7  O   LIG d   1      -3.728  76.659 116.578  0.00  0.00    -0.368 OA
BRANCH   7   8
ATOM      8  C   LIG d   1      -3.341  75.804 115.474  0.00  0.00     0.119 C 
BRANCH   8   9
ATOM      9  C   LIG d   1      -1.863  76.100 115.155  0.00  0.00     0.028 C 
ATOM     10  C   LIG d   1      -1.690  76.851 113.824  0.00  0.00     0.006 C 
ENDBRANCH   8   9
BRANCH   8  11
ATOM     11  C   LIG d   1      -4.111  76.159 114.199  0.00  0.00     0.028 C 
ATOM     12  C   LIG d   1      -5.018  75.017 113.713  0.00  0.00     0.006 C 
ENDBRANCH   8  11
ENDBRANCH   7   8
ENDBRANCH   1   7
BRANCH   6  13
ATOM     13  N   LIG d   1      -6.721  76.318 116.641  0.00  0.00    -0.311 N 
ATOM     14  C   LIG d   1      -7.395  75.466 117.411  0.00  0.00     0.210 C 
ATOM     15  C   LIG d   1      -8.096  74.330 116.659  0.00  0.00     0.109 C 
ATOM     16  O   LIG d   1      -7.506  75.561 118.643  0.00  0.00    -0.276 OA
ATOM     17  H   LIG d   1      -6.711  76.184 115.649  0.00  0.00     0.149 HD
ENDBRANCH   6  13
BRANCH   5  18
ATOM     18  N   LIG d   1      -7.947  78.655 118.181  0.00  0.00     0.381 N 
ATOM     19  H   LIG d   1      -8.734  78.250 117.714  0.00  0.00    -0.090 HD
ATOM     20  H   LIG d   1      -8.204  79.576 118.489  0.00  0.00    -0.090 HD
ATOM     21  H   LIG d   1      -7.691  78.094 118.964  0.00  0.00    -0.090 HD
ENDBRANCH   5  18
BRANCH   3  22
ATOM     22  C   LIG d   1      -4.194  81.313 116.845  0.00  0.00     0.382 C 
ATOM     23  O   LIG d   1      -4.576  82.065 115.916  0.00  0.00    -0.241 OA
ATOM     24  O   LIG d   1      -3.289  81.695 117.611  0.00  0.00    -0.241 OA
ENDBRANCH   3  22
TORSDOF 7
ENDMDL
MODEL 8
REMARK VINA RESULT:      -4.7      2.756      4.918
REMARK  7 active torsions:
REMARK  status: ('A' for Active; 'I' for Inactive)
REMARK    1  A    between atoms: C_2  and  C_3 
REMARK    2  A    between atoms: C_3  and  O_6 
REMARK    3  A    between atoms: C_3  and  C_4 
REMARK    4  A    between atoms: C_7  and  O_6 
REMARK    5  A    between atoms: C_9  and  C_10 
REMARK    6  A    between atoms: N_15  and  C_14 
REMARK    7  A    between atoms: N_20  and  C_19 
REMARK       I    between atoms: C_22  and  N_20 
ROOT
ATOM      1  C   LIG d   1      -3.879  77.563 116.082  0.00  0.00     0.161 C 
ATOM      2  C   LIG d   1      -2.866  76.593 116.169  0.00  0.00     0.016 C 
ATOM      3  C   LIG d   1      -2.171  76.298 117.364  0.00  0.00     0.038 C 
ATOM      4  C   LIG d   1      -2.548  76.851 118.597  0.00  0.00     0.028 C 
ATOM      5  C   LIG d   1      -3.231  78.209 118.468  0.00  0.00    -0.047 C 
ATOM      6  C   LIG d   1      -4.380  78.097 117.440  0.00  0.00     0.091 C 
ENDROOT
BRANCH   1   7
ATOM      7  O   LIG d   1      -4.981  77.050 115.307  0.00  0.00    -0.368 OA
BRANCH   7   8
ATOM      8  C   LIG d   1      -5.631  75.866 115.830  0.00  0.00     0.119 C 
BRANCH   8   9
ATOM      9  C   LIG d   1      -5.665  74.819 114.700  0.00  0.00     0.028 C 
ATOM     10  C   LIG d   1      -5.027  75.338 113.401  0.00  0.00     0.006 C 
ENDBRANCH   8   9
BRANCH   8  11
ATOM     11  C   LIG d   1      -7.099  76.141 116.172  0.00  0.00     0.028 C 
ATOM     12  C   LIG d   1      -7.873  74.867 116.545  0.00  0.00     0.006 C 
ENDBRANCH   8  11
ENDBRANCH   7   8
ENDBRANCH   1   7
BRANCH   6  13
ATOM     13  N   LIG d   1      -5.047  79.402 117.191  0.00  0.00    -0.311 N 
ATOM     14  C   LIG d   1      -6.155  79.791 117.820  0.00  0.00     0.210 C 
ATOM     15  C   LIG d   1      -6.688  81.164 117.399  0.00  0.00     0.109 C 
ATOM     16  O   LIG d   1      -6.728  79.143 118.708  0.00  0.00    -0.276 OA
ATOM     17  H   LIG d   1      -4.631  80.004 116.507  0.00  0.00     0.149 HD
ENDBRANCH   6  13
BRANCH   5  18
ATOM     18  N   LIG d   1      -3.693  78.605 119.811  0.00  0.00     0.381 N 
ATOM     19  H   LIG d   1      -3.937  77.791 120.339  0.00  0.00    -0.090 HD
ATOM     20  H   LIG d   1      -4.514  79.177 119.717  0.00  0.00    -0.090 HD
ATOM     21  H   LIG d   1      -2.977  79.113 120.282  0.00  0.00    -0.090 HD
ENDBRANCH   5  18
BRANCH   3  22
ATOM     22  C   LIG d   1      -1.059  75.471 117.326  0.00  0.00     0.382 C 
ATOM     23  O   LIG d   1      -1.146  74.327 116.817  0.00  0.00    -0.241 OA
ATOM     24  O   LIG d   1       0.018  75.836 117.835  0.00  0.00    -0.241 OA
ENDBRANCH   3  22
TORSDOF 7
ENDMDL
MODEL 9
REMARK VINA RESULT:      -4.6      2.185      3.073
REMARK  7 active torsions:
REMARK  status: ('A' for Active; 'I' for Inactive)
REMARK    1  A    between atoms: C_2  and  C_3 
REMARK    2  A    between atoms: C_3  and  O_6 
REMARK    3  A    between atoms: C_3  and  C_4 
REMARK    4  A    between atoms: C_7  and  O_6 
REMARK    5  A    between atoms: C_9  and  C_10 
REMARK    6  A    between atoms: N_15  and  C_14 
REMARK    7  A    between atoms: N_20  and  C_19 
REMARK       I    between atoms: C_22  and  N_20 
ROOT
ATOM      1  C   LIG d   1      -3.287  78.813 115.120  0.00  0.00     0.161 C 
ATOM      2  C   LIG d   1      -4.070  78.710 116.282  0.00  0.00     0.016 C 
ATOM      3  C   LIG d   1      -4.466  79.825 117.055  0.00  0.00     0.038 C 
ATOM      4  C   LIG d   1      -4.232  81.142 116.630  0.00  0.00     0.028 C 
ATOM      5  C   LIG d   1      -3.011  81.279 115.728  0.00  0.00    -0.047 C 
ATOM      6  C   LIG d   1      -3.116  80.248 114.581  0.00  0.00     0.091 C 
ENDROOT
BRANCH   1   7
ATOM      7  O   LIG d   1      -3.820  77.952 114.094  0.00  0.00    -0.368 OA
BRANCH   7   8
ATOM      8  C   LIG d   1      -3.620  76.531 114.286  0.00  0.00     0.119 C 
BRANCH   8   9
ATOM      9  C   LIG d   1      -2.263  76.165 113.655  0.00  0.00     0.028 C 
ATOM     10  C   LIG d   1      -1.208  75.786 114.708  0.00  0.00     0.006 C 
ENDBRANCH   8   9
BRANCH   8  11
ATOM     11  C   LIG d   1      -4.660  75.712 113.516  0.00  0.00     0.028 C 
ATOM     12  C   LIG d   1      -5.351  74.653 114.389  0.00  0.00     0.006 C 
ENDBRANCH   8  11
ENDBRANCH   7   8
ENDBRANCH   1   7
BRANCH   6  13
ATOM     13  N   LIG d   1      -1.920  80.258 113.698  0.00  0.00    -0.311 N 
ATOM     14  C   LIG d   1      -1.838  80.980 112.582  0.00  0.00     0.210 C 
ATOM     15  C   LIG d   1      -0.524  80.830 111.810  0.00  0.00     0.109 C 
ATOM     16  O   LIG d   1      -2.717  81.756 112.176  0.00  0.00    -0.276 OA
ATOM     17  H   LIG d   1      -1.148  79.681 113.970  0.00  0.00     0.149 HD
ENDBRANCH   6  13
BRANCH   5  18
ATOM     18  N   LIG d   1      -2.965  82.674 115.249  0.00  0.00     0.381 N 
ATOM     19  H   LIG d   1      -2.500  82.713 114.365  0.00  0.00    -0.090 HD
ATOM     20  H   LIG d   1      -2.441  83.226 115.906  0.00  0.00    -0.090 HD
ATOM     21  H   LIG d   1      -3.889  83.035 115.163  0.00  0.00    -0.090 HD
ENDBRANCH   5  18
BRANCH   3  22
ATOM     22  C   LIG d   1      -5.070  79.628 118.287  0.00  0.00     0.382 C 
ATOM     23  O   LIG d   1      -4.964  80.498 119.184  0.00  0.00    -0.241 OA
ATOM     24  O   LIG d   1      -5.683  78.571 118.528  0.00  0.00    -0.241 OA
ENDBRANCH   3  22
TORSDOF 7
ENDMDL
