MODEL 1
REMARK VINA RESULT:      -5.0      0.000      0.000
REMARK  7 active torsions:
REMARK  status: ('A' for Active; 'I' for Inactive)
REMARK    1  A    between atoms: C_2  and  C_3 
REMARK    2  A    between atoms: C_3  and  O_6 
REMARK    3  A    between atoms: C_3  and  C_4 
REMARK    4  A    between atoms: C_7  and  O_6 
REMARK    5  A    between atoms: C_9  and  C_10 
REMARK    6  A    between atoms: N_15  and  C_14 
REMARK    7  A    between atoms: N_20  and  C_19 
REMARK       I    between atoms: C_22  and  N_20 
ROOT
ATOM      1  C   LIG d   1      -2.744  76.911 115.072  0.00  0.00     0.161 C 
ATOM      2  C   LIG d   1      -3.016  77.797 114.017  0.00  0.00     0.016 C 
ATOM      3  C   LIG d   1      -2.094  78.763 113.554  0.00  0.00     0.038 C 
ATOM      4  C   LIG d   1      -0.771  78.808 114.020  0.00  0.00     0.028 C 
ATOM      5  C   LIG d   1      -0.609  78.267 115.437  0.00  0.00    -0.047 C 
ATOM      6  C   LIG d   1      -1.268  76.870 115.518  0.00  0.00     0.091 C 
ENDROOT
BRANCH   1   7
ATOM      7  O   LIG d   1      -3.200  75.587 114.729  0.00  0.00    -0.368 OA
BRANCH   7   8
ATOM      8  C   LIG d   1      -4.251  75.039 115.563  0.00  0.00     0.119 C 
BRANCH   8   9
ATOM      9  C   LIG d   1      -5.471  74.779 114.658  0.00  0.00     0.028 C 
ATOM     10  C   LIG d   1      -6.258  76.065 114.351  0.00  0.00     0.006 C 
ENDBRANCH   8   9
BRANCH   8  11
ATOM     11  C   LIG d   1      -4.726  76.058 116.602  0.00  0.00     0.028 C 
ATOM     12  C   LIG d   1      -4.707  75.501 118.035  0.00  0.00     0.006 C 
ENDBRANCH   8  11
ENDBRANCH   7   8
ENDBRANCH   1   7
BRANCH   6  13
ATOM     13  N   LIG d   1      -1.228  76.305 116.892  0.00  0.00    -0.311 N 
ATOM     14  C   LIG d   1      -0.953  75.028 117.152  0.00  0.00     0.210 C 
ATOM     15  C   LIG d   1      -0.984  74.648 118.635  0.00  0.00     0.109 C 
ATOM     16  O   LIG d   1      -0.654  74.181 116.296  0.00  0.00    -0.276 OA
ATOM     17  H   LIG d   1      -1.428  76.930 117.649  0.00  0.00     0.149 HD
ENDBRANCH   6  13
BRANCH   5  18
ATOM     18  N   LIG d   1       0.834  78.244 115.743  0.00  0.00     0.381 N 
ATOM     19  H   LIG d   1       0.969  78.096 116.723  0.00  0.00    -0.090 HD
ATOM     20  H   LIG d   1       1.231  79.135 115.501  0.00  0.00    -0.090 HD
ATOM     21  H   LIG d   1       1.281  77.521 115.225  0.00  0.00    -0.090 HD
ENDBRANCH   5  18
BRANCH   3  22
ATOM     22  C   LIG d   1      -2.504  79.724 112.643  0.00  0.00     0.382 C 
ATOM     23  O   LIG d   1      -2.087  79.685 111.460  0.00  0.00    -0.241 OA
ATOM     24  O   LIG d   1      -3.250  80.655 113.000  0.00  0.00    -0.241 OA
ENDBRANCH   3  22
TORSDOF 7
ENDMDL
MODEL 2
REMARK VINA RESULT:      -4.8      1.905      2.471
REMARK  7 active torsions:
REMARK  status: ('A' for Active; 'I' for Inactive)
REMARK    1  A    between atoms: C_2  and  C_3 
REMARK    2  A    between atoms: C_3  and  O_6 
REMARK    3  A    between atoms: C_3  and  C_4 
REMARK    4  A    between atoms: C_7  and  O_6 
REMARK    5  A    between atoms: C_9  and  C_10 
REMARK    6  A    between atoms: N_15  and  C_14 
REMARK    7  A    between atoms: N_20  and  C_19 
REMARK       I    between atoms: C_22  and  N_20 
ROOT
ATOM      1  C   LIG d   1      -3.114  77.732 116.386  0.00  0.00     0.161 C 
ATOM      2  C   LIG d   1      -3.306  78.575 115.279  0.00  0.00     0.016 C 
ATOM      3  C   LIG d   1      -2.619  78.418 114.053  0.00  0.00     0.038 C 
ATOM      4  C   LIG d   1      -1.799  77.309 113.799  0.00  0.00     0.028 C 
ATOM      5  C   LIG d   1      -1.185  76.709 115.060  0.00  0.00    -0.047 C 
ATOM      6  C   LIG d   1      -2.307  76.450 116.091  0.00  0.00     0.091 C 
ENDROOT
BRANCH   1   7
ATOM      7  O   LIG d   1      -4.388  77.398 116.972  0.00  0.00    -0.368 OA
BRANCH   7   8
ATOM      8  C   LIG d   1      -5.560  77.843 116.247  0.00  0.00     0.119 C 
BRANCH   8   9
ATOM      9  C   LIG d   1      -6.499  78.528 117.259  0.00  0.00     0.028 C 
ATOM     10  C   LIG d   1      -6.262  80.045 117.345  0.00  0.00     0.006 C 
ENDBRANCH   8   9
BRANCH   8  11
ATOM     11  C   LIG d   1      -6.356  76.657 115.693  0.00  0.00     0.028 C 
ATOM     12  C   LIG d   1      -5.760  76.094 114.394  0.00  0.00     0.006 C 
ENDBRANCH   8  11
ENDBRANCH   7   8
ENDBRANCH   1   7
BRANCH   6  13
ATOM     13  N   LIG d   1      -1.782  75.942 117.385  0.00  0.00    -0.311 N 
ATOM     14  C   LIG d   1      -2.290  74.886 118.018  0.00  0.00     0.210 C 
ATOM     15  C   LIG d   1      -1.612  74.542 119.348  0.00  0.00     0.109 C 
ATOM     16  O   LIG d   1      -3.217  74.182 117.589  0.00  0.00    -0.276 OA
ATOM     17  H   LIG d   1      -1.010  76.435 117.789  0.00  0.00     0.149 HD
ENDBRANCH   6  13
BRANCH   5  18
ATOM     18  N   LIG d   1      -0.468  75.481 114.665  0.00  0.00     0.381 N 
ATOM     19  H   LIG d   1       0.135  75.188 115.407  0.00  0.00    -0.090 HD
ATOM     20  H   LIG d   1       0.097  75.680 113.859  0.00  0.00    -0.090 HD
ATOM     21  H   LIG d   1      -1.121  74.759 114.452  0.00  0.00    -0.090 HD
ENDBRANCH   5  18
BRANCH   3  22
ATOM     22  C   LIG d   1      -2.719  79.400 113.079  0.00  0.00     0.382 C 
ATOM     23  O   LIG d   1      -2.252  79.196 111.933  0.00  0.00    -0.241 OA
ATOM     24  O   LIG d   1      -3.230  80.505 113.346  0.00  0.00    -0.241 OA
ENDBRANCH   3  22
TORSDOF 7
ENDMDL
MODEL 3
REMARK VINA RESULT:      -4.6      1.774      4.950
REMARK  7 active torsions:
REMARK  status: ('A' for Active; 'I' for Inactive)
REMARK    1  A    between atoms: C_2  and  C_3 
REMARK    2  A    between atoms: C_3  and  O_6 
REMARK    3  A    between atoms: C_3  and  C_4 
REMARK    4  A    between atoms: C_7  and  O_6 
REMARK    5  A    between atoms: C_9  and  C_10 
REMARK    6  A    between atoms: N_15  and  C_14 
REMARK    7  A    between atoms: N_20  and  C_19 
REMARK       I    between atoms: C_22  and  N_20 
ROOT
ATOM      1  C   LIG d   1      -1.512  75.273 115.461  0.00  0.00     0.161 C 
ATOM      2  C   LIG d   1      -0.972  74.900 116.703  0.00  0.00     0.016 C 
ATOM      3  C   LIG d   1      -0.419  75.822 117.620  0.00  0.00     0.038 C 
ATOM      4  C   LIG d   1      -0.507  77.208 117.422  0.00  0.00     0.028 C 
ATOM      5  C   LIG d   1      -0.591  77.606 115.952  0.00  0.00    -0.047 C 
ATOM      6  C   LIG d   1      -1.718  76.791 115.276  0.00  0.00     0.091 C 
ENDROOT
BRANCH   1   7
ATOM      7  O   LIG d   1      -2.749  74.569 115.235  0.00  0.00    -0.368 OA
BRANCH   7   8
ATOM      8  C   LIG d   1      -3.955  75.239 115.680  0.00  0.00     0.119 C 
BRANCH   8   9
ATOM      9  C   LIG d   1      -4.348  74.629 117.039  0.00  0.00     0.028 C 
ATOM     10  C   LIG d   1      -4.375  75.675 118.166  0.00  0.00     0.006 C 
ENDBRANCH   8   9
BRANCH   8  11
ATOM     11  C   LIG d   1      -5.133  74.944 114.747  0.00  0.00     0.028 C 
ATOM     12  C   LIG d   1      -6.012  76.178 114.488  0.00  0.00     0.006 C 
ENDBRANCH   8  11
ENDBRANCH   7   8
ENDBRANCH   1   7
BRANCH   6  13
ATOM     13  N   LIG d   1      -1.812  77.057 113.816  0.00  0.00    -0.311 N 
ATOM     14  C   LIG d   1      -2.671  77.925 113.284  0.00  0.00     0.210 C 
ATOM     15  C   LIG d   1      -2.617  78.033 111.756  0.00  0.00     0.109 C 
ATOM     16  O   LIG d   1      -3.450  78.639 113.933  0.00  0.00    -0.276 OA
ATOM     17  H   LIG d   1      -1.195  76.544 113.218  0.00  0.00     0.149 HD
ENDBRANCH   6  13
BRANCH   5  18
ATOM     18  N   LIG d   1      -0.817  79.062 115.896  0.00  0.00     0.381 N 
ATOM     19  H   LIG d   1      -0.705  79.387 114.956  0.00  0.00    -0.090 HD
ATOM     20  H   LIG d   1      -0.133  79.520 116.472  0.00  0.00    -0.090 HD
ATOM     21  H   LIG d   1      -1.734  79.278 116.222  0.00  0.00    -0.090 HD
ENDBRANCH   5  18
BRANCH   3  22
ATOM     22  C   LIG d   1       0.266  75.359 118.733  0.00  0.00     0.382 C 
ATOM     23  O   LIG d   1       0.527  76.140 119.679  0.00  0.00    -0.241 OA
ATOM     24  O   LIG d   1       0.666  74.180 118.783  0.00  0.00    -0.241 OA
ENDBRANCH   3  22
TORSDOF 7
ENDMDL
MODEL 4
REMARK VINA RESULT:      -4.4      1.496      2.146
REMARK  7 active torsions:
REMARK  status: ('A' for Active; 'I' for Inactive)
REMARK    1  A    between atoms: C_2  and  C_3 
REMARK    2  A    between atoms: C_3  and  O_6 
REMARK    3  A    between atoms: C_3  and  C_4 
REMARK    4  A    between atoms: C_7  and  O_6 
REMARK    5  A    between atoms: C_9  and  C_10 
REMARK    6  A    between atoms: N_15  and  C_14 
REMARK    7  A    between atoms: N_20  and  C_19 
REMARK       I    between atoms: C_22  and  N_20 
ROOT
ATOM      1  C   LIG d   1      -2.525  77.094 114.849  0.00  0.00     0.161 C 
ATOM      2  C   LIG d   1      -2.788  77.257 113.479  0.00  0.00     0.016 C 
ATOM      3  C   LIG d   1      -1.938  77.970 112.603  0.00  0.00     0.038 C 
ATOM      4  C   LIG d   1      -0.682  78.443 113.011  0.00  0.00     0.028 C 
ATOM      5  C   LIG d   1      -0.602  78.741 114.504  0.00  0.00    -0.047 C 
ATOM      6  C   LIG d   1      -1.105  77.508 115.289  0.00  0.00     0.091 C 
ENDROOT
BRANCH   1   7
ATOM      7  O   LIG d   1      -2.794  75.733 115.240  0.00  0.00    -0.368 OA
BRANCH   7   8
ATOM      8  C   LIG d   1      -4.079  75.491 115.864  0.00  0.00     0.119 C 
BRANCH   8   9
ATOM      9  C   LIG d   1      -3.830  74.629 117.117  0.00  0.00     0.028 C 
ATOM     10  C   LIG d   1      -3.869  75.455 118.414  0.00  0.00     0.006 C 
ENDBRANCH   8   9
BRANCH   8  11
ATOM     11  C   LIG d   1      -4.985  74.646 114.964  0.00  0.00     0.028 C 
ATOM     12  C   LIG d   1      -6.265  74.181 115.675  0.00  0.00     0.006 C 
ENDBRANCH   8  11
ENDBRANCH   7   8
ENDBRANCH   1   7
BRANCH   6  13
ATOM     13  N   LIG d   1      -1.139  77.745 116.756  0.00  0.00    -0.311 N 
ATOM     14  C   LIG d   1      -0.576  76.929 117.644  0.00  0.00     0.210 C 
ATOM     15  C   LIG d   1      -0.746  77.348 119.107  0.00  0.00     0.109 C 
ATOM     16  O   LIG d   1       0.076  75.913 117.357  0.00  0.00    -0.276 OA
ATOM     17  H   LIG d   1      -1.621  78.563 117.074  0.00  0.00     0.149 HD
ENDBRANCH   6  13
BRANCH   5  18
ATOM     18  N   LIG d   1       0.797  79.093 114.814  0.00  0.00     0.381 N 
ATOM     19  H   LIG d   1       1.390  78.306 114.643  0.00  0.00    -0.090 HD
ATOM     20  H   LIG d   1       0.863  79.332 115.788  0.00  0.00    -0.090 HD
ATOM     21  H   LIG d   1       1.086  79.865 114.255  0.00  0.00    -0.090 HD
ENDBRANCH   5  18
BRANCH   3  22
ATOM     22  C   LIG d   1      -2.360  78.251 111.312  0.00  0.00     0.382 C 
ATOM     23  O   LIG d   1      -3.328  77.623 110.819  0.00  0.00    -0.241 OA
ATOM     24  O   LIG d   1      -1.758  79.092 110.619  0.00  0.00    -0.241 OA
ENDBRANCH   3  22
TORSDOF 7
ENDMDL
MODEL 5
REMARK VINA RESULT:      -4.3      2.857      6.001
REMARK  7 active torsions:
REMARK  status: ('A' for Active; 'I' for Inactive)
REMARK    1  A    between atoms: C_2  and  C_3 
REMARK    2  A    between atoms: C_3  and  O_6 
REMARK    3  A    between atoms: C_3  and  C_4 
REMARK    4  A    between atoms: C_7  and  O_6 
REMARK    5  A    between atoms: C_9  and  C_10 
REMARK    6  A    between atoms: N_15  and  C_14 
REMARK    7  A    between atoms: N_20  and  C_19 
REMARK       I    between atoms: C_22  and  N_20 
ROOT
ATOM      1  C   LIG d   1      -4.282  76.764 117.318  0.00  0.00     0.161 C 
ATOM      2  C   LIG d   1      -5.239  76.052 118.059  0.00  0.00     0.016 C 
ATOM      3  C   LIG d   1      -6.411  75.501 117.491  0.00  0.00     0.038 C 
ATOM      4  C   LIG d   1      -6.630  75.493 116.106  0.00  0.00     0.028 C 
ATOM      5  C   LIG d   1      -5.939  76.641 115.377  0.00  0.00    -0.047 C 
ATOM      6  C   LIG d   1      -4.449  76.671 115.787  0.00  0.00     0.091 C 
ENDROOT
BRANCH   1   7
ATOM      7  O   LIG d   1      -2.957  76.348 117.704  0.00  0.00    -0.368 OA
BRANCH   7   8
ATOM      8  C   LIG d   1      -2.505  75.081 117.166  0.00  0.00     0.119 C 
BRANCH   8   9
ATOM      9  C   LIG d   1      -2.127  74.180 118.358  0.00  0.00     0.028 C 
ATOM     10  C   LIG d   1      -2.050  74.960 119.682  0.00  0.00     0.006 C 
ENDBRANCH   8   9
BRANCH   8  11
ATOM     11  C   LIG d   1      -1.215  75.246 116.358  0.00  0.00     0.028 C 
ATOM     12  C   LIG d   1      -0.528  76.600 116.602  0.00  0.00     0.006 C 
ENDBRANCH   8  11
ENDBRANCH   7   8
ENDBRANCH   1   7
BRANCH   6  13
ATOM     13  N   LIG d   1      -3.718  77.816 115.184  0.00  0.00    -0.311 N 
ATOM     14  C   LIG d   1      -3.046  77.734 114.037  0.00  0.00     0.210 C 
ATOM     15  C   LIG d   1      -2.346  79.026 113.604  0.00  0.00     0.109 C 
ATOM     16  O   LIG d   1      -2.989  76.723 113.321  0.00  0.00    -0.276 OA
ATOM     17  H   LIG d   1      -3.737  78.683 115.683  0.00  0.00     0.149 HD
ENDBRANCH   6  13
BRANCH   5  18
ATOM     18  N   LIG d   1      -6.136  76.433 113.930  0.00  0.00     0.381 N 
ATOM     19  H   LIG d   1      -5.278  76.139 113.510  0.00  0.00    -0.090 HD
ATOM     20  H   LIG d   1      -6.410  77.305 113.511  0.00  0.00    -0.090 HD
ATOM     21  H   LIG d   1      -6.842  75.747 113.777  0.00  0.00    -0.090 HD
ENDBRANCH   5  18
BRANCH   3  22
ATOM     22  C   LIG d   1      -7.397  74.983 118.317  0.00  0.00     0.382 C 
ATOM     23  O   LIG d   1      -8.245  74.182 117.854  0.00  0.00    -0.241 OA
ATOM     24  O   LIG d   1      -7.476  75.340 119.507  0.00  0.00    -0.241 OA
ENDBRANCH   3  22
TORSDOF 7
ENDMDL
MODEL 6
REMARK VINA RESULT:      -4.2      3.640      6.009
REMARK  7 active torsions:
REMARK  status: ('A' for Active; 'I' for Inactive)
REMARK    1  A    between atoms: C_2  and  C_3 
REMARK    2  A    between atoms: C_3  and  O_6 
REMARK    3  A    between atoms: C_3  and  C_4 
REMARK    4  A    between atoms: C_7  and  O_6 
REMARK    5  A    between atoms: C_9  and  C_10 
REMARK    6  A    between atoms: N_15  and  C_14 
REMARK    7  A    between atoms: N_20  and  C_19 
REMARK       I    between atoms: C_22  and  N_20 
ROOT
ATOM      1  C   LIG d   1      -5.626  77.905 116.087  0.00  0.00     0.161 C 
ATOM      2  C   LIG d   1      -6.781  77.357 116.671  0.00  0.00     0.016 C 
ATOM      3  C   LIG d   1      -6.828  76.061 117.233  0.00  0.00     0.038 C 
ATOM      4  C   LIG d   1      -5.676  75.276 117.385  0.00  0.00     0.028 C 
ATOM      5  C   LIG d   1      -4.593  75.583 116.357  0.00  0.00    -0.047 C 
ATOM      6  C   LIG d   1      -4.331  77.107 116.344  0.00  0.00     0.091 C 
ENDROOT
BRANCH   1   7
ATOM      7  O   LIG d   1      -5.465  79.272 116.514  0.00  0.00    -0.368 OA
BRANCH   7   8
ATOM      8  C   LIG d   1      -6.012  79.603 117.814  0.00  0.00     0.119 C 
BRANCH   8   9
ATOM      9  C   LIG d   1      -6.784  80.929 117.668  0.00  0.00     0.028 C 
ATOM     10  C   LIG d   1      -8.296  80.754 117.882  0.00  0.00     0.006 C 
ENDBRANCH   8   9
BRANCH   8  11
ATOM     11  C   LIG d   1      -4.901  79.891 118.828  0.00  0.00     0.028 C 
ATOM     12  C   LIG d   1      -4.681  78.733 119.815  0.00  0.00     0.006 C 
ENDBRANCH   8  11
ENDBRANCH   7   8
ENDBRANCH   1   7
BRANCH   6  13
ATOM     13  N   LIG d   1      -3.345  77.504 115.305  0.00  0.00    -0.311 N 
ATOM     14  C   LIG d   1      -3.529  77.298 114.003  0.00  0.00     0.210 C 
ATOM     15  C   LIG d   1      -2.380  77.765 113.105  0.00  0.00     0.109 C 
ATOM     16  O   LIG d   1      -4.550  76.801 113.503  0.00  0.00    -0.276 OA
ATOM     17  H   LIG d   1      -2.502  77.942 115.621  0.00  0.00     0.149 HD
ENDBRANCH   6  13
BRANCH   5  18
ATOM     18  N   LIG d   1      -3.400  74.794 116.716  0.00  0.00     0.381 N 
ATOM     19  H   LIG d   1      -2.655  75.408 116.980  0.00  0.00    -0.090 HD
ATOM     20  H   LIG d   1      -3.104  74.268 115.912  0.00  0.00    -0.090 HD
ATOM     21  H   LIG d   1      -3.613  74.176 117.467  0.00  0.00    -0.090 HD
ENDBRANCH   5  18
BRANCH   3  22
ATOM     22  C   LIG d   1      -8.048  75.521 117.614  0.00  0.00     0.382 C 
ATOM     23  O   LIG d   1      -9.046  76.267 117.759  0.00  0.00    -0.241 OA
ATOM     24  O   LIG d   1      -8.152  74.304 117.856  0.00  0.00    -0.241 OA
ENDBRANCH   3  22
TORSDOF 7
ENDMDL
MODEL 7
REMARK VINA RESULT:      -4.2      4.038      5.963
REMARK  7 active torsions:
REMARK  status: ('A' for Active; 'I' for Inactive)
REMARK    1  A    between atoms: C_2  and  C_3 
REMARK    2  A    between atoms: C_3  and  O_6 
REMARK    3  A    between atoms: C_3  and  C_4 
REMARK    4  A    between atoms: C_7  and  O_6 
REMARK    5  A    between atoms: C_9  and  C_10 
REMARK    6  A    between atoms: N_15  and  C_14 
REMARK    7  A    between atoms: N_20  and  C_19 
REMARK       I    between atoms: C_22  and  N_20 
ROOT
ATOM      1  C   LIG d   1      -5.363  78.319 117.024  0.00  0.00     0.161 C 
ATOM      2  C   LIG d   1      -5.914  79.579 117.311  0.00  0.00     0.016 C 
ATOM      3  C   LIG d   1      -7.265  79.772 117.677  0.00  0.00     0.038 C 
ATOM      4  C   LIG d   1      -8.127  78.694 117.930  0.00  0.00     0.028 C 
ATOM      5  C   LIG d   1      -7.754  77.429 117.165  0.00  0.00    -0.047 C 
ATOM      6  C   LIG d   1      -6.258  77.120 117.402  0.00  0.00     0.091 C 
ENDROOT
BRANCH   1   7
ATOM      7  O   LIG d   1      -4.071  78.196 117.650  0.00  0.00    -0.368 OA
BRANCH   7   8
ATOM      8  C   LIG d   1      -2.926  78.250 116.764  0.00  0.00     0.119 C 
BRANCH   8   9
ATOM      9  C   LIG d   1      -3.436  78.672 115.372  0.00  0.00     0.028 C 
ATOM     10  C   LIG d   1      -2.856  77.800 114.246  0.00  0.00     0.006 C 
ENDBRANCH   8   9
BRANCH   8  11
ATOM     11  C   LIG d   1      -2.309  76.862 116.566  0.00  0.00     0.028 C 
ATOM     12  C   LIG d   1      -2.393  75.987 117.827  0.00  0.00     0.006 C 
ENDBRANCH   8  11
ENDBRANCH   7   8
ENDBRANCH   1   7
BRANCH   6  13
ATOM     13  N   LIG d   1      -5.791  75.945 116.622  0.00  0.00    -0.311 N 
ATOM     14  C   LIG d   1      -5.874  75.866 115.295  0.00  0.00     0.210 C 
ATOM     15  C   LIG d   1      -5.353  74.559 114.691  0.00  0.00     0.109 C 
ATOM     16  O   LIG d   1      -6.301  76.768 114.558  0.00  0.00    -0.276 OA
ATOM     17  H   LIG d   1      -5.402  75.180 117.138  0.00  0.00     0.149 HD
ENDBRANCH   6  13
BRANCH   5  18
ATOM     18  N   LIG d   1      -8.648  76.350 117.626  0.00  0.00     0.381 N 
ATOM     19  H   LIG d   1      -8.525  76.205 118.608  0.00  0.00    -0.090 HD
ATOM     20  H   LIG d   1      -8.404  75.500 117.149  0.00  0.00    -0.090 HD
ATOM     21  H   LIG d   1      -9.596  76.587 117.434  0.00  0.00    -0.090 HD
ENDBRANCH   5  18
BRANCH   3  22
ATOM     22  C   LIG d   1      -7.779  81.058 117.755  0.00  0.00     0.382 C 
ATOM     23  O   LIG d   1      -7.570  81.874 116.825  0.00  0.00    -0.241 OA
ATOM     24  O   LIG d   1      -8.411  81.426 118.763  0.00  0.00    -0.241 OA
ENDBRANCH   3  22
TORSDOF 7
ENDMDL
MODEL 8
REMARK VINA RESULT:      -4.1      1.913      2.552
REMARK  7 active torsions:
REMARK  status: ('A' for Active; 'I' for Inactive)
REMARK    1  A    between atoms: C_2  and  C_3 
REMARK    2  A    between atoms: C_3  and  O_6 
REMARK    3  A    between atoms: C_3  and  C_4 
REMARK    4  A    between atoms: C_7  and  O_6 
REMARK    5  A    between atoms: C_9  and  C_10 
REMARK    6  A    between atoms: N_15  and  C_14 
REMARK    7  A    between atoms: N_20  and  C_19 
REMARK       I    between atoms: C_22  and  N_20 
ROOT
ATOM      1  C   LIG d   1      -2.808  76.079 117.014  0.00  0.00     0.161 C 
ATOM      2  C   LIG d   1      -3.232  77.063 116.106  0.00  0.00     0.016 C 
ATOM      3  C   LIG d   1      -2.644  77.253 114.834  0.00  0.00     0.038 C 
ATOM      4  C   LIG d   1      -1.687  76.366 114.320  0.00  0.00     0.028 C 
ATOM      5  C   LIG d   1      -0.872  75.662 115.400  0.00  0.00    -0.047 C 
ATOM      6  C   LIG d   1      -1.840  75.031 116.427  0.00  0.00     0.091 C 
ENDROOT
BRANCH   1   7
ATOM      7  O   LIG d   1      -3.954  75.429 117.600  0.00  0.00    -0.368 OA
BRANCH   7   8
ATOM      8  C   LIG d   1      -5.182  75.491 116.834  0.00  0.00     0.119 C 
BRANCH   8   9
ATOM      9  C   LIG d   1      -6.346  75.621 117.836  0.00  0.00     0.028 C 
ATOM     10  C   LIG d   1      -7.180  76.892 117.604  0.00  0.00     0.006 C 
ENDBRANCH   8   9
BRANCH   8  11
ATOM     11  C   LIG d   1      -5.438  74.180 116.084  0.00  0.00     0.028 C 
ATOM     12  C   LIG d   1      -5.621  74.385 114.572  0.00  0.00     0.006 C 
ENDBRANCH   8  11
ENDBRANCH   7   8
ENDBRANCH   1   7
BRANCH   6  13
ATOM     13  N   LIG d   1      -1.124  74.394 117.563  0.00  0.00    -0.311 N 
ATOM     14  C   LIG d   1      -0.220  75.028 118.308  0.00  0.00     0.210 C 
ATOM     15  C   LIG d   1       0.413  74.180 119.416  0.00  0.00     0.109 C 
ATOM     16  O   LIG d   1       0.093  76.220 118.178  0.00  0.00    -0.276 OA
ATOM     17  H   LIG d   1      -1.341  73.436 117.759  0.00  0.00     0.149 HD
ENDBRANCH   6  13
BRANCH   5  18
ATOM     18  N   LIG d   1      -0.010  74.669 114.731  0.00  0.00     0.381 N 
ATOM     19  H   LIG d   1      -0.572  74.040 114.193  0.00  0.00    -0.090 HD
ATOM     20  H   LIG d   1       0.476  74.136 115.431  0.00  0.00    -0.090 HD
ATOM     21  H   LIG d   1       0.645  75.130 114.140  0.00  0.00    -0.090 HD
ENDBRANCH   5  18
BRANCH   3  22
ATOM     22  C   LIG d   1      -2.986  78.364 114.078  0.00  0.00     0.382 C 
ATOM     23  O   LIG d   1      -3.131  78.257 112.836  0.00  0.00    -0.241 OA
ATOM     24  O   LIG d   1      -3.108  79.481 114.616  0.00  0.00    -0.241 OA
ENDBRANCH   3  22
TORSDOF 7
ENDMDL
MODEL 9
REMARK VINA RESULT:      -3.9      2.432      4.021
REMARK  7 active torsions:
REMARK  status: ('A' for Active; 'I' for Inactive)
REMARK    1  A    between atoms: C_2  and  C_3 
REMARK    2  A    between atoms: C_3  and  O_6 
REMARK    3  A    between atoms: C_3  and  C_4 
REMARK    4  A    between atoms: C_7  and  O_6 
REMARK    5  A    between atoms: C_9  and  C_10 
REMARK    6  A    between atoms: N_15  and  C_14 
REMARK    7  A    between atoms: N_20  and  C_19 
REMARK       I    between atoms: C_22  and  N_20 
ROOT
ATOM      1  C   LIG d   1      -1.817  77.584 115.302  0.00  0.00     0.161 C 
ATOM      2  C   LIG d   1      -0.745  78.454 115.044  0.00  0.00     0.016 C 
ATOM      3  C   LIG d   1      -0.558  79.113 113.808  0.00  0.00     0.038 C 
ATOM      4  C   LIG d   1      -1.521  79.064 112.788  0.00  0.00     0.028 C 
ATOM      5  C   LIG d   1      -2.368  77.796 112.816  0.00  0.00    -0.047 C 
ATOM      6  C   LIG d   1      -2.937  77.604 114.241  0.00  0.00     0.091 C 
ENDROOT
BRANCH   1   7
ATOM      7  O   LIG d   1      -2.361  77.853 116.610  0.00  0.00    -0.368 OA
BRANCH   7   8
ATOM      8  C   LIG d   1      -2.110  76.848 117.623  0.00  0.00     0.119 C 
BRANCH   8   9
ATOM      9  C   LIG d   1      -1.146  75.810 117.018  0.00  0.00     0.028 C 
ATOM     10  C   LIG d   1       0.201  75.758 117.759  0.00  0.00     0.006 C 
ENDBRANCH   8   9
BRANCH   8  11
ATOM     11  C   LIG d   1      -3.384  76.069 117.963  0.00  0.00     0.028 C 
ATOM     12  C   LIG d   1      -3.266  74.569 117.650  0.00  0.00     0.006 C 
ENDBRANCH   8  11
ENDBRANCH   7   8
ENDBRANCH   1   7
BRANCH   6  13
ATOM     13  N   LIG d   1      -3.709  76.342 114.377  0.00  0.00    -0.311 N 
ATOM     14  C   LIG d   1      -5.009  76.306 114.664  0.00  0.00     0.210 C 
ATOM     15  C   LIG d   1      -5.607  74.900 114.779  0.00  0.00     0.109 C 
ATOM     16  O   LIG d   1      -5.731  77.305 114.802  0.00  0.00    -0.276 OA
ATOM     17  H   LIG d   1      -3.208  75.485 114.250  0.00  0.00     0.149 HD
ENDBRANCH   6  13
BRANCH   5  18
ATOM     18  N   LIG d   1      -3.417  77.939 111.789  0.00  0.00     0.381 N 
ATOM     19  H   LIG d   1      -4.096  77.211 111.895  0.00  0.00    -0.090 HD
ATOM     20  H   LIG d   1      -2.997  77.849 110.881  0.00  0.00    -0.090 HD
ATOM     21  H   LIG d   1      -3.858  78.829 111.873  0.00  0.00    -0.090 HD
ENDBRANCH   5  18
BRANCH   3  22
ATOM     22  C   LIG d   1       0.622  79.800 113.566  0.00  0.00     0.382 C 
ATOM     23  O   LIG d   1       1.208  79.673 112.464  0.00  0.00    -0.241 OA
ATOM     24  O   LIG d   1       1.132  80.511 114.453  0.00  0.00    -0.241 OA
ENDBRANCH   3  22
TORSDOF 7
ENDMDL
