MODEL 1
REMARK VINA RESULT:      -5.0      0.000      0.000
REMARK  7 active torsions:
REMARK  status: ('A' for Active; 'I' for Inactive)
REMARK    1  A    between atoms: C_2  and  C_3 
REMARK    2  A    between atoms: C_3  and  O_6 
REMARK    3  A    between atoms: C_3  and  C_4 
REMARK    4  A    between atoms: C_7  and  O_6 
REMARK    5  A    between atoms: C_9  and  C_10 
REMARK    6  A    between atoms: N_15  and  C_14 
REMARK    7  A    between atoms: N_20  and  C_19 
REMARK       I    between atoms: C_22  and  N_20 
ROOT
ATOM      1  C   LIG d   1       0.030  81.028 113.224  0.00  0.00     0.161 C 
ATOM      2  C   LIG d   1      -0.588  79.973 112.533  0.00  0.00     0.016 C 
ATOM      3  C   LIG d   1      -1.952  79.636 112.688  0.00  0.00     0.038 C 
ATOM      4  C   LIG d   1      -2.833  80.431 113.437  0.00  0.00     0.028 C 
ATOM      5  C   LIG d   1      -2.145  81.210 114.552  0.00  0.00    -0.047 C 
ATOM      6  C   LIG d   1      -0.940  81.976 113.960  0.00  0.00     0.091 C 
ENDROOT
BRANCH   1   7
ATOM      7  O   LIG d   1       0.873  81.775 112.324  0.00  0.00    -0.368 OA
BRANCH   7   8
ATOM      8  C   LIG d   1       0.222  82.333 111.156  0.00  0.00     0.119 C 
BRANCH   8   9
ATOM      9  C   LIG d   1       1.114  82.028 109.938  0.00  0.00     0.028 C 
ATOM     10  C   LIG d   1       0.942  80.587 109.430  0.00  0.00     0.006 C 
ENDBRANCH   8   9
BRANCH   8  11
ATOM     11  C   LIG d   1       0.151  83.861 111.235  0.00  0.00     0.028 C 
ATOM     12  C   LIG d   1       0.580  84.546 109.928  0.00  0.00     0.006 C 
ENDBRANCH   8  11
ENDBRANCH   7   8
ENDBRANCH   1   7
BRANCH   6  13
ATOM     13  N   LIG d   1      -0.161  82.698 115.000  0.00  0.00    -0.311 N 
ATOM     14  C   LIG d   1      -0.383  83.969 115.331  0.00  0.00     0.210 C 
ATOM     15  C   LIG d   1       0.547  84.527 116.414  0.00  0.00     0.109 C 
ATOM     16  O   LIG d   1      -1.282  84.678 114.855  0.00  0.00    -0.276 OA
ATOM     17  H   LIG d   1       0.569  82.189 115.459  0.00  0.00     0.149 HD
ENDBRANCH   6  13
BRANCH   5  18
ATOM     18  N   LIG d   1      -3.152  82.100 115.161  0.00  0.00     0.381 N 
ATOM     19  H   LIG d   1      -3.029  83.033 114.823  0.00  0.00    -0.090 HD
ATOM     20  H   LIG d   1      -3.021  82.105 116.157  0.00  0.00    -0.090 HD
ATOM     21  H   LIG d   1      -4.069  81.777 114.942  0.00  0.00    -0.090 HD
ENDBRANCH   5  18
BRANCH   3  22
ATOM     22  C   LIG d   1      -2.440  78.468 112.122  0.00  0.00     0.382 C 
ATOM     23  O   LIG d   1      -1.866  77.967 111.124  0.00  0.00    -0.241 OA
ATOM     24  O   LIG d   1      -3.472  77.932 112.568  0.00  0.00    -0.241 OA
ENDBRANCH   3  22
TORSDOF 7
ENDMDL
MODEL 2
REMARK VINA RESULT:      -4.9      6.878      9.083
REMARK  7 active torsions:
REMARK  status: ('A' for Active; 'I' for Inactive)
REMARK    1  A    between atoms: C_2  and  C_3 
REMARK    2  A    between atoms: C_3  and  O_6 
REMARK    3  A    between atoms: C_3  and  C_4 
REMARK    4  A    between atoms: C_7  and  O_6 
REMARK    5  A    between atoms: C_9  and  C_10 
REMARK    6  A    between atoms: N_15  and  C_14 
REMARK    7  A    between atoms: N_20  and  C_19 
REMARK       I    between atoms: C_22  and  N_20 
ROOT
ATOM      1  C   LIG d   1      -6.316  77.848 117.275  0.00  0.00     0.161 C 
ATOM      2  C   LIG d   1      -7.316  78.833 117.324  0.00  0.00     0.016 C 
ATOM      3  C   LIG d   1      -7.059  80.190 117.629  0.00  0.00     0.038 C 
ATOM      4  C   LIG d   1      -5.753  80.685 117.759  0.00  0.00     0.028 C 
ATOM      5  C   LIG d   1      -4.748  79.633 118.216  0.00  0.00    -0.047 C 
ATOM      6  C   LIG d   1      -4.872  78.391 117.304  0.00  0.00     0.091 C 
ENDROOT
BRANCH   1   7
ATOM      7  O   LIG d   1      -6.512  77.009 116.119  0.00  0.00    -0.368 OA
BRANCH   7   8
ATOM      8  C   LIG d   1      -6.988  75.666 116.380  0.00  0.00     0.119 C 
BRANCH   8   9
ATOM      9  C   LIG d   1      -6.387  74.744 115.301  0.00  0.00     0.028 C 
ATOM     10  C   LIG d   1      -5.207  75.397 114.562  0.00  0.00     0.006 C 
ENDBRANCH   8   9
BRANCH   8  11
ATOM     11  C   LIG d   1      -8.506  75.567 116.198  0.00  0.00     0.028 C 
ATOM     12  C   LIG d   1      -9.060  74.180 116.559  0.00  0.00     0.006 C 
ENDBRANCH   8  11
ENDBRANCH   7   8
ENDBRANCH   1   7
BRANCH   6  13
ATOM     13  N   LIG d   1      -3.982  77.281 117.734  0.00  0.00    -0.311 N 
ATOM     14  C   LIG d   1      -2.940  76.858 117.021  0.00  0.00     0.210 C 
ATOM     15  C   LIG d   1      -2.167  75.687 117.637  0.00  0.00     0.109 C 
ATOM     16  O   LIG d   1      -2.563  77.362 115.952  0.00  0.00    -0.276 OA
ATOM     17  H   LIG d   1      -4.197  76.836 118.605  0.00  0.00     0.149 HD
ENDBRANCH   6  13
BRANCH   5  18
ATOM     18  N   LIG d   1      -3.408  80.249 118.176  0.00  0.00     0.381 N 
ATOM     19  H   LIG d   1      -2.859  79.818 117.460  0.00  0.00    -0.090 HD
ATOM     20  H   LIG d   1      -2.953  80.095 119.058  0.00  0.00    -0.090 HD
ATOM     21  H   LIG d   1      -3.487  81.227 118.001  0.00  0.00    -0.090 HD
ENDBRANCH   5  18
BRANCH   3  22
ATOM     22  C   LIG d   1      -8.117  81.058 117.847  0.00  0.00     0.382 C 
ATOM     23  O   LIG d   1      -8.596  81.185 119.000  0.00  0.00    -0.241 OA
ATOM     24  O   LIG d   1      -8.629  81.682 116.898  0.00  0.00    -0.241 OA
ENDBRANCH   3  22
TORSDOF 7
ENDMDL
MODEL 3
REMARK VINA RESULT:      -4.9      3.606      6.954
REMARK  7 active torsions:
REMARK  status: ('A' for Active; 'I' for Inactive)
REMARK    1  A    between atoms: C_2  and  C_3 
REMARK    2  A    between atoms: C_3  and  O_6 
REMARK    3  A    between atoms: C_3  and  C_4 
REMARK    4  A    between atoms: C_7  and  O_6 
REMARK    5  A    between atoms: C_9  and  C_10 
REMARK    6  A    between atoms: N_15  and  C_14 
REMARK    7  A    between atoms: N_20  and  C_19 
REMARK       I    between atoms: C_22  and  N_20 
ROOT
ATOM      1  C   LIG d   1      -2.264  78.091 114.365  0.00  0.00     0.161 C 
ATOM      2  C   LIG d   1      -2.940  78.663 115.456  0.00  0.00     0.016 C 
ATOM      3  C   LIG d   1      -3.132  80.055 115.609  0.00  0.00     0.038 C 
ATOM      4  C   LIG d   1      -2.791  80.966 114.599  0.00  0.00     0.028 C 
ATOM      5  C   LIG d   1      -1.652  80.483 113.706  0.00  0.00    -0.047 C 
ATOM      6  C   LIG d   1      -1.982  79.061 113.198  0.00  0.00     0.091 C 
ENDROOT
BRANCH   1   7
ATOM      7  O   LIG d   1      -2.986  76.936 113.893  0.00  0.00    -0.368 OA
BRANCH   7   8
ATOM      8  C   LIG d   1      -3.808  76.255 114.873  0.00  0.00     0.119 C 
BRANCH   8   9
ATOM      9  C   LIG d   1      -3.064  74.972 115.289  0.00  0.00     0.028 C 
ATOM     10  C   LIG d   1      -2.532  75.043 116.731  0.00  0.00     0.006 C 
ENDBRANCH   8   9
BRANCH   8  11
ATOM     11  C   LIG d   1      -5.127  75.778 114.258  0.00  0.00     0.028 C 
ATOM     12  C   LIG d   1      -5.923  74.856 115.196  0.00  0.00     0.006 C 
ENDBRANCH   8  11
ENDBRANCH   7   8
ENDBRANCH   1   7
BRANCH   6  13
ATOM     13  N   LIG d   1      -0.882  78.480 112.386  0.00  0.00    -0.311 N 
ATOM     14  C   LIG d   1      -1.048  78.026 111.144  0.00  0.00     0.210 C 
ATOM     15  C   LIG d   1       0.213  77.449 110.493  0.00  0.00     0.109 C 
ATOM     16  O   LIG d   1      -2.112  78.077 110.509  0.00  0.00    -0.276 OA
ATOM     17  H   LIG d   1       0.022  78.428 112.813  0.00  0.00     0.149 HD
ENDBRANCH   6  13
BRANCH   5  18
ATOM     18  N   LIG d   1      -1.494  81.464 112.616  0.00  0.00     0.381 N 
ATOM     19  H   LIG d   1      -0.747  82.094 112.833  0.00  0.00    -0.090 HD
ATOM     20  H   LIG d   1      -2.341  81.996 112.532  0.00  0.00    -0.090 HD
ATOM     21  H   LIG d   1      -1.302  80.993 111.759  0.00  0.00    -0.090 HD
ENDBRANCH   5  18
BRANCH   3  22
ATOM     22  C   LIG d   1      -3.635  80.552 116.802  0.00  0.00     0.382 C 
ATOM     23  O   LIG d   1      -3.022  80.344 117.876  0.00  0.00    -0.241 OA
ATOM     24  O   LIG d   1      -4.718  81.168 116.823  0.00  0.00    -0.241 OA
ENDBRANCH   3  22
TORSDOF 7
ENDMDL
MODEL 4
REMARK VINA RESULT:      -4.8      2.117      4.580
REMARK  7 active torsions:
REMARK  status: ('A' for Active; 'I' for Inactive)
REMARK    1  A    between atoms: C_2  and  C_3 
REMARK    2  A    between atoms: C_3  and  O_6 
REMARK    3  A    between atoms: C_3  and  C_4 
REMARK    4  A    between atoms: C_7  and  O_6 
REMARK    5  A    between atoms: C_9  and  C_10 
REMARK    6  A    between atoms: N_15  and  C_14 
REMARK    7  A    between atoms: N_20  and  C_19 
REMARK       I    between atoms: C_22  and  N_20 
ROOT
ATOM      1  C   LIG d   1      -2.368  81.645 113.523  0.00  0.00     0.161 C 
ATOM      2  C   LIG d   1      -2.743  80.453 114.166  0.00  0.00     0.016 C 
ATOM      3  C   LIG d   1      -2.042  79.235 114.018  0.00  0.00     0.038 C 
ATOM      4  C   LIG d   1      -0.821  79.161 113.330  0.00  0.00     0.028 C 
ATOM      5  C   LIG d   1      -0.671  80.223 112.246  0.00  0.00    -0.047 C 
ATOM      6  C   LIG d   1      -0.976  81.610 112.857  0.00  0.00     0.091 C 
ENDROOT
BRANCH   1   7
ATOM      7  O   LIG d   1      -2.454  82.747 114.447  0.00  0.00    -0.368 OA
BRANCH   7   8
ATOM      8  C   LIG d   1      -1.841  82.541 115.744  0.00  0.00     0.119 C 
BRANCH   8   9
ATOM      9  C   LIG d   1      -2.912  82.833 116.813  0.00  0.00     0.028 C 
ATOM     10  C   LIG d   1      -2.312  82.964 118.223  0.00  0.00     0.006 C 
ENDBRANCH   8   9
BRANCH   8  11
ATOM     11  C   LIG d   1      -0.724  83.557 116.000  0.00  0.00     0.028 C 
ATOM     12  C   LIG d   1      -0.683  84.676 114.947  0.00  0.00     0.006 C 
ENDBRANCH   8  11
ENDBRANCH   7   8
ENDBRANCH   1   7
BRANCH   6  13
ATOM     13  N   LIG d   1      -0.935  82.697 111.845  0.00  0.00    -0.311 N 
ATOM     14  C   LIG d   1       0.149  83.433 111.604  0.00  0.00     0.210 C 
ATOM     15  C   LIG d   1      -0.029  84.514 110.533  0.00  0.00     0.109 C 
ATOM     16  O   LIG d   1       1.250  83.271 112.151  0.00  0.00    -0.276 OA
ATOM     17  H   LIG d   1      -1.776  82.875 111.332  0.00  0.00     0.149 HD
ENDBRANCH   6  13
BRANCH   5  18
ATOM     18  N   LIG d   1       0.697  80.118 111.705  0.00  0.00     0.381 N 
ATOM     19  H   LIG d   1       1.362  80.212 112.446  0.00  0.00    -0.090 HD
ATOM     20  H   LIG d   1       0.846  80.865 111.051  0.00  0.00    -0.090 HD
ATOM     21  H   LIG d   1       0.817  79.239 111.251  0.00  0.00    -0.090 HD
ENDBRANCH   5  18
BRANCH   3  22
ATOM     22  C   LIG d   1      -2.582  78.064 114.528  0.00  0.00     0.382 C 
ATOM     23  O   LIG d   1      -3.512  78.117 115.369  0.00  0.00    -0.241 OA
ATOM     24  O   LIG d   1      -2.122  76.957 114.192  0.00  0.00    -0.241 OA
ENDBRANCH   3  22
TORSDOF 7
ENDMDL
MODEL 5
REMARK VINA RESULT:      -4.7      2.011      4.278
REMARK  7 active torsions:
REMARK  status: ('A' for Active; 'I' for Inactive)
REMARK    1  A    between atoms: C_2  and  C_3 
REMARK    2  A    between atoms: C_3  and  O_6 
REMARK    3  A    between atoms: C_3  and  C_4 
REMARK    4  A    between atoms: C_7  and  O_6 
REMARK    5  A    between atoms: C_9  and  C_10 
REMARK    6  A    between atoms: N_15  and  C_14 
REMARK    7  A    between atoms: N_20  and  C_19 
REMARK       I    between atoms: C_22  and  N_20 
ROOT
ATOM      1  C   LIG d   1      -1.082  81.551 113.527  0.00  0.00     0.161 C 
ATOM      2  C   LIG d   1      -1.974  80.498 113.786  0.00  0.00     0.016 C 
ATOM      3  C   LIG d   1      -1.905  79.243 113.138  0.00  0.00     0.038 C 
ATOM      4  C   LIG d   1      -0.840  78.903 112.291  0.00  0.00     0.028 C 
ATOM      5  C   LIG d   1      -0.197  80.108 111.613  0.00  0.00    -0.047 C 
ATOM      6  C   LIG d   1       0.154  81.162 112.688  0.00  0.00     0.091 C 
ENDROOT
BRANCH   1   7
ATOM      7  O   LIG d   1      -0.673  82.162 114.767  0.00  0.00    -0.368 OA
BRANCH   7   8
ATOM      8  C   LIG d   1      -1.486  83.267 115.231  0.00  0.00     0.119 C 
BRANCH   8   9
ATOM      9  C   LIG d   1      -0.763  84.571 114.839  0.00  0.00     0.028 C 
ATOM     10  C   LIG d   1       0.754  84.494 115.077  0.00  0.00     0.006 C 
ENDBRANCH   8   9
BRANCH   8  11
ATOM     11  C   LIG d   1      -1.569  83.294 116.760  0.00  0.00     0.028 C 
ATOM     12  C   LIG d   1      -2.922  82.794 117.292  0.00  0.00     0.006 C 
ENDBRANCH   8  11
ENDBRANCH   7   8
ENDBRANCH   1   7
BRANCH   6  13
ATOM     13  N   LIG d   1       0.710  82.408 112.100  0.00  0.00    -0.311 N 
ATOM     14  C   LIG d   1      -0.025  83.292 111.426  0.00  0.00     0.210 C 
ATOM     15  C   LIG d   1       0.750  84.499 110.887  0.00  0.00     0.109 C 
ATOM     16  O   LIG d   1      -1.250  83.207 111.252  0.00  0.00    -0.276 OA
ATOM     17  H   LIG d   1       1.690  82.572 112.221  0.00  0.00     0.149 HD
ENDBRANCH   6  13
BRANCH   5  18
ATOM     18  N   LIG d   1       0.982  79.625 110.870  0.00  0.00     0.381 N 
ATOM     19  H   LIG d   1       1.218  78.701 111.172  0.00  0.00    -0.090 HD
ATOM     20  H   LIG d   1       1.761  80.229 111.067  0.00  0.00    -0.090 HD
ATOM     21  H   LIG d   1       0.793  79.624 109.892  0.00  0.00    -0.090 HD
ENDBRANCH   5  18
BRANCH   3  22
ATOM     22  C   LIG d   1      -2.932  78.326 113.305  0.00  0.00     0.382 C 
ATOM     23  O   LIG d   1      -3.574  77.915 112.308  0.00  0.00    -0.241 OA
ATOM     24  O   LIG d   1      -3.254  77.938 114.444  0.00  0.00    -0.241 OA
ENDBRANCH   3  22
TORSDOF 7
ENDMDL
MODEL 6
REMARK VINA RESULT:      -4.7      2.441      4.607
REMARK  7 active torsions:
REMARK  status: ('A' for Active; 'I' for Inactive)
REMARK    1  A    between atoms: C_2  and  C_3 
REMARK    2  A    between atoms: C_3  and  O_6 
REMARK    3  A    between atoms: C_3  and  C_4 
REMARK    4  A    between atoms: C_7  and  O_6 
REMARK    5  A    between atoms: C_9  and  C_10 
REMARK    6  A    between atoms: N_15  and  C_14 
REMARK    7  A    between atoms: N_20  and  C_19 
REMARK       I    between atoms: C_22  and  N_20 
ROOT
ATOM      1  C   LIG d   1      -2.200  81.596 113.242  0.00  0.00     0.161 C 
ATOM      2  C   LIG d   1      -2.894  81.811 114.444  0.00  0.00     0.016 C 
ATOM      3  C   LIG d   1      -2.789  80.959 115.567  0.00  0.00     0.038 C 
ATOM      4  C   LIG d   1      -1.859  79.909 115.616  0.00  0.00     0.028 C 
ATOM      5  C   LIG d   1      -1.502  79.351 114.243  0.00  0.00    -0.047 C 
ATOM      6  C   LIG d   1      -1.097  80.519 113.316  0.00  0.00     0.091 C 
ENDROOT
BRANCH   1   7
ATOM      7  O   LIG d   1      -1.654  82.840 112.763  0.00  0.00    -0.368 OA
BRANCH   7   8
ATOM      8  C   LIG d   1      -0.428  83.284 113.396  0.00  0.00     0.119 C 
BRANCH   8   9
ATOM      9  C   LIG d   1      -0.795  84.422 114.368  0.00  0.00     0.028 C 
ATOM     10  C   LIG d   1      -0.347  84.129 115.810  0.00  0.00     0.006 C 
ENDBRANCH   8   9
BRANCH   8  11
ATOM     11  C   LIG d   1       0.528  83.913 112.378  0.00  0.00     0.028 C 
ATOM     12  C   LIG d   1      -0.037  83.912 110.949  0.00  0.00     0.006 C 
ENDBRANCH   8  11
ENDBRANCH   7   8
ENDBRANCH   1   7
BRANCH   6  13
ATOM     13  N   LIG d   1      -0.813  80.069 111.928  0.00  0.00    -0.311 N 
ATOM     14  C   LIG d   1       0.372  80.215 111.338  0.00  0.00     0.210 C 
ATOM     15  C   LIG d   1       0.445  79.700 109.897  0.00  0.00     0.109 C 
ATOM     16  O   LIG d   1       1.379  80.691 111.883  0.00  0.00    -0.276 OA
ATOM     17  H   LIG d   1      -1.566  79.643 111.424  0.00  0.00     0.149 HD
ENDBRANCH   6  13
BRANCH   5  18
ATOM     18  N   LIG d   1      -0.425  78.361 114.431  0.00  0.00     0.381 N 
ATOM     19  H   LIG d   1      -0.658  77.745 115.184  0.00  0.00    -0.090 HD
ATOM     20  H   LIG d   1       0.423  78.845 114.670  0.00  0.00    -0.090 HD
ATOM     21  H   LIG d   1      -0.292  77.838 113.593  0.00  0.00    -0.090 HD
ENDBRANCH   5  18
BRANCH   3  22
ATOM     22  C   LIG d   1      -3.648  81.129 116.641  0.00  0.00     0.382 C 
ATOM     23  O   LIG d   1      -4.797  80.626 116.611  0.00  0.00    -0.241 OA
ATOM     24  O   LIG d   1      -3.305  81.816 117.622  0.00  0.00    -0.241 OA
ENDBRANCH   3  22
TORSDOF 7
ENDMDL
MODEL 7
REMARK VINA RESULT:      -4.6      3.175      6.455
REMARK  7 active torsions:
REMARK  status: ('A' for Active; 'I' for Inactive)
REMARK    1  A    between atoms: C_2  and  C_3 
REMARK    2  A    between atoms: C_3  and  O_6 
REMARK    3  A    between atoms: C_3  and  C_4 
REMARK    4  A    between atoms: C_7  and  O_6 
REMARK    5  A    between atoms: C_9  and  C_10 
REMARK    6  A    between atoms: N_15  and  C_14 
REMARK    7  A    between atoms: N_20  and  C_19 
REMARK       I    between atoms: C_22  and  N_20 
ROOT
ATOM      1  C   LIG d   1      -2.476  80.645 115.086  0.00  0.00     0.161 C 
ATOM      2  C   LIG d   1      -2.057  81.780 114.373  0.00  0.00     0.016 C 
ATOM      3  C   LIG d   1      -1.366  81.714 113.141  0.00  0.00     0.038 C 
ATOM      4  C   LIG d   1      -1.177  80.502 112.461  0.00  0.00     0.028 C 
ATOM      5  C   LIG d   1      -1.136  79.289 113.384  0.00  0.00    -0.047 C 
ATOM      6  C   LIG d   1      -2.377  79.318 114.306  0.00  0.00     0.091 C 
ENDROOT
BRANCH   1   7
ATOM      7  O   LIG d   1      -3.818  80.841 115.573  0.00  0.00    -0.368 OA
BRANCH   7   8
ATOM      8  C   LIG d   1      -3.969  80.921 117.012  0.00  0.00     0.119 C 
BRANCH   8   9
ATOM      9  C   LIG d   1      -5.357  80.352 117.365  0.00  0.00     0.028 C 
ATOM     10  C   LIG d   1      -5.340  78.823 117.527  0.00  0.00     0.006 C 
ENDBRANCH   8   9
BRANCH   8  11
ATOM     11  C   LIG d   1      -3.993  82.376 117.490  0.00  0.00     0.028 C 
ATOM     12  C   LIG d   1      -2.716  82.777 118.244  0.00  0.00     0.006 C 
ENDBRANCH   8  11
ENDBRANCH   7   8
ENDBRANCH   1   7
BRANCH   6  13
ATOM     13  N   LIG d   1      -2.372  78.211 115.298  0.00  0.00    -0.311 N 
ATOM     14  C   LIG d   1      -3.065  77.085 115.144  0.00  0.00     0.210 C 
ATOM     15  C   LIG d   1      -2.936  76.083 116.295  0.00  0.00     0.109 C 
ATOM     16  O   LIG d   1      -3.750  76.807 114.148  0.00  0.00    -0.276 OA
ATOM     17  H   LIG d   1      -1.818  78.340 116.122  0.00  0.00     0.149 HD
ENDBRANCH   6  13
BRANCH   5  18
ATOM     18  N   LIG d   1      -1.074  78.085 112.535  0.00  0.00     0.381 N 
ATOM     19  H   LIG d   1      -0.489  77.396 112.966  0.00  0.00    -0.090 HD
ATOM     20  H   LIG d   1      -0.670  78.332 111.649  0.00  0.00    -0.090 HD
ATOM     21  H   LIG d   1      -1.989  77.715 112.400  0.00  0.00    -0.090 HD
ENDBRANCH   5  18
BRANCH   3  22
ATOM     22  C   LIG d   1      -0.819  82.867 112.598  0.00  0.00     0.382 C 
ATOM     23  O   LIG d   1      -1.185  83.259 111.463  0.00  0.00    -0.241 OA
ATOM     24  O   LIG d   1       0.067  83.494 113.208  0.00  0.00    -0.241 OA
ENDBRANCH   3  22
TORSDOF 7
ENDMDL
MODEL 8
REMARK VINA RESULT:      -4.5      4.237      7.451
REMARK  7 active torsions:
REMARK  status: ('A' for Active; 'I' for Inactive)
REMARK    1  A    between atoms: C_2  and  C_3 
REMARK    2  A    between atoms: C_3  and  O_6 
REMARK    3  A    between atoms: C_3  and  C_4 
REMARK    4  A    between atoms: C_7  and  O_6 
REMARK    5  A    between atoms: C_9  and  C_10 
REMARK    6  A    between atoms: N_15  and  C_14 
REMARK    7  A    between atoms: N_20  and  C_19 
REMARK       I    between atoms: C_22  and  N_20 
ROOT
ATOM      1  C   LIG d   1      -1.839  78.030 115.768  0.00  0.00     0.161 C 
ATOM      2  C   LIG d   1      -2.497  79.267 115.670  0.00  0.00     0.016 C 
ATOM      3  C   LIG d   1      -2.593  80.004 114.467  0.00  0.00     0.038 C 
ATOM      4  C   LIG d   1      -2.166  79.477 113.239  0.00  0.00     0.028 C 
ATOM      5  C   LIG d   1      -1.045  78.452 113.376  0.00  0.00    -0.047 C 
ATOM      6  C   LIG d   1      -1.463  77.388 114.416  0.00  0.00     0.091 C 
ENDROOT
BRANCH   1   7
ATOM      7  O   LIG d   1      -2.631  77.117 116.554  0.00  0.00    -0.368 OA
BRANCH   7   8
ATOM      8  C   LIG d   1      -4.060  77.151 116.323  0.00  0.00     0.119 C 
BRANCH   8   9
ATOM      9  C   LIG d   1      -4.745  77.348 117.689  0.00  0.00     0.028 C 
ATOM     10  C   LIG d   1      -6.138  76.699 117.746  0.00  0.00     0.006 C 
ENDBRANCH   8   9
BRANCH   8  11
ATOM     11  C   LIG d   1      -4.574  75.806 115.802  0.00  0.00     0.028 C 
ATOM     12  C   LIG d   1      -4.962  75.851 114.316  0.00  0.00     0.006 C 
ENDBRANCH   8  11
ENDBRANCH   7   8
ENDBRANCH   1   7
BRANCH   6  13
ATOM     13  N   LIG d   1      -0.389  76.394 114.674  0.00  0.00    -0.311 N 
ATOM     14  C   LIG d   1      -0.586  75.077 114.645  0.00  0.00     0.210 C 
ATOM     15  C   LIG d   1       0.651  74.231 114.959  0.00  0.00     0.109 C 
ATOM     16  O   LIG d   1      -1.662  74.529 114.359  0.00  0.00    -0.276 OA
ATOM     17  H   LIG d   1       0.522  76.751 114.883  0.00  0.00     0.149 HD
ENDBRANCH   6  13
BRANCH   5  18
ATOM     18  N   LIG d   1      -0.793  77.886 112.038  0.00  0.00     0.381 N 
ATOM     19  H   LIG d   1      -0.384  78.581 111.447  0.00  0.00    -0.090 HD
ATOM     20  H   LIG d   1      -1.668  77.604 111.634  0.00  0.00    -0.090 HD
ATOM     21  H   LIG d   1      -0.184  77.100 112.110  0.00  0.00    -0.090 HD
ENDBRANCH   5  18
BRANCH   3  22
ATOM     22  C   LIG d   1      -3.087  81.299 114.492  0.00  0.00     0.382 C 
ATOM     23  O   LIG d   1      -3.531  81.780 115.562  0.00  0.00    -0.241 OA
ATOM     24  O   LIG d   1      -3.135  81.977 113.448  0.00  0.00    -0.241 OA
ENDBRANCH   3  22
TORSDOF 7
ENDMDL
MODEL 9
REMARK VINA RESULT:      -4.4      5.568      7.560
REMARK  7 active torsions:
REMARK  status: ('A' for Active; 'I' for Inactive)
REMARK    1  A    between atoms: C_2  and  C_3 
REMARK    2  A    between atoms: C_3  and  O_6 
REMARK    3  A    between atoms: C_3  and  C_4 
REMARK    4  A    between atoms: C_7  and  O_6 
REMARK    5  A    between atoms: C_9  and  C_10 
REMARK    6  A    between atoms: N_15  and  C_14 
REMARK    7  A    between atoms: N_20  and  C_19 
REMARK       I    between atoms: C_22  and  N_20 
ROOT
ATOM      1  C   LIG d   1      -5.332  79.261 117.396  0.00  0.00     0.161 C 
ATOM      2  C   LIG d   1      -4.772  78.041 116.983  0.00  0.00     0.016 C 
ATOM      3  C   LIG d   1      -5.523  76.853 116.829  0.00  0.00     0.038 C 
ATOM      4  C   LIG d   1      -6.922  76.841 116.934  0.00  0.00     0.028 C 
ATOM      5  C   LIG d   1      -7.470  77.936 117.843  0.00  0.00    -0.047 C 
ATOM      6  C   LIG d   1      -6.875  79.294 117.408  0.00  0.00     0.091 C 
ENDROOT
BRANCH   1   7
ATOM      7  O   LIG d   1      -4.814  80.335 116.587  0.00  0.00    -0.368 OA
BRANCH   7   8
ATOM      8  C   LIG d   1      -3.732  81.106 117.166  0.00  0.00     0.119 C 
BRANCH   8   9
ATOM      9  C   LIG d   1      -3.905  81.067 118.697  0.00  0.00     0.028 C 
ATOM     10  C   LIG d   1      -4.267  82.443 119.282  0.00  0.00     0.006 C 
ENDBRANCH   8   9
BRANCH   8  11
ATOM     11  C   LIG d   1      -3.835  82.585 116.784  0.00  0.00     0.028 C 
ATOM     12  C   LIG d   1      -2.598  83.091 116.024  0.00  0.00     0.006 C 
ENDBRANCH   8  11
ENDBRANCH   7   8
ENDBRANCH   1   7
BRANCH   6  13
ATOM     13  N   LIG d   1      -7.294  80.408 118.297  0.00  0.00    -0.311 N 
ATOM     14  C   LIG d   1      -7.769  81.568 117.846  0.00  0.00     0.210 C 
ATOM     15  C   LIG d   1      -8.124  82.588 118.933  0.00  0.00     0.109 C 
ATOM     16  O   LIG d   1      -7.960  81.836 116.651  0.00  0.00    -0.276 OA
ATOM     17  H   LIG d   1      -7.202  80.263 119.284  0.00  0.00     0.149 HD
ENDBRANCH   6  13
BRANCH   5  18
ATOM     18  N   LIG d   1      -8.942  77.894 117.752  0.00  0.00     0.381 N 
ATOM     19  H   LIG d   1      -9.261  76.950 117.848  0.00  0.00    -0.090 HD
ATOM     20  H   LIG d   1      -9.222  78.231 116.848  0.00  0.00    -0.090 HD
ATOM     21  H   LIG d   1      -9.344  78.462 118.465  0.00  0.00    -0.090 HD
ENDBRANCH   5  18
BRANCH   3  22
ATOM     22  C   LIG d   1      -4.869  75.650 116.607  0.00  0.00     0.382 C 
ATOM     23  O   LIG d   1      -3.616  75.601 116.653  0.00  0.00    -0.241 OA
ATOM     24  O   LIG d   1      -5.513  74.625 116.317  0.00  0.00    -0.241 OA
ENDBRANCH   3  22
TORSDOF 7
ENDMDL
