MODEL 1
REMARK VINA RESULT:      -5.5      0.000      0.000
REMARK  7 active torsions:
REMARK  status: ('A' for Active; 'I' for Inactive)
REMARK    1  A    between atoms: C_2  and  C_3 
REMARK    2  A    between atoms: C_3  and  O_6 
REMARK    3  A    between atoms: C_3  and  C_4 
REMARK    4  A    between atoms: C_7  and  O_6 
REMARK    5  A    between atoms: C_9  and  C_10 
REMARK    6  A    between atoms: N_15  and  C_14 
REMARK    7  A    between atoms: N_20  and  C_19 
REMARK       I    between atoms: C_22  and  N_20 
ROOT
ATOM      1  C   LIG d   1      -3.298  76.711 115.728  0.00  0.00     0.161 C 
ATOM      2  C   LIG d   1      -3.537  77.215 114.439  0.00  0.00     0.016 C 
ATOM      3  C   LIG d   1      -2.517  77.425 113.484  0.00  0.00     0.038 C 
ATOM      4  C   LIG d   1      -1.198  77.000 113.702  0.00  0.00     0.028 C 
ATOM      5  C   LIG d   1      -0.814  76.950 115.177  0.00  0.00    -0.047 C 
ATOM      6  C   LIG d   1      -1.882  76.138 115.946  0.00  0.00     0.091 C 
ENDROOT
BRANCH   1   7
ATOM      7  O   LIG d   1      -4.294  75.724 116.060  0.00  0.00    -0.368 OA
BRANCH   7   8
ATOM      8  C   LIG d   1      -5.627  75.966 115.547  0.00  0.00     0.119 C 
BRANCH   8   9
ATOM      9  C   LIG d   1      -6.516  76.373 116.738  0.00  0.00     0.028 C 
ATOM     10  C   LIG d   1      -6.401  77.870 117.071  0.00  0.00     0.006 C 
ENDBRANCH   8   9
BRANCH   8  11
ATOM     11  C   LIG d   1      -6.253  74.682 114.994  0.00  0.00     0.028 C 
ATOM     12  C   LIG d   1      -7.433  74.182 115.842  0.00  0.00     0.006 C 
ENDBRANCH   8  11
ENDBRANCH   7   8
ENDBRANCH   1   7
BRANCH   6  13
ATOM     13  N   LIG d   1      -1.628  76.111 117.410  0.00  0.00    -0.311 N 
ATOM     14  C   LIG d   1      -0.936  75.147 118.016  0.00  0.00     0.210 C 
ATOM     15  C   LIG d   1      -0.809  75.301 119.535  0.00  0.00     0.109 C 
ATOM     16  O   LIG d   1      -0.389  74.197 117.436  0.00  0.00    -0.276 OA
ATOM     17  H   LIG d   1      -2.009  76.860 117.953  0.00  0.00     0.149 HD
ENDBRANCH   6  13
BRANCH   5  18
ATOM     18  N   LIG d   1       0.535  76.361 115.267  0.00  0.00     0.381 N 
ATOM     19  H   LIG d   1       0.893  76.473 116.195  0.00  0.00    -0.090 HD
ATOM     20  H   LIG d   1       1.145  76.847 114.633  0.00  0.00    -0.090 HD
ATOM     21  H   LIG d   1       0.502  75.394 115.031  0.00  0.00    -0.090 HD
ENDBRANCH   5  18
BRANCH   3  22
ATOM     22  C   LIG d   1      -2.804  78.103 112.309  0.00  0.00     0.382 C 
ATOM     23  O   LIG d   1      -2.763  77.499 111.210  0.00  0.00    -0.241 OA
ATOM     24  O   LIG d   1      -3.061  79.322 112.329  0.00  0.00    -0.241 OA
ENDBRANCH   3  22
TORSDOF 7
ENDMDL
MODEL 2
REMARK VINA RESULT:      -5.4      1.588      1.872
REMARK  7 active torsions:
REMARK  status: ('A' for Active; 'I' for Inactive)
REMARK    1  A    between atoms: C_2  and  C_3 
REMARK    2  A    between atoms: C_3  and  O_6 
REMARK    3  A    between atoms: C_3  and  C_4 
REMARK    4  A    between atoms: C_7  and  O_6 
REMARK    5  A    between atoms: C_9  and  C_10 
REMARK    6  A    between atoms: N_15  and  C_14 
REMARK    7  A    between atoms: N_20  and  C_19 
REMARK       I    between atoms: C_22  and  N_20 
ROOT
ATOM      1  C   LIG d   1      -2.311  78.195 116.228  0.00  0.00     0.161 C 
ATOM      2  C   LIG d   1      -2.693  79.027 115.163  0.00  0.00     0.016 C 
ATOM      3  C   LIG d   1      -2.236  78.851 113.836  0.00  0.00     0.038 C 
ATOM      4  C   LIG d   1      -1.482  77.732 113.454  0.00  0.00     0.028 C 
ATOM      5  C   LIG d   1      -0.656  77.141 114.591  0.00  0.00    -0.047 C 
ATOM      6  C   LIG d   1      -1.578  76.903 115.809  0.00  0.00     0.091 C 
ENDROOT
BRANCH   1   7
ATOM      7  O   LIG d   1      -3.462  77.877 117.036  0.00  0.00    -0.368 OA
BRANCH   7   8
ATOM      8  C   LIG d   1      -4.723  77.765 116.333  0.00  0.00     0.119 C 
BRANCH   8   9
ATOM      9  C   LIG d   1      -5.821  78.323 117.258  0.00  0.00     0.028 C 
ATOM     10  C   LIG d   1      -7.010  77.359 117.408  0.00  0.00     0.006 C 
ENDBRANCH   8   9
BRANCH   8  11
ATOM     11  C   LIG d   1      -5.100  76.299 116.096  0.00  0.00     0.028 C 
ATOM     12  C   LIG d   1      -4.933  75.871 114.629  0.00  0.00     0.006 C 
ENDBRANCH   8  11
ENDBRANCH   7   8
ENDBRANCH   1   7
BRANCH   6  13
ATOM     13  N   LIG d   1      -0.833  76.404 116.995  0.00  0.00    -0.311 N 
ATOM     14  C   LIG d   1      -0.681  75.111 117.274  0.00  0.00     0.210 C 
ATOM     15  C   LIG d   1       0.104  74.814 118.555  0.00  0.00     0.109 C 
ATOM     16  O   LIG d   1      -1.094  74.181 116.565  0.00  0.00    -0.276 OA
ATOM     17  H   LIG d   1      -0.438  77.091 117.607  0.00  0.00     0.149 HD
ENDBRANCH   6  13
BRANCH   5  18
ATOM     18  N   LIG d   1      -0.029  75.903 114.090  0.00  0.00     0.381 N 
ATOM     19  H   LIG d   1       0.796  75.703 114.619  0.00  0.00    -0.090 HD
ATOM     20  H   LIG d   1       0.236  76.038 113.131  0.00  0.00    -0.090 HD
ATOM     21  H   LIG d   1      -0.670  75.143 114.162  0.00  0.00    -0.090 HD
ENDBRANCH   5  18
BRANCH   3  22
ATOM     22  C   LIG d   1      -2.502  79.823 112.884  0.00  0.00     0.382 C 
ATOM     23  O   LIG d   1      -3.379  80.693 113.103  0.00  0.00    -0.241 OA
ATOM     24  O   LIG d   1      -1.906  79.815 111.790  0.00  0.00    -0.241 OA
ENDBRANCH   3  22
TORSDOF 7
ENDMDL
MODEL 3
REMARK VINA RESULT:      -5.3      2.810      4.558
REMARK  7 active torsions:
REMARK  status: ('A' for Active; 'I' for Inactive)
REMARK    1  A    between atoms: C_2  and  C_3 
REMARK    2  A    between atoms: C_3  and  O_6 
REMARK    3  A    between atoms: C_3  and  C_4 
REMARK    4  A    between atoms: C_7  and  O_6 
REMARK    5  A    between atoms: C_9  and  C_10 
REMARK    6  A    between atoms: N_15  and  C_14 
REMARK    7  A    between atoms: N_20  and  C_19 
REMARK       I    between atoms: C_22  and  N_20 
ROOT
ATOM      1  C   LIG d   1      -5.493  77.325 116.998  0.00  0.00     0.161 C 
ATOM      2  C   LIG d   1      -6.261  78.435 117.389  0.00  0.00     0.016 C 
ATOM      3  C   LIG d   1      -5.724  79.732 117.560  0.00  0.00     0.038 C 
ATOM      4  C   LIG d   1      -4.403  80.040 117.203  0.00  0.00     0.028 C 
ATOM      5  C   LIG d   1      -3.459  78.845 117.284  0.00  0.00    -0.047 C 
ATOM      6  C   LIG d   1      -4.074  77.665 116.497  0.00  0.00     0.091 C 
ENDROOT
BRANCH   1   7
ATOM      7  O   LIG d   1      -6.206  76.563 116.005  0.00  0.00    -0.368 OA
BRANCH   7   8
ATOM      8  C   LIG d   1      -6.772  75.306 116.451  0.00  0.00     0.119 C 
BRANCH   8   9
ATOM      9  C   LIG d   1      -6.209  74.197 115.541  0.00  0.00     0.028 C 
ATOM     10  C   LIG d   1      -5.677  74.745 114.207  0.00  0.00     0.006 C 
ENDBRANCH   8   9
BRANCH   8  11
ATOM     11  C   LIG d   1      -8.289  75.272 116.240  0.00  0.00     0.028 C 
ATOM     12  C   LIG d   1      -9.054  76.096 117.288  0.00  0.00     0.006 C 
ENDBRANCH   8  11
ENDBRANCH   7   8
ENDBRANCH   1   7
BRANCH   6  13
ATOM     13  N   LIG d   1      -3.254  76.429 116.595  0.00  0.00    -0.311 N 
ATOM     14  C   LIG d   1      -2.604  75.897 115.562  0.00  0.00     0.210 C 
ATOM     15  C   LIG d   1      -1.834  74.610 115.876  0.00  0.00     0.109 C 
ATOM     16  O   LIG d   1      -2.566  76.385 114.422  0.00  0.00    -0.276 OA
ATOM     17  H   LIG d   1      -3.205  75.985 117.491  0.00  0.00     0.149 HD
ENDBRANCH   6  13
BRANCH   5  18
ATOM     18  N   LIG d   1      -2.151  79.274 116.754  0.00  0.00     0.381 N 
ATOM     19  H   LIG d   1      -1.484  78.535 116.858  0.00  0.00    -0.090 HD
ATOM     20  H   LIG d   1      -1.829  80.065 117.283  0.00  0.00    -0.090 HD
ATOM     21  H   LIG d   1      -2.236  79.520 115.792  0.00  0.00    -0.090 HD
ENDBRANCH   5  18
BRANCH   3  22
ATOM     22  C   LIG d   1      -6.501  80.727 118.132  0.00  0.00     0.382 C 
ATOM     23  O   LIG d   1      -6.553  80.844 119.380  0.00  0.00    -0.241 OA
ATOM     24  O   LIG d   1      -7.186  81.483 117.416  0.00  0.00    -0.241 OA
ENDBRANCH   3  22
TORSDOF 7
ENDMDL
MODEL 4
REMARK VINA RESULT:      -5.3      1.665      4.912
REMARK  7 active torsions:
REMARK  status: ('A' for Active; 'I' for Inactive)
REMARK    1  A    between atoms: C_2  and  C_3 
REMARK    2  A    between atoms: C_3  and  O_6 
REMARK    3  A    between atoms: C_3  and  C_4 
REMARK    4  A    between atoms: C_7  and  O_6 
REMARK    5  A    between atoms: C_9  and  C_10 
REMARK    6  A    between atoms: N_15  and  C_14 
REMARK    7  A    between atoms: N_20  and  C_19 
REMARK       I    between atoms: C_22  and  N_20 
ROOT
ATOM      1  C   LIG d   1      -2.119  76.034 114.927  0.00  0.00     0.161 C 
ATOM      2  C   LIG d   1      -2.046  75.608 116.264  0.00  0.00     0.016 C 
ATOM      3  C   LIG d   1      -1.380  76.335 117.277  0.00  0.00     0.038 C 
ATOM      4  C   LIG d   1      -0.867  77.621 117.052  0.00  0.00     0.028 C 
ATOM      5  C   LIG d   1      -0.474  77.871 115.600  0.00  0.00    -0.047 C 
ATOM      6  C   LIG d   1      -1.661  77.488 114.686  0.00  0.00     0.091 C 
ENDROOT
BRANCH   1   7
ATOM      7  O   LIG d   1      -3.455  75.840 114.424  0.00  0.00    -0.368 OA
BRANCH   7   8
ATOM      8  C   LIG d   1      -4.460  75.485 115.405  0.00  0.00     0.119 C 
BRANCH   8   9
ATOM      9  C   LIG d   1      -5.327  74.366 114.797  0.00  0.00     0.028 C 
ATOM     10  C   LIG d   1      -6.657  74.180 115.546  0.00  0.00     0.006 C 
ENDBRANCH   8   9
BRANCH   8  11
ATOM     11  C   LIG d   1      -5.423  76.648 115.663  0.00  0.00     0.028 C 
ATOM     12  C   LIG d   1      -5.036  77.481 116.895  0.00  0.00     0.006 C 
ENDBRANCH   8  11
ENDBRANCH   7   8
ENDBRANCH   1   7
BRANCH   6  13
ATOM     13  N   LIG d   1      -1.331  77.623 113.243  0.00  0.00    -0.311 N 
ATOM     14  C   LIG d   1      -2.061  78.337 112.388  0.00  0.00     0.210 C 
ATOM     15  C   LIG d   1      -1.556  78.327 110.942  0.00  0.00     0.109 C 
ATOM     16  O   LIG d   1      -3.059  79.005 112.696  0.00  0.00    -0.276 OA
ATOM     17  H   LIG d   1      -0.519  77.139 112.914  0.00  0.00     0.149 HD
ENDBRANCH   6  13
BRANCH   5  18
ATOM     18  N   LIG d   1      -0.086  79.289 115.481  0.00  0.00     0.381 N 
ATOM     19  H   LIG d   1       0.584  79.517 116.188  0.00  0.00    -0.090 HD
ATOM     20  H   LIG d   1      -0.900  79.861 115.621  0.00  0.00    -0.090 HD
ATOM     21  H   LIG d   1       0.299  79.462 114.579  0.00  0.00    -0.090 HD
ENDBRANCH   5  18
BRANCH   3  22
ATOM     22  C   LIG d   1      -1.187  75.757 118.523  0.00  0.00     0.382 C 
ATOM     23  O   LIG d   1      -0.634  74.635 118.615  0.00  0.00    -0.241 OA
ATOM     24  O   LIG d   1      -1.599  76.324 119.553  0.00  0.00    -0.241 OA
ENDBRANCH   3  22
TORSDOF 7
ENDMDL
MODEL 5
REMARK VINA RESULT:      -5.2      0.799      1.590
REMARK  7 active torsions:
REMARK  status: ('A' for Active; 'I' for Inactive)
REMARK    1  A    between atoms: C_2  and  C_3 
REMARK    2  A    between atoms: C_3  and  O_6 
REMARK    3  A    between atoms: C_3  and  C_4 
REMARK    4  A    between atoms: C_7  and  O_6 
REMARK    5  A    between atoms: C_9  and  C_10 
REMARK    6  A    between atoms: N_15  and  C_14 
REMARK    7  A    between atoms: N_20  and  C_19 
REMARK       I    between atoms: C_22  and  N_20 
ROOT
ATOM      1  C   LIG d   1      -3.446  76.629 115.092  0.00  0.00     0.161 C 
ATOM      2  C   LIG d   1      -3.622  77.124 113.789  0.00  0.00     0.016 C 
ATOM      3  C   LIG d   1      -2.550  77.379 112.902  0.00  0.00     0.038 C 
ATOM      4  C   LIG d   1      -1.231  77.013 113.209  0.00  0.00     0.028 C 
ATOM      5  C   LIG d   1      -0.944  76.978 114.706  0.00  0.00    -0.047 C 
ATOM      6  C   LIG d   1      -2.024  76.119 115.404  0.00  0.00     0.091 C 
ENDROOT
BRANCH   1   7
ATOM      7  O   LIG d   1      -4.418  75.599 115.359  0.00  0.00    -0.368 OA
BRANCH   7   8
ATOM      8  C   LIG d   1      -5.535  75.979 116.200  0.00  0.00     0.119 C 
BRANCH   8   9
ATOM      9  C   LIG d   1      -6.793  76.017 115.311  0.00  0.00     0.028 C 
ATOM     10  C   LIG d   1      -7.893  75.066 115.810  0.00  0.00     0.006 C 
ENDBRANCH   8   9
BRANCH   8  11
ATOM     11  C   LIG d   1      -5.371  77.405 116.733  0.00  0.00     0.028 C 
ATOM     12  C   LIG d   1      -6.349  77.731 117.874  0.00  0.00     0.006 C 
ENDBRANCH   8  11
ENDBRANCH   7   8
ENDBRANCH   1   7
BRANCH   6  13
ATOM     13  N   LIG d   1      -1.866  76.102 116.882  0.00  0.00    -0.311 N 
ATOM     14  C   LIG d   1      -1.111  75.216 117.528  0.00  0.00     0.210 C 
ATOM     15  C   LIG d   1      -1.103  75.362 119.053  0.00  0.00     0.109 C 
ATOM     16  O   LIG d   1      -0.421  74.342 116.981  0.00  0.00    -0.276 OA
ATOM     17  H   LIG d   1      -2.367  76.796 117.402  0.00  0.00     0.149 HD
ENDBRANCH   6  13
BRANCH   5  18
ATOM     18  N   LIG d   1       0.421  76.449 114.886  0.00  0.00     0.381 N 
ATOM     19  H   LIG d   1       0.798  76.177 114.001  0.00  0.00    -0.090 HD
ATOM     20  H   LIG d   1       0.379  75.635 115.474  0.00  0.00    -0.090 HD
ATOM     21  H   LIG d   1       1.002  77.141 115.305  0.00  0.00    -0.090 HD
ENDBRANCH   5  18
BRANCH   3  22
ATOM     22  C   LIG d   1      -2.789  78.045 111.710  0.00  0.00     0.382 C 
ATOM     23  O   LIG d   1      -3.681  77.633 110.930  0.00  0.00    -0.241 OA
ATOM     24  O   LIG d   1      -2.093  79.025 111.383  0.00  0.00    -0.241 OA
ENDBRANCH   3  22
TORSDOF 7
ENDMDL
MODEL 6
REMARK VINA RESULT:      -5.2      1.953      4.919
REMARK  7 active torsions:
REMARK  status: ('A' for Active; 'I' for Inactive)
REMARK    1  A    between atoms: C_2  and  C_3 
REMARK    2  A    between atoms: C_3  and  O_6 
REMARK    3  A    between atoms: C_3  and  C_4 
REMARK    4  A    between atoms: C_7  and  O_6 
REMARK    5  A    between atoms: C_9  and  C_10 
REMARK    6  A    between atoms: N_15  and  C_14 
REMARK    7  A    between atoms: N_20  and  C_19 
REMARK       I    between atoms: C_22  and  N_20 
ROOT
ATOM      1  C   LIG d   1      -3.214  76.763 115.445  0.00  0.00     0.161 C 
ATOM      2  C   LIG d   1      -2.985  76.654 116.827  0.00  0.00     0.016 C 
ATOM      3  C   LIG d   1      -1.995  77.394 117.513  0.00  0.00     0.038 C 
ATOM      4  C   LIG d   1      -1.263  78.412 116.884  0.00  0.00     0.028 C 
ATOM      5  C   LIG d   1      -1.107  78.208 115.381  0.00  0.00    -0.047 C 
ATOM      6  C   LIG d   1      -2.501  77.949 114.763  0.00  0.00     0.091 C 
ENDROOT
BRANCH   1   7
ATOM      7  O   LIG d   1      -4.631  76.815 115.187  0.00  0.00    -0.368 OA
BRANCH   7   8
ATOM      8  C   LIG d   1      -5.465  75.988 116.035  0.00  0.00     0.119 C 
BRANCH   8   9
ATOM      9  C   LIG d   1      -5.924  74.780 115.196  0.00  0.00     0.028 C 
ATOM     10  C   LIG d   1      -7.246  74.180 115.705  0.00  0.00     0.006 C 
ENDBRANCH   8   9
BRANCH   8  11
ATOM     11  C   LIG d   1      -6.751  76.717 116.435  0.00  0.00     0.028 C 
ATOM     12  C   LIG d   1      -6.485  77.984 117.262  0.00  0.00     0.006 C 
ENDBRANCH   8  11
ENDBRANCH   7   8
ENDBRANCH   1   7
BRANCH   6  13
ATOM     13  N   LIG d   1      -2.430  77.655 113.308  0.00  0.00    -0.311 N 
ATOM     14  C   LIG d   1      -2.668  78.564 112.364  0.00  0.00     0.210 C 
ATOM     15  C   LIG d   1      -2.561  78.046 110.926  0.00  0.00     0.109 C 
ATOM     16  O   LIG d   1      -2.928  79.757 112.581  0.00  0.00    -0.276 OA
ATOM     17  H   LIG d   1      -2.195  76.719 113.043  0.00  0.00     0.149 HD
ENDBRANCH   6  13
BRANCH   5  18
ATOM     18  N   LIG d   1      -0.446  79.407 114.834  0.00  0.00     0.381 N 
ATOM     19  H   LIG d   1       0.077  79.864 115.555  0.00  0.00    -0.090 HD
ATOM     20  H   LIG d   1      -1.149  80.044 114.502  0.00  0.00    -0.090 HD
ATOM     21  H   LIG d   1       0.160  79.151 114.086  0.00  0.00    -0.090 HD
ENDBRANCH   5  18
BRANCH   3  22
ATOM     22  C   LIG d   1      -1.702  77.090 118.833  0.00  0.00     0.382 C 
ATOM     23  O   LIG d   1      -0.643  76.479 119.116  0.00  0.00    -0.241 OA
ATOM     24  O   LIG d   1      -2.503  77.381 119.741  0.00  0.00    -0.241 OA
ENDBRANCH   3  22
TORSDOF 7
ENDMDL
MODEL 7
REMARK VINA RESULT:      -4.6      2.558      4.622
REMARK  7 active torsions:
REMARK  status: ('A' for Active; 'I' for Inactive)
REMARK    1  A    between atoms: C_2  and  C_3 
REMARK    2  A    between atoms: C_3  and  O_6 
REMARK    3  A    between atoms: C_3  and  C_4 
REMARK    4  A    between atoms: C_7  and  O_6 
REMARK    5  A    between atoms: C_9  and  C_10 
REMARK    6  A    between atoms: N_15  and  C_14 
REMARK    7  A    between atoms: N_20  and  C_19 
REMARK       I    between atoms: C_22  and  N_20 
ROOT
ATOM      1  C   LIG d   1      -1.864  77.641 114.596  0.00  0.00     0.161 C 
ATOM      2  C   LIG d   1      -1.058  78.663 114.069  0.00  0.00     0.016 C 
ATOM      3  C   LIG d   1      -1.332  79.318 112.846  0.00  0.00     0.038 C 
ATOM      4  C   LIG d   1      -2.523  79.098 112.138  0.00  0.00     0.028 C 
ATOM      5  C   LIG d   1      -3.119  77.714 112.372  0.00  0.00    -0.047 C 
ATOM      6  C   LIG d   1      -3.227  77.464 113.893  0.00  0.00     0.091 C 
ENDROOT
BRANCH   1   7
ATOM      7  O   LIG d   1      -2.053  77.847 116.010  0.00  0.00    -0.368 OA
BRANCH   7   8
ATOM      8  C   LIG d   1      -1.753  76.717 116.865  0.00  0.00     0.119 C 
BRANCH   8   9
ATOM      9  C   LIG d   1      -1.039  77.261 118.118  0.00  0.00     0.028 C 
ATOM     10  C   LIG d   1      -1.596  76.657 119.419  0.00  0.00     0.006 C 
ENDBRANCH   8   9
BRANCH   8  11
ATOM     11  C   LIG d   1      -0.748  75.770 116.205  0.00  0.00     0.028 C 
ATOM     12  C   LIG d   1      -1.206  74.303 116.230  0.00  0.00     0.006 C 
ENDBRANCH   8  11
ENDBRANCH   7   8
ENDBRANCH   1   7
BRANCH   6  13
ATOM     13  N   LIG d   1      -3.723  76.099 114.210  0.00  0.00    -0.311 N 
ATOM     14  C   LIG d   1      -5.002  75.824 114.460  0.00  0.00     0.210 C 
ATOM     15  C   LIG d   1      -5.295  74.356 114.784  0.00  0.00     0.109 C 
ATOM     16  O   LIG d   1      -5.925  76.650 114.412  0.00  0.00    -0.276 OA
ATOM     17  H   LIG d   1      -3.045  75.363 114.239  0.00  0.00     0.149 HD
ENDBRANCH   6  13
BRANCH   5  18
ATOM     18  N   LIG d   1      -4.424  77.669 111.685  0.00  0.00     0.381 N 
ATOM     19  H   LIG d   1      -4.844  76.771 111.814  0.00  0.00    -0.090 HD
ATOM     20  H   LIG d   1      -4.279  77.811 110.701  0.00  0.00    -0.090 HD
ATOM     21  H   LIG d   1      -5.023  78.379 112.046  0.00  0.00    -0.090 HD
ENDBRANCH   5  18
BRANCH   3  22
ATOM     22  C   LIG d   1      -0.390  80.176 112.300  0.00  0.00     0.382 C 
ATOM     23  O   LIG d   1       0.333  80.874 113.052  0.00  0.00    -0.241 OA
ATOM     24  O   LIG d   1      -0.284  80.294 111.065  0.00  0.00    -0.241 OA
ENDBRANCH   3  22
TORSDOF 7
ENDMDL
MODEL 8
REMARK VINA RESULT:      -4.6      3.165      6.238
REMARK  7 active torsions:
REMARK  status: ('A' for Active; 'I' for Inactive)
REMARK    1  A    between atoms: C_2  and  C_3 
REMARK    2  A    between atoms: C_3  and  O_6 
REMARK    3  A    between atoms: C_3  and  C_4 
REMARK    4  A    between atoms: C_7  and  O_6 
REMARK    5  A    between atoms: C_9  and  C_10 
REMARK    6  A    between atoms: N_15  and  C_14 
REMARK    7  A    between atoms: N_20  and  C_19 
REMARK       I    between atoms: C_22  and  N_20 
ROOT
ATOM      1  C   LIG d   1      -4.901  77.606 116.785  0.00  0.00     0.161 C 
ATOM      2  C   LIG d   1      -5.374  76.444 116.154  0.00  0.00     0.016 C 
ATOM      3  C   LIG d   1      -6.718  76.010 116.227  0.00  0.00     0.038 C 
ATOM      4  C   LIG d   1      -7.719  76.796 116.816  0.00  0.00     0.028 C 
ATOM      5  C   LIG d   1      -7.196  77.731 117.902  0.00  0.00    -0.047 C 
ATOM      6  C   LIG d   1      -6.002  78.535 117.339  0.00  0.00     0.091 C 
ENDROOT
BRANCH   1   7
ATOM      7  O   LIG d   1      -4.038  78.333 115.888  0.00  0.00    -0.368 OA
BRANCH   7   8
ATOM      8  C   LIG d   1      -2.621  78.281 116.186  0.00  0.00     0.119 C 
BRANCH   8   9
ATOM      9  C   LIG d   1      -1.957  77.381 115.126  0.00  0.00     0.028 C 
ATOM     10  C   LIG d   1      -2.626  77.508 113.747  0.00  0.00     0.006 C 
ENDBRANCH   8   9
BRANCH   8  11
ATOM     11  C   LIG d   1      -2.358  77.588 117.527  0.00  0.00     0.028 C 
ATOM     12  C   LIG d   1      -1.198  76.583 117.461  0.00  0.00     0.006 C 
ENDBRANCH   8  11
ENDBRANCH   7   8
ENDBRANCH   1   7
BRANCH   6  13
ATOM     13  N   LIG d   1      -5.377  79.413 118.362  0.00  0.00    -0.311 N 
ATOM     14  C   LIG d   1      -5.729  80.683 118.553  0.00  0.00     0.210 C 
ATOM     15  C   LIG d   1      -4.944  81.415 119.646  0.00  0.00     0.109 C 
ATOM     16  O   LIG d   1      -6.639  81.264 117.942  0.00  0.00    -0.276 OA
ATOM     17  H   LIG d   1      -4.651  79.013 118.924  0.00  0.00     0.149 HD
ENDBRANCH   6  13
BRANCH   5  18
ATOM     18  N   LIG d   1      -8.318  78.586 118.332  0.00  0.00     0.381 N 
ATOM     19  H   LIG d   1      -9.170  78.258 117.925  0.00  0.00    -0.090 HD
ATOM     20  H   LIG d   1      -8.155  79.524 118.009  0.00  0.00    -0.090 HD
ATOM     21  H   LIG d   1      -8.391  78.578 119.326  0.00  0.00    -0.090 HD
ENDBRANCH   5  18
BRANCH   3  22
ATOM     22  C   LIG d   1      -7.064  74.758 115.742  0.00  0.00     0.382 C 
ATOM     23  O   LIG d   1      -8.091  74.180 116.173  0.00  0.00    -0.241 OA
ATOM     24  O   LIG d   1      -6.337  74.180 114.911  0.00  0.00    -0.241 OA
ENDBRANCH   3  22
TORSDOF 7
ENDMDL
MODEL 9
REMARK VINA RESULT:      -4.5      2.901      4.442
REMARK  7 active torsions:
REMARK  status: ('A' for Active; 'I' for Inactive)
REMARK    1  A    between atoms: C_2  and  C_3 
REMARK    2  A    between atoms: C_3  and  O_6 
REMARK    3  A    between atoms: C_3  and  C_4 
REMARK    4  A    between atoms: C_7  and  O_6 
REMARK    5  A    between atoms: C_9  and  C_10 
REMARK    6  A    between atoms: N_15  and  C_14 
REMARK    7  A    between atoms: N_20  and  C_19 
REMARK       I    between atoms: C_22  and  N_20 
ROOT
ATOM      1  C   LIG d   1      -3.634  77.575 117.440  0.00  0.00     0.161 C 
ATOM      2  C   LIG d   1      -2.653  78.555 117.668  0.00  0.00     0.016 C 
ATOM      3  C   LIG d   1      -1.819  79.073 116.651  0.00  0.00     0.038 C 
ATOM      4  C   LIG d   1      -2.014  78.755 115.299  0.00  0.00     0.028 C 
ATOM      5  C   LIG d   1      -2.659  77.390 115.085  0.00  0.00    -0.047 C 
ATOM      6  C   LIG d   1      -3.935  77.297 115.952  0.00  0.00     0.091 C 
ENDROOT
BRANCH   1   7
ATOM      7  O   LIG d   1      -4.844  77.923 118.140  0.00  0.00    -0.368 OA
BRANCH   7   8
ATOM      8  C   LIG d   1      -5.823  78.679 117.385  0.00  0.00     0.119 C 
BRANCH   8   9
ATOM      9  C   LIG d   1      -5.631  80.167 117.737  0.00  0.00     0.028 C 
ATOM     10  C   LIG d   1      -6.961  80.874 118.046  0.00  0.00     0.006 C 
ENDBRANCH   8   9
BRANCH   8  11
ATOM     11  C   LIG d   1      -7.250  78.339 117.824  0.00  0.00     0.028 C 
ATOM     12  C   LIG d   1      -7.596  76.855 117.627  0.00  0.00     0.006 C 
ENDBRANCH   8  11
ENDBRANCH   7   8
ENDBRANCH   1   7
BRANCH   6  13
ATOM     13  N   LIG d   1      -4.583  75.962 115.867  0.00  0.00    -0.311 N 
ATOM     14  C   LIG d   1      -5.563  75.676 115.011  0.00  0.00     0.210 C 
ATOM     15  C   LIG d   1      -6.103  74.245 115.102  0.00  0.00     0.109 C 
ATOM     16  O   LIG d   1      -6.013  76.461 114.163  0.00  0.00    -0.276 OA
ATOM     17  H   LIG d   1      -4.257  75.256 116.497  0.00  0.00     0.149 HD
ENDBRANCH   6  13
BRANCH   5  18
ATOM     18  N   LIG d   1      -2.930  77.246 113.642  0.00  0.00     0.381 N 
ATOM     19  H   LIG d   1      -3.785  77.709 113.409  0.00  0.00    -0.090 HD
ATOM     20  H   LIG d   1      -3.031  76.270 113.426  0.00  0.00    -0.090 HD
ATOM     21  H   LIG d   1      -2.179  77.635 113.114  0.00  0.00    -0.090 HD
ENDBRANCH   5  18
BRANCH   3  22
ATOM     22  C   LIG d   1      -0.751  79.891 116.988  0.00  0.00     0.382 C 
ATOM     23  O   LIG d   1      -0.952  80.959 117.614  0.00  0.00    -0.241 OA
ATOM     24  O   LIG d   1       0.406  79.596 116.635  0.00  0.00    -0.241 OA
ENDBRANCH   3  22
TORSDOF 7
ENDMDL
