MODEL 1
REMARK VINA RESULT:      -5.1      0.000      0.000
REMARK  7 active torsions:
REMARK  status: ('A' for Active; 'I' for Inactive)
REMARK    1  A    between atoms: C_2  and  C_3 
REMARK    2  A    between atoms: C_3  and  O_6 
REMARK    3  A    between atoms: C_3  and  C_4 
REMARK    4  A    between atoms: C_7  and  O_6 
REMARK    5  A    between atoms: C_9  and  C_10 
REMARK    6  A    between atoms: N_15  and  C_14 
REMARK    7  A    between atoms: N_20  and  C_19 
REMARK       I    between atoms: C_22  and  N_20 
ROOT
ATOM      1  C   LIG d   1      -2.878  75.838 116.322  0.00  0.00     0.161 C 
ATOM      2  C   LIG d   1      -2.382  75.420 117.568  0.00  0.00     0.016 C 
ATOM      3  C   LIG d   1      -1.161  75.879 118.113  0.00  0.00     0.038 C 
ATOM      4  C   LIG d   1      -0.421  76.909 117.513  0.00  0.00     0.028 C 
ATOM      5  C   LIG d   1      -0.625  77.001 116.004  0.00  0.00    -0.047 C 
ATOM      6  C   LIG d   1      -2.141  77.044 115.704  0.00  0.00     0.091 C 
ENDROOT
BRANCH   1   7
ATOM      7  O   LIG d   1      -4.289  76.112 116.425  0.00  0.00    -0.368 OA
BRANCH   7   8
ATOM      8  C   LIG d   1      -5.175  74.987 116.205  0.00  0.00     0.119 C 
BRANCH   8   9
ATOM      9  C   LIG d   1      -5.063  74.593 114.719  0.00  0.00     0.028 C 
ATOM     10  C   LIG d   1      -5.726  75.622 113.788  0.00  0.00     0.006 C 
ENDBRANCH   8   9
BRANCH   8  11
ATOM     11  C   LIG d   1      -6.640  75.383 116.410  0.00  0.00     0.028 C 
ATOM     12  C   LIG d   1      -7.503  74.223 116.932  0.00  0.00     0.006 C 
ENDBRANCH   8  11
ENDBRANCH   7   8
ENDBRANCH   1   7
BRANCH   6  13
ATOM     13  N   LIG d   1      -2.430  77.049 114.246  0.00  0.00    -0.311 N 
ATOM     14  C   LIG d   1      -2.679  78.159 113.552  0.00  0.00     0.210 C 
ATOM     15  C   LIG d   1      -2.972  77.938 112.065  0.00  0.00     0.109 C 
ATOM     16  O   LIG d   1      -2.652  79.307 114.020  0.00  0.00    -0.276 OA
ATOM     17  H   LIG d   1      -2.441  76.163 113.780  0.00  0.00     0.149 HD
ENDBRANCH   6  13
BRANCH   5  18
ATOM     18  N   LIG d   1       0.093  78.199 115.529  0.00  0.00     0.381 N 
ATOM     19  H   LIG d   1       0.655  78.572 116.268  0.00  0.00    -0.090 HD
ATOM     20  H   LIG d   1      -0.579  78.896 115.262  0.00  0.00    -0.090 HD
ATOM     21  H   LIG d   1       0.668  77.965 114.750  0.00  0.00    -0.090 HD
ENDBRANCH   5  18
BRANCH   3  22
ATOM     22  C   LIG d   1      -0.647  75.277 119.252  0.00  0.00     0.382 C 
ATOM     23  O   LIG d   1       0.503  75.576 119.654  0.00  0.00    -0.241 OA
ATOM     24  O   LIG d   1      -1.301  74.407 119.856  0.00  0.00    -0.241 OA
ENDBRANCH   3  22
TORSDOF 7
ENDMDL
MODEL 2
REMARK VINA RESULT:      -5.0      2.326      5.702
REMARK  7 active torsions:
REMARK  status: ('A' for Active; 'I' for Inactive)
REMARK    1  A    between atoms: C_2  and  C_3 
REMARK    2  A    between atoms: C_3  and  O_6 
REMARK    3  A    between atoms: C_3  and  C_4 
REMARK    4  A    between atoms: C_7  and  O_6 
REMARK    5  A    between atoms: C_9  and  C_10 
REMARK    6  A    between atoms: N_15  and  C_14 
REMARK    7  A    between atoms: N_20  and  C_19 
REMARK       I    between atoms: C_22  and  N_20 
ROOT
ATOM      1  C   LIG d   1      -1.959  77.378 114.846  0.00  0.00     0.161 C 
ATOM      2  C   LIG d   1      -3.152  76.919 114.263  0.00  0.00     0.016 C 
ATOM      3  C   LIG d   1      -4.181  76.283 114.995  0.00  0.00     0.038 C 
ATOM      4  C   LIG d   1      -4.150  76.196 116.395  0.00  0.00     0.028 C 
ATOM      5  C   LIG d   1      -2.738  76.193 116.971  0.00  0.00    -0.047 C 
ATOM      6  C   LIG d   1      -1.956  77.392 116.389  0.00  0.00     0.091 C 
ENDROOT
BRANCH   1   7
ATOM      7  O   LIG d   1      -1.635  78.685 114.332  0.00  0.00    -0.368 OA
BRANCH   7   8
ATOM      8  C   LIG d   1      -2.350  79.097 113.141  0.00  0.00     0.119 C 
BRANCH   8   9
ATOM      9  C   LIG d   1      -1.395  78.923 111.944  0.00  0.00     0.028 C 
ATOM     10  C   LIG d   1      -1.934  77.928 110.903  0.00  0.00     0.006 C 
ENDBRANCH   8   9
BRANCH   8  11
ATOM     11  C   LIG d   1      -2.683  80.591 113.180  0.00  0.00     0.028 C 
ATOM     12  C   LIG d   1      -1.486  81.479 112.806  0.00  0.00     0.006 C 
ENDBRANCH   8  11
ENDBRANCH   7   8
ENDBRANCH   1   7
BRANCH   6  13
ATOM     13  N   LIG d   1      -0.538  77.415 116.835  0.00  0.00    -0.311 N 
ATOM     14  C   LIG d   1      -0.106  78.142 117.864  0.00  0.00     0.210 C 
ATOM     15  C   LIG d   1       1.397  78.037 118.144  0.00  0.00     0.109 C 
ATOM     16  O   LIG d   1      -0.829  78.839 118.591  0.00  0.00    -0.276 OA
ATOM     17  H   LIG d   1       0.111  76.853 116.321  0.00  0.00     0.149 HD
ENDBRANCH   6  13
BRANCH   5  18
ATOM     18  N   LIG d   1      -2.856  76.238 118.441  0.00  0.00     0.381 N 
ATOM     19  H   LIG d   1      -2.303  75.511 118.848  0.00  0.00    -0.090 HD
ATOM     20  H   LIG d   1      -3.816  76.084 118.695  0.00  0.00    -0.090 HD
ATOM     21  H   LIG d   1      -2.553  77.125 118.780  0.00  0.00    -0.090 HD
ENDBRANCH   5  18
BRANCH   3  22
ATOM     22  C   LIG d   1      -5.237  75.689 114.322  0.00  0.00     0.382 C 
ATOM     23  O   LIG d   1      -5.143  74.499 113.933  0.00  0.00    -0.241 OA
ATOM     24  O   LIG d   1      -6.265  76.341 114.059  0.00  0.00    -0.241 OA
ENDBRANCH   3  22
TORSDOF 7
ENDMDL
MODEL 3
REMARK VINA RESULT:      -4.8      2.193      4.623
REMARK  7 active torsions:
REMARK  status: ('A' for Active; 'I' for Inactive)
REMARK    1  A    between atoms: C_2  and  C_3 
REMARK    2  A    between atoms: C_3  and  O_6 
REMARK    3  A    between atoms: C_3  and  C_4 
REMARK    4  A    between atoms: C_7  and  O_6 
REMARK    5  A    between atoms: C_9  and  C_10 
REMARK    6  A    between atoms: N_15  and  C_14 
REMARK    7  A    between atoms: N_20  and  C_19 
REMARK       I    between atoms: C_22  and  N_20 
ROOT
ATOM      1  C   LIG d   1      -2.218  77.365 114.718  0.00  0.00     0.161 C 
ATOM      2  C   LIG d   1      -1.051  77.572 115.471  0.00  0.00     0.016 C 
ATOM      3  C   LIG d   1      -0.807  76.946 116.716  0.00  0.00     0.038 C 
ATOM      4  C   LIG d   1      -1.653  75.949 117.222  0.00  0.00     0.028 C 
ATOM      5  C   LIG d   1      -3.095  76.075 116.742  0.00  0.00    -0.047 C 
ATOM      6  C   LIG d   1      -3.101  76.196 115.201  0.00  0.00     0.091 C 
ENDROOT
BRANCH   1   7
ATOM      7  O   LIG d   1      -1.879  77.196 113.327  0.00  0.00    -0.368 OA
BRANCH   7   8
ATOM      8  C   LIG d   1      -2.373  78.213 112.422  0.00  0.00     0.119 C 
BRANCH   8   9
ATOM      9  C   LIG d   1      -1.950  77.809 110.996  0.00  0.00     0.028 C 
ATOM     10  C   LIG d   1      -0.888  78.754 110.410  0.00  0.00     0.006 C 
ENDBRANCH   8   9
BRANCH   8  11
ATOM     11  C   LIG d   1      -1.698  79.563 112.678  0.00  0.00     0.028 C 
ATOM     12  C   LIG d   1      -2.697  80.666 113.061  0.00  0.00     0.006 C 
ENDBRANCH   8  11
ENDBRANCH   7   8
ENDBRANCH   1   7
BRANCH   6  13
ATOM     13  N   LIG d   1      -4.467  76.408 114.655  0.00  0.00    -0.311 N 
ATOM     14  C   LIG d   1      -5.239  75.420 114.204  0.00  0.00     0.210 C 
ATOM     15  C   LIG d   1      -6.604  75.860 113.666  0.00  0.00     0.109 C 
ATOM     16  O   LIG d   1      -4.935  74.218 114.229  0.00  0.00    -0.276 OA
ATOM     17  H   LIG d   1      -4.806  77.350 114.627  0.00  0.00     0.149 HD
ENDBRANCH   6  13
BRANCH   5  18
ATOM     18  N   LIG d   1      -3.833  74.897 117.233  0.00  0.00     0.381 N 
ATOM     19  H   LIG d   1      -3.314  74.065 117.036  0.00  0.00    -0.090 HD
ATOM     20  H   LIG d   1      -4.713  74.841 116.752  0.00  0.00    -0.090 HD
ATOM     21  H   LIG d   1      -3.988  74.976 118.214  0.00  0.00    -0.090 HD
ENDBRANCH   5  18
BRANCH   3  22
ATOM     22  C   LIG d   1       0.274  77.347 117.486  0.00  0.00     0.382 C 
ATOM     23  O   LIG d   1       0.834  78.446 117.257  0.00  0.00    -0.241 OA
ATOM     24  O   LIG d   1       0.724  76.604 118.379  0.00  0.00    -0.241 OA
ENDBRANCH   3  22
TORSDOF 7
ENDMDL
MODEL 4
REMARK VINA RESULT:      -4.7      1.363      1.771
REMARK  7 active torsions:
REMARK  status: ('A' for Active; 'I' for Inactive)
REMARK    1  A    between atoms: C_2  and  C_3 
REMARK    2  A    between atoms: C_3  and  O_6 
REMARK    3  A    between atoms: C_3  and  C_4 
REMARK    4  A    between atoms: C_7  and  O_6 
REMARK    5  A    between atoms: C_9  and  C_10 
REMARK    6  A    between atoms: N_15  and  C_14 
REMARK    7  A    between atoms: N_20  and  C_19 
REMARK       I    between atoms: C_22  and  N_20 
ROOT
ATOM      1  C   LIG d   1      -3.372  76.312 115.611  0.00  0.00     0.161 C 
ATOM      2  C   LIG d   1      -3.160  75.980 116.960  0.00  0.00     0.016 C 
ATOM      3  C   LIG d   1      -2.013  76.374 117.687  0.00  0.00     0.038 C 
ATOM      4  C   LIG d   1      -1.066  77.261 117.154  0.00  0.00     0.028 C 
ATOM      5  C   LIG d   1      -0.982  77.215 115.632  0.00  0.00    -0.047 C 
ATOM      6  C   LIG d   1      -2.404  77.372 115.046  0.00  0.00     0.091 C 
ENDROOT
BRANCH   1   7
ATOM      7  O   LIG d   1      -4.739  76.729 115.421  0.00  0.00    -0.368 OA
BRANCH   7   8
ATOM      8  C   LIG d   1      -5.677  76.331 116.450  0.00  0.00     0.119 C 
BRANCH   8   9
ATOM      9  C   LIG d   1      -6.682  75.354 115.809  0.00  0.00     0.028 C 
ATOM     10  C   LIG d   1      -8.137  75.681 116.182  0.00  0.00     0.006 C 
ENDBRANCH   8   9
BRANCH   8  11
ATOM     11  C   LIG d   1      -6.515  77.519 116.930  0.00  0.00     0.028 C 
ATOM     12  C   LIG d   1      -5.658  78.673 117.473  0.00  0.00     0.006 C 
ENDBRANCH   8  11
ENDBRANCH   7   8
ENDBRANCH   1   7
BRANCH   6  13
ATOM     13  N   LIG d   1      -2.423  77.254 113.565  0.00  0.00    -0.311 N 
ATOM     14  C   LIG d   1      -2.694  78.273 112.751  0.00  0.00     0.210 C 
ATOM     15  C   LIG d   1      -2.680  77.930 111.258  0.00  0.00     0.109 C 
ATOM     16  O   LIG d   1      -2.912  79.436 113.123  0.00  0.00    -0.276 OA
ATOM     17  H   LIG d   1      -2.226  76.352 113.177  0.00  0.00     0.149 HD
ENDBRANCH   6  13
BRANCH   5  18
ATOM     18  N   LIG d   1      -0.059  78.283 115.204  0.00  0.00     0.381 N 
ATOM     19  H   LIG d   1      -0.542  78.932 114.614  0.00  0.00    -0.090 HD
ATOM     20  H   LIG d   1       0.690  77.873 114.675  0.00  0.00    -0.090 HD
ATOM     21  H   LIG d   1       0.307  78.757 116.000  0.00  0.00    -0.090 HD
ENDBRANCH   5  18
BRANCH   3  22
ATOM     22  C   LIG d   1      -1.785  75.847 118.949  0.00  0.00     0.382 C 
ATOM     23  O   LIG d   1      -0.628  75.495 119.281  0.00  0.00    -0.241 OA
ATOM     24  O   LIG d   1      -2.729  75.679 119.744  0.00  0.00    -0.241 OA
ENDBRANCH   3  22
TORSDOF 7
ENDMDL
MODEL 5
REMARK VINA RESULT:      -4.7      2.507      5.226
REMARK  7 active torsions:
REMARK  status: ('A' for Active; 'I' for Inactive)
REMARK    1  A    between atoms: C_2  and  C_3 
REMARK    2  A    between atoms: C_3  and  O_6 
REMARK    3  A    between atoms: C_3  and  C_4 
REMARK    4  A    between atoms: C_7  and  O_6 
REMARK    5  A    between atoms: C_9  and  C_10 
REMARK    6  A    between atoms: N_15  and  C_14 
REMARK    7  A    between atoms: N_20  and  C_19 
REMARK       I    between atoms: C_22  and  N_20 
ROOT
ATOM      1  C   LIG d   1      -2.907  77.627 115.987  0.00  0.00     0.161 C 
ATOM      2  C   LIG d   1      -3.098  78.505 114.907  0.00  0.00     0.016 C 
ATOM      3  C   LIG d   1      -2.349  78.441 113.710  0.00  0.00     0.038 C 
ATOM      4  C   LIG d   1      -1.455  77.391 113.450  0.00  0.00     0.028 C 
ATOM      5  C   LIG d   1      -0.863  76.773 114.713  0.00  0.00    -0.047 C 
ATOM      6  C   LIG d   1      -2.013  76.407 115.679  0.00  0.00     0.091 C 
ENDROOT
BRANCH   1   7
ATOM      7  O   LIG d   1      -4.183  77.196 116.499  0.00  0.00    -0.368 OA
BRANCH   7   8
ATOM      8  C   LIG d   1      -4.756  78.011 117.551  0.00  0.00     0.119 C 
BRANCH   8   9
ATOM      9  C   LIG d   1      -4.599  77.236 118.874  0.00  0.00     0.028 C 
ATOM     10  C   LIG d   1      -5.525  76.010 118.949  0.00  0.00     0.006 C 
ENDBRANCH   8   9
BRANCH   8  11
ATOM     11  C   LIG d   1      -6.266  78.187 117.361  0.00  0.00     0.028 C 
ATOM     12  C   LIG d   1      -6.797  79.486 117.986  0.00  0.00     0.006 C 
ENDBRANCH   8  11
ENDBRANCH   7   8
ENDBRANCH   1   7
BRANCH   6  13
ATOM     13  N   LIG d   1      -1.517  75.874 116.974  0.00  0.00    -0.311 N 
ATOM     14  C   LIG d   1      -2.075  74.841 117.603  0.00  0.00     0.210 C 
ATOM     15  C   LIG d   1      -1.420  74.466 118.936  0.00  0.00     0.109 C 
ATOM     16  O   LIG d   1      -3.030  74.180 117.169  0.00  0.00    -0.276 OA
ATOM     17  H   LIG d   1      -0.726  76.332 117.383  0.00  0.00     0.149 HD
ENDBRANCH   6  13
BRANCH   5  18
ATOM     18  N   LIG d   1      -0.059  75.606 114.303  0.00  0.00     0.381 N 
ATOM     19  H   LIG d   1       0.869  75.690 114.666  0.00  0.00    -0.090 HD
ATOM     20  H   LIG d   1      -0.004  75.585 113.300  0.00  0.00    -0.090 HD
ATOM     21  H   LIG d   1      -0.480  74.768 114.638  0.00  0.00    -0.090 HD
ENDBRANCH   5  18
BRANCH   3  22
ATOM     22  C   LIG d   1      -2.462  79.456 112.773  0.00  0.00     0.382 C 
ATOM     23  O   LIG d   1      -1.786  79.413 111.717  0.00  0.00    -0.241 OA
ATOM     24  O   LIG d   1      -3.198  80.437 112.990  0.00  0.00    -0.241 OA
ENDBRANCH   3  22
TORSDOF 7
ENDMDL
MODEL 6
REMARK VINA RESULT:      -4.1      3.707      5.034
REMARK  7 active torsions:
REMARK  status: ('A' for Active; 'I' for Inactive)
REMARK    1  A    between atoms: C_2  and  C_3 
REMARK    2  A    between atoms: C_3  and  O_6 
REMARK    3  A    between atoms: C_3  and  C_4 
REMARK    4  A    between atoms: C_7  and  O_6 
REMARK    5  A    between atoms: C_9  and  C_10 
REMARK    6  A    between atoms: N_15  and  C_14 
REMARK    7  A    between atoms: N_20  and  C_19 
REMARK       I    between atoms: C_22  and  N_20 
ROOT
ATOM      1  C   LIG d   1      -5.378  77.933 117.954  0.00  0.00     0.161 C 
ATOM      2  C   LIG d   1      -4.094  78.368 118.322  0.00  0.00     0.016 C 
ATOM      3  C   LIG d   1      -2.932  77.575 118.178  0.00  0.00     0.038 C 
ATOM      4  C   LIG d   1      -2.955  76.341 117.511  0.00  0.00     0.028 C 
ATOM      5  C   LIG d   1      -4.309  75.643 117.575  0.00  0.00    -0.047 C 
ATOM      6  C   LIG d   1      -5.406  76.633 117.122  0.00  0.00     0.091 C 
ENDROOT
BRANCH   1   7
ATOM      7  O   LIG d   1      -6.071  78.988 117.258  0.00  0.00    -0.368 OA
BRANCH   7   8
ATOM      8  C   LIG d   1      -7.354  79.377 117.806  0.00  0.00     0.119 C 
BRANCH   8   9
ATOM      9  C   LIG d   1      -7.382  80.916 117.872  0.00  0.00     0.028 C 
ATOM     10  C   LIG d   1      -7.013  81.451 119.266  0.00  0.00     0.006 C 
ENDBRANCH   8   9
BRANCH   8  11
ATOM     11  C   LIG d   1      -7.507  78.906 119.255  0.00  0.00     0.028 C 
ATOM     12  C   LIG d   1      -8.792  78.096 119.486  0.00  0.00     0.006 C 
ENDBRANCH   8  11
ENDBRANCH   7   8
ENDBRANCH   1   7
BRANCH   6  13
ATOM     13  N   LIG d   1      -6.772  76.057 117.235  0.00  0.00    -0.311 N 
ATOM     14  C   LIG d   1      -7.573  75.860 116.190  0.00  0.00     0.210 C 
ATOM     15  C   LIG d   1      -8.947  75.273 116.530  0.00  0.00     0.109 C 
ATOM     16  O   LIG d   1      -7.264  76.085 115.010  0.00  0.00    -0.276 OA
ATOM     17  H   LIG d   1      -7.091  75.816 118.153  0.00  0.00     0.149 HD
ENDBRANCH   6  13
BRANCH   5  18
ATOM     18  N   LIG d   1      -4.230  74.439 116.726  0.00  0.00     0.381 N 
ATOM     19  H   LIG d   1      -3.288  74.105 116.698  0.00  0.00    -0.090 HD
ATOM     20  H   LIG d   1      -4.507  74.682 115.791  0.00  0.00    -0.090 HD
ATOM     21  H   LIG d   1      -4.831  73.730 117.083  0.00  0.00    -0.090 HD
ENDBRANCH   5  18
BRANCH   3  22
ATOM     22  C   LIG d   1      -1.737  77.998 118.740  0.00  0.00     0.382 C 
ATOM     23  O   LIG d   1      -1.467  77.708 119.930  0.00  0.00    -0.241 OA
ATOM     24  O   LIG d   1      -0.946  78.704 118.085  0.00  0.00    -0.241 OA
ENDBRANCH   3  22
TORSDOF 7
ENDMDL
MODEL 7
REMARK VINA RESULT:      -4.1      2.903      5.382
REMARK  7 active torsions:
REMARK  status: ('A' for Active; 'I' for Inactive)
REMARK    1  A    between atoms: C_2  and  C_3 
REMARK    2  A    between atoms: C_3  and  O_6 
REMARK    3  A    between atoms: C_3  and  C_4 
REMARK    4  A    between atoms: C_7  and  O_6 
REMARK    5  A    between atoms: C_9  and  C_10 
REMARK    6  A    between atoms: N_15  and  C_14 
REMARK    7  A    between atoms: N_20  and  C_19 
REMARK       I    between atoms: C_22  and  N_20 
ROOT
ATOM      1  C   LIG d   1      -4.748  75.213 118.162  0.00  0.00     0.161 C 
ATOM      2  C   LIG d   1      -6.120  75.068 117.901  0.00  0.00     0.016 C 
ATOM      3  C   LIG d   1      -7.021  76.156 117.844  0.00  0.00     0.038 C 
ATOM      4  C   LIG d   1      -6.580  77.487 117.896  0.00  0.00     0.028 C 
ATOM      5  C   LIG d   1      -5.273  77.663 118.662  0.00  0.00    -0.047 C 
ATOM      6  C   LIG d   1      -4.229  76.665 118.110  0.00  0.00     0.091 C 
ENDROOT
BRANCH   1   7
ATOM      7  O   LIG d   1      -3.989  74.378 117.264  0.00  0.00    -0.368 OA
BRANCH   7   8
ATOM      8  C   LIG d   1      -3.645  74.965 115.985  0.00  0.00     0.119 C 
BRANCH   8   9
ATOM      9  C   LIG d   1      -4.660  74.446 114.949  0.00  0.00     0.028 C 
ATOM     10  C   LIG d   1      -5.406  75.586 114.236  0.00  0.00     0.006 C 
ENDBRANCH   8   9
BRANCH   8  11
ATOM     11  C   LIG d   1      -2.279  74.475 115.497  0.00  0.00     0.028 C 
ATOM     12  C   LIG d   1      -1.244  74.367 116.628  0.00  0.00     0.006 C 
ENDBRANCH   8  11
ENDBRANCH   7   8
ENDBRANCH   1   7
BRANCH   6  13
ATOM     13  N   LIG d   1      -2.948  76.712 118.861  0.00  0.00    -0.311 N 
ATOM     14  C   LIG d   1      -1.909  77.459 118.491  0.00  0.00     0.210 C 
ATOM     15  C   LIG d   1      -0.677  77.346 119.395  0.00  0.00     0.109 C 
ATOM     16  O   LIG d   1      -1.901  78.229 117.519  0.00  0.00    -0.276 OA
ATOM     17  H   LIG d   1      -2.878  76.142 119.681  0.00  0.00     0.149 HD
ENDBRANCH   6  13
BRANCH   5  18
ATOM     18  N   LIG d   1      -4.859  79.071 118.520  0.00  0.00     0.381 N 
ATOM     19  H   LIG d   1      -4.600  79.254 117.571  0.00  0.00    -0.090 HD
ATOM     20  H   LIG d   1      -4.057  79.235 119.103  0.00  0.00    -0.090 HD
ATOM     21  H   LIG d   1      -5.604  79.675 118.791  0.00  0.00    -0.090 HD
ENDBRANCH   5  18
BRANCH   3  22
ATOM     22  C   LIG d   1      -8.385  75.917 117.775  0.00  0.00     0.382 C 
ATOM     23  O   LIG d   1      -8.956  75.864 116.659  0.00  0.00    -0.241 OA
ATOM     24  O   LIG d   1      -9.059  75.797 118.815  0.00  0.00    -0.241 OA
ENDBRANCH   3  22
TORSDOF 7
ENDMDL
MODEL 8
REMARK VINA RESULT:      -4.1      2.815      5.109
REMARK  7 active torsions:
REMARK  status: ('A' for Active; 'I' for Inactive)
REMARK    1  A    between atoms: C_2  and  C_3 
REMARK    2  A    between atoms: C_3  and  O_6 
REMARK    3  A    between atoms: C_3  and  C_4 
REMARK    4  A    between atoms: C_7  and  O_6 
REMARK    5  A    between atoms: C_9  and  C_10 
REMARK    6  A    between atoms: N_15  and  C_14 
REMARK    7  A    between atoms: N_20  and  C_19 
REMARK       I    between atoms: C_22  and  N_20 
ROOT
ATOM      1  C   LIG d   1      -3.228  77.921 115.936  0.00  0.00     0.161 C 
ATOM      2  C   LIG d   1      -2.349  76.871 115.620  0.00  0.00     0.016 C 
ATOM      3  C   LIG d   1      -2.513  75.550 116.096  0.00  0.00     0.038 C 
ATOM      4  C   LIG d   1      -3.658  75.153 116.802  0.00  0.00     0.028 C 
ATOM      5  C   LIG d   1      -4.320  76.291 117.572  0.00  0.00    -0.047 C 
ATOM      6  C   LIG d   1      -4.543  77.483 116.614  0.00  0.00     0.091 C 
ENDROOT
BRANCH   1   7
ATOM      7  O   LIG d   1      -3.508  78.697 114.754  0.00  0.00    -0.368 OA
BRANCH   7   8
ATOM      8  C   LIG d   1      -2.513  78.637 113.702  0.00  0.00     0.119 C 
BRANCH   8   9
ATOM      9  C   LIG d   1      -2.268  80.078 113.214  0.00  0.00     0.028 C 
ATOM     10  C   LIG d   1      -0.781  80.361 112.943  0.00  0.00     0.006 C 
ENDBRANCH   8   9
BRANCH   8  11
ATOM     11  C   LIG d   1      -3.039  77.878 112.480  0.00  0.00     0.028 C 
ATOM     12  C   LIG d   1      -1.958  77.647 111.412  0.00  0.00     0.006 C 
ENDBRANCH   8  11
ENDBRANCH   7   8
ENDBRANCH   1   7
BRANCH   6  13
ATOM     13  N   LIG d   1      -5.109  78.669 117.306  0.00  0.00    -0.311 N 
ATOM     14  C   LIG d   1      -6.413  78.839 117.522  0.00  0.00     0.210 C 
ATOM     15  C   LIG d   1      -6.785  80.142 118.236  0.00  0.00     0.109 C 
ATOM     16  O   LIG d   1      -7.292  78.020 117.219  0.00  0.00    -0.276 OA
ATOM     17  H   LIG d   1      -4.463  79.369 117.614  0.00  0.00     0.149 HD
ENDBRANCH   6  13
BRANCH   5  18
ATOM     18  N   LIG d   1      -5.574  75.769 118.148  0.00  0.00     0.381 N 
ATOM     19  H   LIG d   1      -6.301  76.450 118.049  0.00  0.00    -0.090 HD
ATOM     20  H   LIG d   1      -5.435  75.597 119.128  0.00  0.00    -0.090 HD
ATOM     21  H   LIG d   1      -5.835  74.925 117.688  0.00  0.00    -0.090 HD
ENDBRANCH   5  18
BRANCH   3  22
ATOM     22  C   LIG d   1      -1.504  74.619 115.900  0.00  0.00     0.382 C 
ATOM     23  O   LIG d   1      -1.271  74.180 114.748  0.00  0.00    -0.241 OA
ATOM     24  O   LIG d   1      -0.854  74.180 116.867  0.00  0.00    -0.241 OA
ENDBRANCH   3  22
TORSDOF 7
ENDMDL
MODEL 9
REMARK VINA RESULT:      -4.0      3.028      4.305
REMARK  7 active torsions:
REMARK  status: ('A' for Active; 'I' for Inactive)
REMARK    1  A    between atoms: C_2  and  C_3 
REMARK    2  A    between atoms: C_3  and  O_6 
REMARK    3  A    between atoms: C_3  and  C_4 
REMARK    4  A    between atoms: C_7  and  O_6 
REMARK    5  A    between atoms: C_9  and  C_10 
REMARK    6  A    between atoms: N_15  and  C_14 
REMARK    7  A    between atoms: N_20  and  C_19 
REMARK       I    between atoms: C_22  and  N_20 
ROOT
ATOM      1  C   LIG d   1      -3.511  77.909 117.054  0.00  0.00     0.161 C 
ATOM      2  C   LIG d   1      -2.581  76.874 117.248  0.00  0.00     0.016 C 
ATOM      3  C   LIG d   1      -2.751  75.845 118.203  0.00  0.00     0.038 C 
ATOM      4  C   LIG d   1      -3.942  75.696 118.929  0.00  0.00     0.028 C 
ATOM      5  C   LIG d   1      -4.698  77.005 119.128  0.00  0.00    -0.047 C 
ATOM      6  C   LIG d   1      -4.868  77.700 117.758  0.00  0.00     0.091 C 
ENDROOT
BRANCH   1   7
ATOM      7  O   LIG d   1      -3.708  78.130 115.643  0.00  0.00    -0.368 OA
BRANCH   7   8
ATOM      8  C   LIG d   1      -3.128  77.142 114.756  0.00  0.00     0.119 C 
BRANCH   8   9
ATOM      9  C   LIG d   1      -2.290  77.897 113.706  0.00  0.00     0.028 C 
ATOM     10  C   LIG d   1      -2.965  77.922 112.324  0.00  0.00     0.006 C 
ENDBRANCH   8   9
BRANCH   8  11
ATOM     11  C   LIG d   1      -4.209  76.406 113.959  0.00  0.00     0.028 C 
ATOM     12  C   LIG d   1      -4.932  75.332 114.787  0.00  0.00     0.006 C 
ENDBRANCH   8  11
ENDBRANCH   7   8
ENDBRANCH   1   7
BRANCH   6  13
ATOM     13  N   LIG d   1      -5.524  79.029 117.874  0.00  0.00    -0.311 N 
ATOM     14  C   LIG d   1      -6.837  79.212 117.744  0.00  0.00     0.210 C 
ATOM     15  C   LIG d   1      -7.304  80.665 117.880  0.00  0.00     0.109 C 
ATOM     16  O   LIG d   1      -7.663  78.305 117.562  0.00  0.00    -0.276 OA
ATOM     17  H   LIG d   1      -4.932  79.816 118.052  0.00  0.00     0.149 HD
ENDBRANCH   6  13
BRANCH   5  18
ATOM     18  N   LIG d   1      -5.983  76.683 119.777  0.00  0.00     0.381 N 
ATOM     19  H   LIG d   1      -6.675  76.491 119.080  0.00  0.00    -0.090 HD
ATOM     20  H   LIG d   1      -6.286  77.478 120.311  0.00  0.00    -0.090 HD
ATOM     21  H   LIG d   1      -5.875  75.894 120.375  0.00  0.00    -0.090 HD
ENDBRANCH   5  18
BRANCH   3  22
ATOM     22  C   LIG d   1      -1.704  74.975 118.469  0.00  0.00     0.382 C 
ATOM     23  O   LIG d   1      -1.413  74.689 119.655  0.00  0.00    -0.241 OA
ATOM     24  O   LIG d   1      -1.020  74.508 117.539  0.00  0.00    -0.241 OA
ENDBRANCH   3  22
TORSDOF 7
ENDMDL
