MODEL 1
REMARK VINA RESULT:      -5.6      0.000      0.000
REMARK  7 active torsions:
REMARK  status: ('A' for Active; 'I' for Inactive)
REMARK    1  A    between atoms: C_2  and  C_3 
REMARK    2  A    between atoms: C_3  and  O_6 
REMARK    3  A    between atoms: C_3  and  C_4 
REMARK    4  A    between atoms: C_7  and  O_6 
REMARK    5  A    between atoms: C_9  and  C_10 
REMARK    6  A    between atoms: N_15  and  C_14 
REMARK    7  A    between atoms: N_20  and  C_19 
REMARK       I    between atoms: C_22  and  N_20 
ROOT
ATOM      1  C   LIG d   1      -2.986  77.170 113.149  0.00  0.00     0.161 C 
ATOM      2  C   LIG d   1      -2.662  78.446 112.659  0.00  0.00     0.016 C 
ATOM      3  C   LIG d   1      -2.602  79.600 113.474  0.00  0.00     0.038 C 
ATOM      4  C   LIG d   1      -2.714  79.528 114.871  0.00  0.00     0.028 C 
ATOM      5  C   LIG d   1      -3.540  78.340 115.352  0.00  0.00    -0.047 C 
ATOM      6  C   LIG d   1      -3.002  77.052 114.688  0.00  0.00     0.091 C 
ENDROOT
BRANCH   1   7
ATOM      7  O   LIG d   1      -2.096  76.188 112.581  0.00  0.00    -0.368 OA
BRANCH   7   8
ATOM      8  C   LIG d   1      -0.693  76.546 112.545  0.00  0.00     0.119 C 
BRANCH   8   9
ATOM      9  C   LIG d   1      -0.146  76.135 111.164  0.00  0.00     0.028 C 
ATOM     10  C   LIG d   1       0.890  75.003 111.256  0.00  0.00     0.006 C 
ENDBRANCH   8   9
BRANCH   8  11
ATOM     11  C   LIG d   1       0.116  75.732 113.559  0.00  0.00     0.028 C 
ATOM     12  C   LIG d   1       0.507  76.548 114.801  0.00  0.00     0.006 C 
ENDBRANCH   8  11
ENDBRANCH   7   8
ENDBRANCH   1   7
BRANCH   6  13
ATOM     13  N   LIG d   1      -3.808  75.854 115.039  0.00  0.00    -0.311 N 
ATOM     14  C   LIG d   1      -5.101  75.727 114.742  0.00  0.00     0.210 C 
ATOM     15  C   LIG d   1      -5.747  74.420 115.213  0.00  0.00     0.109 C 
ATOM     16  O   LIG d   1      -5.765  76.559 114.106  0.00  0.00    -0.276 OA
ATOM     17  H   LIG d   1      -3.340  75.117 115.528  0.00  0.00     0.149 HD
ENDBRANCH   6  13
BRANCH   5  18
ATOM     18  N   LIG d   1      -3.460  78.308 116.824  0.00  0.00     0.381 N 
ATOM     19  H   LIG d   1      -4.237  78.800 117.217  0.00  0.00    -0.090 HD
ATOM     20  H   LIG d   1      -2.615  78.769 117.114  0.00  0.00    -0.090 HD
ATOM     21  H   LIG d   1      -3.458  77.365 117.145  0.00  0.00    -0.090 HD
ENDBRANCH   5  18
BRANCH   3  22
ATOM     22  C   LIG d   1      -2.467  80.849 112.888  0.00  0.00     0.382 C 
ATOM     23  O   LIG d   1      -1.345  81.228 112.471  0.00  0.00    -0.241 OA
ATOM     24  O   LIG d   1      -3.442  81.619 112.811  0.00  0.00    -0.241 OA
ENDBRANCH   3  22
TORSDOF 7
ENDMDL
MODEL 2
REMARK VINA RESULT:      -5.4      2.553      4.784
REMARK  7 active torsions:
REMARK  status: ('A' for Active; 'I' for Inactive)
REMARK    1  A    between atoms: C_2  and  C_3 
REMARK    2  A    between atoms: C_3  and  O_6 
REMARK    3  A    between atoms: C_3  and  C_4 
REMARK    4  A    between atoms: C_7  and  O_6 
REMARK    5  A    between atoms: C_9  and  C_10 
REMARK    6  A    between atoms: N_15  and  C_14 
REMARK    7  A    between atoms: N_20  and  C_19 
REMARK       I    between atoms: C_22  and  N_20 
ROOT
ATOM      1  C   LIG d   1      -2.728  77.305 114.747  0.00  0.00     0.161 C 
ATOM      2  C   LIG d   1      -3.061  77.489 113.394  0.00  0.00     0.016 C 
ATOM      3  C   LIG d   1      -2.170  77.219 112.330  0.00  0.00     0.038 C 
ATOM      4  C   LIG d   1      -0.929  76.600 112.541  0.00  0.00     0.028 C 
ATOM      5  C   LIG d   1      -0.349  76.861 113.927  0.00  0.00    -0.047 C 
ATOM      6  C   LIG d   1      -1.419  76.525 114.990  0.00  0.00     0.091 C 
ENDROOT
BRANCH   1   7
ATOM      7  O   LIG d   1      -3.824  76.673 115.438  0.00  0.00    -0.368 OA
BRANCH   7   8
ATOM      8  C   LIG d   1      -3.890  75.229 115.342  0.00  0.00     0.119 C 
BRANCH   8   9
ATOM      9  C   LIG d   1      -5.241  74.870 114.693  0.00  0.00     0.028 C 
ATOM     10  C   LIG d   1      -6.261  76.017 114.788  0.00  0.00     0.006 C 
ENDBRANCH   8   9
BRANCH   8  11
ATOM     11  C   LIG d   1      -3.920  74.579 116.728  0.00  0.00     0.028 C 
ATOM     12  C   LIG d   1      -4.059  75.605 117.864  0.00  0.00     0.006 C 
ENDBRANCH   8  11
ENDBRANCH   7   8
ENDBRANCH   1   7
BRANCH   6  13
ATOM     13  N   LIG d   1      -0.963  76.833 116.371  0.00  0.00    -0.311 N 
ATOM     14  C   LIG d   1      -0.473  75.915 117.203  0.00  0.00     0.210 C 
ATOM     15  C   LIG d   1      -0.080  76.441 118.587  0.00  0.00     0.109 C 
ATOM     16  O   LIG d   1      -0.298  74.722 116.915  0.00  0.00    -0.276 OA
ATOM     17  H   LIG d   1      -1.040  77.783 116.676  0.00  0.00     0.149 HD
ENDBRANCH   6  13
BRANCH   5  18
ATOM     18  N   LIG d   1       0.873  76.047 114.059  0.00  0.00     0.381 N 
ATOM     19  H   LIG d   1       1.680  76.636 114.011  0.00  0.00    -0.090 HD
ATOM     20  H   LIG d   1       0.914  75.394 113.296  0.00  0.00    -0.090 HD
ATOM     21  H   LIG d   1       0.864  75.555 114.926  0.00  0.00    -0.090 HD
ENDBRANCH   5  18
BRANCH   3  22
ATOM     22  C   LIG d   1      -2.502  77.607 111.041  0.00  0.00     0.382 C 
ATOM     23  O   LIG d   1      -3.567  77.200 110.518  0.00  0.00    -0.241 OA
ATOM     24  O   LIG d   1      -1.728  78.324 110.378  0.00  0.00    -0.241 OA
ENDBRANCH   3  22
TORSDOF 7
ENDMDL
MODEL 3
REMARK VINA RESULT:      -5.3      2.982      5.478
REMARK  7 active torsions:
REMARK  status: ('A' for Active; 'I' for Inactive)
REMARK    1  A    between atoms: C_2  and  C_3 
REMARK    2  A    between atoms: C_3  and  O_6 
REMARK    3  A    between atoms: C_3  and  C_4 
REMARK    4  A    between atoms: C_7  and  O_6 
REMARK    5  A    between atoms: C_9  and  C_10 
REMARK    6  A    between atoms: N_15  and  C_14 
REMARK    7  A    between atoms: N_20  and  C_19 
REMARK       I    between atoms: C_22  and  N_20 
ROOT
ATOM      1  C   LIG d   1      -1.599  75.965 114.547  0.00  0.00     0.161 C 
ATOM      2  C   LIG d   1      -1.393  75.558 115.876  0.00  0.00     0.016 C 
ATOM      3  C   LIG d   1      -0.725  76.349 116.838  0.00  0.00     0.038 C 
ATOM      4  C   LIG d   1      -0.346  77.674 116.574  0.00  0.00     0.028 C 
ATOM      5  C   LIG d   1      -0.082  77.946 115.097  0.00  0.00    -0.047 C 
ATOM      6  C   LIG d   1      -1.291  77.452 114.271  0.00  0.00     0.091 C 
ENDROOT
BRANCH   1   7
ATOM      7  O   LIG d   1      -2.945  75.648 114.141  0.00  0.00    -0.368 OA
BRANCH   7   8
ATOM      8  C   LIG d   1      -3.928  75.567 115.203  0.00  0.00     0.119 C 
BRANCH   8   9
ATOM      9  C   LIG d   1      -4.939  74.470 114.814  0.00  0.00     0.028 C 
ATOM     10  C   LIG d   1      -6.058  74.308 115.857  0.00  0.00     0.006 C 
ENDBRANCH   8   9
BRANCH   8  11
ATOM     11  C   LIG d   1      -4.748  76.857 115.303  0.00  0.00     0.028 C 
ATOM     12  C   LIG d   1      -4.327  77.739 116.489  0.00  0.00     0.006 C 
ENDBRANCH   8  11
ENDBRANCH   7   8
ENDBRANCH   1   7
BRANCH   6  13
ATOM     13  N   LIG d   1      -1.079  77.603 112.808  0.00  0.00    -0.311 N 
ATOM     14  C   LIG d   1      -1.986  78.127 111.986  0.00  0.00     0.210 C 
ATOM     15  C   LIG d   1      -1.573  78.172 110.511  0.00  0.00     0.109 C 
ATOM     16  O   LIG d   1      -3.081  78.588 112.342  0.00  0.00    -0.276 OA
ATOM     17  H   LIG d   1      -0.205  77.284 112.439  0.00  0.00     0.149 HD
ENDBRANCH   6  13
BRANCH   5  18
ATOM     18  N   LIG d   1       0.168  79.392 114.948  0.00  0.00     0.381 N 
ATOM     19  H   LIG d   1       1.141  79.553 114.782  0.00  0.00    -0.090 HD
ATOM     20  H   LIG d   1      -0.087  79.856 115.802  0.00  0.00    -0.090 HD
ATOM     21  H   LIG d   1      -0.370  79.755 114.192  0.00  0.00    -0.090 HD
ENDBRANCH   5  18
BRANCH   3  22
ATOM     22  C   LIG d   1      -0.393  75.801 118.067  0.00  0.00     0.382 C 
ATOM     23  O   LIG d   1      -0.423  74.558 118.228  0.00  0.00    -0.241 OA
ATOM     24  O   LIG d   1      -0.106  76.538 119.030  0.00  0.00    -0.241 OA
ENDBRANCH   3  22
TORSDOF 7
ENDMDL
MODEL 4
REMARK VINA RESULT:      -5.2      2.076      4.523
REMARK  7 active torsions:
REMARK  status: ('A' for Active; 'I' for Inactive)
REMARK    1  A    between atoms: C_2  and  C_3 
REMARK    2  A    between atoms: C_3  and  O_6 
REMARK    3  A    between atoms: C_3  and  C_4 
REMARK    4  A    between atoms: C_7  and  O_6 
REMARK    5  A    between atoms: C_9  and  C_10 
REMARK    6  A    between atoms: N_15  and  C_14 
REMARK    7  A    between atoms: N_20  and  C_19 
REMARK       I    between atoms: C_22  and  N_20 
ROOT
ATOM      1  C   LIG d   1      -3.078  77.811 114.789  0.00  0.00     0.161 C 
ATOM      2  C   LIG d   1      -3.149  79.105 114.247  0.00  0.00     0.016 C 
ATOM      3  C   LIG d   1      -2.371  79.530 113.145  0.00  0.00     0.038 C 
ATOM      4  C   LIG d   1      -1.576  78.638 112.410  0.00  0.00     0.028 C 
ATOM      5  C   LIG d   1      -1.088  77.447 113.228  0.00  0.00    -0.047 C 
ATOM      6  C   LIG d   1      -2.299  76.792 113.931  0.00  0.00     0.091 C 
ENDROOT
BRANCH   1   7
ATOM      7  O   LIG d   1      -4.407  77.323 115.062  0.00  0.00    -0.368 OA
BRANCH   7   8
ATOM      8  C   LIG d   1      -4.748  77.152 116.459  0.00  0.00     0.119 C 
BRANCH   8   9
ATOM      9  C   LIG d   1      -5.266  75.711 116.637  0.00  0.00     0.028 C 
ATOM     10  C   LIG d   1      -5.478  74.994 115.293  0.00  0.00     0.006 C 
ENDBRANCH   8   9
BRANCH   8  11
ATOM     11  C   LIG d   1      -5.917  78.055 116.862  0.00  0.00     0.028 C 
ATOM     12  C   LIG d   1      -5.479  79.497 117.168  0.00  0.00     0.006 C 
ENDBRANCH   8  11
ENDBRANCH   7   8
ENDBRANCH   1   7
BRANCH   6  13
ATOM     13  N   LIG d   1      -1.899  75.670 114.820  0.00  0.00    -0.311 N 
ATOM     14  C   LIG d   1      -1.093  75.817 115.869  0.00  0.00     0.210 C 
ATOM     15  C   LIG d   1      -0.792  74.527 116.640  0.00  0.00     0.109 C 
ATOM     16  O   LIG d   1      -0.624  76.898 116.255  0.00  0.00    -0.276 OA
ATOM     17  H   LIG d   1      -2.259  74.762 114.598  0.00  0.00     0.149 HD
ENDBRANCH   6  13
BRANCH   5  18
ATOM     18  N   LIG d   1      -0.389  76.531 112.308  0.00  0.00     0.381 N 
ATOM     19  H   LIG d   1       0.348  76.060 112.794  0.00  0.00    -0.090 HD
ATOM     20  H   LIG d   1       0.019  77.068 111.562  0.00  0.00    -0.090 HD
ATOM     21  H   LIG d   1      -1.030  75.866 111.936  0.00  0.00    -0.090 HD
ENDBRANCH   5  18
BRANCH   3  22
ATOM     22  C   LIG d   1      -2.355  80.871 112.792  0.00  0.00     0.382 C 
ATOM     23  O   LIG d   1      -3.417  81.539 112.817  0.00  0.00    -0.241 OA
ATOM     24  O   LIG d   1      -1.300  81.411 112.408  0.00  0.00    -0.241 OA
ENDBRANCH   3  22
TORSDOF 7
ENDMDL
MODEL 5
REMARK VINA RESULT:      -5.2      2.742      5.590
REMARK  7 active torsions:
REMARK  status: ('A' for Active; 'I' for Inactive)
REMARK    1  A    between atoms: C_2  and  C_3 
REMARK    2  A    between atoms: C_3  and  O_6 
REMARK    3  A    between atoms: C_3  and  C_4 
REMARK    4  A    between atoms: C_7  and  O_6 
REMARK    5  A    between atoms: C_9  and  C_10 
REMARK    6  A    between atoms: N_15  and  C_14 
REMARK    7  A    between atoms: N_20  and  C_19 
REMARK       I    between atoms: C_22  and  N_20 
ROOT
ATOM      1  C   LIG d   1      -1.451  79.376 113.876  0.00  0.00     0.161 C 
ATOM      2  C   LIG d   1      -2.350  78.344 114.196  0.00  0.00     0.016 C 
ATOM      3  C   LIG d   1      -2.817  77.400 113.253  0.00  0.00     0.038 C 
ATOM      4  C   LIG d   1      -2.297  77.330 111.952  0.00  0.00     0.028 C 
ATOM      5  C   LIG d   1      -1.763  78.664 111.442  0.00  0.00    -0.047 C 
ATOM      6  C   LIG d   1      -0.787  79.248 112.489  0.00  0.00     0.091 C 
ENDROOT
BRANCH   1   7
ATOM      7  O   LIG d   1      -0.446  79.484 114.904  0.00  0.00    -0.368 OA
BRANCH   7   8
ATOM      8  C   LIG d   1      -0.451  78.444 115.912  0.00  0.00     0.119 C 
BRANCH   8   9
ATOM      9  C   LIG d   1      -0.412  79.133 117.290  0.00  0.00     0.028 C 
ATOM     10  C   LIG d   1      -1.781  79.123 117.990  0.00  0.00     0.006 C 
ENDBRANCH   8   9
BRANCH   8  11
ATOM     11  C   LIG d   1       0.825  77.598 115.845  0.00  0.00     0.028 C 
ATOM     12  C   LIG d   1       0.670  76.356 114.954  0.00  0.00     0.006 C 
ENDBRANCH   8  11
ENDBRANCH   7   8
ENDBRANCH   1   7
BRANCH   6  13
ATOM     13  N   LIG d   1      -0.283  80.593 112.106  0.00  0.00    -0.311 N 
ATOM     14  C   LIG d   1      -1.041  81.688 112.108  0.00  0.00     0.210 C 
ATOM     15  C   LIG d   1      -0.328  82.968 111.660  0.00  0.00     0.109 C 
ATOM     16  O   LIG d   1      -2.226  81.727 112.470  0.00  0.00    -0.276 OA
ATOM     17  H   LIG d   1       0.677  80.658 111.830  0.00  0.00     0.149 HD
ENDBRANCH   6  13
BRANCH   5  18
ATOM     18  N   LIG d   1      -1.127  78.418 110.133  0.00  0.00     0.381 N 
ATOM     19  H   LIG d   1      -1.498  77.582 109.729  0.00  0.00    -0.090 HD
ATOM     20  H   LIG d   1      -0.140  78.291 110.270  0.00  0.00    -0.090 HD
ATOM     21  H   LIG d   1      -1.289  79.191 109.525  0.00  0.00    -0.090 HD
ENDBRANCH   5  18
BRANCH   3  22
ATOM     22  C   LIG d   1      -3.846  76.536 113.598  0.00  0.00     0.382 C 
ATOM     23  O   LIG d   1      -5.030  76.817 113.291  0.00  0.00    -0.241 OA
ATOM     24  O   LIG d   1      -3.610  75.502 114.251  0.00  0.00    -0.241 OA
ENDBRANCH   3  22
TORSDOF 7
ENDMDL
MODEL 6
REMARK VINA RESULT:      -5.0      3.196      5.593
REMARK  7 active torsions:
REMARK  status: ('A' for Active; 'I' for Inactive)
REMARK    1  A    between atoms: C_2  and  C_3 
REMARK    2  A    between atoms: C_3  and  O_6 
REMARK    3  A    between atoms: C_3  and  C_4 
REMARK    4  A    between atoms: C_7  and  O_6 
REMARK    5  A    between atoms: C_9  and  C_10 
REMARK    6  A    between atoms: N_15  and  C_14 
REMARK    7  A    between atoms: N_20  and  C_19 
REMARK       I    between atoms: C_22  and  N_20 
ROOT
ATOM      1  C   LIG d   1      -3.184  77.512 115.600  0.00  0.00     0.161 C 
ATOM      2  C   LIG d   1      -2.942  77.670 116.974  0.00  0.00     0.016 C 
ATOM      3  C   LIG d   1      -1.842  78.391 117.493  0.00  0.00     0.038 C 
ATOM      4  C   LIG d   1      -0.988  79.136 116.666  0.00  0.00     0.028 C 
ATOM      5  C   LIG d   1      -0.897  78.594 115.244  0.00  0.00    -0.047 C 
ATOM      6  C   LIG d   1      -2.326  78.411 114.685  0.00  0.00     0.091 C 
ENDROOT
BRANCH   1   7
ATOM      7  O   LIG d   1      -4.585  77.710 115.325  0.00  0.00    -0.368 OA
BRANCH   7   8
ATOM      8  C   LIG d   1      -5.504  76.858 116.052  0.00  0.00     0.119 C 
BRANCH   8   9
ATOM      9  C   LIG d   1      -6.175  75.921 115.030  0.00  0.00     0.028 C 
ATOM     10  C   LIG d   1      -5.500  74.541 114.966  0.00  0.00     0.006 C 
ENDBRANCH   8   9
BRANCH   8  11
ATOM     11  C   LIG d   1      -6.646  77.669 116.670  0.00  0.00     0.028 C 
ATOM     12  C   LIG d   1      -7.972  76.893 116.717  0.00  0.00     0.006 C 
ENDBRANCH   8  11
ENDBRANCH   7   8
ENDBRANCH   1   7
BRANCH   6  13
ATOM     13  N   LIG d   1      -2.331  77.805 113.327  0.00  0.00    -0.311 N 
ATOM     14  C   LIG d   1      -2.343  78.522 112.205  0.00  0.00     0.210 C 
ATOM     15  C   LIG d   1      -2.366  77.699 110.913  0.00  0.00     0.109 C 
ATOM     16  O   LIG d   1      -2.305  79.760 112.156  0.00  0.00    -0.276 OA
ATOM     17  H   LIG d   1      -2.330  76.805 113.274  0.00  0.00     0.149 HD
ENDBRANCH   6  13
BRANCH   5  18
ATOM     18  N   LIG d   1      -0.085  79.542 114.457  0.00  0.00     0.381 N 
ATOM     19  H   LIG d   1       0.149  80.335 115.019  0.00  0.00    -0.090 HD
ATOM     20  H   LIG d   1      -0.627  79.860 113.672  0.00  0.00    -0.090 HD
ATOM     21  H   LIG d   1       0.746  79.095 114.137  0.00  0.00    -0.090 HD
ENDBRANCH   5  18
BRANCH   3  22
ATOM     22  C   LIG d   1      -1.564  78.338 118.851  0.00  0.00     0.382 C 
ATOM     23  O   LIG d   1      -0.596  77.657 119.266  0.00  0.00    -0.241 OA
ATOM     24  O   LIG d   1      -2.296  78.927 119.668  0.00  0.00    -0.241 OA
ENDBRANCH   3  22
TORSDOF 7
ENDMDL
MODEL 7
REMARK VINA RESULT:      -4.7      2.282      4.552
REMARK  7 active torsions:
REMARK  status: ('A' for Active; 'I' for Inactive)
REMARK    1  A    between atoms: C_2  and  C_3 
REMARK    2  A    between atoms: C_3  and  O_6 
REMARK    3  A    between atoms: C_3  and  C_4 
REMARK    4  A    between atoms: C_7  and  O_6 
REMARK    5  A    between atoms: C_9  and  C_10 
REMARK    6  A    between atoms: N_15  and  C_14 
REMARK    7  A    between atoms: N_20  and  C_19 
REMARK       I    between atoms: C_22  and  N_20 
ROOT
ATOM      1  C   LIG d   1      -2.262  76.274 114.667  0.00  0.00     0.161 C 
ATOM      2  C   LIG d   1      -3.594  75.975 114.339  0.00  0.00     0.016 C 
ATOM      3  C   LIG d   1      -4.705  76.510 115.031  0.00  0.00     0.038 C 
ATOM      4  C   LIG d   1      -4.560  77.507 116.008  0.00  0.00     0.028 C 
ATOM      5  C   LIG d   1      -3.211  77.467 116.718  0.00  0.00    -0.047 C 
ATOM      6  C   LIG d   1      -2.087  77.445 115.657  0.00  0.00     0.091 C 
ENDROOT
BRANCH   1   7
ATOM      7  O   LIG d   1      -1.506  76.518 113.464  0.00  0.00    -0.368 OA
BRANCH   7   8
ATOM      8  C   LIG d   1      -2.042  77.521 112.566  0.00  0.00     0.119 C 
BRANCH   8   9
ATOM      9  C   LIG d   1      -1.647  77.117 111.133  0.00  0.00     0.028 C 
ATOM     10  C   LIG d   1      -1.210  78.322 110.283  0.00  0.00     0.006 C 
ENDBRANCH   8   9
BRANCH   8  11
ATOM     11  C   LIG d   1      -1.387  78.885 112.799  0.00  0.00     0.028 C 
ATOM     12  C   LIG d   1      -2.398  79.973 113.193  0.00  0.00     0.006 C 
ENDBRANCH   8  11
ENDBRANCH   7   8
ENDBRANCH   1   7
BRANCH   6  13
ATOM     13  N   LIG d   1      -0.736  77.321 116.265  0.00  0.00    -0.311 N 
ATOM     14  C   LIG d   1       0.087  78.354 116.440  0.00  0.00     0.210 C 
ATOM     15  C   LIG d   1       1.440  78.004 117.067  0.00  0.00     0.109 C 
ATOM     16  O   LIG d   1      -0.188  79.532 116.164  0.00  0.00    -0.276 OA
ATOM     17  H   LIG d   1      -0.444  76.406 116.546  0.00  0.00     0.149 HD
ENDBRANCH   6  13
BRANCH   5  18
ATOM     18  N   LIG d   1      -3.142  78.640 117.609  0.00  0.00     0.381 N 
ATOM     19  H   LIG d   1      -3.653  79.401 117.208  0.00  0.00    -0.090 HD
ATOM     20  H   LIG d   1      -2.181  78.920 117.704  0.00  0.00    -0.090 HD
ATOM     21  H   LIG d   1      -3.519  78.412 118.503  0.00  0.00    -0.090 HD
ENDBRANCH   5  18
BRANCH   3  22
ATOM     22  C   LIG d   1      -5.976  76.019 114.775  0.00  0.00     0.382 C 
ATOM     23  O   LIG d   1      -6.371  74.974 115.345  0.00  0.00    -0.241 OA
ATOM     24  O   LIG d   1      -6.716  76.583 113.947  0.00  0.00    -0.241 OA
ENDBRANCH   3  22
TORSDOF 7
ENDMDL
MODEL 8
REMARK VINA RESULT:      -4.6      3.670      5.959
REMARK  7 active torsions:
REMARK  status: ('A' for Active; 'I' for Inactive)
REMARK    1  A    between atoms: C_2  and  C_3 
REMARK    2  A    between atoms: C_3  and  O_6 
REMARK    3  A    between atoms: C_3  and  C_4 
REMARK    4  A    between atoms: C_7  and  O_6 
REMARK    5  A    between atoms: C_9  and  C_10 
REMARK    6  A    between atoms: N_15  and  C_14 
REMARK    7  A    between atoms: N_20  and  C_19 
REMARK       I    between atoms: C_22  and  N_20 
ROOT
ATOM      1  C   LIG d   1      -4.813  76.926 118.008  0.00  0.00     0.161 C 
ATOM      2  C   LIG d   1      -5.613  78.065 118.196  0.00  0.00     0.016 C 
ATOM      3  C   LIG d   1      -5.404  79.284 117.512  0.00  0.00     0.038 C 
ATOM      4  C   LIG d   1      -4.467  79.401 116.474  0.00  0.00     0.028 C 
ATOM      5  C   LIG d   1      -3.300  78.428 116.599  0.00  0.00    -0.047 C 
ATOM      6  C   LIG d   1      -3.857  77.000 116.799  0.00  0.00     0.091 C 
ENDROOT
BRANCH   1   7
ATOM      7  O   LIG d   1      -5.646  75.753 117.916  0.00  0.00    -0.368 OA
BRANCH   7   8
ATOM      8  C   LIG d   1      -6.449  75.634 116.716  0.00  0.00     0.119 C 
BRANCH   8   9
ATOM      9  C   LIG d   1      -7.928  75.747 117.135  0.00  0.00     0.028 C 
ATOM     10  C   LIG d   1      -8.192  75.146 118.525  0.00  0.00     0.006 C 
ENDBRANCH   8   9
BRANCH   8  11
ATOM     11  C   LIG d   1      -6.311  74.243 116.089  0.00  0.00     0.028 C 
ATOM     12  C   LIG d   1      -5.550  74.265 114.754  0.00  0.00     0.006 C 
ENDBRANCH   8  11
ENDBRANCH   7   8
ENDBRANCH   1   7
BRANCH   6  13
ATOM     13  N   LIG d   1      -2.781  75.997 117.015  0.00  0.00    -0.311 N 
ATOM     14  C   LIG d   1      -2.187  75.335 116.024  0.00  0.00     0.210 C 
ATOM     15  C   LIG d   1      -1.117  74.332 116.466  0.00  0.00     0.109 C 
ATOM     16  O   LIG d   1      -2.421  75.506 114.818  0.00  0.00    -0.276 OA
ATOM     17  H   LIG d   1      -2.506  75.819 117.961  0.00  0.00     0.149 HD
ENDBRANCH   6  13
BRANCH   5  18
ATOM     18  N   LIG d   1      -2.475  78.562 115.384  0.00  0.00     0.381 N 
ATOM     19  H   LIG d   1      -2.331  79.531 115.177  0.00  0.00    -0.090 HD
ATOM     20  H   LIG d   1      -2.964  78.145 114.611  0.00  0.00    -0.090 HD
ATOM     21  H   LIG d   1      -1.598  78.109 115.515  0.00  0.00    -0.090 HD
ENDBRANCH   5  18
BRANCH   3  22
ATOM     22  C   LIG d   1      -6.110  80.416 117.892  0.00  0.00     0.382 C 
ATOM     23  O   LIG d   1      -7.077  80.814 117.198  0.00  0.00    -0.241 OA
ATOM     24  O   LIG d   1      -5.765  81.068 118.895  0.00  0.00    -0.241 OA
ENDBRANCH   3  22
TORSDOF 7
ENDMDL
MODEL 9
REMARK VINA RESULT:      -4.6      3.832      5.177
REMARK  7 active torsions:
REMARK  status: ('A' for Active; 'I' for Inactive)
REMARK    1  A    between atoms: C_2  and  C_3 
REMARK    2  A    between atoms: C_3  and  O_6 
REMARK    3  A    between atoms: C_3  and  C_4 
REMARK    4  A    between atoms: C_7  and  O_6 
REMARK    5  A    between atoms: C_9  and  C_10 
REMARK    6  A    between atoms: N_15  and  C_14 
REMARK    7  A    between atoms: N_20  and  C_19 
REMARK       I    between atoms: C_22  and  N_20 
ROOT
ATOM      1  C   LIG d   1      -5.311  78.401 117.158  0.00  0.00     0.161 C 
ATOM      2  C   LIG d   1      -5.700  79.739 117.334  0.00  0.00     0.016 C 
ATOM      3  C   LIG d   1      -7.031  80.134 117.604  0.00  0.00     0.038 C 
ATOM      4  C   LIG d   1      -8.042  79.198 117.869  0.00  0.00     0.028 C 
ATOM      5  C   LIG d   1      -7.804  77.846 117.206  0.00  0.00    -0.047 C 
ATOM      6  C   LIG d   1      -6.379  77.360 117.553  0.00  0.00     0.091 C 
ENDROOT
BRANCH   1   7
ATOM      7  O   LIG d   1      -4.082  78.152 117.869  0.00  0.00    -0.368 OA
BRANCH   7   8
ATOM      8  C   LIG d   1      -2.908  77.924 117.051  0.00  0.00     0.119 C 
BRANCH   8   9
ATOM      9  C   LIG d   1      -3.292  78.236 115.592  0.00  0.00     0.028 C 
ATOM     10  C   LIG d   1      -2.785  77.167 114.609  0.00  0.00     0.006 C 
ENDBRANCH   8   9
BRANCH   8  11
ATOM     11  C   LIG d   1      -2.503  76.447 117.056  0.00  0.00     0.028 C 
ATOM     12  C   LIG d   1      -2.800  75.753 118.395  0.00  0.00     0.006 C 
ENDBRANCH   8  11
ENDBRANCH   7   8
ENDBRANCH   1   7
BRANCH   6  13
ATOM     13  N   LIG d   1      -6.034  76.083 116.876  0.00  0.00    -0.311 N 
ATOM     14  C   LIG d   1      -6.127  75.903 115.559  0.00  0.00     0.210 C 
ATOM     15  C   LIG d   1      -5.742  74.504 115.069  0.00  0.00     0.109 C 
ATOM     16  O   LIG d   1      -6.460  76.780 114.748  0.00  0.00    -0.276 OA
ATOM     17  H   LIG d   1      -5.725  75.328 117.456  0.00  0.00     0.149 HD
ENDBRANCH   6  13
BRANCH   5  18
ATOM     18  N   LIG d   1      -8.859  76.928 117.676  0.00  0.00     0.381 N 
ATOM     19  H   LIG d   1      -9.756  77.355 117.561  0.00  0.00    -0.090 HD
ATOM     20  H   LIG d   1      -8.720  76.747 118.655  0.00  0.00    -0.090 HD
ATOM     21  H   LIG d   1      -8.821  76.074 117.164  0.00  0.00    -0.090 HD
ENDBRANCH   5  18
BRANCH   3  22
ATOM     22  C   LIG d   1      -7.369  81.478 117.573  0.00  0.00     0.382 C 
ATOM     23  O   LIG d   1      -6.783  82.290 118.329  0.00  0.00    -0.241 OA
ATOM     24  O   LIG d   1      -8.283  81.882 116.829  0.00  0.00    -0.241 OA
ENDBRANCH   3  22
TORSDOF 7
ENDMDL
