MODEL 1
REMARK VINA RESULT:      -4.6      0.000      0.000
REMARK  7 active torsions:
REMARK  status: ('A' for Active; 'I' for Inactive)
REMARK    1  A    between atoms: C_2  and  C_3 
REMARK    2  A    between atoms: C_3  and  O_6 
REMARK    3  A    between atoms: C_3  and  C_4 
REMARK    4  A    between atoms: C_7  and  O_6 
REMARK    5  A    between atoms: C_9  and  C_10 
REMARK    6  A    between atoms: N_15  and  C_14 
REMARK    7  A    between atoms: N_20  and  C_19 
REMARK       I    between atoms: C_22  and  N_20 
ROOT
ATOM      1  C   LIG d   1      -2.695  77.648 115.809  0.00  0.00     0.161 C 
ATOM      2  C   LIG d   1      -3.046  77.624 114.449  0.00  0.00     0.016 C 
ATOM      3  C   LIG d   1      -2.395  78.401 113.463  0.00  0.00     0.038 C 
ATOM      4  C   LIG d   1      -1.242  79.146 113.749  0.00  0.00     0.028 C 
ATOM      5  C   LIG d   1      -1.156  79.596 115.203  0.00  0.00    -0.047 C 
ATOM      6  C   LIG d   1      -1.368  78.370 116.121  0.00  0.00     0.091 C 
ENDROOT
BRANCH   1   7
ATOM      7  O   LIG d   1      -2.669  76.305 116.331  0.00  0.00    -0.368 OA
BRANCH   7   8
ATOM      8  C   LIG d   1      -2.621  75.240 115.349  0.00  0.00     0.119 C 
BRANCH   8   9
ATOM      9  C   LIG d   1      -3.721  74.224 115.714  0.00  0.00     0.028 C 
ATOM     10  C   LIG d   1      -4.889  74.239 114.713  0.00  0.00     0.006 C 
ENDBRANCH   8   9
BRANCH   8  11
ATOM     11  C   LIG d   1      -1.305  74.462 115.435  0.00  0.00     0.028 C 
ATOM     12  C   LIG d   1      -0.215  75.030 114.512  0.00  0.00     0.006 C 
ENDBRANCH   8  11
ENDBRANCH   7   8
ENDBRANCH   1   7
BRANCH   6  13
ATOM     13  N   LIG d   1      -1.383  78.736 117.561  0.00  0.00    -0.311 N 
ATOM     14  C   LIG d   1      -0.303  78.693 118.340  0.00  0.00     0.210 C 
ATOM     15  C   LIG d   1      -0.543  79.092 119.800  0.00  0.00     0.109 C 
ATOM     16  O   LIG d   1       0.836  78.392 117.954  0.00  0.00    -0.276 OA
ATOM     17  H   LIG d   1      -2.260  79.022 117.950  0.00  0.00     0.149 HD
ENDBRANCH   6  13
BRANCH   5  18
ATOM     18  N   LIG d   1       0.157  80.241 115.394  0.00  0.00     0.381 N 
ATOM     19  H   LIG d   1       0.877  79.665 115.005  0.00  0.00    -0.090 HD
ATOM     20  H   LIG d   1       0.330  80.341 116.378  0.00  0.00    -0.090 HD
ATOM     21  H   LIG d   1       0.164  81.136 114.955  0.00  0.00    -0.090 HD
ENDBRANCH   5  18
BRANCH   3  22
ATOM     22  C   LIG d   1      -2.923  78.468 112.182  0.00  0.00     0.382 C 
ATOM     23  O   LIG d   1      -2.222  78.906 111.238  0.00  0.00    -0.241 OA
ATOM     24  O   LIG d   1      -4.104  78.139 111.968  0.00  0.00    -0.241 OA
ENDBRANCH   3  22
TORSDOF 7
ENDMDL
MODEL 2
REMARK VINA RESULT:      -4.6      3.225      5.559
REMARK  7 active torsions:
REMARK  status: ('A' for Active; 'I' for Inactive)
REMARK    1  A    between atoms: C_2  and  C_3 
REMARK    2  A    between atoms: C_3  and  O_6 
REMARK    3  A    between atoms: C_3  and  C_4 
REMARK    4  A    between atoms: C_7  and  O_6 
REMARK    5  A    between atoms: C_9  and  C_10 
REMARK    6  A    between atoms: N_15  and  C_14 
REMARK    7  A    between atoms: N_20  and  C_19 
REMARK       I    between atoms: C_22  and  N_20 
ROOT
ATOM      1  C   LIG d   1      -3.783  78.398 116.816  0.00  0.00     0.161 C 
ATOM      2  C   LIG d   1      -3.087  79.506 117.326  0.00  0.00     0.016 C 
ATOM      3  C   LIG d   1      -1.806  79.897 116.873  0.00  0.00     0.038 C 
ATOM      4  C   LIG d   1      -1.195  79.290 115.766  0.00  0.00     0.028 C 
ATOM      5  C   LIG d   1      -1.636  77.847 115.546  0.00  0.00    -0.047 C 
ATOM      6  C   LIG d   1      -3.181  77.791 115.532  0.00  0.00     0.091 C 
ENDROOT
BRANCH   1   7
ATOM      7  O   LIG d   1      -5.167  78.744 116.605  0.00  0.00    -0.368 OA
BRANCH   7   8
ATOM      8  C   LIG d   1      -6.103  78.261 117.600  0.00  0.00     0.119 C 
BRANCH   8   9
ATOM      9  C   LIG d   1      -6.940  77.146 116.944  0.00  0.00     0.028 C 
ATOM     10  C   LIG d   1      -8.315  76.975 117.612  0.00  0.00     0.006 C 
ENDBRANCH   8   9
BRANCH   8  11
ATOM     11  C   LIG d   1      -7.110  79.347 117.991  0.00  0.00     0.028 C 
ATOM     12  C   LIG d   1      -6.481  80.748 118.050  0.00  0.00     0.006 C 
ENDBRANCH   8  11
ENDBRANCH   7   8
ENDBRANCH   1   7
BRANCH   6  13
ATOM     13  N   LIG d   1      -3.696  76.402 115.406  0.00  0.00    -0.311 N 
ATOM     14  C   LIG d   1      -4.563  76.025 114.468  0.00  0.00     0.210 C 
ATOM     15  C   LIG d   1      -4.981  74.552 114.528  0.00  0.00     0.109 C 
ATOM     16  O   LIG d   1      -5.002  76.762 113.572  0.00  0.00    -0.276 OA
ATOM     17  H   LIG d   1      -3.369  75.732 116.073  0.00  0.00     0.149 HD
ENDBRANCH   6  13
BRANCH   5  18
ATOM     18  N   LIG d   1      -1.029  77.383 114.284  0.00  0.00     0.381 N 
ATOM     19  H   LIG d   1      -1.742  77.244 113.596  0.00  0.00    -0.090 HD
ATOM     20  H   LIG d   1      -0.573  76.503 114.447  0.00  0.00    -0.090 HD
ATOM     21  H   LIG d   1      -0.368  78.053 113.957  0.00  0.00    -0.090 HD
ENDBRANCH   5  18
BRANCH   3  22
ATOM     22  C   LIG d   1      -1.106  80.879 117.556  0.00  0.00     0.382 C 
ATOM     23  O   LIG d   1      -1.583  81.375 118.605  0.00  0.00    -0.241 OA
ATOM     24  O   LIG d   1      -0.024  81.308 117.111  0.00  0.00    -0.241 OA
ENDBRANCH   3  22
TORSDOF 7
ENDMDL
MODEL 3
REMARK VINA RESULT:      -4.4      2.975      4.326
REMARK  7 active torsions:
REMARK  status: ('A' for Active; 'I' for Inactive)
REMARK    1  A    between atoms: C_2  and  C_3 
REMARK    2  A    between atoms: C_3  and  O_6 
REMARK    3  A    between atoms: C_3  and  C_4 
REMARK    4  A    between atoms: C_7  and  O_6 
REMARK    5  A    between atoms: C_9  and  C_10 
REMARK    6  A    between atoms: N_15  and  C_14 
REMARK    7  A    between atoms: N_20  and  C_19 
REMARK       I    between atoms: C_22  and  N_20 
ROOT
ATOM      1  C   LIG d   1      -3.083  78.908 116.143  0.00  0.00     0.161 C 
ATOM      2  C   LIG d   1      -3.126  79.834 115.087  0.00  0.00     0.016 C 
ATOM      3  C   LIG d   1      -2.447  79.648 113.861  0.00  0.00     0.038 C 
ATOM      4  C   LIG d   1      -1.798  78.444 113.548  0.00  0.00     0.028 C 
ATOM      5  C   LIG d   1      -1.304  77.686 114.776  0.00  0.00    -0.047 C 
ATOM      6  C   LIG d   1      -2.471  77.539 115.778  0.00  0.00     0.091 C 
ENDROOT
BRANCH   1   7
ATOM      7  O   LIG d   1      -4.403  78.736 116.695  0.00  0.00    -0.368 OA
BRANCH   7   8
ATOM      8  C   LIG d   1      -4.741  79.587 117.818  0.00  0.00     0.119 C 
BRANCH   8   9
ATOM      9  C   LIG d   1      -4.433  78.798 119.106  0.00  0.00     0.028 C 
ATOM     10  C   LIG d   1      -5.067  77.397 119.101  0.00  0.00     0.006 C 
ENDBRANCH   8   9
BRANCH   8  11
ATOM     11  C   LIG d   1      -6.244  79.874 117.867  0.00  0.00     0.028 C 
ATOM     12  C   LIG d   1      -6.560  81.368 118.047  0.00  0.00     0.006 C 
ENDBRANCH   8  11
ENDBRANCH   7   8
ENDBRANCH   1   7
BRANCH   6  13
ATOM     13  N   LIG d   1      -2.052  76.883 117.044  0.00  0.00    -0.311 N 
ATOM     14  C   LIG d   1      -2.215  75.583 117.284  0.00  0.00     0.210 C 
ATOM     15  C   LIG d   1      -1.732  75.114 118.660  0.00  0.00     0.109 C 
ATOM     16  O   LIG d   1      -2.685  74.768 116.477  0.00  0.00    -0.276 OA
ATOM     17  H   LIG d   1      -1.633  77.465 117.743  0.00  0.00     0.149 HD
ENDBRANCH   6  13
BRANCH   5  18
ATOM     18  N   LIG d   1      -0.772  76.390 114.314  0.00  0.00     0.381 N 
ATOM     19  H   LIG d   1      -1.010  75.673 114.971  0.00  0.00    -0.090 HD
ATOM     20  H   LIG d   1       0.230  76.449 114.262  0.00  0.00    -0.090 HD
ATOM     21  H   LIG d   1      -1.146  76.167 113.418  0.00  0.00    -0.090 HD
ENDBRANCH   5  18
BRANCH   3  22
ATOM     22  C   LIG d   1      -2.380  80.689 112.947  0.00  0.00     0.382 C 
ATOM     23  O   LIG d   1      -1.267  81.075 112.518  0.00  0.00    -0.241 OA
ATOM     24  O   LIG d   1      -3.416  81.276 112.581  0.00  0.00    -0.241 OA
ENDBRANCH   3  22
TORSDOF 7
ENDMDL
MODEL 4
REMARK VINA RESULT:      -4.3      2.936      4.705
REMARK  7 active torsions:
REMARK  status: ('A' for Active; 'I' for Inactive)
REMARK    1  A    between atoms: C_2  and  C_3 
REMARK    2  A    between atoms: C_3  and  O_6 
REMARK    3  A    between atoms: C_3  and  C_4 
REMARK    4  A    between atoms: C_7  and  O_6 
REMARK    5  A    between atoms: C_9  and  C_10 
REMARK    6  A    between atoms: N_15  and  C_14 
REMARK    7  A    between atoms: N_20  and  C_19 
REMARK       I    between atoms: C_22  and  N_20 
ROOT
ATOM      1  C   LIG d   1      -2.658  79.098 116.250  0.00  0.00     0.161 C 
ATOM      2  C   LIG d   1      -2.865  79.957 115.158  0.00  0.00     0.016 C 
ATOM      3  C   LIG d   1      -2.456  79.652 113.839  0.00  0.00     0.038 C 
ATOM      4  C   LIG d   1      -1.944  78.392 113.495  0.00  0.00     0.028 C 
ATOM      5  C   LIG d   1      -1.253  77.681 114.654  0.00  0.00    -0.047 C 
ATOM      6  C   LIG d   1      -2.202  77.673 115.875  0.00  0.00     0.091 C 
ENDROOT
BRANCH   1   7
ATOM      7  O   LIG d   1      -3.848  79.046 117.062  0.00  0.00    -0.368 OA
BRANCH   7   8
ATOM      8  C   LIG d   1      -4.350  80.318 117.540  0.00  0.00     0.119 C 
BRANCH   8   9
ATOM      9  C   LIG d   1      -3.762  80.548 118.946  0.00  0.00     0.028 C 
ATOM     10  C   LIG d   1      -2.692  81.653 118.961  0.00  0.00     0.006 C 
ENDBRANCH   8   9
BRANCH   8  11
ATOM     11  C   LIG d   1      -5.868  80.280 117.737  0.00  0.00     0.028 C 
ATOM     12  C   LIG d   1      -6.450  81.641 118.151  0.00  0.00     0.006 C 
ENDBRANCH   8  11
ENDBRANCH   7   8
ENDBRANCH   1   7
BRANCH   6  13
ATOM     13  N   LIG d   1      -1.572  77.070 117.078  0.00  0.00    -0.311 N 
ATOM     14  C   LIG d   1      -1.700  75.786 117.408  0.00  0.00     0.210 C 
ATOM     15  C   LIG d   1      -0.986  75.376 118.700  0.00  0.00     0.109 C 
ATOM     16  O   LIG d   1      -2.310  74.941 116.736  0.00  0.00    -0.276 OA
ATOM     17  H   LIG d   1      -1.033  77.678 117.663  0.00  0.00     0.149 HD
ENDBRANCH   6  13
BRANCH   5  18
ATOM     18  N   LIG d   1      -0.891  76.327 114.195  0.00  0.00     0.381 N 
ATOM     19  H   LIG d   1      -0.172  75.952 114.780  0.00  0.00    -0.090 HD
ATOM     20  H   LIG d   1      -0.535  76.386 113.257  0.00  0.00    -0.090 HD
ATOM     21  H   LIG d   1      -1.691  75.734 114.217  0.00  0.00    -0.090 HD
ENDBRANCH   5  18
BRANCH   3  22
ATOM     22  C   LIG d   1      -2.520  80.627 112.856  0.00  0.00     0.382 C 
ATOM     23  O   LIG d   1      -3.582  81.273 112.683  0.00  0.00    -0.241 OA
ATOM     24  O   LIG d   1      -1.545  80.839 112.111  0.00  0.00    -0.241 OA
ENDBRANCH   3  22
TORSDOF 7
ENDMDL
MODEL 5
REMARK VINA RESULT:      -4.1      2.886      4.871
REMARK  7 active torsions:
REMARK  status: ('A' for Active; 'I' for Inactive)
REMARK    1  A    between atoms: C_2  and  C_3 
REMARK    2  A    between atoms: C_3  and  O_6 
REMARK    3  A    between atoms: C_3  and  C_4 
REMARK    4  A    between atoms: C_7  and  O_6 
REMARK    5  A    between atoms: C_9  and  C_10 
REMARK    6  A    between atoms: N_15  and  C_14 
REMARK    7  A    between atoms: N_20  and  C_19 
REMARK       I    between atoms: C_22  and  N_20 
ROOT
ATOM      1  C   LIG d   1      -3.769  77.830 116.838  0.00  0.00     0.161 C 
ATOM      2  C   LIG d   1      -4.132  79.028 117.474  0.00  0.00     0.016 C 
ATOM      3  C   LIG d   1      -3.195  79.993 117.910  0.00  0.00     0.038 C 
ATOM      4  C   LIG d   1      -1.830  79.894 117.600  0.00  0.00     0.028 C 
ATOM      5  C   LIG d   1      -1.357  78.458 117.403  0.00  0.00    -0.047 C 
ATOM      6  C   LIG d   1      -2.293  77.755 116.393  0.00  0.00     0.091 C 
ENDROOT
BRANCH   1   7
ATOM      7  O   LIG d   1      -4.643  77.586 115.718  0.00  0.00    -0.368 OA
BRANCH   7   8
ATOM      8  C   LIG d   1      -5.447  76.383 115.787  0.00  0.00     0.119 C 
BRANCH   8   9
ATOM      9  C   LIG d   1      -5.308  75.655 114.436  0.00  0.00     0.028 C 
ATOM     10  C   LIG d   1      -4.904  74.181 114.604  0.00  0.00     0.006 C 
ENDBRANCH   8   9
BRANCH   8  11
ATOM     11  C   LIG d   1      -6.937  76.716 115.917  0.00  0.00     0.028 C 
ATOM     12  C   LIG d   1      -7.423  76.713 117.375  0.00  0.00     0.006 C 
ENDBRANCH   8  11
ENDBRANCH   7   8
ENDBRANCH   1   7
BRANCH   6  13
ATOM     13  N   LIG d   1      -1.951  76.321 116.206  0.00  0.00    -0.311 N 
ATOM     14  C   LIG d   1      -1.536  75.811 115.048  0.00  0.00     0.210 C 
ATOM     15  C   LIG d   1      -1.257  74.305 115.068  0.00  0.00     0.109 C 
ATOM     16  O   LIG d   1      -1.342  76.469 114.015  0.00  0.00    -0.276 OA
ATOM     17  H   LIG d   1      -2.050  75.721 117.002  0.00  0.00     0.149 HD
ENDBRANCH   6  13
BRANCH   5  18
ATOM     18  N   LIG d   1       0.046  78.509 116.952  0.00  0.00     0.381 N 
ATOM     19  H   LIG d   1       0.619  78.904 117.670  0.00  0.00    -0.090 HD
ATOM     20  H   LIG d   1       0.106  79.100 116.141  0.00  0.00    -0.090 HD
ATOM     21  H   LIG d   1       0.366  77.593 116.728  0.00  0.00    -0.090 HD
ENDBRANCH   5  18
BRANCH   3  22
ATOM     22  C   LIG d   1      -3.616  81.054 118.698  0.00  0.00     0.382 C 
ATOM     23  O   LIG d   1      -4.830  81.174 118.990  0.00  0.00    -0.241 OA
ATOM     24  O   LIG d   1      -2.804  81.916 119.083  0.00  0.00    -0.241 OA
ENDBRANCH   3  22
TORSDOF 7
ENDMDL
MODEL 6
REMARK VINA RESULT:      -4.0      1.856      4.984
REMARK  7 active torsions:
REMARK  status: ('A' for Active; 'I' for Inactive)
REMARK    1  A    between atoms: C_2  and  C_3 
REMARK    2  A    between atoms: C_3  and  O_6 
REMARK    3  A    between atoms: C_3  and  C_4 
REMARK    4  A    between atoms: C_7  and  O_6 
REMARK    5  A    between atoms: C_9  and  C_10 
REMARK    6  A    between atoms: N_15  and  C_14 
REMARK    7  A    between atoms: N_20  and  C_19 
REMARK       I    between atoms: C_22  and  N_20 
ROOT
ATOM      1  C   LIG d   1      -1.409  76.277 115.189  0.00  0.00     0.161 C 
ATOM      2  C   LIG d   1      -1.073  76.195 116.550  0.00  0.00     0.016 C 
ATOM      3  C   LIG d   1      -0.800  77.326 117.354  0.00  0.00     0.038 C 
ATOM      4  C   LIG d   1      -0.994  78.633 116.885  0.00  0.00     0.028 C 
ATOM      5  C   LIG d   1      -0.844  78.762 115.372  0.00  0.00    -0.047 C 
ATOM      6  C   LIG d   1      -1.734  77.700 114.688  0.00  0.00     0.091 C 
ENDROOT
BRANCH   1   7
ATOM      7  O   LIG d   1      -2.502  75.383 114.901  0.00  0.00    -0.368 OA
BRANCH   7   8
ATOM      8  C   LIG d   1      -3.830  75.883 115.194  0.00  0.00     0.119 C 
BRANCH   8   9
ATOM      9  C   LIG d   1      -4.158  75.500 116.650  0.00  0.00     0.028 C 
ATOM     10  C   LIG d   1      -4.637  76.703 117.480  0.00  0.00     0.006 C 
ENDBRANCH   8   9
BRANCH   8  11
ATOM     11  C   LIG d   1      -4.891  75.182 114.341  0.00  0.00     0.028 C 
ATOM     12  C   LIG d   1      -6.015  76.129 113.892  0.00  0.00     0.006 C 
ENDBRANCH   8  11
ENDBRANCH   7   8
ENDBRANCH   1   7
BRANCH   6  13
ATOM     13  N   LIG d   1      -1.583  77.702 113.209  0.00  0.00    -0.311 N 
ATOM     14  C   LIG d   1      -2.401  78.359 112.389  0.00  0.00     0.210 C 
ATOM     15  C   LIG d   1      -2.079  78.212 110.899  0.00  0.00     0.109 C 
ATOM     16  O   LIG d   1      -3.344  79.076 112.757  0.00  0.00    -0.276 OA
ATOM     17  H   LIG d   1      -0.825  77.170 112.828  0.00  0.00     0.149 HD
ENDBRANCH   6  13
BRANCH   5  18
ATOM     18  N   LIG d   1      -1.207  80.144 115.005  0.00  0.00     0.381 N 
ATOM     19  H   LIG d   1      -2.146  80.168 114.661  0.00  0.00    -0.090 HD
ATOM     20  H   LIG d   1      -0.595  80.457 114.272  0.00  0.00    -0.090 HD
ATOM     21  H   LIG d   1      -1.121  80.742 115.798  0.00  0.00    -0.090 HD
ENDBRANCH   5  18
BRANCH   3  22
ATOM     22  C   LIG d   1      -0.288  77.153 118.631  0.00  0.00     0.382 C 
ATOM     23  O   LIG d   1       0.946  77.254 118.832  0.00  0.00    -0.241 OA
ATOM     24  O   LIG d   1      -1.041  76.854 119.578  0.00  0.00    -0.241 OA
ENDBRANCH   3  22
TORSDOF 7
ENDMDL
MODEL 7
REMARK VINA RESULT:      -4.0      4.269      5.371
REMARK  7 active torsions:
REMARK  status: ('A' for Active; 'I' for Inactive)
REMARK    1  A    between atoms: C_2  and  C_3 
REMARK    2  A    between atoms: C_3  and  O_6 
REMARK    3  A    between atoms: C_3  and  C_4 
REMARK    4  A    between atoms: C_7  and  O_6 
REMARK    5  A    between atoms: C_9  and  C_10 
REMARK    6  A    between atoms: N_15  and  C_14 
REMARK    7  A    between atoms: N_20  and  C_19 
REMARK       I    between atoms: C_22  and  N_20 
ROOT
ATOM      1  C   LIG d   1      -5.938  77.584 117.335  0.00  0.00     0.161 C 
ATOM      2  C   LIG d   1      -6.091  76.777 116.195  0.00  0.00     0.016 C 
ATOM      3  C   LIG d   1      -5.066  76.572 115.243  0.00  0.00     0.038 C 
ATOM      4  C   LIG d   1      -3.760  77.042 115.447  0.00  0.00     0.028 C 
ATOM      5  C   LIG d   1      -3.694  78.282 116.331  0.00  0.00    -0.047 C 
ATOM      6  C   LIG d   1      -4.486  78.014 117.632  0.00  0.00     0.091 C 
ENDROOT
BRANCH   1   7
ATOM      7  O   LIG d   1      -6.509  76.923 118.481  0.00  0.00    -0.368 OA
BRANCH   7   8
ATOM      8  C   LIG d   1      -7.652  77.573 119.088  0.00  0.00     0.119 C 
BRANCH   8   9
ATOM      9  C   LIG d   1      -8.704  76.485 119.377  0.00  0.00     0.028 C 
ATOM     10  C   LIG d   1      -9.060  75.665 118.125  0.00  0.00     0.006 C 
ENDBRANCH   8   9
BRANCH   8  11
ATOM     11  C   LIG d   1      -8.327  78.540 118.110  0.00  0.00     0.028 C 
ATOM     12  C   LIG d   1      -8.757  79.857 118.776  0.00  0.00     0.006 C 
ENDBRANCH   8  11
ENDBRANCH   7   8
ENDBRANCH   1   7
BRANCH   6  13
ATOM     13  N   LIG d   1      -4.542  79.207 118.517  0.00  0.00    -0.311 N 
ATOM     14  C   LIG d   1      -5.070  80.372 118.145  0.00  0.00     0.210 C 
ATOM     15  C   LIG d   1      -5.008  81.477 119.204  0.00  0.00     0.109 C 
ATOM     16  O   LIG d   1      -5.611  80.585 117.050  0.00  0.00    -0.276 OA
ATOM     17  H   LIG d   1      -4.153  79.112 119.435  0.00  0.00     0.149 HD
ENDBRANCH   6  13
BRANCH   5  18
ATOM     18  N   LIG d   1      -2.270  78.581 116.573  0.00  0.00     0.381 N 
ATOM     19  H   LIG d   1      -1.820  77.784 116.977  0.00  0.00    -0.090 HD
ATOM     20  H   LIG d   1      -2.204  79.344 117.224  0.00  0.00    -0.090 HD
ATOM     21  H   LIG d   1      -1.823  78.826 115.717  0.00  0.00    -0.090 HD
ENDBRANCH   5  18
BRANCH   3  22
ATOM     22  C   LIG d   1      -5.354  75.923 114.052  0.00  0.00     0.382 C 
ATOM     23  O   LIG d   1      -6.029  76.505 113.168  0.00  0.00    -0.241 OA
ATOM     24  O   LIG d   1      -4.987  74.748 113.868  0.00  0.00    -0.241 OA
ENDBRANCH   3  22
TORSDOF 7
ENDMDL
MODEL 8
REMARK VINA RESULT:      -3.9      2.343      3.071
REMARK  7 active torsions:
REMARK  status: ('A' for Active; 'I' for Inactive)
REMARK    1  A    between atoms: C_2  and  C_3 
REMARK    2  A    between atoms: C_3  and  O_6 
REMARK    3  A    between atoms: C_3  and  C_4 
REMARK    4  A    between atoms: C_7  and  O_6 
REMARK    5  A    between atoms: C_9  and  C_10 
REMARK    6  A    between atoms: N_15  and  C_14 
REMARK    7  A    between atoms: N_20  and  C_19 
REMARK       I    between atoms: C_22  and  N_20 
ROOT
ATOM      1  C   LIG d   1      -2.362  79.021 115.536  0.00  0.00     0.161 C 
ATOM      2  C   LIG d   1      -2.960  78.475 114.388  0.00  0.00     0.016 C 
ATOM      3  C   LIG d   1      -2.415  78.605 113.089  0.00  0.00     0.038 C 
ATOM      4  C   LIG d   1      -1.147  79.164 112.870  0.00  0.00     0.028 C 
ATOM      5  C   LIG d   1      -0.739  80.176 113.935  0.00  0.00    -0.047 C 
ATOM      6  C   LIG d   1      -0.922  79.537 115.331  0.00  0.00     0.091 C 
ENDROOT
BRANCH   1   7
ATOM      7  O   LIG d   1      -2.402  78.061 116.610  0.00  0.00    -0.368 OA
BRANCH   7   8
ATOM      8  C   LIG d   1      -3.196  78.429 117.764  0.00  0.00     0.119 C 
BRANCH   8   9
ATOM      9  C   LIG d   1      -4.261  77.333 117.962  0.00  0.00     0.028 C 
ATOM     10  C   LIG d   1      -5.462  77.504 117.018  0.00  0.00     0.006 C 
ENDBRANCH   8   9
BRANCH   8  11
ATOM     11  C   LIG d   1      -3.984  79.718 117.511  0.00  0.00     0.028 C 
ATOM     12  C   LIG d   1      -3.664  80.822 118.531  0.00  0.00     0.006 C 
ENDBRANCH   8  11
ENDBRANCH   7   8
ENDBRANCH   1   7
BRANCH   6  13
ATOM     13  N   LIG d   1      -0.625  80.488 116.433  0.00  0.00    -0.311 N 
ATOM     14  C   LIG d   1       0.122  80.175 117.491  0.00  0.00     0.210 C 
ATOM     15  C   LIG d   1       0.288  81.297 118.521  0.00  0.00     0.109 C 
ATOM     16  O   LIG d   1       0.690  79.085 117.657  0.00  0.00    -0.276 OA
ATOM     17  H   LIG d   1      -1.020  81.406 116.363  0.00  0.00     0.149 HD
ENDBRANCH   6  13
BRANCH   5  18
ATOM     18  N   LIG d   1       0.655  80.574 113.660  0.00  0.00     0.381 N 
ATOM     19  H   LIG d   1       1.281  80.012 114.202  0.00  0.00    -0.090 HD
ATOM     20  H   LIG d   1       0.778  81.534 113.931  0.00  0.00    -0.090 HD
ATOM     21  H   LIG d   1       0.855  80.467 112.690  0.00  0.00    -0.090 HD
ENDBRANCH   5  18
BRANCH   3  22
ATOM     22  C   LIG d   1      -3.160  78.209 111.989  0.00  0.00     0.382 C 
ATOM     23  O   LIG d   1      -4.401  78.061 112.092  0.00  0.00    -0.241 OA
ATOM     24  O   LIG d   1      -2.599  77.955 110.906  0.00  0.00    -0.241 OA
ENDBRANCH   3  22
TORSDOF 7
ENDMDL
MODEL 9
REMARK VINA RESULT:      -3.8      4.206      6.180
REMARK  7 active torsions:
REMARK  status: ('A' for Active; 'I' for Inactive)
REMARK    1  A    between atoms: C_2  and  C_3 
REMARK    2  A    between atoms: C_3  and  O_6 
REMARK    3  A    between atoms: C_3  and  C_4 
REMARK    4  A    between atoms: C_7  and  O_6 
REMARK    5  A    between atoms: C_9  and  C_10 
REMARK    6  A    between atoms: N_15  and  C_14 
REMARK    7  A    between atoms: N_20  and  C_19 
REMARK       I    between atoms: C_22  and  N_20 
ROOT
ATOM      1  C   LIG d   1      -4.309  79.322 117.225  0.00  0.00     0.161 C 
ATOM      2  C   LIG d   1      -5.014  80.475 117.610  0.00  0.00     0.016 C 
ATOM      3  C   LIG d   1      -6.386  80.471 117.948  0.00  0.00     0.038 C 
ATOM      4  C   LIG d   1      -7.116  79.280 118.072  0.00  0.00     0.028 C 
ATOM      5  C   LIG d   1      -6.578  78.147 117.205  0.00  0.00    -0.047 C 
ATOM      6  C   LIG d   1      -5.061  77.996 117.462  0.00  0.00     0.091 C 
ENDROOT
BRANCH   1   7
ATOM      7  O   LIG d   1      -3.025  79.294 117.879  0.00  0.00    -0.368 OA
BRANCH   7   8
ATOM      8  C   LIG d   1      -1.867  79.407 117.016  0.00  0.00     0.119 C 
BRANCH   8   9
ATOM      9  C   LIG d   1      -1.133  80.708 117.393  0.00  0.00     0.028 C 
ATOM     10  C   LIG d   1      -1.536  81.226 118.784  0.00  0.00     0.006 C 
ENDBRANCH   8   9
BRANCH   8  11
ATOM     11  C   LIG d   1      -2.279  79.584 115.551  0.00  0.00     0.028 C 
ATOM     12  C   LIG d   1      -1.698  78.497 114.633  0.00  0.00     0.006 C 
ENDBRANCH   8  11
ENDBRANCH   7   8
ENDBRANCH   1   7
BRANCH   6  13
ATOM     13  N   LIG d   1      -4.439  76.964 116.591  0.00  0.00    -0.311 N 
ATOM     14  C   LIG d   1      -3.677  75.975 117.056  0.00  0.00     0.210 C 
ATOM     15  C   LIG d   1      -3.118  75.033 115.985  0.00  0.00     0.109 C 
ATOM     16  O   LIG d   1      -3.439  75.770 118.255  0.00  0.00    -0.276 OA
ATOM     17  H   LIG d   1      -4.606  77.037 115.607  0.00  0.00     0.149 HD
ENDBRANCH   6  13
BRANCH   5  18
ATOM     18  N   LIG d   1      -7.344  76.930 117.535  0.00  0.00     0.381 N 
ATOM     19  H   LIG d   1      -7.814  76.594 116.718  0.00  0.00    -0.090 HD
ATOM     20  H   LIG d   1      -8.037  77.160 118.225  0.00  0.00    -0.090 HD
ATOM     21  H   LIG d   1      -6.733  76.227 117.887  0.00  0.00    -0.090 HD
ENDBRANCH   5  18
BRANCH   3  22
ATOM     22  C   LIG d   1      -7.053  81.674 118.128  0.00  0.00     0.382 C 
ATOM     23  O   LIG d   1      -7.421  82.021 119.277  0.00  0.00    -0.241 OA
ATOM     24  O   LIG d   1      -7.330  82.395 117.152  0.00  0.00    -0.241 OA
ENDBRANCH   3  22
TORSDOF 7
ENDMDL
