MODEL 1
REMARK VINA RESULT:      -5.3      0.000      0.000
REMARK  7 active torsions:
REMARK  status: ('A' for Active; 'I' for Inactive)
REMARK    1  A    between atoms: C_2  and  C_3 
REMARK    2  A    between atoms: C_3  and  O_6 
REMARK    3  A    between atoms: C_3  and  C_4 
REMARK    4  A    between atoms: C_7  and  O_6 
REMARK    5  A    between atoms: C_9  and  C_10 
REMARK    6  A    between atoms: N_15  and  C_14 
REMARK    7  A    between atoms: N_20  and  C_19 
REMARK       I    between atoms: C_22  and  N_20 
ROOT
ATOM      1  C   LIG d   1      -3.602  76.221 114.974  0.00  0.00     0.161 C 
ATOM      2  C   LIG d   1      -3.399  76.004 116.347  0.00  0.00     0.016 C 
ATOM      3  C   LIG d   1      -2.315  76.554 117.069  0.00  0.00     0.038 C 
ATOM      4  C   LIG d   1      -1.439  77.487 116.495  0.00  0.00     0.028 C 
ATOM      5  C   LIG d   1      -1.307  77.344 114.983  0.00  0.00    -0.047 C 
ATOM      6  C   LIG d   1      -2.720  77.325 114.356  0.00  0.00     0.091 C 
ENDROOT
BRANCH   1   7
ATOM      7  O   LIG d   1      -4.995  76.493 114.723  0.00  0.00    -0.368 OA
BRANCH   7   8
ATOM      8  C   LIG d   1      -5.734  75.454 114.035  0.00  0.00     0.119 C 
BRANCH   8   9
ATOM      9  C   LIG d   1      -6.788  76.146 113.148  0.00  0.00     0.028 C 
ATOM     10  C   LIG d   1      -6.255  76.462 111.741  0.00  0.00     0.006 C 
ENDBRANCH   8   9
BRANCH   8  11
ATOM     11  C   LIG d   1      -6.532  74.593 115.018  0.00  0.00     0.028 C 
ATOM     12  C   LIG d   1      -7.880  75.224 115.403  0.00  0.00     0.006 C 
ENDBRANCH   8  11
ENDBRANCH   7   8
ENDBRANCH   1   7
BRANCH   6  13
ATOM     13  N   LIG d   1      -2.685  77.103 112.887  0.00  0.00    -0.311 N 
ATOM     14  C   LIG d   1      -2.710  78.092 111.995  0.00  0.00     0.210 C 
ATOM     15  C   LIG d   1      -2.686  77.643 110.531  0.00  0.00     0.109 C 
ATOM     16  O   LIG d   1      -2.717  79.300 112.278  0.00  0.00    -0.276 OA
ATOM     17  H   LIG d   1      -2.647  76.154 112.569  0.00  0.00     0.149 HD
ENDBRANCH   6  13
BRANCH   5  18
ATOM     18  N   LIG d   1      -0.475  78.462 114.500  0.00  0.00     0.381 N 
ATOM     19  H   LIG d   1      -0.695  78.660 113.545  0.00  0.00    -0.090 HD
ATOM     20  H   LIG d   1       0.492  78.193 114.551  0.00  0.00    -0.090 HD
ATOM     21  H   LIG d   1      -0.632  79.271 115.060  0.00  0.00    -0.090 HD
ENDBRANCH   5  18
BRANCH   3  22
ATOM     22  C   LIG d   1      -2.076  76.140 118.371  0.00  0.00     0.382 C 
ATOM     23  O   LIG d   1      -2.565  76.780 119.333  0.00  0.00    -0.241 OA
ATOM     24  O   LIG d   1      -1.341  75.160 118.597  0.00  0.00    -0.241 OA
ENDBRANCH   3  22
TORSDOF 7
ENDMDL
MODEL 2
REMARK VINA RESULT:      -5.2      2.083      4.902
REMARK  7 active torsions:
REMARK  status: ('A' for Active; 'I' for Inactive)
REMARK    1  A    between atoms: C_2  and  C_3 
REMARK    2  A    between atoms: C_3  and  O_6 
REMARK    3  A    between atoms: C_3  and  C_4 
REMARK    4  A    between atoms: C_7  and  O_6 
REMARK    5  A    between atoms: C_9  and  C_10 
REMARK    6  A    between atoms: N_15  and  C_14 
REMARK    7  A    between atoms: N_20  and  C_19 
REMARK       I    between atoms: C_22  and  N_20 
ROOT
ATOM      1  C   LIG d   1      -3.394  75.963 114.891  0.00  0.00     0.161 C 
ATOM      2  C   LIG d   1      -3.585  76.477 113.597  0.00  0.00     0.016 C 
ATOM      3  C   LIG d   1      -2.527  76.930 112.775  0.00  0.00     0.038 C 
ATOM      4  C   LIG d   1      -1.182  76.757 113.136  0.00  0.00     0.028 C 
ATOM      5  C   LIG d   1      -0.961  76.706 114.644  0.00  0.00    -0.047 C 
ATOM      6  C   LIG d   1      -1.925  75.665 115.257  0.00  0.00     0.091 C 
ENDROOT
BRANCH   1   7
ATOM      7  O   LIG d   1      -4.205  74.786 115.073  0.00  0.00    -0.368 OA
BRANCH   7   8
ATOM      8  C   LIG d   1      -5.248  74.880 116.075  0.00  0.00     0.119 C 
BRANCH   8   9
ATOM      9  C   LIG d   1      -6.559  74.396 115.425  0.00  0.00     0.028 C 
ATOM     10  C   LIG d   1      -7.452  75.562 114.968  0.00  0.00     0.006 C 
ENDBRANCH   8   9
BRANCH   8  11
ATOM     11  C   LIG d   1      -5.507  76.335 116.475  0.00  0.00     0.028 C 
ATOM     12  C   LIG d   1      -5.398  76.565 117.991  0.00  0.00     0.006 C 
ENDBRANCH   8  11
ENDBRANCH   7   8
ENDBRANCH   1   7
BRANCH   6  13
ATOM     13  N   LIG d   1      -1.833  75.611 116.740  0.00  0.00    -0.311 N 
ATOM     14  C   LIG d   1      -0.941  74.869 117.393  0.00  0.00     0.210 C 
ATOM     15  C   LIG d   1      -1.032  74.944 118.920  0.00  0.00     0.109 C 
ATOM     16  O   LIG d   1      -0.063  74.180 116.852  0.00  0.00    -0.276 OA
ATOM     17  H   LIG d   1      -2.488  76.164 117.257  0.00  0.00     0.149 HD
ENDBRANCH   6  13
BRANCH   5  18
ATOM     18  N   LIG d   1       0.460  76.386 114.875  0.00  0.00     0.381 N 
ATOM     19  H   LIG d   1       0.562  75.911 115.750  0.00  0.00    -0.090 HD
ATOM     20  H   LIG d   1       0.983  77.243 114.919  0.00  0.00    -0.090 HD
ATOM     21  H   LIG d   1       0.805  75.814 114.136  0.00  0.00    -0.090 HD
ENDBRANCH   5  18
BRANCH   3  22
ATOM     22  C   LIG d   1      -2.812  77.599 111.595  0.00  0.00     0.382 C 
ATOM     23  O   LIG d   1      -2.167  78.630 111.288  0.00  0.00    -0.241 OA
ATOM     24  O   LIG d   1      -3.735  77.210 110.855  0.00  0.00    -0.241 OA
ENDBRANCH   3  22
TORSDOF 7
ENDMDL
MODEL 3
REMARK VINA RESULT:      -5.2      3.477      5.873
REMARK  7 active torsions:
REMARK  status: ('A' for Active; 'I' for Inactive)
REMARK    1  A    between atoms: C_2  and  C_3 
REMARK    2  A    between atoms: C_3  and  O_6 
REMARK    3  A    between atoms: C_3  and  C_4 
REMARK    4  A    between atoms: C_7  and  O_6 
REMARK    5  A    between atoms: C_9  and  C_10 
REMARK    6  A    between atoms: N_15  and  C_14 
REMARK    7  A    between atoms: N_20  and  C_19 
REMARK       I    between atoms: C_22  and  N_20 
ROOT
ATOM      1  C   LIG d   1      -1.880  80.045 113.353  0.00  0.00     0.161 C 
ATOM      2  C   LIG d   1      -2.799  79.060 112.955  0.00  0.00     0.016 C 
ATOM      3  C   LIG d   1      -2.620  78.245 111.814  0.00  0.00     0.038 C 
ATOM      4  C   LIG d   1      -1.428  78.256 111.074  0.00  0.00     0.028 C 
ATOM      5  C   LIG d   1      -0.686  79.587 111.141  0.00  0.00    -0.047 C 
ATOM      6  C   LIG d   1      -0.522  79.996 112.622  0.00  0.00     0.091 C 
ENDROOT
BRANCH   1   7
ATOM      7  O   LIG d   1      -1.683  79.982 114.780  0.00  0.00    -0.368 OA
BRANCH   7   8
ATOM      8  C   LIG d   1      -1.915  78.692 115.398  0.00  0.00     0.119 C 
BRANCH   8   9
ATOM      9  C   LIG d   1      -2.621  78.945 116.745  0.00  0.00     0.028 C 
ATOM     10  C   LIG d   1      -3.964  78.203 116.851  0.00  0.00     0.006 C 
ENDBRANCH   8   9
BRANCH   8  11
ATOM     11  C   LIG d   1      -0.595  78.001 115.756  0.00  0.00     0.028 C 
ATOM     12  C   LIG d   1      -0.428  76.641 115.061  0.00  0.00     0.006 C 
ENDBRANCH   8  11
ENDBRANCH   7   8
ENDBRANCH   1   7
BRANCH   6  13
ATOM     13  N   LIG d   1       0.120  81.328 112.775  0.00  0.00    -0.311 N 
ATOM     14  C   LIG d   1      -0.367  82.442 112.232  0.00  0.00     0.210 C 
ATOM     15  C   LIG d   1       0.460  83.705 112.496  0.00  0.00     0.109 C 
ATOM     16  O   LIG d   1      -1.423  82.511 111.585  0.00  0.00    -0.276 OA
ATOM     17  H   LIG d   1       0.964  81.369 113.311  0.00  0.00     0.149 HD
ENDBRANCH   6  13
BRANCH   5  18
ATOM     18  N   LIG d   1       0.601  79.415 110.442  0.00  0.00     0.381 N 
ATOM     19  H   LIG d   1       0.692  80.106 109.724  0.00  0.00    -0.090 HD
ATOM     20  H   LIG d   1       0.618  78.508 110.010  0.00  0.00    -0.090 HD
ATOM     21  H   LIG d   1       1.354  79.497 111.089  0.00  0.00    -0.090 HD
ENDBRANCH   5  18
BRANCH   3  22
ATOM     22  C   LIG d   1      -3.657  77.434 111.379  0.00  0.00     0.382 C 
ATOM     23  O   LIG d   1      -3.782  77.177 110.157  0.00  0.00    -0.241 OA
ATOM     24  O   LIG d   1      -4.495  76.992 112.188  0.00  0.00    -0.241 OA
ENDBRANCH   3  22
TORSDOF 7
ENDMDL
MODEL 4
REMARK VINA RESULT:      -5.0      1.502      2.222
REMARK  7 active torsions:
REMARK  status: ('A' for Active; 'I' for Inactive)
REMARK    1  A    between atoms: C_2  and  C_3 
REMARK    2  A    between atoms: C_3  and  O_6 
REMARK    3  A    between atoms: C_3  and  C_4 
REMARK    4  A    between atoms: C_7  and  O_6 
REMARK    5  A    between atoms: C_9  and  C_10 
REMARK    6  A    between atoms: N_15  and  C_14 
REMARK    7  A    between atoms: N_20  and  C_19 
REMARK       I    between atoms: C_22  and  N_20 
ROOT
ATOM      1  C   LIG d   1      -1.855  75.103 114.675  0.00  0.00     0.161 C 
ATOM      2  C   LIG d   1      -1.416  74.708 115.950  0.00  0.00     0.016 C 
ATOM      3  C   LIG d   1      -0.720  75.565 116.833  0.00  0.00     0.038 C 
ATOM      4  C   LIG d   1      -0.547  76.930 116.560  0.00  0.00     0.028 C 
ATOM      5  C   LIG d   1      -0.528  77.251 115.069  0.00  0.00    -0.047 C 
ATOM      6  C   LIG d   1      -1.773  76.620 114.404  0.00  0.00     0.091 C 
ENDROOT
BRANCH   1   7
ATOM      7  O   LIG d   1      -3.196  74.626 114.451  0.00  0.00    -0.368 OA
BRANCH   7   8
ATOM      8  C   LIG d   1      -4.262  75.568 114.725  0.00  0.00     0.119 C 
BRANCH   8   9
ATOM      9  C   LIG d   1      -4.917  75.152 116.056  0.00  0.00     0.028 C 
ATOM     10  C   LIG d   1      -4.596  76.130 117.199  0.00  0.00     0.006 C 
ENDBRANCH   8   9
BRANCH   8  11
ATOM     11  C   LIG d   1      -5.375  75.470 113.678  0.00  0.00     0.028 C 
ATOM     12  C   LIG d   1      -6.775  75.690 114.274  0.00  0.00     0.006 C 
ENDBRANCH   8  11
ENDBRANCH   7   8
ENDBRANCH   1   7
BRANCH   6  13
ATOM     13  N   LIG d   1      -1.788  76.815 112.931  0.00  0.00    -0.311 N 
ATOM     14  C   LIG d   1      -2.502  77.762 112.324  0.00  0.00     0.210 C 
ATOM     15  C   LIG d   1      -2.391  77.776 110.796  0.00  0.00     0.109 C 
ATOM     16  O   LIG d   1      -3.190  78.612 112.909  0.00  0.00    -0.276 OA
ATOM     17  H   LIG d   1      -1.233  76.188 112.382  0.00  0.00     0.149 HD
ENDBRANCH   6  13
BRANCH   5  18
ATOM     18  N   LIG d   1      -0.480  78.719 114.930  0.00  0.00     0.381 N 
ATOM     19  H   LIG d   1      -0.690  78.977 113.986  0.00  0.00    -0.090 HD
ATOM     20  H   LIG d   1       0.449  79.035 115.144  0.00  0.00    -0.090 HD
ATOM     21  H   LIG d   1      -1.134  79.142 115.551  0.00  0.00    -0.090 HD
ENDBRANCH   5  18
BRANCH   3  22
ATOM     22  C   LIG d   1      -0.154  75.048 117.989  0.00  0.00     0.382 C 
ATOM     23  O   LIG d   1      -0.816  75.020 119.053  0.00  0.00    -0.241 OA
ATOM     24  O   LIG d   1       1.027  74.650 117.990  0.00  0.00    -0.241 OA
ENDBRANCH   3  22
TORSDOF 7
ENDMDL
MODEL 5
REMARK VINA RESULT:      -4.9      3.735      4.890
REMARK  7 active torsions:
REMARK  status: ('A' for Active; 'I' for Inactive)
REMARK    1  A    between atoms: C_2  and  C_3 
REMARK    2  A    between atoms: C_3  and  O_6 
REMARK    3  A    between atoms: C_3  and  C_4 
REMARK    4  A    between atoms: C_7  and  O_6 
REMARK    5  A    between atoms: C_9  and  C_10 
REMARK    6  A    between atoms: N_15  and  C_14 
REMARK    7  A    between atoms: N_20  and  C_19 
REMARK       I    between atoms: C_22  and  N_20 
ROOT
ATOM      1  C   LIG d   1      -6.077  77.281 117.246  0.00  0.00     0.161 C 
ATOM      2  C   LIG d   1      -7.124  78.184 117.494  0.00  0.00     0.016 C 
ATOM      3  C   LIG d   1      -6.925  79.481 118.019  0.00  0.00     0.038 C 
ATOM      4  C   LIG d   1      -5.643  80.023 118.192  0.00  0.00     0.028 C 
ATOM      5  C   LIG d   1      -4.567  78.969 118.431  0.00  0.00    -0.047 C 
ATOM      6  C   LIG d   1      -4.663  77.894 117.323  0.00  0.00     0.091 C 
ENDROOT
BRANCH   1   7
ATOM      7  O   LIG d   1      -6.275  76.641 115.970  0.00  0.00    -0.368 OA
BRANCH   7   8
ATOM      8  C   LIG d   1      -6.746  75.271 116.011  0.00  0.00     0.119 C 
BRANCH   8   9
ATOM      9  C   LIG d   1      -5.924  74.468 114.984  0.00  0.00     0.028 C 
ATOM     10  C   LIG d   1      -5.393  75.349 113.840  0.00  0.00     0.006 C 
ENDBRANCH   8   9
BRANCH   8  11
ATOM     11  C   LIG d   1      -8.199  75.166 115.539  0.00  0.00     0.028 C 
ATOM     12  C   LIG d   1      -9.060  74.278 116.451  0.00  0.00     0.006 C 
ENDBRANCH   8  11
ENDBRANCH   7   8
ENDBRANCH   1   7
BRANCH   6  13
ATOM     13  N   LIG d   1      -3.700  76.781 117.529  0.00  0.00    -0.311 N 
ATOM     14  C   LIG d   1      -2.827  76.386 116.604  0.00  0.00     0.210 C 
ATOM     15  C   LIG d   1      -1.940  75.206 117.014  0.00  0.00     0.109 C 
ATOM     16  O   LIG d   1      -2.681  76.921 115.495  0.00  0.00    -0.276 OA
ATOM     17  H   LIG d   1      -3.729  76.311 118.413  0.00  0.00     0.149 HD
ENDBRANCH   6  13
BRANCH   5  18
ATOM     18  N   LIG d   1      -3.264  79.659 118.456  0.00  0.00     0.381 N 
ATOM     19  H   LIG d   1      -2.842  79.619 117.550  0.00  0.00    -0.090 HD
ATOM     20  H   LIG d   1      -2.660  79.189 119.107  0.00  0.00    -0.090 HD
ATOM     21  H   LIG d   1      -3.387  80.609 118.731  0.00  0.00    -0.090 HD
ENDBRANCH   5  18
BRANCH   3  22
ATOM     22  C   LIG d   1      -8.018  80.237 118.416  0.00  0.00     0.382 C 
ATOM     23  O   LIG d   1      -8.551  81.039 117.611  0.00  0.00    -0.241 OA
ATOM     24  O   LIG d   1      -8.451  80.160 119.581  0.00  0.00    -0.241 OA
ENDBRANCH   3  22
TORSDOF 7
ENDMDL
MODEL 6
REMARK VINA RESULT:      -4.9      2.262      4.952
REMARK  7 active torsions:
REMARK  status: ('A' for Active; 'I' for Inactive)
REMARK    1  A    between atoms: C_2  and  C_3 
REMARK    2  A    between atoms: C_3  and  O_6 
REMARK    3  A    between atoms: C_3  and  C_4 
REMARK    4  A    between atoms: C_7  and  O_6 
REMARK    5  A    between atoms: C_9  and  C_10 
REMARK    6  A    between atoms: N_15  and  C_14 
REMARK    7  A    between atoms: N_20  and  C_19 
REMARK       I    between atoms: C_22  and  N_20 
ROOT
ATOM      1  C   LIG d   1      -2.748  75.810 114.191  0.00  0.00     0.161 C 
ATOM      2  C   LIG d   1      -4.107  75.650 113.875  0.00  0.00     0.016 C 
ATOM      3  C   LIG d   1      -5.152  75.868 114.803  0.00  0.00     0.038 C 
ATOM      4  C   LIG d   1      -4.913  76.410 116.075  0.00  0.00     0.028 C 
ATOM      5  C   LIG d   1      -3.516  76.109 116.609  0.00  0.00    -0.047 C 
ATOM      6  C   LIG d   1      -2.474  76.507 115.539  0.00  0.00     0.091 C 
ENDROOT
BRANCH   1   7
ATOM      7  O   LIG d   1      -2.077  76.505 113.121  0.00  0.00    -0.368 OA
BRANCH   7   8
ATOM      8  C   LIG d   1      -2.713  77.719 112.652  0.00  0.00     0.119 C 
BRANCH   8   9
ATOM      9  C   LIG d   1      -2.761  77.652 111.113  0.00  0.00     0.028 C 
ATOM     10  C   LIG d   1      -1.465  78.165 110.463  0.00  0.00     0.006 C 
ENDBRANCH   8   9
BRANCH   8  11
ATOM     11  C   LIG d   1      -1.868  78.954 112.978  0.00  0.00     0.028 C 
ATOM     12  C   LIG d   1      -2.718  80.164 113.398  0.00  0.00     0.006 C 
ENDBRANCH   8  11
ENDBRANCH   7   8
ENDBRANCH   1   7
BRANCH   6  13
ATOM     13  N   LIG d   1      -1.085  76.168 115.947  0.00  0.00    -0.311 N 
ATOM     14  C   LIG d   1      -0.135  77.080 116.144  0.00  0.00     0.210 C 
ATOM     15  C   LIG d   1       1.232  76.515 116.541  0.00  0.00     0.109 C 
ATOM     16  O   LIG d   1      -0.303  78.306 116.058  0.00  0.00    -0.276 OA
ATOM     17  H   LIG d   1      -0.870  75.198 116.070  0.00  0.00     0.149 HD
ENDBRANCH   6  13
BRANCH   5  18
ATOM     18  N   LIG d   1      -3.355  76.847 117.876  0.00  0.00     0.381 N 
ATOM     19  H   LIG d   1      -3.124  76.210 118.612  0.00  0.00    -0.090 HD
ATOM     20  H   LIG d   1      -4.226  77.292 118.106  0.00  0.00    -0.090 HD
ATOM     21  H   LIG d   1      -2.638  77.532 117.783  0.00  0.00    -0.090 HD
ENDBRANCH   5  18
BRANCH   3  22
ATOM     22  C   LIG d   1      -6.449  75.505 114.475  0.00  0.00     0.382 C 
ATOM     23  O   LIG d   1      -7.113  76.207 113.674  0.00  0.00    -0.241 OA
ATOM     24  O   LIG d   1      -6.980  74.510 115.004  0.00  0.00    -0.241 OA
ENDBRANCH   3  22
TORSDOF 7
ENDMDL
MODEL 7
REMARK VINA RESULT:      -4.9      3.274      4.706
REMARK  7 active torsions:
REMARK  status: ('A' for Active; 'I' for Inactive)
REMARK    1  A    between atoms: C_2  and  C_3 
REMARK    2  A    between atoms: C_3  and  O_6 
REMARK    3  A    between atoms: C_3  and  C_4 
REMARK    4  A    between atoms: C_7  and  O_6 
REMARK    5  A    between atoms: C_9  and  C_10 
REMARK    6  A    between atoms: N_15  and  C_14 
REMARK    7  A    between atoms: N_20  and  C_19 
REMARK       I    between atoms: C_22  and  N_20 
ROOT
ATOM      1  C   LIG d   1      -5.572  76.278 117.545  0.00  0.00     0.161 C 
ATOM      2  C   LIG d   1      -6.605  77.208 117.744  0.00  0.00     0.016 C 
ATOM      3  C   LIG d   1      -6.402  78.607 117.754  0.00  0.00     0.038 C 
ATOM      4  C   LIG d   1      -5.167  79.179 117.412  0.00  0.00     0.028 C 
ATOM      5  C   LIG d   1      -3.978  78.269 117.699  0.00  0.00    -0.047 C 
ATOM      6  C   LIG d   1      -4.239  76.886 117.060  0.00  0.00     0.091 C 
ENDROOT
BRANCH   1   7
ATOM      7  O   LIG d   1      -6.011  75.246 116.638  0.00  0.00    -0.368 OA
BRANCH   7   8
ATOM      8  C   LIG d   1      -7.116  75.591 115.768  0.00  0.00     0.119 C 
BRANCH   8   9
ATOM      9  C   LIG d   1      -8.094  74.400 115.767  0.00  0.00     0.028 C 
ATOM     10  C   LIG d   1      -9.014  74.394 116.999  0.00  0.00     0.006 C 
ENDBRANCH   8   9
BRANCH   8  11
ATOM     11  C   LIG d   1      -6.656  75.739 114.315  0.00  0.00     0.028 C 
ATOM     12  C   LIG d   1      -5.307  75.054 114.044  0.00  0.00     0.006 C 
ENDBRANCH   8  11
ENDBRANCH   7   8
ENDBRANCH   1   7
BRANCH   6  13
ATOM     13  N   LIG d   1      -3.162  75.908 117.364  0.00  0.00    -0.311 N 
ATOM     14  C   LIG d   1      -2.162  75.635 116.528  0.00  0.00     0.210 C 
ATOM     15  C   LIG d   1      -1.169  74.581 117.029  0.00  0.00     0.109 C 
ATOM     16  O   LIG d   1      -1.985  76.189 115.432  0.00  0.00    -0.276 OA
ATOM     17  H   LIG d   1      -3.210  75.436 118.246  0.00  0.00     0.149 HD
ENDBRANCH   6  13
BRANCH   5  18
ATOM     18  N   LIG d   1      -2.771  78.932 117.169  0.00  0.00     0.381 N 
ATOM     19  H   LIG d   1      -2.736  78.828 116.175  0.00  0.00    -0.090 HD
ATOM     20  H   LIG d   1      -1.959  78.490 117.561  0.00  0.00    -0.090 HD
ATOM     21  H   LIG d   1      -2.781  79.899 117.409  0.00  0.00    -0.090 HD
ENDBRANCH   5  18
BRANCH   3  22
ATOM     22  C   LIG d   1      -7.431  79.448 118.147  0.00  0.00     0.382 C 
ATOM     23  O   LIG d   1      -8.379  79.000 118.837  0.00  0.00    -0.241 OA
ATOM     24  O   LIG d   1      -7.447  80.640 117.785  0.00  0.00    -0.241 OA
ENDBRANCH   3  22
TORSDOF 7
ENDMDL
MODEL 8
REMARK VINA RESULT:      -4.8      2.213      4.988
REMARK  7 active torsions:
REMARK  status: ('A' for Active; 'I' for Inactive)
REMARK    1  A    between atoms: C_2  and  C_3 
REMARK    2  A    between atoms: C_3  and  O_6 
REMARK    3  A    between atoms: C_3  and  C_4 
REMARK    4  A    between atoms: C_7  and  O_6 
REMARK    5  A    between atoms: C_9  and  C_10 
REMARK    6  A    between atoms: N_15  and  C_14 
REMARK    7  A    between atoms: N_20  and  C_19 
REMARK       I    between atoms: C_22  and  N_20 
ROOT
ATOM      1  C   LIG d   1      -3.428  77.491 115.008  0.00  0.00     0.161 C 
ATOM      2  C   LIG d   1      -3.308  77.052 113.679  0.00  0.00     0.016 C 
ATOM      3  C   LIG d   1      -2.252  77.442 112.823  0.00  0.00     0.038 C 
ATOM      4  C   LIG d   1      -1.155  78.183 113.289  0.00  0.00     0.028 C 
ATOM      5  C   LIG d   1      -1.486  79.068 114.486  0.00  0.00    -0.047 C 
ATOM      6  C   LIG d   1      -2.182  78.210 115.567  0.00  0.00     0.091 C 
ENDROOT
BRANCH   1   7
ATOM      7  O   LIG d   1      -3.791  76.384 115.857  0.00  0.00    -0.368 OA
BRANCH   7   8
ATOM      8  C   LIG d   1      -3.582  75.061 115.304  0.00  0.00     0.119 C 
BRANCH   8   9
ATOM      9  C   LIG d   1      -4.838  74.225 115.616  0.00  0.00     0.028 C 
ATOM     10  C   LIG d   1      -6.101  74.790 114.944  0.00  0.00     0.006 C 
ENDBRANCH   8   9
BRANCH   8  11
ATOM     11  C   LIG d   1      -2.429  74.339 116.007  0.00  0.00     0.028 C 
ATOM     12  C   LIG d   1      -1.124  74.368 115.195  0.00  0.00     0.006 C 
ENDBRANCH   8  11
ENDBRANCH   7   8
ENDBRANCH   1   7
BRANCH   6  13
ATOM     13  N   LIG d   1      -2.616  79.016 116.738  0.00  0.00    -0.311 N 
ATOM     14  C   LIG d   1      -1.877  79.172 117.835  0.00  0.00     0.210 C 
ATOM     15  C   LIG d   1      -2.520  80.026 118.932  0.00  0.00     0.109 C 
ATOM     16  O   LIG d   1      -0.736  78.711 117.990  0.00  0.00    -0.276 OA
ATOM     17  H   LIG d   1      -3.516  79.451 116.684  0.00  0.00     0.149 HD
ENDBRANCH   6  13
BRANCH   5  18
ATOM     18  N   LIG d   1      -0.226  79.676 114.953  0.00  0.00     0.381 N 
ATOM     19  H   LIG d   1       0.126  79.164 115.737  0.00  0.00    -0.090 HD
ATOM     20  H   LIG d   1      -0.410  80.619 115.248  0.00  0.00    -0.090 HD
ATOM     21  H   LIG d   1       0.446  79.675 114.218  0.00  0.00    -0.090 HD
ENDBRANCH   5  18
BRANCH   3  22
ATOM     22  C   LIG d   1      -2.307  77.124 111.475  0.00  0.00     0.382 C 
ATOM     23  O   LIG d   1      -3.316  77.436 110.798  0.00  0.00    -0.241 OA
ATOM     24  O   LIG d   1      -1.379  76.490 110.937  0.00  0.00    -0.241 OA
ENDBRANCH   3  22
TORSDOF 7
ENDMDL
MODEL 9
REMARK VINA RESULT:      -4.7      2.783      5.339
REMARK  7 active torsions:
REMARK  status: ('A' for Active; 'I' for Inactive)
REMARK    1  A    between atoms: C_2  and  C_3 
REMARK    2  A    between atoms: C_3  and  O_6 
REMARK    3  A    between atoms: C_3  and  C_4 
REMARK    4  A    between atoms: C_7  and  O_6 
REMARK    5  A    between atoms: C_9  and  C_10 
REMARK    6  A    between atoms: N_15  and  C_14 
REMARK    7  A    between atoms: N_20  and  C_19 
REMARK       I    between atoms: C_22  and  N_20 
ROOT
ATOM      1  C   LIG d   1      -2.391  79.262 114.474  0.00  0.00     0.161 C 
ATOM      2  C   LIG d   1      -2.873  77.980 114.787  0.00  0.00     0.016 C 
ATOM      3  C   LIG d   1      -2.984  76.938 113.838  0.00  0.00     0.038 C 
ATOM      4  C   LIG d   1      -2.476  77.063 112.536  0.00  0.00     0.028 C 
ATOM      5  C   LIG d   1      -2.442  78.503 112.035  0.00  0.00    -0.047 C 
ATOM      6  C   LIG d   1      -1.729  79.384 113.086  0.00  0.00     0.091 C 
ENDROOT
BRANCH   1   7
ATOM      7  O   LIG d   1      -1.485  79.708 115.503  0.00  0.00    -0.368 OA
BRANCH   7   8
ATOM      8  C   LIG d   1      -1.280  78.797 116.610  0.00  0.00     0.119 C 
BRANCH   8   9
ATOM      9  C   LIG d   1      -1.505  79.591 117.911  0.00  0.00     0.028 C 
ATOM     10  C   LIG d   1      -1.743  78.676 119.124  0.00  0.00     0.006 C 
ENDBRANCH   8   9
BRANCH   8  11
ATOM     11  C   LIG d   1       0.172  78.315 116.675  0.00  0.00     0.028 C 
ATOM     12  C   LIG d   1       0.325  76.832 116.300  0.00  0.00     0.006 C 
ENDBRANCH   8  11
ENDBRANCH   7   8
ENDBRANCH   1   7
BRANCH   6  13
ATOM     13  N   LIG d   1      -1.726  80.822 112.713  0.00  0.00    -0.311 N 
ATOM     14  C   LIG d   1      -0.638  81.472 112.303  0.00  0.00     0.210 C 
ATOM     15  C   LIG d   1      -0.851  82.956 111.988  0.00  0.00     0.109 C 
ATOM     16  O   LIG d   1       0.476  80.952 112.140  0.00  0.00    -0.276 OA
ATOM     17  H   LIG d   1      -2.596  81.314 112.786  0.00  0.00     0.149 HD
ENDBRANCH   6  13
BRANCH   5  18
ATOM     18  N   LIG d   1      -1.764  78.503 110.725  0.00  0.00     0.381 N 
ATOM     19  H   LIG d   1      -1.588  77.562 110.434  0.00  0.00    -0.090 HD
ATOM     20  H   LIG d   1      -0.882  78.976 110.815  0.00  0.00    -0.090 HD
ATOM     21  H   LIG d   1      -2.330  78.967 110.048  0.00  0.00    -0.090 HD
ENDBRANCH   5  18
BRANCH   3  22
ATOM     22  C   LIG d   1      -3.646  75.768 114.177  0.00  0.00     0.382 C 
ATOM     23  O   LIG d   1      -4.353  75.178 113.324  0.00  0.00    -0.241 OA
ATOM     24  O   LIG d   1      -3.580  75.318 115.336  0.00  0.00    -0.241 OA
ENDBRANCH   3  22
TORSDOF 7
ENDMDL
