MODEL 1
REMARK VINA RESULT:      -5.4      0.000      0.000
REMARK  7 active torsions:
REMARK  status: ('A' for Active; 'I' for Inactive)
REMARK    1  A    between atoms: C_2  and  C_3 
REMARK    2  A    between atoms: C_3  and  O_6 
REMARK    3  A    between atoms: C_3  and  C_4 
REMARK    4  A    between atoms: C_7  and  O_6 
REMARK    5  A    between atoms: C_9  and  C_10 
REMARK    6  A    between atoms: N_15  and  C_14 
REMARK    7  A    between atoms: N_20  and  C_19 
REMARK       I    between atoms: C_22  and  N_20 
ROOT
ATOM      1  C   LIG d   1      -2.770  77.389 116.537  0.00  0.00     0.161 C 
ATOM      2  C   LIG d   1      -3.151  77.984 115.323  0.00  0.00     0.016 C 
ATOM      3  C   LIG d   1      -2.343  77.972 114.163  0.00  0.00     0.038 C 
ATOM      4  C   LIG d   1      -1.155  77.229 114.094  0.00  0.00     0.028 C 
ATOM      5  C   LIG d   1      -0.485  77.031 115.450  0.00  0.00    -0.047 C 
ATOM      6  C   LIG d   1      -1.527  76.479 116.449  0.00  0.00     0.091 C 
ENDROOT
BRANCH   1   7
ATOM      7  O   LIG d   1      -3.883  76.665 117.097  0.00  0.00    -0.368 OA
BRANCH   7   8
ATOM      8  C   LIG d   1      -4.890  76.217 116.157  0.00  0.00     0.119 C 
BRANCH   8   9
ATOM      9  C   LIG d   1      -6.245  76.227 116.891  0.00  0.00     0.028 C 
ATOM     10  C   LIG d   1      -7.402  75.757 115.993  0.00  0.00     0.006 C 
ENDBRANCH   8   9
BRANCH   8  11
ATOM     11  C   LIG d   1      -4.661  74.759 115.747  0.00  0.00     0.028 C 
ATOM     12  C   LIG d   1      -4.452  74.591 114.234  0.00  0.00     0.006 C 
ENDBRANCH   8  11
ENDBRANCH   7   8
ENDBRANCH   1   7
BRANCH   6  13
ATOM     13  N   LIG d   1      -0.976  76.336 117.821  0.00  0.00    -0.311 N 
ATOM     14  C   LIG d   1      -0.425  75.212 118.277  0.00  0.00     0.210 C 
ATOM     15  C   LIG d   1       0.063  75.272 119.728  0.00  0.00     0.109 C 
ATOM     16  O   LIG d   1      -0.264  74.181 117.606  0.00  0.00    -0.276 OA
ATOM     17  H   LIG d   1      -1.037  77.134 118.423  0.00  0.00     0.149 HD
ENDBRANCH   6  13
BRANCH   5  18
ATOM     18  N   LIG d   1       0.663  76.127 115.252  0.00  0.00     0.381 N 
ATOM     19  H   LIG d   1       0.782  75.548 116.059  0.00  0.00    -0.090 HD
ATOM     20  H   LIG d   1       1.495  76.678 115.134  0.00  0.00    -0.090 HD
ATOM     21  H   LIG d   1       0.515  75.559 114.447  0.00  0.00    -0.090 HD
ENDBRANCH   5  18
BRANCH   3  22
ATOM     22  C   LIG d   1      -2.702  78.743 113.067  0.00  0.00     0.382 C 
ATOM     23  O   LIG d   1      -2.925  78.195 111.961  0.00  0.00    -0.241 OA
ATOM     24  O   LIG d   1      -2.762  79.983 113.160  0.00  0.00    -0.241 OA
ENDBRANCH   3  22
TORSDOF 7
ENDMDL
MODEL 2
REMARK VINA RESULT:      -5.2      2.451      4.546
REMARK  7 active torsions:
REMARK  status: ('A' for Active; 'I' for Inactive)
REMARK    1  A    between atoms: C_2  and  C_3 
REMARK    2  A    between atoms: C_3  and  O_6 
REMARK    3  A    between atoms: C_3  and  C_4 
REMARK    4  A    between atoms: C_7  and  O_6 
REMARK    5  A    between atoms: C_9  and  C_10 
REMARK    6  A    between atoms: N_15  and  C_14 
REMARK    7  A    between atoms: N_20  and  C_19 
REMARK       I    between atoms: C_22  and  N_20 
ROOT
ATOM      1  C   LIG d   1      -3.064  77.166 117.228  0.00  0.00     0.161 C 
ATOM      2  C   LIG d   1      -2.178  77.888 118.044  0.00  0.00     0.016 C 
ATOM      3  C   LIG d   1      -0.771  77.786 117.947  0.00  0.00     0.038 C 
ATOM      4  C   LIG d   1      -0.150  77.062 116.918  0.00  0.00     0.028 C 
ATOM      5  C   LIG d   1      -1.002  75.915 116.385  0.00  0.00    -0.047 C 
ATOM      6  C   LIG d   1      -2.405  76.456 116.027  0.00  0.00     0.091 C 
ENDROOT
BRANCH   1   7
ATOM      7  O   LIG d   1      -4.128  78.028 116.778  0.00  0.00    -0.368 OA
BRANCH   7   8
ATOM      8  C   LIG d   1      -5.362  77.966 117.535  0.00  0.00     0.119 C 
BRANCH   8   9
ATOM      9  C   LIG d   1      -6.356  77.107 116.730  0.00  0.00     0.028 C 
ATOM     10  C   LIG d   1      -6.462  75.671 117.271  0.00  0.00     0.006 C 
ENDBRANCH   8   9
BRANCH   8  11
ATOM     11  C   LIG d   1      -6.017  79.346 117.646  0.00  0.00     0.028 C 
ATOM     12  C   LIG d   1      -7.510  79.270 118.002  0.00  0.00     0.006 C 
ENDBRANCH   8  11
ENDBRANCH   7   8
ENDBRANCH   1   7
BRANCH   6  13
ATOM     13  N   LIG d   1      -3.329  75.382 115.576  0.00  0.00    -0.311 N 
ATOM     14  C   LIG d   1      -3.955  75.400 114.401  0.00  0.00     0.210 C 
ATOM     15  C   LIG d   1      -4.878  74.205 114.143  0.00  0.00     0.109 C 
ATOM     16  O   LIG d   1      -3.809  76.275 113.535  0.00  0.00    -0.276 OA
ATOM     17  H   LIG d   1      -3.481  74.618 116.205  0.00  0.00     0.149 HD
ENDBRANCH   6  13
BRANCH   5  18
ATOM     18  N   LIG d   1      -0.294  75.334 115.229  0.00  0.00     0.381 N 
ATOM     19  H   LIG d   1       0.669  75.191 115.458  0.00  0.00    -0.090 HD
ATOM     20  H   LIG d   1      -0.343  75.980 114.460  0.00  0.00    -0.090 HD
ATOM     21  H   LIG d   1      -0.714  74.468 114.971  0.00  0.00    -0.090 HD
ENDBRANCH   5  18
BRANCH   3  22
ATOM     22  C   LIG d   1       0.029  78.380 118.911  0.00  0.00     0.382 C 
ATOM     23  O   LIG d   1       0.257  79.613 118.863  0.00  0.00    -0.241 OA
ATOM     24  O   LIG d   1       0.563  77.691 119.801  0.00  0.00    -0.241 OA
ENDBRANCH   3  22
TORSDOF 7
ENDMDL
MODEL 3
REMARK VINA RESULT:      -5.0      0.957      1.542
REMARK  7 active torsions:
REMARK  status: ('A' for Active; 'I' for Inactive)
REMARK    1  A    between atoms: C_2  and  C_3 
REMARK    2  A    between atoms: C_3  and  O_6 
REMARK    3  A    between atoms: C_3  and  C_4 
REMARK    4  A    between atoms: C_7  and  O_6 
REMARK    5  A    between atoms: C_9  and  C_10 
REMARK    6  A    between atoms: N_15  and  C_14 
REMARK    7  A    between atoms: N_20  and  C_19 
REMARK       I    between atoms: C_22  and  N_20 
ROOT
ATOM      1  C   LIG d   1      -2.904  77.281 116.478  0.00  0.00     0.161 C 
ATOM      2  C   LIG d   1      -3.250  77.808 115.222  0.00  0.00     0.016 C 
ATOM      3  C   LIG d   1      -2.353  77.873 114.132  0.00  0.00     0.038 C 
ATOM      4  C   LIG d   1      -1.086  77.272 114.178  0.00  0.00     0.028 C 
ATOM      5  C   LIG d   1      -0.512  77.176 115.587  0.00  0.00    -0.047 C 
ATOM      6  C   LIG d   1      -1.562  76.520 116.513  0.00  0.00     0.091 C 
ENDROOT
BRANCH   1   7
ATOM      7  O   LIG d   1      -3.969  76.441 116.965  0.00  0.00    -0.368 OA
BRANCH   7   8
ATOM      8  C   LIG d   1      -5.306  76.995 116.886  0.00  0.00     0.119 C 
BRANCH   8   9
ATOM      9  C   LIG d   1      -5.488  77.935 118.094  0.00  0.00     0.028 C 
ATOM     10  C   LIG d   1      -6.048  79.309 117.689  0.00  0.00     0.006 C 
ENDBRANCH   8   9
BRANCH   8  11
ATOM     11  C   LIG d   1      -6.371  75.908 117.054  0.00  0.00     0.028 C 
ATOM     12  C   LIG d   1      -6.732  75.218 115.728  0.00  0.00     0.006 C 
ENDBRANCH   8  11
ENDBRANCH   7   8
ENDBRANCH   1   7
BRANCH   6  13
ATOM     13  N   LIG d   1      -1.114  76.464 117.928  0.00  0.00    -0.311 N 
ATOM     14  C   LIG d   1      -0.443  75.436 118.444  0.00  0.00     0.210 C 
ATOM     15  C   LIG d   1      -0.094  75.571 119.930  0.00  0.00     0.109 C 
ATOM     16  O   LIG d   1      -0.076  74.438 117.805  0.00  0.00    -0.276 OA
ATOM     17  H   LIG d   1      -1.343  77.246 118.511  0.00  0.00     0.149 HD
ENDBRANCH   6  13
BRANCH   5  18
ATOM     18  N   LIG d   1       0.745  76.408 115.505  0.00  0.00     0.381 N 
ATOM     19  H   LIG d   1       1.058  76.371 114.555  0.00  0.00    -0.090 HD
ATOM     20  H   LIG d   1       0.573  75.468 115.817  0.00  0.00    -0.090 HD
ATOM     21  H   LIG d   1       1.442  76.833 116.075  0.00  0.00    -0.090 HD
ENDBRANCH   5  18
BRANCH   3  22
ATOM     22  C   LIG d   1      -2.706  78.579 112.992  0.00  0.00     0.382 C 
ATOM     23  O   LIG d   1      -2.736  79.833 113.016  0.00  0.00    -0.241 OA
ATOM     24  O   LIG d   1      -3.038  77.978 111.953  0.00  0.00    -0.241 OA
ENDBRANCH   3  22
TORSDOF 7
ENDMDL
MODEL 4
REMARK VINA RESULT:      -5.0      3.158      4.836
REMARK  7 active torsions:
REMARK  status: ('A' for Active; 'I' for Inactive)
REMARK    1  A    between atoms: C_2  and  C_3 
REMARK    2  A    between atoms: C_3  and  O_6 
REMARK    3  A    between atoms: C_3  and  C_4 
REMARK    4  A    between atoms: C_7  and  O_6 
REMARK    5  A    between atoms: C_9  and  C_10 
REMARK    6  A    between atoms: N_15  and  C_14 
REMARK    7  A    between atoms: N_20  and  C_19 
REMARK       I    between atoms: C_22  and  N_20 
ROOT
ATOM      1  C   LIG d   1      -5.019  77.584 117.365  0.00  0.00     0.161 C 
ATOM      2  C   LIG d   1      -6.277  78.195 117.233  0.00  0.00     0.016 C 
ATOM      3  C   LIG d   1      -6.637  79.388 117.901  0.00  0.00     0.038 C 
ATOM      4  C   LIG d   1      -5.705  80.137 118.635  0.00  0.00     0.028 C 
ATOM      5  C   LIG d   1      -4.569  79.298 119.207  0.00  0.00    -0.047 C 
ATOM      6  C   LIG d   1      -3.953  78.447 118.073  0.00  0.00     0.091 C 
ENDROOT
BRANCH   1   7
ATOM      7  O   LIG d   1      -4.543  77.160 116.073  0.00  0.00    -0.368 OA
BRANCH   7   8
ATOM      8  C   LIG d   1      -4.376  75.733 115.892  0.00  0.00     0.119 C 
BRANCH   8   9
ATOM      9  C   LIG d   1      -3.167  75.522 114.960  0.00  0.00     0.028 C 
ATOM     10  C   LIG d   1      -2.784  76.802 114.198  0.00  0.00     0.006 C 
ENDBRANCH   8   9
BRANCH   8  11
ATOM     11  C   LIG d   1      -5.570  75.122 115.151  0.00  0.00     0.028 C 
ATOM     12  C   LIG d   1      -6.401  74.180 116.037  0.00  0.00     0.006 C 
ENDBRANCH   8  11
ENDBRANCH   7   8
ENDBRANCH   1   7
BRANCH   6  13
ATOM     13  N   LIG d   1      -2.888  77.533 118.564  0.00  0.00    -0.311 N 
ATOM     14  C   LIG d   1      -1.685  77.440 118.000  0.00  0.00     0.210 C 
ATOM     15  C   LIG d   1      -0.743  76.422 118.651  0.00  0.00     0.109 C 
ATOM     16  O   LIG d   1      -1.297  78.127 117.044  0.00  0.00    -0.276 OA
ATOM     17  H   LIG d   1      -3.107  76.961 119.356  0.00  0.00     0.149 HD
ENDBRANCH   6  13
BRANCH   5  18
ATOM     18  N   LIG d   1      -3.601  80.222 119.828  0.00  0.00     0.381 N 
ATOM     19  H   LIG d   1      -3.917  80.480 120.741  0.00  0.00    -0.090 HD
ATOM     20  H   LIG d   1      -3.541  81.054 119.268  0.00  0.00    -0.090 HD
ATOM     21  H   LIG d   1      -2.706  79.788 119.889  0.00  0.00    -0.090 HD
ENDBRANCH   5  18
BRANCH   3  22
ATOM     22  C   LIG d   1      -7.954  79.821 117.872  0.00  0.00     0.382 C 
ATOM     23  O   LIG d   1      -8.852  79.136 118.420  0.00  0.00    -0.241 OA
ATOM     24  O   LIG d   1      -8.263  80.865 117.268  0.00  0.00    -0.241 OA
ENDBRANCH   3  22
TORSDOF 7
ENDMDL
MODEL 5
REMARK VINA RESULT:      -4.9      1.653      4.853
REMARK  7 active torsions:
REMARK  status: ('A' for Active; 'I' for Inactive)
REMARK    1  A    between atoms: C_2  and  C_3 
REMARK    2  A    between atoms: C_3  and  O_6 
REMARK    3  A    between atoms: C_3  and  C_4 
REMARK    4  A    between atoms: C_7  and  O_6 
REMARK    5  A    between atoms: C_9  and  C_10 
REMARK    6  A    between atoms: N_15  and  C_14 
REMARK    7  A    between atoms: N_20  and  C_19 
REMARK       I    between atoms: C_22  and  N_20 
ROOT
ATOM      1  C   LIG d   1      -2.253  75.632 115.110  0.00  0.00     0.161 C 
ATOM      2  C   LIG d   1      -1.889  75.270 116.418  0.00  0.00     0.016 C 
ATOM      3  C   LIG d   1      -0.968  76.004 117.200  0.00  0.00     0.038 C 
ATOM      4  C   LIG d   1      -0.459  77.242 116.780  0.00  0.00     0.028 C 
ATOM      5  C   LIG d   1      -0.408  77.392 115.263  0.00  0.00    -0.047 C 
ATOM      6  C   LIG d   1      -1.794  77.039 114.676  0.00  0.00     0.091 C 
ENDROOT
BRANCH   1   7
ATOM      7  O   LIG d   1      -3.679  75.497 114.945  0.00  0.00    -0.368 OA
BRANCH   7   8
ATOM      8  C   LIG d   1      -4.470  75.565 116.157  0.00  0.00     0.119 C 
BRANCH   8   9
ATOM      9  C   LIG d   1      -5.669  74.612 115.981  0.00  0.00     0.028 C 
ATOM     10  C   LIG d   1      -6.992  75.367 115.768  0.00  0.00     0.006 C 
ENDBRANCH   8   9
BRANCH   8  11
ATOM     11  C   LIG d   1      -5.082  76.956 116.345  0.00  0.00     0.028 C 
ATOM     12  C   LIG d   1      -4.336  77.798 117.392  0.00  0.00     0.006 C 
ENDBRANCH   8  11
ENDBRANCH   7   8
ENDBRANCH   1   7
BRANCH   6  13
ATOM     13  N   LIG d   1      -1.807  77.079 113.191  0.00  0.00    -0.311 N 
ATOM     14  C   LIG d   1      -2.207  78.138 112.489  0.00  0.00     0.210 C 
ATOM     15  C   LIG d   1      -2.160  77.962 110.968  0.00  0.00     0.109 C 
ATOM     16  O   LIG d   1      -2.566  79.218 112.982  0.00  0.00    -0.276 OA
ATOM     17  H   LIG d   1      -1.502  76.256 112.710  0.00  0.00     0.149 HD
ENDBRANCH   6  13
BRANCH   5  18
ATOM     18  N   LIG d   1       0.011  78.775 114.966  0.00  0.00     0.381 N 
ATOM     19  H   LIG d   1       0.052  78.911 113.976  0.00  0.00    -0.090 HD
ATOM     20  H   LIG d   1       0.930  78.925 115.344  0.00  0.00    -0.090 HD
ATOM     21  H   LIG d   1      -0.632  79.420 115.371  0.00  0.00    -0.090 HD
ENDBRANCH   5  18
BRANCH   3  22
ATOM     22  C   LIG d   1      -0.516  75.480 118.402  0.00  0.00     0.382 C 
ATOM     23  O   LIG d   1      -0.837  76.026 119.484  0.00  0.00    -0.241 OA
ATOM     24  O   LIG d   1       0.245  74.494 118.414  0.00  0.00    -0.241 OA
ENDBRANCH   3  22
TORSDOF 7
ENDMDL
MODEL 6
REMARK VINA RESULT:      -4.8      1.108      1.847
REMARK  7 active torsions:
REMARK  status: ('A' for Active; 'I' for Inactive)
REMARK    1  A    between atoms: C_2  and  C_3 
REMARK    2  A    between atoms: C_3  and  O_6 
REMARK    3  A    between atoms: C_3  and  C_4 
REMARK    4  A    between atoms: C_7  and  O_6 
REMARK    5  A    between atoms: C_9  and  C_10 
REMARK    6  A    between atoms: N_15  and  C_14 
REMARK    7  A    between atoms: N_20  and  C_19 
REMARK       I    between atoms: C_22  and  N_20 
ROOT
ATOM      1  C   LIG d   1      -2.980  77.071 116.055  0.00  0.00     0.161 C 
ATOM      2  C   LIG d   1      -3.205  77.483 114.730  0.00  0.00     0.016 C 
ATOM      3  C   LIG d   1      -2.191  77.527 113.746  0.00  0.00     0.038 C 
ATOM      4  C   LIG d   1      -0.906  77.016 113.982  0.00  0.00     0.028 C 
ATOM      5  C   LIG d   1      -0.497  77.059 115.450  0.00  0.00    -0.047 C 
ATOM      6  C   LIG d   1      -1.610  76.405 116.301  0.00  0.00     0.091 C 
ENDROOT
BRANCH   1   7
ATOM      7  O   LIG d   1      -4.045  76.200 116.484  0.00  0.00    -0.368 OA
BRANCH   7   8
ATOM      8  C   LIG d   1      -5.073  76.807 117.304  0.00  0.00     0.119 C 
BRANCH   8   9
ATOM      9  C   LIG d   1      -6.377  76.813 116.484  0.00  0.00     0.028 C 
ATOM     10  C   LIG d   1      -6.625  75.474 115.767  0.00  0.00     0.006 C 
ENDBRANCH   8   9
BRANCH   8  11
ATOM     11  C   LIG d   1      -4.764  78.281 117.585  0.00  0.00     0.028 C 
ATOM     12  C   LIG d   1      -6.021  79.165 117.577  0.00  0.00     0.006 C 
ENDBRANCH   8  11
ENDBRANCH   7   8
ENDBRANCH   1   7
BRANCH   6  13
ATOM     13  N   LIG d   1      -1.328  76.481 117.758  0.00  0.00    -0.311 N 
ATOM     14  C   LIG d   1      -0.638  75.554 118.420  0.00  0.00     0.210 C 
ATOM     15  C   LIG d   1      -0.479  75.815 119.921  0.00  0.00     0.109 C 
ATOM     16  O   LIG d   1      -0.114  74.556 117.901  0.00  0.00    -0.276 OA
ATOM     17  H   LIG d   1      -1.689  77.273 118.252  0.00  0.00     0.149 HD
ENDBRANCH   6  13
BRANCH   5  18
ATOM     18  N   LIG d   1       0.803  76.372 115.571  0.00  0.00     0.381 N 
ATOM     19  H   LIG d   1       1.546  77.022 115.412  0.00  0.00    -0.090 HD
ATOM     20  H   LIG d   1       0.857  75.654 114.870  0.00  0.00    -0.090 HD
ATOM     21  H   LIG d   1       0.892  75.969 116.478  0.00  0.00    -0.090 HD
ENDBRANCH   5  18
BRANCH   3  22
ATOM     22  C   LIG d   1      -2.448  78.125 112.522  0.00  0.00     0.382 C 
ATOM     23  O   LIG d   1      -2.992  79.255 112.477  0.00  0.00    -0.241 OA
ATOM     24  O   LIG d   1      -2.183  77.529 111.460  0.00  0.00    -0.241 OA
ENDBRANCH   3  22
TORSDOF 7
ENDMDL
MODEL 7
REMARK VINA RESULT:      -4.6      2.086      4.659
REMARK  7 active torsions:
REMARK  status: ('A' for Active; 'I' for Inactive)
REMARK    1  A    between atoms: C_2  and  C_3 
REMARK    2  A    between atoms: C_3  and  O_6 
REMARK    3  A    between atoms: C_3  and  C_4 
REMARK    4  A    between atoms: C_7  and  O_6 
REMARK    5  A    between atoms: C_9  and  C_10 
REMARK    6  A    between atoms: N_15  and  C_14 
REMARK    7  A    between atoms: N_20  and  C_19 
REMARK       I    between atoms: C_22  and  N_20 
ROOT
ATOM      1  C   LIG d   1      -2.065  76.539 114.709  0.00  0.00     0.161 C 
ATOM      2  C   LIG d   1      -3.310  75.956 114.421  0.00  0.00     0.016 C 
ATOM      3  C   LIG d   1      -4.444  76.092 115.254  0.00  0.00     0.038 C 
ATOM      4  C   LIG d   1      -4.451  76.951 116.363  0.00  0.00     0.028 C 
ATOM      5  C   LIG d   1      -3.071  77.162 116.974  0.00  0.00    -0.047 C 
ATOM      6  C   LIG d   1      -2.084  77.571 115.856  0.00  0.00     0.091 C 
ENDROOT
BRANCH   1   7
ATOM      7  O   LIG d   1      -1.513  77.128 113.515  0.00  0.00    -0.368 OA
BRANCH   7   8
ATOM      8  C   LIG d   1      -2.186  78.311 113.018  0.00  0.00     0.119 C 
BRANCH   8   9
ATOM      9  C   LIG d   1      -2.508  78.070 111.530  0.00  0.00     0.028 C 
ATOM     10  C   LIG d   1      -1.240  77.918 110.673  0.00  0.00     0.006 C 
ENDBRANCH   8   9
BRANCH   8  11
ATOM     11  C   LIG d   1      -1.259  79.530 113.040  0.00  0.00     0.028 C 
ATOM     12  C   LIG d   1      -2.022  80.860 112.942  0.00  0.00     0.006 C 
ENDBRANCH   8  11
ENDBRANCH   7   8
ENDBRANCH   1   7
BRANCH   6  13
ATOM     13  N   LIG d   1      -0.691  77.715 116.354  0.00  0.00    -0.311 N 
ATOM     14  C   LIG d   1      -0.041  76.751 117.003  0.00  0.00     0.210 C 
ATOM     15  C   LIG d   1       1.379  77.115 117.447  0.00  0.00     0.109 C 
ATOM     16  O   LIG d   1      -0.494  75.618 117.224  0.00  0.00    -0.276 OA
ATOM     17  H   LIG d   1      -0.237  78.592 116.190  0.00  0.00     0.149 HD
ENDBRANCH   6  13
BRANCH   5  18
ATOM     18  N   LIG d   1      -3.202  78.183 118.031  0.00  0.00     0.381 N 
ATOM     19  H   LIG d   1      -2.300  78.404 118.403  0.00  0.00    -0.090 HD
ATOM     20  H   LIG d   1      -3.767  77.811 118.774  0.00  0.00    -0.090 HD
ATOM     21  H   LIG d   1      -3.627  79.004 117.660  0.00  0.00    -0.090 HD
ENDBRANCH   5  18
BRANCH   3  22
ATOM     22  C   LIG d   1      -5.576  75.331 115.003  0.00  0.00     0.382 C 
ATOM     23  O   LIG d   1      -6.473  75.774 114.245  0.00  0.00    -0.241 OA
ATOM     24  O   LIG d   1      -5.732  74.228 115.559  0.00  0.00    -0.241 OA
ENDBRANCH   3  22
TORSDOF 7
ENDMDL
MODEL 8
REMARK VINA RESULT:      -4.5      2.992      4.594
REMARK  7 active torsions:
REMARK  status: ('A' for Active; 'I' for Inactive)
REMARK    1  A    between atoms: C_2  and  C_3 
REMARK    2  A    between atoms: C_3  and  O_6 
REMARK    3  A    between atoms: C_3  and  C_4 
REMARK    4  A    between atoms: C_7  and  O_6 
REMARK    5  A    between atoms: C_9  and  C_10 
REMARK    6  A    between atoms: N_15  and  C_14 
REMARK    7  A    between atoms: N_20  and  C_19 
REMARK       I    between atoms: C_22  and  N_20 
ROOT
ATOM      1  C   LIG d   1      -4.814  77.506 117.228  0.00  0.00     0.161 C 
ATOM      2  C   LIG d   1      -6.035  78.190 117.360  0.00  0.00     0.016 C 
ATOM      3  C   LIG d   1      -6.231  79.265 118.256  0.00  0.00     0.038 C 
ATOM      4  C   LIG d   1      -5.170  79.832 118.978  0.00  0.00     0.028 C 
ATOM      5  C   LIG d   1      -4.035  78.852 119.255  0.00  0.00    -0.047 C 
ATOM      6  C   LIG d   1      -3.616  78.181 117.927  0.00  0.00     0.091 C 
ENDROOT
BRANCH   1   7
ATOM      7  O   LIG d   1      -4.524  77.289 115.833  0.00  0.00    -0.368 OA
BRANCH   7   8
ATOM      8  C   LIG d   1      -5.045  76.066 115.256  0.00  0.00     0.119 C 
BRANCH   8   9
ATOM      9  C   LIG d   1      -5.161  75.031 116.392  0.00  0.00     0.028 C 
ATOM     10  C   LIG d   1      -6.439  74.183 116.285  0.00  0.00     0.006 C 
ENDBRANCH   8   9
BRANCH   8  11
ATOM     11  C   LIG d   1      -4.060  75.459 114.253  0.00  0.00     0.028 C 
ATOM     12  C   LIG d   1      -2.631  75.357 114.809  0.00  0.00     0.006 C 
ENDBRANCH   8  11
ENDBRANCH   7   8
ENDBRANCH   1   7
BRANCH   6  13
ATOM     13  N   LIG d   1      -2.567  77.147 118.120  0.00  0.00    -0.311 N 
ATOM     14  C   LIG d   1      -1.359  77.214 117.563  0.00  0.00     0.210 C 
ATOM     15  C   LIG d   1      -0.436  76.033 117.876  0.00  0.00     0.109 C 
ATOM     16  O   LIG d   1      -0.953  78.156 116.866  0.00  0.00    -0.276 OA
ATOM     17  H   LIG d   1      -2.800  76.363 118.697  0.00  0.00     0.149 HD
ENDBRANCH   6  13
BRANCH   5  18
ATOM     18  N   LIG d   1      -2.939  79.608 119.891  0.00  0.00     0.381 N 
ATOM     19  H   LIG d   1      -3.317  80.274 120.536  0.00  0.00    -0.090 HD
ATOM     20  H   LIG d   1      -2.434  80.108 119.181  0.00  0.00    -0.090 HD
ATOM     21  H   LIG d   1      -2.327  78.984 120.369  0.00  0.00    -0.090 HD
ENDBRANCH   5  18
BRANCH   3  22
ATOM     22  C   LIG d   1      -7.509  79.760 118.467  0.00  0.00     0.382 C 
ATOM     23  O   LIG d   1      -7.694  80.691 119.287  0.00  0.00    -0.241 OA
ATOM     24  O   LIG d   1      -8.486  79.256 117.880  0.00  0.00    -0.241 OA
ENDBRANCH   3  22
TORSDOF 7
ENDMDL
MODEL 9
REMARK VINA RESULT:      -4.4      2.932      4.908
REMARK  7 active torsions:
REMARK  status: ('A' for Active; 'I' for Inactive)
REMARK    1  A    between atoms: C_2  and  C_3 
REMARK    2  A    between atoms: C_3  and  O_6 
REMARK    3  A    between atoms: C_3  and  C_4 
REMARK    4  A    between atoms: C_7  and  O_6 
REMARK    5  A    between atoms: C_9  and  C_10 
REMARK    6  A    between atoms: N_15  and  C_14 
REMARK    7  A    between atoms: N_20  and  C_19 
REMARK       I    between atoms: C_22  and  N_20 
ROOT
ATOM      1  C   LIG d   1      -3.962  77.791 117.719  0.00  0.00     0.161 C 
ATOM      2  C   LIG d   1      -2.748  78.274 118.237  0.00  0.00     0.016 C 
ATOM      3  C   LIG d   1      -1.484  77.768 117.857  0.00  0.00     0.038 C 
ATOM      4  C   LIG d   1      -1.340  76.841 116.813  0.00  0.00     0.028 C 
ATOM      5  C   LIG d   1      -2.567  75.958 116.613  0.00  0.00    -0.047 C 
ATOM      6  C   LIG d   1      -3.819  76.857 116.499  0.00  0.00     0.091 C 
ENDROOT
BRANCH   1   7
ATOM      7  O   LIG d   1      -4.833  78.895 117.406  0.00  0.00    -0.368 OA
BRANCH   7   8
ATOM      8  C   LIG d   1      -6.199  78.784 117.878  0.00  0.00     0.119 C 
BRANCH   8   9
ATOM      9  C   LIG d   1      -6.684  80.204 118.229  0.00  0.00     0.028 C 
ATOM     10  C   LIG d   1      -8.116  80.473 117.736  0.00  0.00     0.006 C 
ENDBRANCH   8   9
BRANCH   8  11
ATOM     11  C   LIG d   1      -6.272  77.995 119.189  0.00  0.00     0.028 C 
ATOM     12  C   LIG d   1      -7.332  76.883 119.156  0.00  0.00     0.006 C 
ENDBRANCH   8  11
ENDBRANCH   7   8
ENDBRANCH   1   7
BRANCH   6  13
ATOM     13  N   LIG d   1      -5.074  76.070 116.386  0.00  0.00    -0.311 N 
ATOM     14  C   LIG d   1      -5.646  75.766 115.222  0.00  0.00     0.210 C 
ATOM     15  C   LIG d   1      -6.946  74.963 115.331  0.00  0.00     0.109 C 
ATOM     16  O   LIG d   1      -5.183  76.057 114.109  0.00  0.00    -0.276 OA
ATOM     17  H   LIG d   1      -5.501  75.766 117.239  0.00  0.00     0.149 HD
ENDBRANCH   6  13
BRANCH   5  18
ATOM     18  N   LIG d   1      -2.333  75.137 115.411  0.00  0.00     0.381 N 
ATOM     19  H   LIG d   1      -1.415  75.311 115.054  0.00  0.00    -0.090 HD
ATOM     20  H   LIG d   1      -3.000  75.396 114.705  0.00  0.00    -0.090 HD
ATOM     21  H   LIG d   1      -2.433  74.171 115.633  0.00  0.00    -0.090 HD
ENDBRANCH   5  18
BRANCH   3  22
ATOM     22  C   LIG d   1      -0.350  78.161 118.551  0.00  0.00     0.382 C 
ATOM     23  O   LIG d   1       0.071  77.467 119.508  0.00  0.00    -0.241 OA
ATOM     24  O   LIG d   1       0.233  79.222 118.260  0.00  0.00    -0.241 OA
ENDBRANCH   3  22
TORSDOF 7
ENDMDL
