MODEL 1
REMARK VINA RESULT:      -5.2      0.000      0.000
REMARK  7 active torsions:
REMARK  status: ('A' for Active; 'I' for Inactive)
REMARK    1  A    between atoms: C_2  and  C_3 
REMARK    2  A    between atoms: C_3  and  O_6 
REMARK    3  A    between atoms: C_3  and  C_4 
REMARK    4  A    between atoms: C_7  and  O_6 
REMARK    5  A    between atoms: C_9  and  C_10 
REMARK    6  A    between atoms: N_15  and  C_14 
REMARK    7  A    between atoms: N_20  and  C_19 
REMARK       I    between atoms: C_22  and  N_20 
ROOT
ATOM      1  C   LIG d   1      -2.536  77.890 116.214  0.00  0.00     0.161 C 
ATOM      2  C   LIG d   1      -2.801  78.707 115.102  0.00  0.00     0.016 C 
ATOM      3  C   LIG d   1      -2.184  78.531 113.842  0.00  0.00     0.038 C 
ATOM      4  C   LIG d   1      -1.368  77.425 113.565  0.00  0.00     0.028 C 
ATOM      5  C   LIG d   1      -0.675  76.858 114.800  0.00  0.00    -0.047 C 
ATOM      6  C   LIG d   1      -1.733  76.611 115.899  0.00  0.00     0.091 C 
ENDROOT
BRANCH   1   7
ATOM      7  O   LIG d   1      -3.770  77.556 116.880  0.00  0.00    -0.368 OA
BRANCH   7   8
ATOM      8  C   LIG d   1      -4.954  77.517 116.046  0.00  0.00     0.119 C 
BRANCH   8   9
ATOM      9  C   LIG d   1      -6.113  78.124 116.859  0.00  0.00     0.028 C 
ATOM     10  C   LIG d   1      -5.878  79.604 117.202  0.00  0.00     0.006 C 
ENDBRANCH   8   9
BRANCH   8  11
ATOM     11  C   LIG d   1      -5.378  76.076 115.748  0.00  0.00     0.028 C 
ATOM     12  C   LIG d   1      -4.911  75.591 114.366  0.00  0.00     0.006 C 
ENDBRANCH   8  11
ENDBRANCH   7   8
ENDBRANCH   1   7
BRANCH   6  13
ATOM     13  N   LIG d   1      -1.128  76.135 117.171  0.00  0.00    -0.311 N 
ATOM     14  C   LIG d   1      -1.472  74.994 117.765  0.00  0.00     0.210 C 
ATOM     15  C   LIG d   1      -0.740  74.702 119.079  0.00  0.00     0.109 C 
ATOM     16  O   LIG d   1      -2.291  74.180 117.312  0.00  0.00    -0.276 OA
ATOM     17  H   LIG d   1      -0.432  76.720 117.592  0.00  0.00     0.149 HD
ENDBRANCH   6  13
BRANCH   5  18
ATOM     18  N   LIG d   1       0.031  75.629 114.390  0.00  0.00     0.381 N 
ATOM     19  H   LIG d   1       0.986  75.673 114.685  0.00  0.00    -0.090 HD
ATOM     20  H   LIG d   1       0.013  75.563 113.388  0.00  0.00    -0.090 HD
ATOM     21  H   LIG d   1      -0.411  74.832 114.791  0.00  0.00    -0.090 HD
ENDBRANCH   5  18
BRANCH   3  22
ATOM     22  C   LIG d   1      -2.350  79.491 112.856  0.00  0.00     0.382 C 
ATOM     23  O   LIG d   1      -1.789  79.349 111.742  0.00  0.00    -0.241 OA
ATOM     24  O   LIG d   1      -3.018  80.518 113.080  0.00  0.00    -0.241 OA
ENDBRANCH   3  22
TORSDOF 7
ENDMDL
MODEL 2
REMARK VINA RESULT:      -5.2      2.057      5.018
REMARK  7 active torsions:
REMARK  status: ('A' for Active; 'I' for Inactive)
REMARK    1  A    between atoms: C_2  and  C_3 
REMARK    2  A    between atoms: C_3  and  O_6 
REMARK    3  A    between atoms: C_3  and  C_4 
REMARK    4  A    between atoms: C_7  and  O_6 
REMARK    5  A    between atoms: C_9  and  C_10 
REMARK    6  A    between atoms: N_15  and  C_14 
REMARK    7  A    between atoms: N_20  and  C_19 
REMARK       I    between atoms: C_22  and  N_20 
ROOT
ATOM      1  C   LIG d   1      -1.344  75.548 115.122  0.00  0.00     0.161 C 
ATOM      2  C   LIG d   1      -0.934  75.034 116.363  0.00  0.00     0.016 C 
ATOM      3  C   LIG d   1      -0.318  75.818 117.366  0.00  0.00     0.038 C 
ATOM      4  C   LIG d   1      -0.208  77.212 117.253  0.00  0.00     0.028 C 
ATOM      5  C   LIG d   1      -0.151  77.701 115.810  0.00  0.00    -0.047 C 
ATOM      6  C   LIG d   1      -1.333  77.088 115.025  0.00  0.00     0.091 C 
ENDROOT
BRANCH   1   7
ATOM      7  O   LIG d   1      -2.648  75.034 114.787  0.00  0.00    -0.368 OA
BRANCH   7   8
ATOM      8  C   LIG d   1      -3.764  75.929 115.018  0.00  0.00     0.119 C 
BRANCH   8   9
ATOM      9  C   LIG d   1      -4.405  75.534 116.363  0.00  0.00     0.028 C 
ATOM     10  C   LIG d   1      -4.164  76.586 117.459  0.00  0.00     0.006 C 
ENDBRANCH   8   9
BRANCH   8  11
ATOM     11  C   LIG d   1      -4.864  75.729 113.971  0.00  0.00     0.028 C 
ATOM     12  C   LIG d   1      -6.278  75.807 114.569  0.00  0.00     0.006 C 
ENDBRANCH   8  11
ENDBRANCH   7   8
ENDBRANCH   1   7
BRANCH   6  13
ATOM     13  N   LIG d   1      -1.304  77.448 113.583  0.00  0.00    -0.311 N 
ATOM     14  C   LIG d   1      -2.025  78.438 113.060  0.00  0.00     0.210 C 
ATOM     15  C   LIG d   1      -1.862  78.627 111.548  0.00  0.00     0.109 C 
ATOM     16  O   LIG d   1      -2.760  79.197 113.709  0.00  0.00    -0.276 OA
ATOM     17  H   LIG d   1      -0.710  76.903 112.989  0.00  0.00     0.149 HD
ENDBRANCH   6  13
BRANCH   5  18
ATOM     18  N   LIG d   1      -0.176  79.175 115.837  0.00  0.00     0.381 N 
ATOM     19  H   LIG d   1       0.515  79.538 115.211  0.00  0.00    -0.090 HD
ATOM     20  H   LIG d   1       0.044  79.487 116.766  0.00  0.00    -0.090 HD
ATOM     21  H   LIG d   1      -1.078  79.506 115.573  0.00  0.00    -0.090 HD
ENDBRANCH   5  18
BRANCH   3  22
ATOM     22  C   LIG d   1       0.231  75.202 118.480  0.00  0.00     0.382 C 
ATOM     23  O   LIG d   1      -0.419  74.321 119.093  0.00  0.00    -0.241 OA
ATOM     24  O   LIG d   1       1.349  75.548 118.906  0.00  0.00    -0.241 OA
ENDBRANCH   3  22
TORSDOF 7
ENDMDL
MODEL 3
REMARK VINA RESULT:      -5.0      1.999      4.978
REMARK  7 active torsions:
REMARK  status: ('A' for Active; 'I' for Inactive)
REMARK    1  A    between atoms: C_2  and  C_3 
REMARK    2  A    between atoms: C_3  and  O_6 
REMARK    3  A    between atoms: C_3  and  C_4 
REMARK    4  A    between atoms: C_7  and  O_6 
REMARK    5  A    between atoms: C_9  and  C_10 
REMARK    6  A    between atoms: N_15  and  C_14 
REMARK    7  A    between atoms: N_20  and  C_19 
REMARK       I    between atoms: C_22  and  N_20 
ROOT
ATOM      1  C   LIG d   1      -2.057  75.766 115.082  0.00  0.00     0.161 C 
ATOM      2  C   LIG d   1      -1.879  75.446 116.438  0.00  0.00     0.016 C 
ATOM      3  C   LIG d   1      -1.199  76.283 117.353  0.00  0.00     0.038 C 
ATOM      4  C   LIG d   1      -0.780  77.575 117.004  0.00  0.00     0.028 C 
ATOM      5  C   LIG d   1      -0.491  77.738 115.516  0.00  0.00    -0.047 C 
ATOM      6  C   LIG d   1      -1.704  77.222 114.710  0.00  0.00     0.091 C 
ENDROOT
BRANCH   1   7
ATOM      7  O   LIG d   1      -3.407  75.460 114.681  0.00  0.00    -0.368 OA
BRANCH   7   8
ATOM      8  C   LIG d   1      -4.423  75.600 115.704  0.00  0.00     0.119 C 
BRANCH   8   9
ATOM      9  C   LIG d   1      -5.517  74.553 115.417  0.00  0.00     0.028 C 
ATOM     10  C   LIG d   1      -6.798  74.804 116.230  0.00  0.00     0.006 C 
ENDBRANCH   8   9
BRANCH   8  11
ATOM     11  C   LIG d   1      -5.126  76.957 115.608  0.00  0.00     0.028 C 
ATOM     12  C   LIG d   1      -4.731  77.914 116.744  0.00  0.00     0.006 C 
ENDBRANCH   8  11
ENDBRANCH   7   8
ENDBRANCH   1   7
BRANCH   6  13
ATOM     13  N   LIG d   1      -1.471  77.267 113.243  0.00  0.00    -0.311 N 
ATOM     14  C   LIG d   1      -2.201  78.002 112.406  0.00  0.00     0.210 C 
ATOM     15  C   LIG d   1      -1.805  77.888 110.931  0.00  0.00     0.109 C 
ATOM     16  O   LIG d   1      -3.119  78.762 112.750  0.00  0.00    -0.276 OA
ATOM     17  H   LIG d   1      -0.725  76.704 112.882  0.00  0.00     0.149 HD
ENDBRANCH   6  13
BRANCH   5  18
ATOM     18  N   LIG d   1      -0.198  79.163 115.272  0.00  0.00     0.381 N 
ATOM     19  H   LIG d   1      -0.450  79.703 116.076  0.00  0.00    -0.090 HD
ATOM     20  H   LIG d   1      -0.750  79.480 114.494  0.00  0.00    -0.090 HD
ATOM     21  H   LIG d   1       0.770  79.283 115.072  0.00  0.00    -0.090 HD
ENDBRANCH   5  18
BRANCH   3  22
ATOM     22  C   LIG d   1      -0.897  75.811 118.621  0.00  0.00     0.382 C 
ATOM     23  O   LIG d   1      -1.590  74.899 119.133  0.00  0.00    -0.241 OA
ATOM     24  O   LIG d   1       0.033  76.318 119.278  0.00  0.00    -0.241 OA
ENDBRANCH   3  22
TORSDOF 7
ENDMDL
MODEL 4
REMARK VINA RESULT:      -4.9      2.202      4.836
REMARK  7 active torsions:
REMARK  status: ('A' for Active; 'I' for Inactive)
REMARK    1  A    between atoms: C_2  and  C_3 
REMARK    2  A    between atoms: C_3  and  O_6 
REMARK    3  A    between atoms: C_3  and  C_4 
REMARK    4  A    between atoms: C_7  and  O_6 
REMARK    5  A    between atoms: C_9  and  C_10 
REMARK    6  A    between atoms: N_15  and  C_14 
REMARK    7  A    between atoms: N_20  and  C_19 
REMARK       I    between atoms: C_22  and  N_20 
ROOT
ATOM      1  C   LIG d   1      -3.243  77.166 115.615  0.00  0.00     0.161 C 
ATOM      2  C   LIG d   1      -2.973  77.251 116.991  0.00  0.00     0.016 C 
ATOM      3  C   LIG d   1      -1.908  78.009 117.529  0.00  0.00     0.038 C 
ATOM      4  C   LIG d   1      -1.127  78.861 116.734  0.00  0.00     0.028 C 
ATOM      5  C   LIG d   1      -1.041  78.418 115.277  0.00  0.00    -0.047 C 
ATOM      6  C   LIG d   1      -2.470  78.177 114.741  0.00  0.00     0.091 C 
ENDROOT
BRANCH   1   7
ATOM      7  O   LIG d   1      -4.661  77.288 115.386  0.00  0.00    -0.368 OA
BRANCH   7   8
ATOM      8  C   LIG d   1      -5.505  76.366 116.118  0.00  0.00     0.119 C 
BRANCH   8   9
ATOM      9  C   LIG d   1      -5.990  75.293 115.124  0.00  0.00     0.028 C 
ATOM     10  C   LIG d   1      -5.694  75.671 113.663  0.00  0.00     0.006 C 
ENDBRANCH   8   9
BRANCH   8  11
ATOM     11  C   LIG d   1      -6.777  77.055 116.623  0.00  0.00     0.028 C 
ATOM     12  C   LIG d   1      -8.000  76.125 116.619  0.00  0.00     0.006 C 
ENDBRANCH   8  11
ENDBRANCH   7   8
ENDBRANCH   1   7
BRANCH   6  13
ATOM     13  N   LIG d   1      -2.473  77.660 113.347  0.00  0.00    -0.311 N 
ATOM     14  C   LIG d   1      -2.592  78.442 112.276  0.00  0.00     0.210 C 
ATOM     15  C   LIG d   1      -2.592  77.704 110.933  0.00  0.00     0.109 C 
ATOM     16  O   LIG d   1      -2.666  79.680 112.308  0.00  0.00    -0.276 OA
ATOM     17  H   LIG d   1      -2.387  76.670 113.228  0.00  0.00     0.149 HD
ENDBRANCH   6  13
BRANCH   5  18
ATOM     18  N   LIG d   1      -0.315  79.466 114.535  0.00  0.00     0.381 N 
ATOM     19  H   LIG d   1      -0.936  80.220 114.318  0.00  0.00    -0.090 HD
ATOM     20  H   LIG d   1       0.025  79.078 113.673  0.00  0.00    -0.090 HD
ATOM     21  H   LIG d   1       0.449  79.802 115.080  0.00  0.00    -0.090 HD
ENDBRANCH   5  18
BRANCH   3  22
ATOM     22  C   LIG d   1      -1.590  77.889 118.874  0.00  0.00     0.382 C 
ATOM     23  O   LIG d   1      -1.985  76.891 119.524  0.00  0.00    -0.241 OA
ATOM     24  O   LIG d   1      -0.950  78.786 119.455  0.00  0.00    -0.241 OA
ENDBRANCH   3  22
TORSDOF 7
ENDMDL
MODEL 5
REMARK VINA RESULT:      -4.7      3.145      5.085
REMARK  7 active torsions:
REMARK  status: ('A' for Active; 'I' for Inactive)
REMARK    1  A    between atoms: C_2  and  C_3 
REMARK    2  A    between atoms: C_3  and  O_6 
REMARK    3  A    between atoms: C_3  and  C_4 
REMARK    4  A    between atoms: C_7  and  O_6 
REMARK    5  A    between atoms: C_9  and  C_10 
REMARK    6  A    between atoms: N_15  and  C_14 
REMARK    7  A    between atoms: N_20  and  C_19 
REMARK       I    between atoms: C_22  and  N_20 
ROOT
ATOM      1  C   LIG d   1      -6.188  77.764 117.134  0.00  0.00     0.161 C 
ATOM      2  C   LIG d   1      -7.147  78.789 117.182  0.00  0.00     0.016 C 
ATOM      3  C   LIG d   1      -6.907  80.051 117.774  0.00  0.00     0.038 C 
ATOM      4  C   LIG d   1      -5.634  80.428 118.226  0.00  0.00     0.028 C 
ATOM      5  C   LIG d   1      -4.769  79.248 118.656  0.00  0.00    -0.047 C 
ATOM      6  C   LIG d   1      -4.759  78.196 117.523  0.00  0.00     0.091 C 
ENDROOT
BRANCH   1   7
ATOM      7  O   LIG d   1      -6.189  77.155 115.827  0.00  0.00    -0.368 OA
BRANCH   7   8
ATOM      8  C   LIG d   1      -6.826  75.858 115.729  0.00  0.00     0.119 C 
BRANCH   8   9
ATOM      9  C   LIG d   1      -7.303  75.468 117.142  0.00  0.00     0.028 C 
ATOM     10  C   LIG d   1      -8.162  74.193 117.140  0.00  0.00     0.006 C 
ENDBRANCH   8   9
BRANCH   8  11
ATOM     11  C   LIG d   1      -5.822  74.773 115.326  0.00  0.00     0.028 C 
ATOM     12  C   LIG d   1      -4.972  75.171 114.110  0.00  0.00     0.006 C 
ENDBRANCH   8  11
ENDBRANCH   7   8
ENDBRANCH   1   7
BRANCH   6  13
ATOM     13  N   LIG d   1      -4.004  76.970 117.894  0.00  0.00    -0.311 N 
ATOM     14  C   LIG d   1      -3.027  76.457 117.149  0.00  0.00     0.210 C 
ATOM     15  C   LIG d   1      -2.393  75.178 117.705  0.00  0.00     0.109 C 
ATOM     16  O   LIG d   1      -2.603  76.958 116.097  0.00  0.00    -0.276 OA
ATOM     17  H   LIG d   1      -4.262  76.518 118.749  0.00  0.00     0.149 HD
ENDBRANCH   6  13
BRANCH   5  18
ATOM     18  N   LIG d   1      -3.427  79.770 118.972  0.00  0.00     0.381 N 
ATOM     19  H   LIG d   1      -2.937  79.117 119.550  0.00  0.00    -0.090 HD
ATOM     20  H   LIG d   1      -3.525  80.631 119.482  0.00  0.00    -0.090 HD
ATOM     21  H   LIG d   1      -2.916  79.930 118.132  0.00  0.00    -0.090 HD
ENDBRANCH   5  18
BRANCH   3  22
ATOM     22  C   LIG d   1      -7.959  80.936 117.954  0.00  0.00     0.382 C 
ATOM     23  O   LIG d   1      -8.503  81.474 116.959  0.00  0.00    -0.241 OA
ATOM     24  O   LIG d   1      -8.342  81.238 119.100  0.00  0.00    -0.241 OA
ENDBRANCH   3  22
TORSDOF 7
ENDMDL
MODEL 6
REMARK VINA RESULT:      -4.5      3.154      5.319
REMARK  7 active torsions:
REMARK  status: ('A' for Active; 'I' for Inactive)
REMARK    1  A    between atoms: C_2  and  C_3 
REMARK    2  A    between atoms: C_3  and  O_6 
REMARK    3  A    between atoms: C_3  and  C_4 
REMARK    4  A    between atoms: C_7  and  O_6 
REMARK    5  A    between atoms: C_9  and  C_10 
REMARK    6  A    between atoms: N_15  and  C_14 
REMARK    7  A    between atoms: N_20  and  C_19 
REMARK       I    between atoms: C_22  and  N_20 
ROOT
ATOM      1  C   LIG d   1      -6.080  78.039 117.347  0.00  0.00     0.161 C 
ATOM      2  C   LIG d   1      -7.081  79.020 117.265  0.00  0.00     0.016 C 
ATOM      3  C   LIG d   1      -6.969  80.298 117.860  0.00  0.00     0.038 C 
ATOM      4  C   LIG d   1      -5.776  80.737 118.453  0.00  0.00     0.028 C 
ATOM      5  C   LIG d   1      -4.918  79.602 119.001  0.00  0.00    -0.047 C 
ATOM      6  C   LIG d   1      -4.727  78.539 117.895  0.00  0.00     0.091 C 
ENDROOT
BRANCH   1   7
ATOM      7  O   LIG d   1      -5.899  77.416 116.060  0.00  0.00    -0.368 OA
BRANCH   7   8
ATOM      8  C   LIG d   1      -6.247  76.012 115.977  0.00  0.00     0.119 C 
BRANCH   8   9
ATOM      9  C   LIG d   1      -5.914  75.536 114.549  0.00  0.00     0.028 C 
ATOM     10  C   LIG d   1      -4.466  75.861 114.146  0.00  0.00     0.006 C 
ENDBRANCH   8   9
BRANCH   8  11
ATOM     11  C   LIG d   1      -7.756  75.801 116.132  0.00  0.00     0.028 C 
ATOM     12  C   LIG d   1      -8.105  74.762 117.209  0.00  0.00     0.006 C 
ENDBRANCH   8  11
ENDBRANCH   7   8
ENDBRANCH   1   7
BRANCH   6  13
ATOM     13  N   LIG d   1      -3.969  77.354 118.373  0.00  0.00    -0.311 N 
ATOM     14  C   LIG d   1      -2.913  76.852 117.735  0.00  0.00     0.210 C 
ATOM     15  C   LIG d   1      -2.290  75.615 118.388  0.00  0.00     0.109 C 
ATOM     16  O   LIG d   1      -2.413  77.334 116.707  0.00  0.00    -0.276 OA
ATOM     17  H   LIG d   1      -4.287  76.919 119.217  0.00  0.00     0.149 HD
ENDBRANCH   6  13
BRANCH   5  18
ATOM     18  N   LIG d   1      -3.647  80.189 119.465  0.00  0.00     0.381 N 
ATOM     19  H   LIG d   1      -3.402  80.967 118.887  0.00  0.00    -0.090 HD
ATOM     20  H   LIG d   1      -2.922  79.497 119.387  0.00  0.00    -0.090 HD
ATOM     21  H   LIG d   1      -3.733  80.484 120.413  0.00  0.00    -0.090 HD
ENDBRANCH   5  18
BRANCH   3  22
ATOM     22  C   LIG d   1      -8.073  81.137 117.900  0.00  0.00     0.382 C 
ATOM     23  O   LIG d   1      -8.576  81.458 119.003  0.00  0.00    -0.241 OA
ATOM     24  O   LIG d   1      -8.598  81.540 116.845  0.00  0.00    -0.241 OA
ENDBRANCH   3  22
TORSDOF 7
ENDMDL
MODEL 7
REMARK VINA RESULT:      -4.4      3.146      4.816
REMARK  7 active torsions:
REMARK  status: ('A' for Active; 'I' for Inactive)
REMARK    1  A    between atoms: C_2  and  C_3 
REMARK    2  A    between atoms: C_3  and  O_6 
REMARK    3  A    between atoms: C_3  and  C_4 
REMARK    4  A    between atoms: C_7  and  O_6 
REMARK    5  A    between atoms: C_9  and  C_10 
REMARK    6  A    between atoms: N_15  and  C_14 
REMARK    7  A    between atoms: N_20  and  C_19 
REMARK       I    between atoms: C_22  and  N_20 
ROOT
ATOM      1  C   LIG d   1      -4.357  76.680 116.456  0.00  0.00     0.161 C 
ATOM      2  C   LIG d   1      -3.360  75.715 116.234  0.00  0.00     0.016 C 
ATOM      3  C   LIG d   1      -1.992  75.930 116.520  0.00  0.00     0.038 C 
ATOM      4  C   LIG d   1      -1.546  77.077 117.193  0.00  0.00     0.028 C 
ATOM      5  C   LIG d   1      -2.444  78.291 116.980  0.00  0.00    -0.047 C 
ATOM      6  C   LIG d   1      -3.905  77.895 117.293  0.00  0.00     0.091 C 
ENDROOT
BRANCH   1   7
ATOM      7  O   LIG d   1      -5.511  76.060 117.056  0.00  0.00    -0.368 OA
BRANCH   7   8
ATOM      8  C   LIG d   1      -6.334  75.257 116.174  0.00  0.00     0.119 C 
BRANCH   8   9
ATOM      9  C   LIG d   1      -6.702  76.133 114.961  0.00  0.00     0.028 C 
ATOM     10  C   LIG d   1      -5.963  75.705 113.682  0.00  0.00     0.006 C 
ENDBRANCH   8   9
BRANCH   8  11
ATOM     11  C   LIG d   1      -7.669  74.896 116.833  0.00  0.00     0.028 C 
ATOM     12  C   LIG d   1      -8.645  76.082 116.891  0.00  0.00     0.006 C 
ENDBRANCH   8  11
ENDBRANCH   7   8
ENDBRANCH   1   7
BRANCH   6  13
ATOM     13  N   LIG d   1      -4.861  79.002 117.029  0.00  0.00    -0.311 N 
ATOM     14  C   LIG d   1      -5.817  79.365 117.883  0.00  0.00     0.210 C 
ATOM     15  C   LIG d   1      -6.707  80.518 117.407  0.00  0.00     0.109 C 
ATOM     16  O   LIG d   1      -5.992  78.863 119.003  0.00  0.00    -0.276 OA
ATOM     17  H   LIG d   1      -4.771  79.485 116.156  0.00  0.00     0.149 HD
ENDBRANCH   6  13
BRANCH   5  18
ATOM     18  N   LIG d   1      -1.941  79.375 117.846  0.00  0.00     0.381 N 
ATOM     19  H   LIG d   1      -2.602  80.126 117.867  0.00  0.00    -0.090 HD
ATOM     20  H   LIG d   1      -1.080  79.723 117.463  0.00  0.00    -0.090 HD
ATOM     21  H   LIG d   1      -1.788  79.031 118.768  0.00  0.00    -0.090 HD
ENDBRANCH   5  18
BRANCH   3  22
ATOM     22  C   LIG d   1      -1.048  75.007 116.096  0.00  0.00     0.382 C 
ATOM     23  O   LIG d   1      -0.107  74.677 116.857  0.00  0.00    -0.241 OA
ATOM     24  O   LIG d   1      -1.100  74.534 114.944  0.00  0.00    -0.241 OA
ENDBRANCH   3  22
TORSDOF 7
ENDMDL
MODEL 8
REMARK VINA RESULT:      -4.4      2.929      4.448
REMARK  7 active torsions:
REMARK  status: ('A' for Active; 'I' for Inactive)
REMARK    1  A    between atoms: C_2  and  C_3 
REMARK    2  A    between atoms: C_3  and  O_6 
REMARK    3  A    between atoms: C_3  and  C_4 
REMARK    4  A    between atoms: C_7  and  O_6 
REMARK    5  A    between atoms: C_9  and  C_10 
REMARK    6  A    between atoms: N_15  and  C_14 
REMARK    7  A    between atoms: N_20  and  C_19 
REMARK       I    between atoms: C_22  and  N_20 
ROOT
ATOM      1  C   LIG d   1      -4.802  78.214 116.546  0.00  0.00     0.161 C 
ATOM      2  C   LIG d   1      -3.652  78.423 115.766  0.00  0.00     0.016 C 
ATOM      3  C   LIG d   1      -3.120  77.450 114.889  0.00  0.00     0.038 C 
ATOM      4  C   LIG d   1      -3.793  76.249 114.618  0.00  0.00     0.028 C 
ATOM      5  C   LIG d   1      -4.689  75.785 115.761  0.00  0.00    -0.047 C 
ATOM      6  C   LIG d   1      -5.611  76.953 116.180  0.00  0.00     0.091 C 
ENDROOT
BRANCH   1   7
ATOM      7  O   LIG d   1      -5.644  79.382 116.496  0.00  0.00    -0.368 OA
BRANCH   7   8
ATOM      8  C   LIG d   1      -6.472  79.622 117.661  0.00  0.00     0.119 C 
BRANCH   8   9
ATOM      9  C   LIG d   1      -7.024  81.056 117.550  0.00  0.00     0.028 C 
ATOM     10  C   LIG d   1      -8.560  81.091 117.491  0.00  0.00     0.006 C 
ENDBRANCH   8   9
BRANCH   8  11
ATOM     11  C   LIG d   1      -5.641  79.605 118.948  0.00  0.00     0.028 C 
ATOM     12  C   LIG d   1      -5.079  80.989 119.312  0.00  0.00     0.006 C 
ENDBRANCH   8  11
ENDBRANCH   7   8
ENDBRANCH   1   7
BRANCH   6  13
ATOM     13  N   LIG d   1      -6.463  76.610 117.349  0.00  0.00    -0.311 N 
ATOM     14  C   LIG d   1      -7.708  76.150 117.240  0.00  0.00     0.210 C 
ATOM     15  C   LIG d   1      -8.417  75.879 118.570  0.00  0.00     0.109 C 
ATOM     16  O   LIG d   1      -8.281  75.910 116.166  0.00  0.00    -0.276 OA
ATOM     17  H   LIG d   1      -6.065  76.745 118.258  0.00  0.00     0.149 HD
ENDBRANCH   6  13
BRANCH   5  18
ATOM     18  N   LIG d   1      -5.433  74.601 115.292  0.00  0.00     0.381 N 
ATOM     19  H   LIG d   1      -5.679  74.025 116.072  0.00  0.00    -0.090 HD
ATOM     20  H   LIG d   1      -4.841  74.067 114.680  0.00  0.00    -0.090 HD
ATOM     21  H   LIG d   1      -6.255  74.885 114.806  0.00  0.00    -0.090 HD
ENDBRANCH   5  18
BRANCH   3  22
ATOM     22  C   LIG d   1      -1.881  77.657 114.303  0.00  0.00     0.382 C 
ATOM     23  O   LIG d   1      -1.083  78.488 114.801  0.00  0.00    -0.241 OA
ATOM     24  O   LIG d   1      -1.568  77.058 113.257  0.00  0.00    -0.241 OA
ENDBRANCH   3  22
TORSDOF 7
ENDMDL
MODEL 9
REMARK VINA RESULT:      -4.3      2.810      4.254
REMARK  7 active torsions:
REMARK  status: ('A' for Active; 'I' for Inactive)
REMARK    1  A    between atoms: C_2  and  C_3 
REMARK    2  A    between atoms: C_3  and  O_6 
REMARK    3  A    between atoms: C_3  and  C_4 
REMARK    4  A    between atoms: C_7  and  O_6 
REMARK    5  A    between atoms: C_9  and  C_10 
REMARK    6  A    between atoms: N_15  and  C_14 
REMARK    7  A    between atoms: N_20  and  C_19 
REMARK       I    between atoms: C_22  and  N_20 
ROOT
ATOM      1  C   LIG d   1      -3.919  75.955 116.783  0.00  0.00     0.161 C 
ATOM      2  C   LIG d   1      -2.746  76.449 116.188  0.00  0.00     0.016 C 
ATOM      3  C   LIG d   1      -2.622  76.699 114.802  0.00  0.00     0.038 C 
ATOM      4  C   LIG d   1      -3.719  76.614 113.932  0.00  0.00     0.028 C 
ATOM      5  C   LIG d   1      -4.790  75.635 114.402  0.00  0.00    -0.047 C 
ATOM      6  C   LIG d   1      -5.161  75.961 115.867  0.00  0.00     0.091 C 
ENDROOT
BRANCH   1   7
ATOM      7  O   LIG d   1      -4.191  76.677 118.001  0.00  0.00    -0.368 OA
BRANCH   7   8
ATOM      8  C   LIG d   1      -4.355  78.110 117.869  0.00  0.00     0.119 C 
BRANCH   8   9
ATOM      9  C   LIG d   1      -3.417  78.780 118.891  0.00  0.00     0.028 C 
ATOM     10  C   LIG d   1      -2.205  79.452 118.223  0.00  0.00     0.006 C 
ENDBRANCH   8   9
BRANCH   8  11
ATOM     11  C   LIG d   1      -5.768  78.548 118.268  0.00  0.00     0.028 C 
ATOM     12  C   LIG d   1      -6.315  79.676 117.379  0.00  0.00     0.006 C 
ENDBRANCH   8  11
ENDBRANCH   7   8
ENDBRANCH   1   7
BRANCH   6  13
ATOM     13  N   LIG d   1      -6.141  74.998 116.432  0.00  0.00    -0.311 N 
ATOM     14  C   LIG d   1      -7.404  75.317 116.712  0.00  0.00     0.210 C 
ATOM     15  C   LIG d   1      -8.241  74.180 117.307  0.00  0.00     0.109 C 
ATOM     16  O   LIG d   1      -7.919  76.424 116.495  0.00  0.00    -0.276 OA
ATOM     17  H   LIG d   1      -5.817  74.068 116.610  0.00  0.00     0.149 HD
ENDBRANCH   6  13
BRANCH   5  18
ATOM     18  N   LIG d   1      -5.934  75.748 113.477  0.00  0.00     0.381 N 
ATOM     19  H   LIG d   1      -6.529  76.498 113.765  0.00  0.00    -0.090 HD
ATOM     20  H   LIG d   1      -6.463  74.895 113.510  0.00  0.00    -0.090 HD
ATOM     21  H   LIG d   1      -5.607  75.910 112.550  0.00  0.00    -0.090 HD
ENDBRANCH   5  18
BRANCH   3  22
ATOM     22  C   LIG d   1      -1.379  77.000 114.267  0.00  0.00     0.382 C 
ATOM     23  O   LIG d   1      -1.235  77.082 113.023  0.00  0.00    -0.241 OA
ATOM     24  O   LIG d   1      -0.390  77.147 115.010  0.00  0.00    -0.241 OA
ENDBRANCH   3  22
TORSDOF 7
ENDMDL
