MODEL 1
REMARK VINA RESULT:      -5.2      0.000      0.000
REMARK  7 active torsions:
REMARK  status: ('A' for Active; 'I' for Inactive)
REMARK    1  A    between atoms: C_2  and  C_3 
REMARK    2  A    between atoms: C_3  and  O_6 
REMARK    3  A    between atoms: C_3  and  C_4 
REMARK    4  A    between atoms: C_7  and  O_6 
REMARK    5  A    between atoms: C_9  and  C_10 
REMARK    6  A    between atoms: N_15  and  C_14 
REMARK    7  A    between atoms: N_20  and  C_19 
REMARK       I    between atoms: C_22  and  N_20 
ROOT
ATOM      1  C   LIG d   1      -3.025  78.922 115.925  0.00  0.00     0.161 C 
ATOM      2  C   LIG d   1      -3.045  79.962 114.981  0.00  0.00     0.016 C 
ATOM      3  C   LIG d   1      -2.475  79.855 113.692  0.00  0.00     0.038 C 
ATOM      4  C   LIG d   1      -1.976  78.639 113.201  0.00  0.00     0.028 C 
ATOM      5  C   LIG d   1      -1.479  77.702 114.296  0.00  0.00    -0.047 C 
ATOM      6  C   LIG d   1      -2.583  77.552 115.368  0.00  0.00     0.091 C 
ENDROOT
BRANCH   1   7
ATOM      7  O   LIG d   1      -4.314  78.813 116.559  0.00  0.00    -0.368 OA
BRANCH   7   8
ATOM      8  C   LIG d   1      -4.734  79.952 117.349  0.00  0.00     0.119 C 
BRANCH   8   9
ATOM      9  C   LIG d   1      -4.024  79.857 118.713  0.00  0.00     0.028 C 
ATOM     10  C   LIG d   1      -3.576  81.232 119.239  0.00  0.00     0.006 C 
ENDBRANCH   8   9
BRANCH   8  11
ATOM     11  C   LIG d   1      -6.231  79.889 117.666  0.00  0.00     0.028 C 
ATOM     12  C   LIG d   1      -6.917  81.262 117.581  0.00  0.00     0.006 C 
ENDBRANCH   8  11
ENDBRANCH   7   8
ENDBRANCH   1   7
BRANCH   6  13
ATOM     13  N   LIG d   1      -2.148  76.718 116.518  0.00  0.00    -0.311 N 
ATOM     14  C   LIG d   1      -2.327  75.400 116.577  0.00  0.00     0.210 C 
ATOM     15  C   LIG d   1      -1.822  74.735 117.861  0.00  0.00     0.109 C 
ATOM     16  O   LIG d   1      -2.829  74.713 115.674  0.00  0.00    -0.276 OA
ATOM     17  H   LIG d   1      -1.703  77.190 117.281  0.00  0.00     0.149 HD
ENDBRANCH   6  13
BRANCH   5  18
ATOM     18  N   LIG d   1      -1.117  76.422 113.657  0.00  0.00     0.381 N 
ATOM     19  H   LIG d   1      -1.075  76.539 112.665  0.00  0.00    -0.090 HD
ATOM     20  H   LIG d   1      -1.827  75.742 113.865  0.00  0.00    -0.090 HD
ATOM     21  H   LIG d   1      -0.235  76.108 113.999  0.00  0.00    -0.090 HD
ENDBRANCH   5  18
BRANCH   3  22
ATOM     22  C   LIG d   1      -2.365  80.982 112.893  0.00  0.00     0.382 C 
ATOM     23  O   LIG d   1      -3.144  81.951 113.064  0.00  0.00    -0.241 OA
ATOM     24  O   LIG d   1      -1.525  81.026 111.973  0.00  0.00    -0.241 OA
ENDBRANCH   3  22
TORSDOF 7
ENDMDL
MODEL 2
REMARK VINA RESULT:      -4.9      2.715      5.328
REMARK  7 active torsions:
REMARK  status: ('A' for Active; 'I' for Inactive)
REMARK    1  A    between atoms: C_2  and  C_3 
REMARK    2  A    between atoms: C_3  and  O_6 
REMARK    3  A    between atoms: C_3  and  C_4 
REMARK    4  A    between atoms: C_7  and  O_6 
REMARK    5  A    between atoms: C_9  and  C_10 
REMARK    6  A    between atoms: N_15  and  C_14 
REMARK    7  A    between atoms: N_20  and  C_19 
REMARK       I    between atoms: C_22  and  N_20 
ROOT
ATOM      1  C   LIG d   1      -2.005  79.818 114.618  0.00  0.00     0.161 C 
ATOM      2  C   LIG d   1      -2.633  78.621 114.999  0.00  0.00     0.016 C 
ATOM      3  C   LIG d   1      -2.854  77.541 114.113  0.00  0.00     0.038 C 
ATOM      4  C   LIG d   1      -2.322  77.527 112.815  0.00  0.00     0.028 C 
ATOM      5  C   LIG d   1      -2.118  78.919 112.228  0.00  0.00    -0.047 C 
ATOM      6  C   LIG d   1      -1.319  79.777 113.236  0.00  0.00     0.091 C 
ENDROOT
BRANCH   1   7
ATOM      7  O   LIG d   1      -1.064  80.221 115.632  0.00  0.00    -0.368 OA
BRANCH   7   8
ATOM      8  C   LIG d   1      -1.150  79.518 116.897  0.00  0.00     0.119 C 
BRANCH   8   9
ATOM      9  C   LIG d   1      -1.485  80.559 117.983  0.00  0.00     0.028 C 
ATOM     10  C   LIG d   1      -2.917  80.403 118.523  0.00  0.00     0.006 C 
ENDBRANCH   8   9
BRANCH   8  11
ATOM     11  C   LIG d   1       0.205  78.931 117.302  0.00  0.00     0.028 C 
ATOM     12  C   LIG d   1       0.106  77.471 117.770  0.00  0.00     0.006 C 
ENDBRANCH   8  11
ENDBRANCH   7   8
ENDBRANCH   1   7
BRANCH   6  13
ATOM     13  N   LIG d   1      -1.148  81.180 112.777  0.00  0.00    -0.311 N 
ATOM     14  C   LIG d   1      -0.082  81.605 112.100  0.00  0.00     0.210 C 
ATOM     15  C   LIG d   1      -0.097  83.094 111.740  0.00  0.00     0.109 C 
ATOM     16  O   LIG d   1       0.858  80.884 111.736  0.00  0.00    -0.276 OA
ATOM     17  H   LIG d   1      -1.879  81.826 113.002  0.00  0.00     0.149 HD
ENDBRANCH   6  13
BRANCH   5  18
ATOM     18  N   LIG d   1      -1.432  78.761 110.932  0.00  0.00     0.381 N 
ATOM     19  H   LIG d   1      -0.656  79.390 110.881  0.00  0.00    -0.090 HD
ATOM     20  H   LIG d   1      -2.074  78.992 110.194  0.00  0.00    -0.090 HD
ATOM     21  H   LIG d   1      -1.116  77.822 110.826  0.00  0.00    -0.090 HD
ENDBRANCH   5  18
BRANCH   3  22
ATOM     22  C   LIG d   1      -3.649  76.477 114.511  0.00  0.00     0.382 C 
ATOM     23  O   LIG d   1      -3.180  75.593 115.268  0.00  0.00    -0.241 OA
ATOM     24  O   LIG d   1      -4.815  76.366 114.087  0.00  0.00    -0.241 OA
ENDBRANCH   3  22
TORSDOF 7
ENDMDL
MODEL 3
REMARK VINA RESULT:      -4.8      1.507      2.274
REMARK  7 active torsions:
REMARK  status: ('A' for Active; 'I' for Inactive)
REMARK    1  A    between atoms: C_2  and  C_3 
REMARK    2  A    between atoms: C_3  and  O_6 
REMARK    3  A    between atoms: C_3  and  C_4 
REMARK    4  A    between atoms: C_7  and  O_6 
REMARK    5  A    between atoms: C_9  and  C_10 
REMARK    6  A    between atoms: N_15  and  C_14 
REMARK    7  A    between atoms: N_20  and  C_19 
REMARK       I    between atoms: C_22  and  N_20 
ROOT
ATOM      1  C   LIG d   1      -2.538  79.021 116.709  0.00  0.00     0.161 C 
ATOM      2  C   LIG d   1      -2.876  79.800 115.590  0.00  0.00     0.016 C 
ATOM      3  C   LIG d   1      -2.439  79.508 114.277  0.00  0.00     0.038 C 
ATOM      4  C   LIG d   1      -1.754  78.323 113.970  0.00  0.00     0.028 C 
ATOM      5  C   LIG d   1      -0.958  77.763 115.144  0.00  0.00    -0.047 C 
ATOM      6  C   LIG d   1      -1.885  77.663 116.377  0.00  0.00     0.091 C 
ENDROOT
BRANCH   1   7
ATOM      7  O   LIG d   1      -3.701  78.828 117.539  0.00  0.00    -0.368 OA
BRANCH   7   8
ATOM      8  C   LIG d   1      -4.791  78.082 116.945  0.00  0.00     0.119 C 
BRANCH   8   9
ATOM      9  C   LIG d   1      -6.101  78.805 117.312  0.00  0.00     0.028 C 
ATOM     10  C   LIG d   1      -5.881  80.294 117.628  0.00  0.00     0.006 C 
ENDBRANCH   8   9
BRANCH   8  11
ATOM     11  C   LIG d   1      -4.913  76.685 117.563  0.00  0.00     0.028 C 
ATOM     12  C   LIG d   1      -5.022  75.574 116.507  0.00  0.00     0.006 C 
ENDBRANCH   8  11
ENDBRANCH   7   8
ENDBRANCH   1   7
BRANCH   6  13
ATOM     13  N   LIG d   1      -1.163  77.203 117.592  0.00  0.00    -0.311 N 
ATOM     14  C   LIG d   1      -1.099  75.926 117.967  0.00  0.00     0.210 C 
ATOM     15  C   LIG d   1      -0.322  75.671 119.262  0.00  0.00     0.109 C 
ATOM     16  O   LIG d   1      -1.584  74.977 117.332  0.00  0.00    -0.276 OA
ATOM     17  H   LIG d   1      -0.714  77.903 118.149  0.00  0.00     0.149 HD
ENDBRANCH   6  13
BRANCH   5  18
ATOM     18  N   LIG d   1      -0.408  76.459 114.727  0.00  0.00     0.381 N 
ATOM     19  H   LIG d   1       0.109  76.053 115.481  0.00  0.00    -0.090 HD
ATOM     20  H   LIG d   1       0.219  76.603 113.955  0.00  0.00    -0.090 HD
ATOM     21  H   LIG d   1      -1.147  75.849 114.455  0.00  0.00    -0.090 HD
ENDBRANCH   5  18
BRANCH   3  22
ATOM     22  C   LIG d   1      -2.653  80.428 113.262  0.00  0.00     0.382 C 
ATOM     23  O   LIG d   1      -2.118  80.258 112.139  0.00  0.00    -0.241 OA
ATOM     24  O   LIG d   1      -3.338  81.448 113.467  0.00  0.00    -0.241 OA
ENDBRANCH   3  22
TORSDOF 7
ENDMDL
MODEL 4
REMARK VINA RESULT:      -4.7      2.651      5.454
REMARK  7 active torsions:
REMARK  status: ('A' for Active; 'I' for Inactive)
REMARK    1  A    between atoms: C_2  and  C_3 
REMARK    2  A    between atoms: C_3  and  O_6 
REMARK    3  A    between atoms: C_3  and  C_4 
REMARK    4  A    between atoms: C_7  and  O_6 
REMARK    5  A    between atoms: C_9  and  C_10 
REMARK    6  A    between atoms: N_15  and  C_14 
REMARK    7  A    between atoms: N_20  and  C_19 
REMARK       I    between atoms: C_22  and  N_20 
ROOT
ATOM      1  C   LIG d   1      -1.879  76.086 115.350  0.00  0.00     0.161 C 
ATOM      2  C   LIG d   1      -1.517  75.973 116.702  0.00  0.00     0.016 C 
ATOM      3  C   LIG d   1      -0.933  77.026 117.442  0.00  0.00     0.038 C 
ATOM      4  C   LIG d   1      -0.807  78.321 116.917  0.00  0.00     0.028 C 
ATOM      5  C   LIG d   1      -0.693  78.349 115.397  0.00  0.00    -0.047 C 
ATOM      6  C   LIG d   1      -1.852  77.524 114.791  0.00  0.00     0.091 C 
ENDROOT
BRANCH   1   7
ATOM      7  O   LIG d   1      -3.174  75.490 115.138  0.00  0.00    -0.368 OA
BRANCH   7   8
ATOM      8  C   LIG d   1      -4.069  75.491 116.277  0.00  0.00     0.119 C 
BRANCH   8   9
ATOM      9  C   LIG d   1      -4.883  74.183 116.227  0.00  0.00     0.028 C 
ATOM     10  C   LIG d   1      -5.952  74.199 115.121  0.00  0.00     0.006 C 
ENDBRANCH   8   9
BRANCH   8  11
ATOM     11  C   LIG d   1      -5.103  76.616 116.173  0.00  0.00     0.028 C 
ATOM     12  C   LIG d   1      -4.838  77.762 117.162  0.00  0.00     0.006 C 
ENDBRANCH   8  11
ENDBRANCH   7   8
ENDBRANCH   1   7
BRANCH   6  13
ATOM     13  N   LIG d   1      -1.767  77.430 113.310  0.00  0.00    -0.311 N 
ATOM     14  C   LIG d   1      -2.417  78.249 112.485  0.00  0.00     0.210 C 
ATOM     15  C   LIG d   1      -2.207  77.966 110.995  0.00  0.00     0.109 C 
ATOM     16  O   LIG d   1      -3.122  79.203 112.847  0.00  0.00    -0.276 OA
ATOM     17  H   LIG d   1      -1.192  76.703 112.932  0.00  0.00     0.149 HD
ENDBRANCH   6  13
BRANCH   5  18
ATOM     18  N   LIG d   1      -0.708  79.762 114.975  0.00  0.00     0.381 N 
ATOM     19  H   LIG d   1      -1.586  80.178 115.214  0.00  0.00    -0.090 HD
ATOM     20  H   LIG d   1      -0.600  79.805 113.977  0.00  0.00    -0.090 HD
ATOM     21  H   LIG d   1       0.034  80.258 115.418  0.00  0.00    -0.090 HD
ENDBRANCH   5  18
BRANCH   3  22
ATOM     22  C   LIG d   1      -0.429  76.778 118.710  0.00  0.00     0.382 C 
ATOM     23  O   LIG d   1      -0.529  75.632 119.212  0.00  0.00    -0.241 OA
ATOM     24  O   LIG d   1       0.084  77.697 119.377  0.00  0.00    -0.241 OA
ENDBRANCH   3  22
TORSDOF 7
ENDMDL
MODEL 5
REMARK VINA RESULT:      -4.6      2.562      4.010
REMARK  7 active torsions:
REMARK  status: ('A' for Active; 'I' for Inactive)
REMARK    1  A    between atoms: C_2  and  C_3 
REMARK    2  A    between atoms: C_3  and  O_6 
REMARK    3  A    between atoms: C_3  and  C_4 
REMARK    4  A    between atoms: C_7  and  O_6 
REMARK    5  A    between atoms: C_9  and  C_10 
REMARK    6  A    between atoms: N_15  and  C_14 
REMARK    7  A    between atoms: N_20  and  C_19 
REMARK       I    between atoms: C_22  and  N_20 
ROOT
ATOM      1  C   LIG d   1      -3.486  77.048 114.925  0.00  0.00     0.161 C 
ATOM      2  C   LIG d   1      -3.161  77.202 113.567  0.00  0.00     0.016 C 
ATOM      3  C   LIG d   1      -2.281  78.199 113.086  0.00  0.00     0.038 C 
ATOM      4  C   LIG d   1      -1.543  79.018 113.953  0.00  0.00     0.028 C 
ATOM      5  C   LIG d   1      -2.219  79.235 115.303  0.00  0.00    -0.047 C 
ATOM      6  C   LIG d   1      -2.606  77.861 115.897  0.00  0.00     0.091 C 
ENDROOT
BRANCH   1   7
ATOM      7  O   LIG d   1      -3.463  75.651 115.278  0.00  0.00    -0.368 OA
BRANCH   7   8
ATOM      8  C   LIG d   1      -4.742  75.055 115.607  0.00  0.00     0.119 C 
BRANCH   8   9
ATOM      9  C   LIG d   1      -5.830  76.111 115.329  0.00  0.00     0.028 C 
ATOM     10  C   LIG d   1      -6.593  76.516 116.602  0.00  0.00     0.006 C 
ENDBRANCH   8   9
BRANCH   8  11
ATOM     11  C   LIG d   1      -4.846  74.750 117.104  0.00  0.00     0.028 C 
ATOM     12  C   LIG d   1      -3.518  74.266 117.707  0.00  0.00     0.006 C 
ENDBRANCH   8  11
ENDBRANCH   7   8
ENDBRANCH   1   7
BRANCH   6  13
ATOM     13  N   LIG d   1      -3.348  77.987 117.179  0.00  0.00    -0.311 N 
ATOM     14  C   LIG d   1      -2.770  77.880 118.374  0.00  0.00     0.210 C 
ATOM     15  C   LIG d   1      -3.721  78.022 119.567  0.00  0.00     0.109 C 
ATOM     16  O   LIG d   1      -1.555  77.714 118.560  0.00  0.00    -0.276 OA
ATOM     17  H   LIG d   1      -4.333  78.154 117.121  0.00  0.00     0.149 HD
ENDBRANCH   6  13
BRANCH   5  18
ATOM     18  N   LIG d   1      -1.281  79.990 116.155  0.00  0.00     0.381 N 
ATOM     19  H   LIG d   1      -1.291  80.957 115.895  0.00  0.00    -0.090 HD
ATOM     20  H   LIG d   1      -0.353  79.635 116.011  0.00  0.00    -0.090 HD
ATOM     21  H   LIG d   1      -1.537  79.894 117.113  0.00  0.00    -0.090 HD
ENDBRANCH   5  18
BRANCH   3  22
ATOM     22  C   LIG d   1      -2.162  78.409 111.721  0.00  0.00     0.382 C 
ATOM     23  O   LIG d   1      -2.663  77.589 110.914  0.00  0.00    -0.241 OA
ATOM     24  O   LIG d   1      -1.521  79.384 111.285  0.00  0.00    -0.241 OA
ENDBRANCH   3  22
TORSDOF 7
ENDMDL
MODEL 6
REMARK VINA RESULT:      -4.5      2.990      4.065
REMARK  7 active torsions:
REMARK  status: ('A' for Active; 'I' for Inactive)
REMARK    1  A    between atoms: C_2  and  C_3 
REMARK    2  A    between atoms: C_3  and  O_6 
REMARK    3  A    between atoms: C_3  and  C_4 
REMARK    4  A    between atoms: C_7  and  O_6 
REMARK    5  A    between atoms: C_9  and  C_10 
REMARK    6  A    between atoms: N_15  and  C_14 
REMARK    7  A    between atoms: N_20  and  C_19 
REMARK       I    between atoms: C_22  and  N_20 
ROOT
ATOM      1  C   LIG d   1      -2.731  77.365 115.837  0.00  0.00     0.161 C 
ATOM      2  C   LIG d   1      -3.063  77.293 114.474  0.00  0.00     0.016 C 
ATOM      3  C   LIG d   1      -2.423  78.063 113.475  0.00  0.00     0.038 C 
ATOM      4  C   LIG d   1      -1.296  78.851 113.755  0.00  0.00     0.028 C 
ATOM      5  C   LIG d   1      -1.244  79.343 115.197  0.00  0.00    -0.047 C 
ATOM      6  C   LIG d   1      -1.431  78.136 116.146  0.00  0.00     0.091 C 
ENDROOT
BRANCH   1   7
ATOM      7  O   LIG d   1      -2.671  76.038 116.396  0.00  0.00    -0.368 OA
BRANCH   7   8
ATOM      8  C   LIG d   1      -3.880  75.561 117.036  0.00  0.00     0.119 C 
BRANCH   8   9
ATOM      9  C   LIG d   1      -3.511  75.153 118.476  0.00  0.00     0.028 C 
ATOM     10  C   LIG d   1      -2.190  74.368 118.543  0.00  0.00     0.006 C 
ENDBRANCH   8   9
BRANCH   8  11
ATOM     11  C   LIG d   1      -4.395  74.281 116.371  0.00  0.00     0.028 C 
ATOM     12  C   LIG d   1      -5.577  74.537 115.422  0.00  0.00     0.006 C 
ENDBRANCH   8  11
ENDBRANCH   7   8
ENDBRANCH   1   7
BRANCH   6  13
ATOM     13  N   LIG d   1      -1.477  78.541 117.575  0.00  0.00    -0.311 N 
ATOM     14  C   LIG d   1      -0.706  77.998 118.516  0.00  0.00     0.210 C 
ATOM     15  C   LIG d   1      -0.927  78.546 119.929  0.00  0.00     0.109 C 
ATOM     16  O   LIG d   1       0.163  77.137 118.309  0.00  0.00    -0.276 OA
ATOM     17  H   LIG d   1      -2.131  79.255 117.826  0.00  0.00     0.149 HD
ENDBRANCH   6  13
BRANCH   5  18
ATOM     18  N   LIG d   1       0.045  80.033 115.387  0.00  0.00     0.381 N 
ATOM     19  H   LIG d   1       0.597  79.542 116.061  0.00  0.00    -0.090 HD
ATOM     20  H   LIG d   1      -0.130  80.959 115.736  0.00  0.00    -0.090 HD
ATOM     21  H   LIG d   1       0.535  80.084 114.521  0.00  0.00    -0.090 HD
ENDBRANCH   5  18
BRANCH   3  22
ATOM     22  C   LIG d   1      -2.935  78.080 112.187  0.00  0.00     0.382 C 
ATOM     23  O   LIG d   1      -2.200  78.410 111.224  0.00  0.00    -0.241 OA
ATOM     24  O   LIG d   1      -4.133  77.811 111.979  0.00  0.00    -0.241 OA
ENDBRANCH   3  22
TORSDOF 7
ENDMDL
MODEL 7
REMARK VINA RESULT:      -4.3      2.684      5.284
REMARK  7 active torsions:
REMARK  status: ('A' for Active; 'I' for Inactive)
REMARK    1  A    between atoms: C_2  and  C_3 
REMARK    2  A    between atoms: C_3  and  O_6 
REMARK    3  A    between atoms: C_3  and  C_4 
REMARK    4  A    between atoms: C_7  and  O_6 
REMARK    5  A    between atoms: C_9  and  C_10 
REMARK    6  A    between atoms: N_15  and  C_14 
REMARK    7  A    between atoms: N_20  and  C_19 
REMARK       I    between atoms: C_22  and  N_20 
ROOT
ATOM      1  C   LIG d   1      -3.284  76.893 115.552  0.00  0.00     0.161 C 
ATOM      2  C   LIG d   1      -3.008  76.073 116.659  0.00  0.00     0.016 C 
ATOM      3  C   LIG d   1      -1.811  76.152 117.408  0.00  0.00     0.038 C 
ATOM      4  C   LIG d   1      -0.868  77.167 117.191  0.00  0.00     0.028 C 
ATOM      5  C   LIG d   1      -0.869  77.701 115.763  0.00  0.00    -0.047 C 
ATOM      6  C   LIG d   1      -2.315  78.080 115.370  0.00  0.00     0.091 C 
ENDROOT
BRANCH   1   7
ATOM      7  O   LIG d   1      -4.645  77.363 115.619  0.00  0.00    -0.368 OA
BRANCH   7   8
ATOM      8  C   LIG d   1      -5.607  76.448 116.198  0.00  0.00     0.119 C 
BRANCH   8   9
ATOM      9  C   LIG d   1      -6.247  75.656 115.041  0.00  0.00     0.028 C 
ATOM     10  C   LIG d   1      -5.805  74.183 115.023  0.00  0.00     0.006 C 
ENDBRANCH   8   9
BRANCH   8  11
ATOM     11  C   LIG d   1      -6.763  77.202 116.862  0.00  0.00     0.028 C 
ATOM     12  C   LIG d   1      -6.365  78.611 117.329  0.00  0.00     0.006 C 
ENDBRANCH   8  11
ENDBRANCH   7   8
ENDBRANCH   1   7
BRANCH   6  13
ATOM     13  N   LIG d   1      -2.418  78.532 113.958  0.00  0.00    -0.311 N 
ATOM     14  C   LIG d   1      -2.214  77.730 112.914  0.00  0.00     0.210 C 
ATOM     15  C   LIG d   1      -2.352  78.403 111.545  0.00  0.00     0.109 C 
ATOM     16  O   LIG d   1      -1.965  76.518 112.992  0.00  0.00    -0.276 OA
ATOM     17  H   LIG d   1      -2.648  79.495 113.803  0.00  0.00     0.149 HD
ENDBRANCH   6  13
BRANCH   5  18
ATOM     18  N   LIG d   1       0.063  78.844 115.713  0.00  0.00     0.381 N 
ATOM     19  H   LIG d   1       0.361  79.078 116.639  0.00  0.00    -0.090 HD
ATOM     20  H   LIG d   1      -0.417  79.638 115.327  0.00  0.00    -0.090 HD
ATOM     21  H   LIG d   1       0.852  78.617 115.149  0.00  0.00    -0.090 HD
ENDBRANCH   5  18
BRANCH   3  22
ATOM     22  C   LIG d   1      -1.531  75.185 118.360  0.00  0.00     0.382 C 
ATOM     23  O   LIG d   1      -2.275  74.181 118.471  0.00  0.00    -0.241 OA
ATOM     24  O   LIG d   1      -0.569  75.324 119.139  0.00  0.00    -0.241 OA
ENDBRANCH   3  22
TORSDOF 7
ENDMDL
MODEL 8
REMARK VINA RESULT:      -4.3      2.506      3.130
REMARK  7 active torsions:
REMARK  status: ('A' for Active; 'I' for Inactive)
REMARK    1  A    between atoms: C_2  and  C_3 
REMARK    2  A    between atoms: C_3  and  O_6 
REMARK    3  A    between atoms: C_3  and  C_4 
REMARK    4  A    between atoms: C_7  and  O_6 
REMARK    5  A    between atoms: C_9  and  C_10 
REMARK    6  A    between atoms: N_15  and  C_14 
REMARK    7  A    between atoms: N_20  and  C_19 
REMARK       I    between atoms: C_22  and  N_20 
ROOT
ATOM      1  C   LIG d   1      -3.030  77.691 117.174  0.00  0.00     0.161 C 
ATOM      2  C   LIG d   1      -1.984  78.616 117.325  0.00  0.00     0.016 C 
ATOM      3  C   LIG d   1      -1.158  79.039 116.258  0.00  0.00     0.038 C 
ATOM      4  C   LIG d   1      -1.422  78.677 114.929  0.00  0.00     0.028 C 
ATOM      5  C   LIG d   1      -2.157  77.347 114.798  0.00  0.00    -0.047 C 
ATOM      6  C   LIG d   1      -3.403  77.370 115.712  0.00  0.00     0.091 C 
ENDROOT
BRANCH   1   7
ATOM      7  O   LIG d   1      -4.190  78.143 117.900  0.00  0.00    -0.368 OA
BRANCH   7   8
ATOM      8  C   LIG d   1      -5.115  78.981 117.165  0.00  0.00     0.119 C 
BRANCH   8   9
ATOM      9  C   LIG d   1      -5.102  80.374 117.825  0.00  0.00     0.028 C 
ATOM     10  C   LIG d   1      -6.431  81.125 117.636  0.00  0.00     0.006 C 
ENDBRANCH   8   9
BRANCH   8  11
ATOM     11  C   LIG d   1      -6.555  78.479 117.305  0.00  0.00     0.028 C 
ATOM     12  C   LIG d   1      -6.654  77.168 118.101  0.00  0.00     0.006 C 
ENDBRANCH   8  11
ENDBRANCH   7   8
ENDBRANCH   1   7
BRANCH   6  13
ATOM     13  N   LIG d   1      -4.133  76.075 115.708  0.00  0.00    -0.311 N 
ATOM     14  C   LIG d   1      -5.141  75.804 114.880  0.00  0.00     0.210 C 
ATOM     15  C   LIG d   1      -5.767  74.418 115.057  0.00  0.00     0.109 C 
ATOM     16  O   LIG d   1      -5.554  76.569 113.995  0.00  0.00    -0.276 OA
ATOM     17  H   LIG d   1      -3.842  75.386 116.373  0.00  0.00     0.149 HD
ENDBRANCH   6  13
BRANCH   5  18
ATOM     18  N   LIG d   1      -2.488  77.159 113.373  0.00  0.00     0.381 N 
ATOM     19  H   LIG d   1      -2.914  76.264 113.239  0.00  0.00    -0.090 HD
ATOM     20  H   LIG d   1      -1.640  77.189 112.835  0.00  0.00    -0.090 HD
ATOM     21  H   LIG d   1      -3.108  77.878 113.069  0.00  0.00    -0.090 HD
ENDBRANCH   5  18
BRANCH   3  22
ATOM     22  C   LIG d   1      -0.031  79.802 116.522  0.00  0.00     0.382 C 
ATOM     23  O   LIG d   1       0.421  80.577 115.644  0.00  0.00    -0.241 OA
ATOM     24  O   LIG d   1       0.566  79.692 117.609  0.00  0.00    -0.241 OA
ENDBRANCH   3  22
TORSDOF 7
ENDMDL
MODEL 9
REMARK VINA RESULT:      -4.3      1.846      4.924
REMARK  7 active torsions:
REMARK  status: ('A' for Active; 'I' for Inactive)
REMARK    1  A    between atoms: C_2  and  C_3 
REMARK    2  A    between atoms: C_3  and  O_6 
REMARK    3  A    between atoms: C_3  and  C_4 
REMARK    4  A    between atoms: C_7  and  O_6 
REMARK    5  A    between atoms: C_9  and  C_10 
REMARK    6  A    between atoms: N_15  and  C_14 
REMARK    7  A    between atoms: N_20  and  C_19 
REMARK       I    between atoms: C_22  and  N_20 
ROOT
ATOM      1  C   LIG d   1      -3.299  77.981 115.408  0.00  0.00     0.161 C 
ATOM      2  C   LIG d   1      -3.789  76.971 116.253  0.00  0.00     0.016 C 
ATOM      3  C   LIG d   1      -3.100  75.762 116.501  0.00  0.00     0.038 C 
ATOM      4  C   LIG d   1      -1.794  75.544 116.037  0.00  0.00     0.028 C 
ATOM      5  C   LIG d   1      -1.464  76.322 114.767  0.00  0.00    -0.047 C 
ATOM      6  C   LIG d   1      -1.826  77.809 114.982  0.00  0.00     0.091 C 
ENDROOT
BRANCH   1   7
ATOM      7  O   LIG d   1      -3.496  79.270 116.023  0.00  0.00    -0.368 OA
BRANCH   7   8
ATOM      8  C   LIG d   1      -3.135  79.370 117.423  0.00  0.00     0.119 C 
BRANCH   8   9
ATOM      9  C   LIG d   1      -4.255  80.153 118.135  0.00  0.00     0.028 C 
ATOM     10  C   LIG d   1      -5.594  80.077 117.382  0.00  0.00     0.006 C 
ENDBRANCH   8   9
BRANCH   8  11
ATOM     11  C   LIG d   1      -1.869  80.210 117.613  0.00  0.00     0.028 C 
ATOM     12  C   LIG d   1      -1.972  81.184 118.797  0.00  0.00     0.006 C 
ENDBRANCH   8  11
ENDBRANCH   7   8
ENDBRANCH   1   7
BRANCH   6  13
ATOM     13  N   LIG d   1      -1.614  78.626 113.759  0.00  0.00    -0.311 N 
ATOM     14  C   LIG d   1      -0.897  79.749 113.742  0.00  0.00     0.210 C 
ATOM     15  C   LIG d   1      -0.821  80.448 112.381  0.00  0.00     0.109 C 
ATOM     16  O   LIG d   1      -0.291  80.216 114.719  0.00  0.00    -0.276 OA
ATOM     17  H   LIG d   1      -2.044  78.304 112.914  0.00  0.00     0.149 HD
ENDBRANCH   6  13
BRANCH   5  18
ATOM     18  N   LIG d   1      -0.034  76.111 114.474  0.00  0.00     0.381 N 
ATOM     19  H   LIG d   1       0.182  75.135 114.525  0.00  0.00    -0.090 HD
ATOM     20  H   LIG d   1       0.514  76.592 115.165  0.00  0.00    -0.090 HD
ATOM     21  H   LIG d   1       0.182  76.459 113.566  0.00  0.00    -0.090 HD
ENDBRANCH   5  18
BRANCH   3  22
ATOM     22  C   LIG d   1      -3.734  74.738 117.188  0.00  0.00     0.382 C 
ATOM     23  O   LIG d   1      -3.200  74.245 118.211  0.00  0.00    -0.241 OA
ATOM     24  O   LIG d   1      -4.811  74.270 116.772  0.00  0.00    -0.241 OA
ENDBRANCH   3  22
TORSDOF 7
ENDMDL
