MODEL 1
REMARK VINA RESULT:      -4.8      0.000      0.000
REMARK  7 active torsions:
REMARK  status: ('A' for Active; 'I' for Inactive)
REMARK    1  A    between atoms: C_2  and  C_3 
REMARK    2  A    between atoms: C_3  and  O_6 
REMARK    3  A    between atoms: C_3  and  C_4 
REMARK    4  A    between atoms: C_7  and  O_6 
REMARK    5  A    between atoms: C_9  and  C_10 
REMARK    6  A    between atoms: N_15  and  C_14 
REMARK    7  A    between atoms: N_20  and  C_19 
REMARK       I    between atoms: C_22  and  N_20 
ROOT
ATOM      1  C   LIG d   1      -2.288  75.935 115.575  0.00  0.00     0.161 C 
ATOM      2  C   LIG d   1      -2.183  75.231 116.786  0.00  0.00     0.016 C 
ATOM      3  C   LIG d   1      -1.336  75.629 117.846  0.00  0.00     0.038 C 
ATOM      4  C   LIG d   1      -0.646  76.850 117.825  0.00  0.00     0.028 C 
ATOM      5  C   LIG d   1      -0.329  77.343 116.417  0.00  0.00    -0.047 C 
ATOM      6  C   LIG d   1      -1.627  77.329 115.577  0.00  0.00     0.091 C 
ENDROOT
BRANCH   1   7
ATOM      7  O   LIG d   1      -3.673  76.038 115.188  0.00  0.00    -0.368 OA
BRANCH   7   8
ATOM      8  C   LIG d   1      -4.638  76.040 116.269  0.00  0.00     0.119 C 
BRANCH   8   9
ATOM      9  C   LIG d   1      -5.940  75.419 115.728  0.00  0.00     0.028 C 
ATOM     10  C   LIG d   1      -5.681  74.180 114.855  0.00  0.00     0.006 C 
ENDBRANCH   8   9
BRANCH   8  11
ATOM     11  C   LIG d   1      -5.009  77.467 116.682  0.00  0.00     0.028 C 
ATOM     12  C   LIG d   1      -4.598  77.797 118.125  0.00  0.00     0.006 C 
ENDBRANCH   8  11
ENDBRANCH   7   8
ENDBRANCH   1   7
BRANCH   6  13
ATOM     13  N   LIG d   1      -1.390  77.717 114.162  0.00  0.00    -0.311 N 
ATOM     14  C   LIG d   1      -2.081  78.670 113.539  0.00  0.00     0.210 C 
ATOM     15  C   LIG d   1      -1.691  78.899 112.075  0.00  0.00     0.109 C 
ATOM     16  O   LIG d   1      -2.958  79.370 114.068  0.00  0.00    -0.276 OA
ATOM     17  H   LIG d   1      -0.676  77.222 113.667  0.00  0.00     0.149 HD
ENDBRANCH   6  13
BRANCH   5  18
ATOM     18  N   LIG d   1       0.266  78.687 116.539  0.00  0.00     0.381 N 
ATOM     19  H   LIG d   1       0.688  78.790 117.440  0.00  0.00    -0.090 HD
ATOM     20  H   LIG d   1      -0.461  79.374 116.451  0.00  0.00    -0.090 HD
ATOM     21  H   LIG d   1       0.950  78.823 115.827  0.00  0.00    -0.090 HD
ENDBRANCH   5  18
BRANCH   3  22
ATOM     22  C   LIG d   1      -1.143  74.781 118.926  0.00  0.00     0.382 C 
ATOM     23  O   LIG d   1       0.008  74.359 119.193  0.00  0.00    -0.241 OA
ATOM     24  O   LIG d   1      -2.111  74.398 119.610  0.00  0.00    -0.241 OA
ENDBRANCH   3  22
TORSDOF 7
ENDMDL
MODEL 2
REMARK VINA RESULT:      -4.7      1.926      4.883
REMARK  7 active torsions:
REMARK  status: ('A' for Active; 'I' for Inactive)
REMARK    1  A    between atoms: C_2  and  C_3 
REMARK    2  A    between atoms: C_3  and  O_6 
REMARK    3  A    between atoms: C_3  and  C_4 
REMARK    4  A    between atoms: C_7  and  O_6 
REMARK    5  A    between atoms: C_9  and  C_10 
REMARK    6  A    between atoms: N_15  and  C_14 
REMARK    7  A    between atoms: N_20  and  C_19 
REMARK       I    between atoms: C_22  and  N_20 
ROOT
ATOM      1  C   LIG d   1      -2.838  76.379 116.787  0.00  0.00     0.161 C 
ATOM      2  C   LIG d   1      -2.882  77.333 115.757  0.00  0.00     0.016 C 
ATOM      3  C   LIG d   1      -2.048  77.286 114.617  0.00  0.00     0.038 C 
ATOM      4  C   LIG d   1      -1.211  76.191 114.354  0.00  0.00     0.028 C 
ATOM      5  C   LIG d   1      -0.765  75.455 115.613  0.00  0.00    -0.047 C 
ATOM      6  C   LIG d   1      -2.010  75.117 116.465  0.00  0.00     0.091 C 
ENDROOT
BRANCH   1   7
ATOM      7  O   LIG d   1      -4.178  76.014 117.173  0.00  0.00    -0.368 OA
BRANCH   7   8
ATOM      8  C   LIG d   1      -5.240  76.479 116.305  0.00  0.00     0.119 C 
BRANCH   8   9
ATOM      9  C   LIG d   1      -6.267  77.219 117.185  0.00  0.00     0.028 C 
ATOM     10  C   LIG d   1      -5.760  78.595 117.647  0.00  0.00     0.006 C 
ENDBRANCH   8   9
BRANCH   8  11
ATOM     11  C   LIG d   1      -6.007  75.307 115.685  0.00  0.00     0.028 C 
ATOM     12  C   LIG d   1      -5.220  74.605 114.567  0.00  0.00     0.006 C 
ENDBRANCH   8  11
ENDBRANCH   7   8
ENDBRANCH   1   7
BRANCH   6  13
ATOM     13  N   LIG d   1      -1.656  74.470 117.755  0.00  0.00    -0.311 N 
ATOM     14  C   LIG d   1      -0.849  75.026 118.656  0.00  0.00     0.210 C 
ATOM     15  C   LIG d   1      -0.599  74.180 119.909  0.00  0.00     0.109 C 
ATOM     16  O   LIG d   1      -0.341  76.152 118.552  0.00  0.00    -0.276 OA
ATOM     17  H   LIG d   1      -2.049  73.566 117.935  0.00  0.00     0.149 HD
ENDBRANCH   6  13
BRANCH   5  18
ATOM     18  N   LIG d   1      -0.014  74.258 115.187  0.00  0.00     0.381 N 
ATOM     19  H   LIG d   1      -0.633  73.613 114.737  0.00  0.00    -0.090 HD
ATOM     20  H   LIG d   1       0.372  73.811 115.999  0.00  0.00    -0.090 HD
ATOM     21  H   LIG d   1       0.717  74.519 114.562  0.00  0.00    -0.090 HD
ENDBRANCH   5  18
BRANCH   3  22
ATOM     22  C   LIG d   1      -2.016  78.363 113.744  0.00  0.00     0.382 C 
ATOM     23  O   LIG d   1      -1.080  79.197 113.810  0.00  0.00    -0.241 OA
ATOM     24  O   LIG d   1      -2.934  78.537 112.921  0.00  0.00    -0.241 OA
ENDBRANCH   3  22
TORSDOF 7
ENDMDL
MODEL 3
REMARK VINA RESULT:      -4.5      2.341      5.113
REMARK  7 active torsions:
REMARK  status: ('A' for Active; 'I' for Inactive)
REMARK    1  A    between atoms: C_2  and  C_3 
REMARK    2  A    between atoms: C_3  and  O_6 
REMARK    3  A    between atoms: C_3  and  C_4 
REMARK    4  A    between atoms: C_7  and  O_6 
REMARK    5  A    between atoms: C_9  and  C_10 
REMARK    6  A    between atoms: N_15  and  C_14 
REMARK    7  A    between atoms: N_20  and  C_19 
REMARK       I    between atoms: C_22  and  N_20 
ROOT
ATOM      1  C   LIG d   1      -1.848  77.460 114.686  0.00  0.00     0.161 C 
ATOM      2  C   LIG d   1      -3.028  76.938 114.131  0.00  0.00     0.016 C 
ATOM      3  C   LIG d   1      -4.072  76.382 114.905  0.00  0.00     0.038 C 
ATOM      4  C   LIG d   1      -4.072  76.448 116.306  0.00  0.00     0.028 C 
ATOM      5  C   LIG d   1      -2.673  76.511 116.910  0.00  0.00    -0.047 C 
ATOM      6  C   LIG d   1      -1.879  77.642 116.217  0.00  0.00     0.091 C 
ENDROOT
BRANCH   1   7
ATOM      7  O   LIG d   1      -1.513  78.704 114.040  0.00  0.00    -0.368 OA
BRANCH   7   8
ATOM      8  C   LIG d   1      -2.315  79.060 112.887  0.00  0.00     0.119 C 
BRANCH   8   9
ATOM      9  C   LIG d   1      -1.435  78.873 111.636  0.00  0.00     0.028 C 
ATOM     10  C   LIG d   1      -1.984  77.793 110.688  0.00  0.00     0.006 C 
ENDBRANCH   8   9
BRANCH   8  11
ATOM     11  C   LIG d   1      -2.687  80.545 112.903  0.00  0.00     0.028 C 
ATOM     12  C   LIG d   1      -1.491  81.462 112.599  0.00  0.00     0.006 C 
ENDBRANCH   8  11
ENDBRANCH   7   8
ENDBRANCH   1   7
BRANCH   6  13
ATOM     13  N   LIG d   1      -0.472  77.717 116.690  0.00  0.00    -0.311 N 
ATOM     14  C   LIG d   1      -0.059  78.566 117.630  0.00  0.00     0.210 C 
ATOM     15  C   LIG d   1       1.437  78.493 117.955  0.00  0.00     0.109 C 
ATOM     16  O   LIG d   1      -0.795  79.349 118.248  0.00  0.00    -0.276 OA
ATOM     17  H   LIG d   1       0.187  77.095 116.264  0.00  0.00     0.149 HD
ENDBRANCH   6  13
BRANCH   5  18
ATOM     18  N   LIG d   1      -2.824  76.716 118.363  0.00  0.00     0.381 N 
ATOM     19  H   LIG d   1      -3.783  76.899 118.581  0.00  0.00    -0.090 HD
ATOM     20  H   LIG d   1      -2.279  77.515 118.637  0.00  0.00    -0.090 HD
ATOM     21  H   LIG d   1      -2.512  75.908 118.855  0.00  0.00    -0.090 HD
ENDBRANCH   5  18
BRANCH   3  22
ATOM     22  C   LIG d   1      -5.113  75.715 114.277  0.00  0.00     0.382 C 
ATOM     23  O   LIG d   1      -5.639  76.202 113.247  0.00  0.00    -0.241 OA
ATOM     24  O   LIG d   1      -5.562  74.655 114.752  0.00  0.00    -0.241 OA
ENDBRANCH   3  22
TORSDOF 7
ENDMDL
MODEL 4
REMARK VINA RESULT:      -4.3      2.484      4.573
REMARK  7 active torsions:
REMARK  status: ('A' for Active; 'I' for Inactive)
REMARK    1  A    between atoms: C_2  and  C_3 
REMARK    2  A    between atoms: C_3  and  O_6 
REMARK    3  A    between atoms: C_3  and  C_4 
REMARK    4  A    between atoms: C_7  and  O_6 
REMARK    5  A    between atoms: C_9  and  C_10 
REMARK    6  A    between atoms: N_15  and  C_14 
REMARK    7  A    between atoms: N_20  and  C_19 
REMARK       I    between atoms: C_22  and  N_20 
ROOT
ATOM      1  C   LIG d   1      -1.903  77.509 115.264  0.00  0.00     0.161 C 
ATOM      2  C   LIG d   1      -3.051  77.982 115.920  0.00  0.00     0.016 C 
ATOM      3  C   LIG d   1      -3.348  77.695 117.273  0.00  0.00     0.038 C 
ATOM      4  C   LIG d   1      -2.434  77.036 118.108  0.00  0.00     0.028 C 
ATOM      5  C   LIG d   1      -1.490  76.104 117.357  0.00  0.00    -0.047 C 
ATOM      6  C   LIG d   1      -0.840  76.882 116.190  0.00  0.00     0.091 C 
ENDROOT
BRANCH   1   7
ATOM      7  O   LIG d   1      -1.320  78.567 114.477  0.00  0.00    -0.368 OA
BRANCH   7   8
ATOM      8  C   LIG d   1      -1.982  78.868 113.224  0.00  0.00     0.119 C 
BRANCH   8   9
ATOM      9  C   LIG d   1      -2.013  77.571 112.392  0.00  0.00     0.028 C 
ATOM     10  C   LIG d   1      -1.997  77.844 110.879  0.00  0.00     0.006 C 
ENDBRANCH   8   9
BRANCH   8  11
ATOM     11  C   LIG d   1      -1.172  79.865 112.391  0.00  0.00     0.028 C 
ATOM     12  C   LIG d   1      -1.505  81.329 112.722  0.00  0.00     0.006 C 
ENDBRANCH   8  11
ENDBRANCH   7   8
ENDBRANCH   1   7
BRANCH   6  13
ATOM     13  N   LIG d   1       0.035  76.021 115.352  0.00  0.00    -0.311 N 
ATOM     14  C   LIG d   1      -0.399  74.937 114.712  0.00  0.00     0.210 C 
ATOM     15  C   LIG d   1       0.672  74.181 113.920  0.00  0.00     0.109 C 
ATOM     16  O   LIG d   1      -1.577  74.547 114.699  0.00  0.00    -0.276 OA
ATOM     17  H   LIG d   1       0.999  76.282 115.282  0.00  0.00     0.149 HD
ENDBRANCH   6  13
BRANCH   5  18
ATOM     18  N   LIG d   1      -0.505  75.590 118.328  0.00  0.00     0.381 N 
ATOM     19  H   LIG d   1       0.254  75.156 117.843  0.00  0.00    -0.090 HD
ATOM     20  H   LIG d   1      -0.949  74.897 118.905  0.00  0.00    -0.090 HD
ATOM     21  H   LIG d   1      -0.164  76.335 118.895  0.00  0.00    -0.090 HD
ENDBRANCH   5  18
BRANCH   3  22
ATOM     22  C   LIG d   1      -4.589  78.034 117.791  0.00  0.00     0.382 C 
ATOM     23  O   LIG d   1      -4.814  77.900 119.018  0.00  0.00    -0.241 OA
ATOM     24  O   LIG d   1      -5.500  78.431 117.040  0.00  0.00    -0.241 OA
ENDBRANCH   3  22
TORSDOF 7
ENDMDL
MODEL 5
REMARK VINA RESULT:      -4.3      2.657      5.444
REMARK  7 active torsions:
REMARK  status: ('A' for Active; 'I' for Inactive)
REMARK    1  A    between atoms: C_2  and  C_3 
REMARK    2  A    between atoms: C_3  and  O_6 
REMARK    3  A    between atoms: C_3  and  C_4 
REMARK    4  A    between atoms: C_7  and  O_6 
REMARK    5  A    between atoms: C_9  and  C_10 
REMARK    6  A    between atoms: N_15  and  C_14 
REMARK    7  A    between atoms: N_20  and  C_19 
REMARK       I    between atoms: C_22  and  N_20 
ROOT
ATOM      1  C   LIG d   1      -3.643  77.064 117.470  0.00  0.00     0.161 C 
ATOM      2  C   LIG d   1      -4.830  77.564 118.030  0.00  0.00     0.016 C 
ATOM      3  C   LIG d   1      -6.111  77.326 117.480  0.00  0.00     0.038 C 
ATOM      4  C   LIG d   1      -6.305  76.440 116.409  0.00  0.00     0.028 C 
ATOM      5  C   LIG d   1      -5.087  76.313 115.500  0.00  0.00    -0.047 C 
ATOM      6  C   LIG d   1      -3.844  76.004 116.366  0.00  0.00     0.091 C 
ENDROOT
BRANCH   1   7
ATOM      7  O   LIG d   1      -2.791  76.547 118.511  0.00  0.00    -0.368 OA
BRANCH   7   8
ATOM      8  C   LIG d   1      -1.686  77.395 118.910  0.00  0.00     0.119 C 
BRANCH   8   9
ATOM      9  C   LIG d   1      -1.382  78.343 117.734  0.00  0.00     0.028 C 
ATOM     10  C   LIG d   1       0.085  78.262 117.278  0.00  0.00     0.006 C 
ENDBRANCH   8   9
BRANCH   8  11
ATOM     11  C   LIG d   1      -0.405  76.581 119.116  0.00  0.00     0.028 C 
ATOM     12  C   LIG d   1      -0.664  75.223 119.788  0.00  0.00     0.006 C 
ENDBRANCH   8  11
ENDBRANCH   7   8
ENDBRANCH   1   7
BRANCH   6  13
ATOM     13  N   LIG d   1      -2.594  75.947 115.564  0.00  0.00    -0.311 N 
ATOM     14  C   LIG d   1      -1.617  75.071 115.791  0.00  0.00     0.210 C 
ATOM     15  C   LIG d   1      -0.407  75.197 114.860  0.00  0.00     0.109 C 
ATOM     16  O   LIG d   1      -1.652  74.180 116.653  0.00  0.00    -0.276 OA
ATOM     17  H   LIG d   1      -2.497  76.614 114.824  0.00  0.00     0.149 HD
ENDBRANCH   6  13
BRANCH   5  18
ATOM     18  N   LIG d   1      -5.378  75.258 114.510  0.00  0.00     0.381 N 
ATOM     19  H   LIG d   1      -5.138  75.579 113.593  0.00  0.00    -0.090 HD
ATOM     20  H   LIG d   1      -6.363  75.059 114.527  0.00  0.00    -0.090 HD
ATOM     21  H   LIG d   1      -4.861  74.435 114.728  0.00  0.00    -0.090 HD
ENDBRANCH   5  18
BRANCH   3  22
ATOM     22  C   LIG d   1      -7.210  78.009 117.976  0.00  0.00     0.382 C 
ATOM     23  O   LIG d   1      -8.169  77.374 118.477  0.00  0.00    -0.241 OA
ATOM     24  O   LIG d   1      -7.275  79.250 117.890  0.00  0.00    -0.241 OA
ENDBRANCH   3  22
TORSDOF 7
ENDMDL
MODEL 6
REMARK VINA RESULT:      -4.2      1.549      4.769
REMARK  7 active torsions:
REMARK  status: ('A' for Active; 'I' for Inactive)
REMARK    1  A    between atoms: C_2  and  C_3 
REMARK    2  A    between atoms: C_3  and  O_6 
REMARK    3  A    between atoms: C_3  and  C_4 
REMARK    4  A    between atoms: C_7  and  O_6 
REMARK    5  A    between atoms: C_9  and  C_10 
REMARK    6  A    between atoms: N_15  and  C_14 
REMARK    7  A    between atoms: N_20  and  C_19 
REMARK       I    between atoms: C_22  and  N_20 
ROOT
ATOM      1  C   LIG d   1      -3.107  76.705 115.422  0.00  0.00     0.161 C 
ATOM      2  C   LIG d   1      -3.123  77.544 114.294  0.00  0.00     0.016 C 
ATOM      3  C   LIG d   1      -2.073  78.434 113.972  0.00  0.00     0.038 C 
ATOM      4  C   LIG d   1      -0.861  78.438 114.677  0.00  0.00     0.028 C 
ATOM      5  C   LIG d   1      -0.999  77.969 116.122  0.00  0.00    -0.047 C 
ATOM      6  C   LIG d   1      -1.745  76.615 116.141  0.00  0.00     0.091 C 
ENDROOT
BRANCH   1   7
ATOM      7  O   LIG d   1      -3.570  75.390 115.059  0.00  0.00    -0.368 OA
BRANCH   7   8
ATOM      8  C   LIG d   1      -4.904  75.039 115.503  0.00  0.00     0.119 C 
BRANCH   8   9
ATOM      9  C   LIG d   1      -5.742  74.725 114.248  0.00  0.00     0.028 C 
ATOM     10  C   LIG d   1      -6.027  75.979 113.405  0.00  0.00     0.006 C 
ENDBRANCH   8   9
BRANCH   8  11
ATOM     11  C   LIG d   1      -5.601  76.229 116.169  0.00  0.00     0.028 C 
ATOM     12  C   LIG d   1      -7.006  75.883 116.686  0.00  0.00     0.006 C 
ENDBRANCH   8  11
ENDBRANCH   7   8
ENDBRANCH   1   7
BRANCH   6  13
ATOM     13  N   LIG d   1      -1.996  76.126 117.522  0.00  0.00    -0.311 N 
ATOM     14  C   LIG d   1      -1.528  74.970 117.987  0.00  0.00     0.210 C 
ATOM     15  C   LIG d   1      -1.921  74.647 119.431  0.00  0.00     0.109 C 
ATOM     16  O   LIG d   1      -0.797  74.196 117.350  0.00  0.00    -0.276 OA
ATOM     17  H   LIG d   1      -2.555  76.707 118.116  0.00  0.00     0.149 HD
ENDBRANCH   6  13
BRANCH   5  18
ATOM     18  N   LIG d   1       0.357  77.891 116.697  0.00  0.00     0.381 N 
ATOM     19  H   LIG d   1       1.035  78.124 115.999  0.00  0.00    -0.090 HD
ATOM     20  H   LIG d   1       0.528  76.948 117.000  0.00  0.00    -0.090 HD
ATOM     21  H   LIG d   1       0.437  78.516 117.469  0.00  0.00    -0.090 HD
ENDBRANCH   5  18
BRANCH   3  22
ATOM     22  C   LIG d   1      -2.248  79.363 112.957  0.00  0.00     0.382 C 
ATOM     23  O   LIG d   1      -1.682  79.194 111.849  0.00  0.00    -0.241 OA
ATOM     24  O   LIG d   1      -2.927  80.389 113.148  0.00  0.00    -0.241 OA
ENDBRANCH   3  22
TORSDOF 7
ENDMDL
MODEL 7
REMARK VINA RESULT:      -4.2      1.869      5.254
REMARK  7 active torsions:
REMARK  status: ('A' for Active; 'I' for Inactive)
REMARK    1  A    between atoms: C_2  and  C_3 
REMARK    2  A    between atoms: C_3  and  O_6 
REMARK    3  A    between atoms: C_3  and  C_4 
REMARK    4  A    between atoms: C_7  and  O_6 
REMARK    5  A    between atoms: C_9  and  C_10 
REMARK    6  A    between atoms: N_15  and  C_14 
REMARK    7  A    between atoms: N_20  and  C_19 
REMARK       I    between atoms: C_22  and  N_20 
ROOT
ATOM      1  C   LIG d   1      -2.508  77.521 116.318  0.00  0.00     0.161 C 
ATOM      2  C   LIG d   1      -2.876  78.320 115.222  0.00  0.00     0.016 C 
ATOM      3  C   LIG d   1      -2.357  78.141 113.920  0.00  0.00     0.038 C 
ATOM      4  C   LIG d   1      -1.542  77.047 113.590  0.00  0.00     0.028 C 
ATOM      5  C   LIG d   1      -0.743  76.509 114.772  0.00  0.00    -0.047 C 
ATOM      6  C   LIG d   1      -1.706  76.254 115.954  0.00  0.00     0.091 C 
ENDROOT
BRANCH   1   7
ATOM      7  O   LIG d   1      -3.679  77.171 117.082  0.00  0.00    -0.368 OA
BRANCH   7   8
ATOM      8  C   LIG d   1      -4.441  78.277 117.625  0.00  0.00     0.119 C 
BRANCH   8   9
ATOM      9  C   LIG d   1      -4.260  78.257 119.155  0.00  0.00     0.028 C 
ATOM     10  C   LIG d   1      -3.220  79.283 119.637  0.00  0.00     0.006 C 
ENDBRANCH   8   9
BRANCH   8  11
ATOM     11  C   LIG d   1      -5.942  78.087 117.391  0.00  0.00     0.028 C 
ATOM     12  C   LIG d   1      -6.269  76.787 116.639  0.00  0.00     0.006 C 
ENDBRANCH   8  11
ENDBRANCH   7   8
ENDBRANCH   1   7
BRANCH   6  13
ATOM     13  N   LIG d   1      -0.993  75.806 117.179  0.00  0.00    -0.311 N 
ATOM     14  C   LIG d   1      -1.446  74.842 117.979  0.00  0.00     0.210 C 
ATOM     15  C   LIG d   1      -0.567  74.549 119.199  0.00  0.00     0.109 C 
ATOM     16  O   LIG d   1      -2.475  74.180 117.777  0.00  0.00    -0.276 OA
ATOM     17  H   LIG d   1      -0.134  76.268 117.401  0.00  0.00     0.149 HD
ENDBRANCH   6  13
BRANCH   5  18
ATOM     18  N   LIG d   1      -0.046  75.290 114.321  0.00  0.00     0.381 N 
ATOM     19  H   LIG d   1      -0.214  75.145 113.345  0.00  0.00    -0.090 HD
ATOM     20  H   LIG d   1      -0.412  74.501 114.824  0.00  0.00    -0.090 HD
ATOM     21  H   LIG d   1       0.932  75.375 114.488  0.00  0.00    -0.090 HD
ENDBRANCH   5  18
BRANCH   3  22
ATOM     22  C   LIG d   1      -2.620  79.085 112.939  0.00  0.00     0.382 C 
ATOM     23  O   LIG d   1      -3.042  80.222 113.261  0.00  0.00    -0.241 OA
ATOM     24  O   LIG d   1      -2.484  78.800 111.734  0.00  0.00    -0.241 OA
ENDBRANCH   3  22
TORSDOF 7
ENDMDL
MODEL 8
REMARK VINA RESULT:      -4.1      1.961      4.818
REMARK  7 active torsions:
REMARK  status: ('A' for Active; 'I' for Inactive)
REMARK    1  A    between atoms: C_2  and  C_3 
REMARK    2  A    between atoms: C_3  and  O_6 
REMARK    3  A    between atoms: C_3  and  C_4 
REMARK    4  A    between atoms: C_7  and  O_6 
REMARK    5  A    between atoms: C_9  and  C_10 
REMARK    6  A    between atoms: N_15  and  C_14 
REMARK    7  A    between atoms: N_20  and  C_19 
REMARK       I    between atoms: C_22  and  N_20 
ROOT
ATOM      1  C   LIG d   1      -2.336  76.883 116.856  0.00  0.00     0.161 C 
ATOM      2  C   LIG d   1      -3.316  76.224 116.096  0.00  0.00     0.016 C 
ATOM      3  C   LIG d   1      -3.487  76.424 114.706  0.00  0.00     0.038 C 
ATOM      4  C   LIG d   1      -2.586  77.189 113.951  0.00  0.00     0.028 C 
ATOM      5  C   LIG d   1      -1.884  78.273 114.761  0.00  0.00    -0.047 C 
ATOM      6  C   LIG d   1      -1.273  77.636 116.029  0.00  0.00     0.091 C 
ENDROOT
BRANCH   1   7
ATOM      7  O   LIG d   1      -1.704  75.949 117.753  0.00  0.00    -0.368 OA
BRANCH   7   8
ATOM      8  C   LIG d   1      -2.476  75.558 118.915  0.00  0.00     0.119 C 
BRANCH   8   9
ATOM      9  C   LIG d   1      -2.411  76.719 119.926  0.00  0.00     0.028 C 
ATOM     10  C   LIG d   1      -3.695  77.567 119.929  0.00  0.00     0.006 C 
ENDBRANCH   8   9
BRANCH   8  11
ATOM     11  C   LIG d   1      -1.841  74.362 119.630  0.00  0.00     0.028 C 
ATOM     12  C   LIG d   1      -0.337  74.551 119.886  0.00  0.00     0.006 C 
ENDBRANCH   8  11
ENDBRANCH   7   8
ENDBRANCH   1   7
BRANCH   6  13
ATOM     13  N   LIG d   1      -0.639  78.643 116.921  0.00  0.00    -0.311 N 
ATOM     14  C   LIG d   1       0.464  78.404 117.628  0.00  0.00     0.210 C 
ATOM     15  C   LIG d   1       0.939  79.572 118.498  0.00  0.00     0.109 C 
ATOM     16  O   LIG d   1       1.112  77.348 117.593  0.00  0.00    -0.276 OA
ATOM     17  H   LIG d   1      -1.082  79.538 116.985  0.00  0.00     0.149 HD
ENDBRANCH   6  13
BRANCH   5  18
ATOM     18  N   LIG d   1      -0.876  78.901 113.886  0.00  0.00     0.381 N 
ATOM     19  H   LIG d   1       0.036  78.561 114.121  0.00  0.00    -0.090 HD
ATOM     20  H   LIG d   1      -0.889  79.895 114.034  0.00  0.00    -0.090 HD
ATOM     21  H   LIG d   1      -1.078  78.697 112.932  0.00  0.00    -0.090 HD
ENDBRANCH   5  18
BRANCH   3  22
ATOM     22  C   LIG d   1      -4.594  75.888 114.066  0.00  0.00     0.382 C 
ATOM     23  O   LIG d   1      -5.207  76.561 113.203  0.00  0.00    -0.241 OA
ATOM     24  O   LIG d   1      -5.014  74.756 114.373  0.00  0.00    -0.241 OA
ENDBRANCH   3  22
TORSDOF 7
ENDMDL
MODEL 9
REMARK VINA RESULT:      -4.1      2.391      4.788
REMARK  7 active torsions:
REMARK  status: ('A' for Active; 'I' for Inactive)
REMARK    1  A    between atoms: C_2  and  C_3 
REMARK    2  A    between atoms: C_3  and  O_6 
REMARK    3  A    between atoms: C_3  and  C_4 
REMARK    4  A    between atoms: C_7  and  O_6 
REMARK    5  A    between atoms: C_9  and  C_10 
REMARK    6  A    between atoms: N_15  and  C_14 
REMARK    7  A    between atoms: N_20  and  C_19 
REMARK       I    between atoms: C_22  and  N_20 
ROOT
ATOM      1  C   LIG d   1      -2.960  77.620 116.628  0.00  0.00     0.161 C 
ATOM      2  C   LIG d   1      -3.336  77.744 115.281  0.00  0.00     0.016 C 
ATOM      3  C   LIG d   1      -2.545  77.277 114.206  0.00  0.00     0.038 C 
ATOM      4  C   LIG d   1      -1.386  76.514 114.415  0.00  0.00     0.028 C 
ATOM      5  C   LIG d   1      -0.705  76.800 115.749  0.00  0.00    -0.047 C 
ATOM      6  C   LIG d   1      -1.753  76.692 116.880  0.00  0.00     0.091 C 
ENDROOT
BRANCH   1   7
ATOM      7  O   LIG d   1      -4.091  77.195 117.414  0.00  0.00    -0.368 OA
BRANCH   7   8
ATOM      8  C   LIG d   1      -5.181  78.143 117.527  0.00  0.00     0.119 C 
BRANCH   8   9
ATOM      9  C   LIG d   1      -5.074  78.808 118.913  0.00  0.00     0.028 C 
ATOM     10  C   LIG d   1      -4.327  77.930 119.930  0.00  0.00     0.006 C 
ENDBRANCH   8   9
BRANCH   8  11
ATOM     11  C   LIG d   1      -6.538  77.434 117.521  0.00  0.00     0.028 C 
ATOM     12  C   LIG d   1      -6.633  76.338 116.447  0.00  0.00     0.006 C 
ENDBRANCH   8  11
ENDBRANCH   7   8
ENDBRANCH   1   7
BRANCH   6  13
ATOM     13  N   LIG d   1      -1.188  77.040 118.210  0.00  0.00    -0.311 N 
ATOM     14  C   LIG d   1      -0.695  78.241 118.506  0.00  0.00     0.210 C 
ATOM     15  C   LIG d   1      -0.144  78.382 119.929  0.00  0.00     0.109 C 
ATOM     16  O   LIG d   1      -0.691  79.213 117.736  0.00  0.00    -0.276 OA
ATOM     17  H   LIG d   1      -1.181  76.319 118.905  0.00  0.00     0.149 HD
ENDBRANCH   6  13
BRANCH   5  18
ATOM     18  N   LIG d   1       0.406  75.841 115.896  0.00  0.00     0.381 N 
ATOM     19  H   LIG d   1       0.780  75.896 116.822  0.00  0.00    -0.090 HD
ATOM     20  H   LIG d   1       1.134  76.084 115.247  0.00  0.00    -0.090 HD
ATOM     21  H   LIG d   1       0.085  74.916 115.715  0.00  0.00    -0.090 HD
ENDBRANCH   5  18
BRANCH   3  22
ATOM     22  C   LIG d   1      -2.891  77.607 112.904  0.00  0.00     0.382 C 
ATOM     23  O   LIG d   1      -4.049  77.371 112.484  0.00  0.00    -0.241 OA
ATOM     24  O   LIG d   1      -2.045  78.096 112.131  0.00  0.00    -0.241 OA
ENDBRANCH   3  22
TORSDOF 7
ENDMDL
