MODEL 1
REMARK VINA RESULT:      -5.1      0.000      0.000
REMARK  7 active torsions:
REMARK  status: ('A' for Active; 'I' for Inactive)
REMARK    1  A    between atoms: C_2  and  C_3 
REMARK    2  A    between atoms: C_3  and  O_6 
REMARK    3  A    between atoms: C_3  and  C_4 
REMARK    4  A    between atoms: C_7  and  O_6 
REMARK    5  A    between atoms: C_9  and  C_10 
REMARK    6  A    between atoms: N_15  and  C_14 
REMARK    7  A    between atoms: N_20  and  C_19 
REMARK       I    between atoms: C_22  and  N_20 
ROOT
ATOM      1  C   LIG d   1      -2.820  79.912 115.774  0.00  0.00     0.161 C 
ATOM      2  C   LIG d   1      -2.771  81.120 115.058  0.00  0.00     0.016 C 
ATOM      3  C   LIG d   1      -2.207  81.236 113.766  0.00  0.00     0.038 C 
ATOM      4  C   LIG d   1      -1.788  80.113 113.036  0.00  0.00     0.028 C 
ATOM      5  C   LIG d   1      -1.355  78.946 113.917  0.00  0.00    -0.047 C 
ATOM      6  C   LIG d   1      -2.469  78.656 114.949  0.00  0.00     0.091 C 
ENDROOT
BRANCH   1   7
ATOM      7  O   LIG d   1      -4.115  79.762 116.389  0.00  0.00    -0.368 OA
BRANCH   7   8
ATOM      8  C   LIG d   1      -4.585  80.888 117.169  0.00  0.00     0.119 C 
BRANCH   8   9
ATOM      9  C   LIG d   1      -4.068  80.703 118.608  0.00  0.00     0.028 C 
ATOM     10  C   LIG d   1      -2.945  81.693 118.961  0.00  0.00     0.006 C 
ENDBRANCH   8   9
BRANCH   8  11
ATOM     11  C   LIG d   1      -6.112  80.888 117.283  0.00  0.00     0.028 C 
ATOM     12  C   LIG d   1      -6.617  81.640 118.525  0.00  0.00     0.006 C 
ENDBRANCH   8  11
ENDBRANCH   7   8
ENDBRANCH   1   7
BRANCH   6  13
ATOM     13  N   LIG d   1      -2.090  77.582 115.904  0.00  0.00    -0.311 N 
ATOM     14  C   LIG d   1      -2.426  76.304 115.741  0.00  0.00     0.210 C 
ATOM     15  C   LIG d   1      -1.952  75.363 116.853  0.00  0.00     0.109 C 
ATOM     16  O   LIG d   1      -3.043  75.854 114.764  0.00  0.00    -0.276 OA
ATOM     17  H   LIG d   1      -1.562  77.854 116.710  0.00  0.00     0.149 HD
ENDBRANCH   6  13
BRANCH   5  18
ATOM     18  N   LIG d   1      -1.076  77.799 113.031  0.00  0.00     0.381 N 
ATOM     19  H   LIG d   1      -0.542  78.104 112.242  0.00  0.00    -0.090 HD
ATOM     20  H   LIG d   1      -1.947  77.427 112.697  0.00  0.00    -0.090 HD
ATOM     21  H   LIG d   1      -0.575  77.097 113.530  0.00  0.00    -0.090 HD
ENDBRANCH   5  18
BRANCH   3  22
ATOM     22  C   LIG d   1      -2.022  82.491 113.207  0.00  0.00     0.382 C 
ATOM     23  O   LIG d   1      -1.968  83.504 113.946  0.00  0.00    -0.241 OA
ATOM     24  O   LIG d   1      -1.952  82.629 111.971  0.00  0.00    -0.241 OA
ENDBRANCH   3  22
TORSDOF 7
ENDMDL
MODEL 2
REMARK VINA RESULT:      -4.9      0.838      1.757
REMARK  7 active torsions:
REMARK  status: ('A' for Active; 'I' for Inactive)
REMARK    1  A    between atoms: C_2  and  C_3 
REMARK    2  A    between atoms: C_3  and  O_6 
REMARK    3  A    between atoms: C_3  and  C_4 
REMARK    4  A    between atoms: C_7  and  O_6 
REMARK    5  A    between atoms: C_9  and  C_10 
REMARK    6  A    between atoms: N_15  and  C_14 
REMARK    7  A    between atoms: N_20  and  C_19 
REMARK       I    between atoms: C_22  and  N_20 
ROOT
ATOM      1  C   LIG d   1      -2.670  80.519 115.226  0.00  0.00     0.161 C 
ATOM      2  C   LIG d   1      -2.446  81.662 114.442  0.00  0.00     0.016 C 
ATOM      3  C   LIG d   1      -1.767  81.635 113.202  0.00  0.00     0.038 C 
ATOM      4  C   LIG d   1      -1.397  80.430 112.586  0.00  0.00     0.028 C 
ATOM      5  C   LIG d   1      -1.153  79.295 113.575  0.00  0.00    -0.047 C 
ATOM      6  C   LIG d   1      -2.371  79.180 114.518  0.00  0.00     0.091 C 
ENDROOT
BRANCH   1   7
ATOM      7  O   LIG d   1      -4.021  80.528 115.729  0.00  0.00    -0.368 OA
BRANCH   7   8
ATOM      8  C   LIG d   1      -4.164  80.486 117.170  0.00  0.00     0.119 C 
BRANCH   8   9
ATOM      9  C   LIG d   1      -5.372  81.368 117.542  0.00  0.00     0.028 C 
ATOM     10  C   LIG d   1      -6.700  80.593 117.502  0.00  0.00     0.006 C 
ENDBRANCH   8   9
BRANCH   8  11
ATOM     11  C   LIG d   1      -2.963  81.128 117.869  0.00  0.00     0.028 C 
ATOM     12  C   LIG d   1      -3.286  81.604 119.294  0.00  0.00     0.006 C 
ENDBRANCH   8  11
ENDBRANCH   7   8
ENDBRANCH   1   7
BRANCH   6  13
ATOM     13  N   LIG d   1      -2.179  78.149 115.570  0.00  0.00    -0.311 N 
ATOM     14  C   LIG d   1      -2.591  76.888 115.446  0.00  0.00     0.210 C 
ATOM     15  C   LIG d   1      -2.311  75.993 116.656  0.00  0.00     0.109 C 
ATOM     16  O   LIG d   1      -3.135  76.419 114.434  0.00  0.00    -0.276 OA
ATOM     17  H   LIG d   1      -1.719  78.436 116.412  0.00  0.00     0.149 HD
ENDBRANCH   6  13
BRANCH   5  18
ATOM     18  N   LIG d   1      -0.910  78.068 112.793  0.00  0.00     0.381 N 
ATOM     19  H   LIG d   1      -1.725  77.488 112.810  0.00  0.00    -0.090 HD
ATOM     20  H   LIG d   1      -0.152  77.559 113.213  0.00  0.00    -0.090 HD
ATOM     21  H   LIG d   1      -0.680  78.302 111.852  0.00  0.00    -0.090 HD
ENDBRANCH   5  18
BRANCH   3  22
ATOM     22  C   LIG d   1      -1.417  82.825 112.584  0.00  0.00     0.382 C 
ATOM     23  O   LIG d   1      -1.193  82.849 111.349  0.00  0.00    -0.241 OA
ATOM     24  O   LIG d   1      -1.279  83.868 113.252  0.00  0.00    -0.241 OA
ENDBRANCH   3  22
TORSDOF 7
ENDMDL
MODEL 3
REMARK VINA RESULT:      -4.9      1.104      1.584
REMARK  7 active torsions:
REMARK  status: ('A' for Active; 'I' for Inactive)
REMARK    1  A    between atoms: C_2  and  C_3 
REMARK    2  A    between atoms: C_3  and  O_6 
REMARK    3  A    between atoms: C_3  and  C_4 
REMARK    4  A    between atoms: C_7  and  O_6 
REMARK    5  A    between atoms: C_9  and  C_10 
REMARK    6  A    between atoms: N_15  and  C_14 
REMARK    7  A    between atoms: N_20  and  C_19 
REMARK       I    between atoms: C_22  and  N_20 
ROOT
ATOM      1  C   LIG d   1      -2.904  79.551 115.811  0.00  0.00     0.161 C 
ATOM      2  C   LIG d   1      -2.944  80.784 115.139  0.00  0.00     0.016 C 
ATOM      3  C   LIG d   1      -2.386  80.990 113.856  0.00  0.00     0.038 C 
ATOM      4  C   LIG d   1      -1.879  79.930 113.089  0.00  0.00     0.028 C 
ATOM      5  C   LIG d   1      -1.362  78.767 113.930  0.00  0.00    -0.047 C 
ATOM      6  C   LIG d   1      -2.454  78.356 114.944  0.00  0.00     0.091 C 
ENDROOT
BRANCH   1   7
ATOM      7  O   LIG d   1      -4.186  79.280 116.411  0.00  0.00    -0.368 OA
BRANCH   7   8
ATOM      8  C   LIG d   1      -4.291  79.536 117.833  0.00  0.00     0.119 C 
BRANCH   8   9
ATOM      9  C   LIG d   1      -4.213  78.177 118.556  0.00  0.00     0.028 C 
ATOM     10  C   LIG d   1      -5.102  77.110 117.895  0.00  0.00     0.006 C 
ENDBRANCH   8   9
BRANCH   8  11
ATOM     11  C   LIG d   1      -5.664  80.110 118.196  0.00  0.00     0.028 C 
ATOM     12  C   LIG d   1      -6.086  81.270 117.279  0.00  0.00     0.006 C 
ENDBRANCH   8  11
ENDBRANCH   7   8
ENDBRANCH   1   7
BRANCH   6  13
ATOM     13  N   LIG d   1      -1.999  77.280 115.862  0.00  0.00    -0.311 N 
ATOM     14  C   LIG d   1      -2.305  75.995 115.695  0.00  0.00     0.210 C 
ATOM     15  C   LIG d   1      -1.750  75.053 116.768  0.00  0.00     0.109 C 
ATOM     16  O   LIG d   1      -2.956  75.542 114.741  0.00  0.00    -0.276 OA
ATOM     17  H   LIG d   1      -1.439  77.556 116.646  0.00  0.00     0.149 HD
ENDBRANCH   6  13
BRANCH   5  18
ATOM     18  N   LIG d   1      -0.992  77.679 113.005  0.00  0.00     0.381 N 
ATOM     19  H   LIG d   1      -1.098  76.795 113.463  0.00  0.00    -0.090 HD
ATOM     20  H   LIG d   1      -0.027  77.786 112.746  0.00  0.00    -0.090 HD
ATOM     21  H   LIG d   1      -1.568  77.711 112.193  0.00  0.00    -0.090 HD
ENDBRANCH   5  18
BRANCH   3  22
ATOM     22  C   LIG d   1      -2.294  82.275 113.344  0.00  0.00     0.382 C 
ATOM     23  O   LIG d   1      -2.268  82.456 112.103  0.00  0.00    -0.241 OA
ATOM     24  O   LIG d   1      -2.194  83.254 114.109  0.00  0.00    -0.241 OA
ENDBRANCH   3  22
TORSDOF 7
ENDMDL
MODEL 4
REMARK VINA RESULT:      -4.7      3.954      5.522
REMARK  7 active torsions:
REMARK  status: ('A' for Active; 'I' for Inactive)
REMARK    1  A    between atoms: C_2  and  C_3 
REMARK    2  A    between atoms: C_3  and  O_6 
REMARK    3  A    between atoms: C_3  and  C_4 
REMARK    4  A    between atoms: C_7  and  O_6 
REMARK    5  A    between atoms: C_9  and  C_10 
REMARK    6  A    between atoms: N_15  and  C_14 
REMARK    7  A    between atoms: N_20  and  C_19 
REMARK       I    between atoms: C_22  and  N_20 
ROOT
ATOM      1  C   LIG d   1      -5.752  77.900 117.274  0.00  0.00     0.161 C 
ATOM      2  C   LIG d   1      -6.546  79.059 117.255  0.00  0.00     0.016 C 
ATOM      3  C   LIG d   1      -6.088  80.323 117.692  0.00  0.00     0.038 C 
ATOM      4  C   LIG d   1      -4.747  80.547 118.037  0.00  0.00     0.028 C 
ATOM      5  C   LIG d   1      -4.038  79.299 118.552  0.00  0.00    -0.047 C 
ATOM      6  C   LIG d   1      -4.253  78.147 117.543  0.00  0.00     0.091 C 
ENDROOT
BRANCH   1   7
ATOM      7  O   LIG d   1      -5.927  77.169 116.044  0.00  0.00    -0.368 OA
BRANCH   7   8
ATOM      8  C   LIG d   1      -6.705  75.950 116.132  0.00  0.00     0.119 C 
BRANCH   8   9
ATOM      9  C   LIG d   1      -6.905  75.635 117.627  0.00  0.00     0.028 C 
ATOM     10  C   LIG d   1      -6.525  74.187 117.979  0.00  0.00     0.006 C 
ENDBRANCH   8   9
BRANCH   8  11
ATOM     11  C   LIG d   1      -5.933  74.754 115.566  0.00  0.00     0.028 C 
ATOM     12  C   LIG d   1      -5.284  75.053 114.205  0.00  0.00     0.006 C 
ENDBRANCH   8  11
ENDBRANCH   7   8
ENDBRANCH   1   7
BRANCH   6  13
ATOM     13  N   LIG d   1      -3.663  76.866 118.010  0.00  0.00    -0.311 N 
ATOM     14  C   LIG d   1      -2.903  76.086 117.243  0.00  0.00     0.210 C 
ATOM     15  C   LIG d   1      -2.412  74.800 117.915  0.00  0.00     0.109 C 
ATOM     16  O   LIG d   1      -2.562  76.354 116.081  0.00  0.00    -0.276 OA
ATOM     17  H   LIG d   1      -3.863  76.588 118.951  0.00  0.00     0.149 HD
ENDBRANCH   6  13
BRANCH   5  18
ATOM     18  N   LIG d   1      -2.616  79.641 118.743  0.00  0.00     0.381 N 
ATOM     19  H   LIG d   1      -2.109  79.466 117.899  0.00  0.00    -0.090 HD
ATOM     20  H   LIG d   1      -2.235  79.056 119.466  0.00  0.00    -0.090 HD
ATOM     21  H   LIG d   1      -2.528  80.600 119.000  0.00  0.00    -0.090 HD
ENDBRANCH   5  18
BRANCH   3  22
ATOM     22  C   LIG d   1      -6.986  81.371 117.824  0.00  0.00     0.382 C 
ATOM     23  O   LIG d   1      -7.902  81.523 116.979  0.00  0.00    -0.241 OA
ATOM     24  O   LIG d   1      -6.865  82.193 118.752  0.00  0.00    -0.241 OA
ENDBRANCH   3  22
TORSDOF 7
ENDMDL
MODEL 5
REMARK VINA RESULT:      -4.5      3.383      6.605
REMARK  7 active torsions:
REMARK  status: ('A' for Active; 'I' for Inactive)
REMARK    1  A    between atoms: C_2  and  C_3 
REMARK    2  A    between atoms: C_3  and  O_6 
REMARK    3  A    between atoms: C_3  and  C_4 
REMARK    4  A    between atoms: C_7  and  O_6 
REMARK    5  A    between atoms: C_9  and  C_10 
REMARK    6  A    between atoms: N_15  and  C_14 
REMARK    7  A    between atoms: N_20  and  C_19 
REMARK       I    between atoms: C_22  and  N_20 
ROOT
ATOM      1  C   LIG d   1      -5.252  78.453 117.248  0.00  0.00     0.161 C 
ATOM      2  C   LIG d   1      -5.040  77.147 116.777  0.00  0.00     0.016 C 
ATOM      3  C   LIG d   1      -6.071  76.186 116.655  0.00  0.00     0.038 C 
ATOM      4  C   LIG d   1      -7.420  76.517 116.855  0.00  0.00     0.028 C 
ATOM      5  C   LIG d   1      -7.621  77.682 117.818  0.00  0.00    -0.047 C 
ATOM      6  C   LIG d   1      -6.735  78.865 117.366  0.00  0.00     0.091 C 
ENDROOT
BRANCH   1   7
ATOM      7  O   LIG d   1      -4.535  79.393 116.424  0.00  0.00    -0.368 OA
BRANCH   7   8
ATOM      8  C   LIG d   1      -3.162  79.655 116.803  0.00  0.00     0.119 C 
BRANCH   8   9
ATOM      9  C   LIG d   1      -3.153  79.984 118.309  0.00  0.00     0.028 C 
ATOM     10  C   LIG d   1      -3.423  81.472 118.586  0.00  0.00     0.006 C 
ENDBRANCH   8   9
BRANCH   8  11
ATOM     11  C   LIG d   1      -2.622  80.910 116.111  0.00  0.00     0.028 C 
ATOM     12  C   LIG d   1      -2.586  80.777 114.580  0.00  0.00     0.006 C 
ENDBRANCH   8  11
ENDBRANCH   7   8
ENDBRANCH   1   7
BRANCH   6  13
ATOM     13  N   LIG d   1      -6.808  80.018 118.301  0.00  0.00    -0.311 N 
ATOM     14  C   LIG d   1      -7.306  81.206 117.963  0.00  0.00     0.210 C 
ATOM     15  C   LIG d   1      -7.269  82.262 119.072  0.00  0.00     0.109 C 
ATOM     16  O   LIG d   1      -7.805  81.476 116.860  0.00  0.00    -0.276 OA
ATOM     17  H   LIG d   1      -6.454  79.877 119.227  0.00  0.00     0.149 HD
ENDBRANCH   6  13
BRANCH   5  18
ATOM     18  N   LIG d   1      -9.060  78.008 117.828  0.00  0.00     0.381 N 
ATOM     19  H   LIG d   1      -9.237  78.740 118.487  0.00  0.00    -0.090 HD
ATOM     20  H   LIG d   1      -9.576  77.195 118.113  0.00  0.00    -0.090 HD
ATOM     21  H   LIG d   1      -9.351  78.293 116.919  0.00  0.00    -0.090 HD
ENDBRANCH   5  18
BRANCH   3  22
ATOM     22  C   LIG d   1      -5.751  74.868 116.367  0.00  0.00     0.382 C 
ATOM     23  O   LIG d   1      -5.060  74.200 117.174  0.00  0.00    -0.241 OA
ATOM     24  O   LIG d   1      -6.108  74.352 115.292  0.00  0.00    -0.241 OA
ENDBRANCH   3  22
TORSDOF 7
ENDMDL
MODEL 6
REMARK VINA RESULT:      -4.5      3.389      5.695
REMARK  7 active torsions:
REMARK  status: ('A' for Active; 'I' for Inactive)
REMARK    1  A    between atoms: C_2  and  C_3 
REMARK    2  A    between atoms: C_3  and  O_6 
REMARK    3  A    between atoms: C_3  and  C_4 
REMARK    4  A    between atoms: C_7  and  O_6 
REMARK    5  A    between atoms: C_9  and  C_10 
REMARK    6  A    between atoms: N_15  and  C_14 
REMARK    7  A    between atoms: N_20  and  C_19 
REMARK       I    between atoms: C_22  and  N_20 
ROOT
ATOM      1  C   LIG d   1      -4.790  77.419 116.569  0.00  0.00     0.161 C 
ATOM      2  C   LIG d   1      -4.060  78.617 116.496  0.00  0.00     0.016 C 
ATOM      3  C   LIG d   1      -4.545  79.854 116.981  0.00  0.00     0.038 C 
ATOM      4  C   LIG d   1      -5.738  79.948 117.712  0.00  0.00     0.028 C 
ATOM      5  C   LIG d   1      -6.746  78.855 117.370  0.00  0.00    -0.047 C 
ATOM      6  C   LIG d   1      -6.046  77.480 117.463  0.00  0.00     0.091 C 
ENDROOT
BRANCH   1   7
ATOM      7  O   LIG d   1      -3.926  76.345 116.992  0.00  0.00    -0.368 OA
BRANCH   7   8
ATOM      8  C   LIG d   1      -3.717  75.280 116.033  0.00  0.00     0.119 C 
BRANCH   8   9
ATOM      9  C   LIG d   1      -2.206  75.209 115.741  0.00  0.00     0.028 C 
ATOM     10  C   LIG d   1      -1.443  74.381 116.789  0.00  0.00     0.006 C 
ENDBRANCH   8   9
BRANCH   8  11
ATOM     11  C   LIG d   1      -4.375  75.603 114.689  0.00  0.00     0.028 C 
ATOM     12  C   LIG d   1      -5.420  74.558 114.270  0.00  0.00     0.006 C 
ENDBRANCH   8  11
ENDBRANCH   7   8
ENDBRANCH   1   7
BRANCH   6  13
ATOM     13  N   LIG d   1      -6.939  76.362 117.062  0.00  0.00    -0.311 N 
ATOM     14  C   LIG d   1      -7.009  75.207 117.722  0.00  0.00     0.210 C 
ATOM     15  C   LIG d   1      -7.979  74.181 117.127  0.00  0.00     0.109 C 
ATOM     16  O   LIG d   1      -6.384  74.947 118.761  0.00  0.00    -0.276 OA
ATOM     17  H   LIG d   1      -7.505  76.500 116.248  0.00  0.00     0.149 HD
ENDBRANCH   6  13
BRANCH   5  18
ATOM     18  N   LIG d   1      -7.882  78.990 118.300  0.00  0.00     0.381 N 
ATOM     19  H   LIG d   1      -8.722  78.677 117.856  0.00  0.00    -0.090 HD
ATOM     20  H   LIG d   1      -7.994  79.960 118.538  0.00  0.00    -0.090 HD
ATOM     21  H   LIG d   1      -7.714  78.456 119.124  0.00  0.00    -0.090 HD
ENDBRANCH   5  18
BRANCH   3  22
ATOM     22  C   LIG d   1      -3.851  81.021 116.700  0.00  0.00     0.382 C 
ATOM     23  O   LIG d   1      -3.732  81.409 115.512  0.00  0.00    -0.241 OA
ATOM     24  O   LIG d   1      -3.305  81.667 117.614  0.00  0.00    -0.241 OA
ENDBRANCH   3  22
TORSDOF 7
ENDMDL
MODEL 7
REMARK VINA RESULT:      -4.4      1.949      2.501
REMARK  7 active torsions:
REMARK  status: ('A' for Active; 'I' for Inactive)
REMARK    1  A    between atoms: C_2  and  C_3 
REMARK    2  A    between atoms: C_3  and  O_6 
REMARK    3  A    between atoms: C_3  and  C_4 
REMARK    4  A    between atoms: C_7  and  O_6 
REMARK    5  A    between atoms: C_9  and  C_10 
REMARK    6  A    between atoms: N_15  and  C_14 
REMARK    7  A    between atoms: N_20  and  C_19 
REMARK       I    between atoms: C_22  and  N_20 
ROOT
ATOM      1  C   LIG d   1      -0.603  80.891 114.797  0.00  0.00     0.161 C 
ATOM      2  C   LIG d   1      -0.577  82.124 114.123  0.00  0.00     0.016 C 
ATOM      3  C   LIG d   1      -1.203  82.341 112.874  0.00  0.00     0.038 C 
ATOM      4  C   LIG d   1      -2.031  81.377 112.282  0.00  0.00     0.028 C 
ATOM      5  C   LIG d   1      -1.677  79.948 112.679  0.00  0.00    -0.047 C 
ATOM      6  C   LIG d   1      -1.596  79.860 114.220  0.00  0.00     0.091 C 
ENDROOT
BRANCH   1   7
ATOM      7  O   LIG d   1      -0.863  81.106 116.198  0.00  0.00    -0.368 OA
BRANCH   7   8
ATOM      8  C   LIG d   1      -1.838  82.129 116.517  0.00  0.00     0.119 C 
BRANCH   8   9
ATOM      9  C   LIG d   1      -1.219  83.039 117.595  0.00  0.00     0.028 C 
ATOM     10  C   LIG d   1      -0.800  84.410 117.037  0.00  0.00     0.006 C 
ENDBRANCH   8   9
BRANCH   8  11
ATOM     11  C   LIG d   1      -3.088  81.525 117.164  0.00  0.00     0.028 C 
ATOM     12  C   LIG d   1      -3.071  81.624 118.698  0.00  0.00     0.006 C 
ENDBRANCH   8  11
ENDBRANCH   7   8
ENDBRANCH   1   7
BRANCH   6  13
ATOM     13  N   LIG d   1      -1.171  78.516 114.689  0.00  0.00    -0.311 N 
ATOM     14  C   LIG d   1      -2.027  77.539 114.986  0.00  0.00     0.210 C 
ATOM     15  C   LIG d   1      -1.379  76.238 115.471  0.00  0.00     0.109 C 
ATOM     16  O   LIG d   1      -3.258  77.616 114.863  0.00  0.00    -0.276 OA
ATOM     17  H   LIG d   1      -0.187  78.356 114.788  0.00  0.00     0.149 HD
ENDBRANCH   6  13
BRANCH   5  18
ATOM     18  N   LIG d   1      -2.702  79.058 112.102  0.00  0.00     0.381 N 
ATOM     19  H   LIG d   1      -3.581  79.218 112.551  0.00  0.00    -0.090 HD
ATOM     20  H   LIG d   1      -2.434  78.104 112.266  0.00  0.00    -0.090 HD
ATOM     21  H   LIG d   1      -2.786  79.224 111.123  0.00  0.00    -0.090 HD
ENDBRANCH   5  18
BRANCH   3  22
ATOM     22  C   LIG d   1      -0.969  83.522 112.185  0.00  0.00     0.382 C 
ATOM     23  O   LIG d   1      -0.876  84.605 112.811  0.00  0.00    -0.241 OA
ATOM     24  O   LIG d   1      -0.894  83.523 110.942  0.00  0.00    -0.241 OA
ENDBRANCH   3  22
TORSDOF 7
ENDMDL
MODEL 8
REMARK VINA RESULT:      -4.3      3.434      6.657
REMARK  7 active torsions:
REMARK  status: ('A' for Active; 'I' for Inactive)
REMARK    1  A    between atoms: C_2  and  C_3 
REMARK    2  A    between atoms: C_3  and  O_6 
REMARK    3  A    between atoms: C_3  and  C_4 
REMARK    4  A    between atoms: C_7  and  O_6 
REMARK    5  A    between atoms: C_9  and  C_10 
REMARK    6  A    between atoms: N_15  and  C_14 
REMARK    7  A    between atoms: N_20  and  C_19 
REMARK       I    between atoms: C_22  and  N_20 
ROOT
ATOM      1  C   LIG d   1      -5.210  78.578 117.250  0.00  0.00     0.161 C 
ATOM      2  C   LIG d   1      -4.991  77.255 116.832  0.00  0.00     0.016 C 
ATOM      3  C   LIG d   1      -6.016  76.285 116.750  0.00  0.00     0.038 C 
ATOM      4  C   LIG d   1      -7.366  76.616 116.936  0.00  0.00     0.028 C 
ATOM      5  C   LIG d   1      -7.575  77.818 117.850  0.00  0.00    -0.047 C 
ATOM      6  C   LIG d   1      -6.695  78.987 117.350  0.00  0.00     0.091 C 
ENDROOT
BRANCH   1   7
ATOM      7  O   LIG d   1      -4.498  79.487 116.388  0.00  0.00    -0.368 OA
BRANCH   7   8
ATOM      8  C   LIG d   1      -3.322  80.116 116.956  0.00  0.00     0.119 C 
BRANCH   8   9
ATOM      9  C   LIG d   1      -2.098  79.290 116.516  0.00  0.00     0.028 C 
ATOM     10  C   LIG d   1      -1.988  79.173 114.987  0.00  0.00     0.006 C 
ENDBRANCH   8   9
BRANCH   8  11
ATOM     11  C   LIG d   1      -3.334  80.039 118.486  0.00  0.00     0.028 C 
ATOM     12  C   LIG d   1      -3.535  81.411 119.150  0.00  0.00     0.006 C 
ENDBRANCH   8  11
ENDBRANCH   7   8
ENDBRANCH   1   7
BRANCH   6  13
ATOM     13  N   LIG d   1      -6.775  80.176 118.237  0.00  0.00    -0.311 N 
ATOM     14  C   LIG d   1      -7.516  81.248 117.961  0.00  0.00     0.210 C 
ATOM     15  C   LIG d   1      -7.441  82.372 119.000  0.00  0.00     0.109 C 
ATOM     16  O   LIG d   1      -8.254  81.362 116.970  0.00  0.00    -0.276 OA
ATOM     17  H   LIG d   1      -6.233  80.156 119.079  0.00  0.00     0.149 HD
ENDBRANCH   6  13
BRANCH   5  18
ATOM     18  N   LIG d   1      -9.016  78.137 117.845  0.00  0.00     0.381 N 
ATOM     19  H   LIG d   1      -9.195  78.901 118.465  0.00  0.00    -0.090 HD
ATOM     20  H   LIG d   1      -9.526  77.337 118.176  0.00  0.00    -0.090 HD
ATOM     21  H   LIG d   1      -9.310  78.370 116.923  0.00  0.00    -0.090 HD
ENDBRANCH   5  18
BRANCH   3  22
ATOM     22  C   LIG d   1      -5.689  74.958 116.517  0.00  0.00     0.382 C 
ATOM     23  O   LIG d   1      -6.407  74.258 115.762  0.00  0.00    -0.241 OA
ATOM     24  O   LIG d   1      -4.710  74.439 117.087  0.00  0.00    -0.241 OA
ENDBRANCH   3  22
TORSDOF 7
ENDMDL
MODEL 9
REMARK VINA RESULT:      -4.2      2.912      5.787
REMARK  7 active torsions:
REMARK  status: ('A' for Active; 'I' for Inactive)
REMARK    1  A    between atoms: C_2  and  C_3 
REMARK    2  A    between atoms: C_3  and  O_6 
REMARK    3  A    between atoms: C_3  and  C_4 
REMARK    4  A    between atoms: C_7  and  O_6 
REMARK    5  A    between atoms: C_9  and  C_10 
REMARK    6  A    between atoms: N_15  and  C_14 
REMARK    7  A    between atoms: N_20  and  C_19 
REMARK       I    between atoms: C_22  and  N_20 
ROOT
ATOM      1  C   LIG d   1      -4.229  78.689 116.727  0.00  0.00     0.161 C 
ATOM      2  C   LIG d   1      -3.810  77.601 115.944  0.00  0.00     0.016 C 
ATOM      3  C   LIG d   1      -4.637  76.494 115.643  0.00  0.00     0.038 C 
ATOM      4  C   LIG d   1      -5.998  76.472 115.983  0.00  0.00     0.028 C 
ATOM      5  C   LIG d   1      -6.331  77.317 117.207  0.00  0.00    -0.047 C 
ATOM      6  C   LIG d   1      -5.745  78.734 117.013  0.00  0.00     0.091 C 
ENDROOT
BRANCH   1   7
ATOM      7  O   LIG d   1      -3.797  79.923 116.121  0.00  0.00    -0.368 OA
BRANCH   7   8
ATOM      8  C   LIG d   1      -2.602  80.522 116.680  0.00  0.00     0.119 C 
BRANCH   8   9
ATOM      9  C   LIG d   1      -3.018  81.847 117.349  0.00  0.00     0.028 C 
ATOM     10  C   LIG d   1      -2.025  82.292 118.436  0.00  0.00     0.006 C 
ENDBRANCH   8   9
BRANCH   8  11
ATOM     11  C   LIG d   1      -1.611  80.918 115.581  0.00  0.00     0.028 C 
ATOM     12  C   LIG d   1      -2.301  81.504 114.339  0.00  0.00     0.006 C 
ENDBRANCH   8  11
ENDBRANCH   7   8
ENDBRANCH   1   7
BRANCH   6  13
ATOM     13  N   LIG d   1      -5.952  79.601 118.203  0.00  0.00    -0.311 N 
ATOM     14  C   LIG d   1      -6.532  80.799 118.145  0.00  0.00     0.210 C 
ATOM     15  C   LIG d   1      -6.629  81.536 119.484  0.00  0.00     0.109 C 
ATOM     16  O   LIG d   1      -7.003  81.307 117.116  0.00  0.00    -0.276 OA
ATOM     17  H   LIG d   1      -5.627  79.252 119.083  0.00  0.00     0.149 HD
ENDBRANCH   6  13
BRANCH   5  18
ATOM     18  N   LIG d   1      -7.797  77.314 117.366  0.00  0.00     0.381 N 
ATOM     19  H   LIG d   1      -8.040  77.638 118.281  0.00  0.00    -0.090 HD
ATOM     20  H   LIG d   1      -8.133  76.373 117.265  0.00  0.00    -0.090 HD
ATOM     21  H   LIG d   1      -8.216  77.900 116.677  0.00  0.00    -0.090 HD
ENDBRANCH   5  18
BRANCH   3  22
ATOM     22  C   LIG d   1      -4.093  75.376 115.029  0.00  0.00     0.382 C 
ATOM     23  O   LIG d   1      -2.901  75.056 115.253  0.00  0.00    -0.241 OA
ATOM     24  O   LIG d   1      -4.765  74.709 114.221  0.00  0.00    -0.241 OA
ENDBRANCH   3  22
TORSDOF 7
ENDMDL
