MODEL 1
REMARK VINA RESULT:      -5.1      0.000      0.000
REMARK  7 active torsions:
REMARK  status: ('A' for Active; 'I' for Inactive)
REMARK    1  A    between atoms: C_2  and  C_3 
REMARK    2  A    between atoms: C_3  and  O_6 
REMARK    3  A    between atoms: C_3  and  C_4 
REMARK    4  A    between atoms: C_7  and  O_6 
REMARK    5  A    between atoms: C_9  and  C_10 
REMARK    6  A    between atoms: N_15  and  C_14 
REMARK    7  A    between atoms: N_20  and  C_19 
REMARK       I    between atoms: C_22  and  N_20 
ROOT
ATOM      1  C   LIG d   1      -3.273  76.536 115.135  0.00  0.00     0.161 C 
ATOM      2  C   LIG d   1      -3.346  76.216 116.501  0.00  0.00     0.016 C 
ATOM      3  C   LIG d   1      -2.406  76.664 117.457  0.00  0.00     0.038 C 
ATOM      4  C   LIG d   1      -1.406  77.593 117.134  0.00  0.00     0.028 C 
ATOM      5  C   LIG d   1      -0.988  77.549 115.668  0.00  0.00    -0.047 C 
ATOM      6  C   LIG d   1      -2.253  77.639 114.783  0.00  0.00     0.091 C 
ENDROOT
BRANCH   1   7
ATOM      7  O   LIG d   1      -4.581  76.889 114.645  0.00  0.00    -0.368 OA
BRANCH   7   8
ATOM      8  C   LIG d   1      -5.262  75.878 113.861  0.00  0.00     0.119 C 
BRANCH   8   9
ATOM      9  C   LIG d   1      -6.702  76.372 113.619  0.00  0.00     0.028 C 
ATOM     10  C   LIG d   1      -6.951  76.762 112.153  0.00  0.00     0.006 C 
ENDBRANCH   8   9
BRANCH   8  11
ATOM     11  C   LIG d   1      -5.409  74.570 114.644  0.00  0.00     0.028 C 
ATOM     12  C   LIG d   1      -6.681  74.530 115.505  0.00  0.00     0.006 C 
ENDBRANCH   8  11
ENDBRANCH   7   8
ENDBRANCH   1   7
BRANCH   6  13
ATOM     13  N   LIG d   1      -1.941  77.518 113.335  0.00  0.00    -0.311 N 
ATOM     14  C   LIG d   1      -2.462  78.314 112.404  0.00  0.00     0.210 C 
ATOM     15  C   LIG d   1      -2.024  78.005 110.969  0.00  0.00     0.109 C 
ATOM     16  O   LIG d   1      -3.221  79.268 112.633  0.00  0.00    -0.276 OA
ATOM     17  H   LIG d   1      -1.309  76.790 113.064  0.00  0.00     0.149 HD
ENDBRANCH   6  13
BRANCH   5  18
ATOM     18  N   LIG d   1      -0.043  78.658 115.440  0.00  0.00     0.381 N 
ATOM     19  H   LIG d   1      -0.302  79.445 116.001  0.00  0.00    -0.090 HD
ATOM     20  H   LIG d   1      -0.088  78.930 114.474  0.00  0.00    -0.090 HD
ATOM     21  H   LIG d   1       0.883  78.369 115.668  0.00  0.00    -0.090 HD
ENDBRANCH   5  18
BRANCH   3  22
ATOM     22  C   LIG d   1      -2.436  76.150 118.744  0.00  0.00     0.382 C 
ATOM     23  O   LIG d   1      -1.743  75.145 119.035  0.00  0.00    -0.241 OA
ATOM     24  O   LIG d   1      -3.182  76.651 119.607  0.00  0.00    -0.241 OA
ENDBRANCH   3  22
TORSDOF 7
ENDMDL
MODEL 2
REMARK VINA RESULT:      -4.9      2.019      4.757
REMARK  7 active torsions:
REMARK  status: ('A' for Active; 'I' for Inactive)
REMARK    1  A    between atoms: C_2  and  C_3 
REMARK    2  A    between atoms: C_3  and  O_6 
REMARK    3  A    between atoms: C_3  and  C_4 
REMARK    4  A    between atoms: C_7  and  O_6 
REMARK    5  A    between atoms: C_9  and  C_10 
REMARK    6  A    between atoms: N_15  and  C_14 
REMARK    7  A    between atoms: N_20  and  C_19 
REMARK       I    between atoms: C_22  and  N_20 
ROOT
ATOM      1  C   LIG d   1      -3.709  77.277 113.956  0.00  0.00     0.161 C 
ATOM      2  C   LIG d   1      -3.189  77.910 112.814  0.00  0.00     0.016 C 
ATOM      3  C   LIG d   1      -1.839  78.310 112.693  0.00  0.00     0.038 C 
ATOM      4  C   LIG d   1      -0.875  77.968 113.653  0.00  0.00     0.028 C 
ATOM      5  C   LIG d   1      -1.454  77.774 115.051  0.00  0.00    -0.047 C 
ATOM      6  C   LIG d   1      -2.648  76.796 114.968  0.00  0.00     0.091 C 
ENDROOT
BRANCH   1   7
ATOM      7  O   LIG d   1      -4.560  76.183 113.564  0.00  0.00    -0.368 OA
BRANCH   7   8
ATOM      8  C   LIG d   1      -5.969  76.329 113.871  0.00  0.00     0.119 C 
BRANCH   8   9
ATOM      9  C   LIG d   1      -6.350  75.197 114.844  0.00  0.00     0.028 C 
ATOM     10  C   LIG d   1      -7.133  75.711 116.064  0.00  0.00     0.006 C 
ENDBRANCH   8   9
BRANCH   8  11
ATOM     11  C   LIG d   1      -6.836  76.105 112.629  0.00  0.00     0.028 C 
ATOM     12  C   LIG d   1      -7.623  77.360 112.218  0.00  0.00     0.006 C 
ENDBRANCH   8  11
ENDBRANCH   7   8
ENDBRANCH   1   7
BRANCH   6  13
ATOM     13  N   LIG d   1      -3.325  76.616 116.279  0.00  0.00    -0.311 N 
ATOM     14  C   LIG d   1      -3.867  77.619 116.968  0.00  0.00     0.210 C 
ATOM     15  C   LIG d   1      -4.497  77.218 118.305  0.00  0.00     0.109 C 
ATOM     16  O   LIG d   1      -3.913  78.797 116.583  0.00  0.00    -0.276 OA
ATOM     17  H   LIG d   1      -3.361  75.687 116.650  0.00  0.00     0.149 HD
ENDBRANCH   6  13
BRANCH   5  18
ATOM     18  N   LIG d   1      -0.366  77.287 115.920  0.00  0.00     0.381 N 
ATOM     19  H   LIG d   1      -0.641  77.359 116.879  0.00  0.00    -0.090 HD
ATOM     20  H   LIG d   1       0.445  77.863 115.780  0.00  0.00    -0.090 HD
ATOM     21  H   LIG d   1      -0.151  76.339 115.698  0.00  0.00    -0.090 HD
ENDBRANCH   5  18
BRANCH   3  22
ATOM     22  C   LIG d   1      -1.449  79.098 111.620  0.00  0.00     0.382 C 
ATOM     23  O   LIG d   1      -1.212  80.318 111.792  0.00  0.00    -0.241 OA
ATOM     24  O   LIG d   1      -1.376  78.613 110.475  0.00  0.00    -0.241 OA
ENDBRANCH   3  22
TORSDOF 7
ENDMDL
MODEL 3
REMARK VINA RESULT:      -4.8      1.991      4.617
REMARK  7 active torsions:
REMARK  status: ('A' for Active; 'I' for Inactive)
REMARK    1  A    between atoms: C_2  and  C_3 
REMARK    2  A    between atoms: C_3  and  O_6 
REMARK    3  A    between atoms: C_3  and  C_4 
REMARK    4  A    between atoms: C_7  and  O_6 
REMARK    5  A    between atoms: C_9  and  C_10 
REMARK    6  A    between atoms: N_15  and  C_14 
REMARK    7  A    between atoms: N_20  and  C_19 
REMARK       I    between atoms: C_22  and  N_20 
ROOT
ATOM      1  C   LIG d   1      -3.040  77.134 115.123  0.00  0.00     0.161 C 
ATOM      2  C   LIG d   1      -3.157  78.076 114.088  0.00  0.00     0.016 C 
ATOM      3  C   LIG d   1      -2.128  78.981 113.740  0.00  0.00     0.038 C 
ATOM      4  C   LIG d   1      -0.848  78.904 114.309  0.00  0.00     0.028 C 
ATOM      5  C   LIG d   1      -0.844  78.301 115.710  0.00  0.00    -0.047 C 
ATOM      6  C   LIG d   1      -1.612  76.960 115.681  0.00  0.00     0.091 C 
ENDROOT
BRANCH   1   7
ATOM      7  O   LIG d   1      -3.567  75.864 114.690  0.00  0.00    -0.368 OA
BRANCH   7   8
ATOM      8  C   LIG d   1      -4.695  75.352 115.441  0.00  0.00     0.119 C 
BRANCH   8   9
ATOM      9  C   LIG d   1      -5.792  74.971 114.428  0.00  0.00     0.028 C 
ATOM     10  C   LIG d   1      -6.003  76.054 113.357  0.00  0.00     0.006 C 
ENDBRANCH   8   9
BRANCH   8  11
ATOM     11  C   LIG d   1      -5.318  76.440 116.322  0.00  0.00     0.028 C 
ATOM     12  C   LIG d   1      -6.789  76.158 116.667  0.00  0.00     0.006 C 
ENDBRANCH   8  11
ENDBRANCH   7   8
ENDBRANCH   1   7
BRANCH   6  13
ATOM     13  N   LIG d   1      -1.728  76.344 117.029  0.00  0.00    -0.311 N 
ATOM     14  C   LIG d   1      -1.397  75.081 117.289  0.00  0.00     0.210 C 
ATOM     15  C   LIG d   1      -1.612  74.641 118.740  0.00  0.00     0.109 C 
ATOM     16  O   LIG d   1      -0.914  74.292 116.463  0.00  0.00    -0.276 OA
ATOM     17  H   LIG d   1      -2.082  76.922 117.766  0.00  0.00     0.149 HD
ENDBRANCH   6  13
BRANCH   5  18
ATOM     18  N   LIG d   1       0.563  78.153 116.127  0.00  0.00     0.381 N 
ATOM     19  H   LIG d   1       1.164  78.254 115.334  0.00  0.00    -0.090 HD
ATOM     20  H   LIG d   1       0.694  77.231 116.506  0.00  0.00    -0.090 HD
ATOM     21  H   LIG d   1       0.789  78.837 116.814  0.00  0.00    -0.090 HD
ENDBRANCH   5  18
BRANCH   3  22
ATOM     22  C   LIG d   1      -2.388  80.004 112.840  0.00  0.00     0.382 C 
ATOM     23  O   LIG d   1      -3.402  80.728 112.990  0.00  0.00    -0.241 OA
ATOM     24  O   LIG d   1      -1.646  80.184 111.856  0.00  0.00    -0.241 OA
ENDBRANCH   3  22
TORSDOF 7
ENDMDL
MODEL 4
REMARK VINA RESULT:      -4.8      1.603      2.029
REMARK  7 active torsions:
REMARK  status: ('A' for Active; 'I' for Inactive)
REMARK    1  A    between atoms: C_2  and  C_3 
REMARK    2  A    between atoms: C_3  and  O_6 
REMARK    3  A    between atoms: C_3  and  C_4 
REMARK    4  A    between atoms: C_7  and  O_6 
REMARK    5  A    between atoms: C_9  and  C_10 
REMARK    6  A    between atoms: N_15  and  C_14 
REMARK    7  A    between atoms: N_20  and  C_19 
REMARK       I    between atoms: C_22  and  N_20 
ROOT
ATOM      1  C   LIG d   1      -1.608  75.874 115.058  0.00  0.00     0.161 C 
ATOM      2  C   LIG d   1      -1.443  75.397 116.369  0.00  0.00     0.016 C 
ATOM      3  C   LIG d   1      -0.940  76.189 117.427  0.00  0.00     0.038 C 
ATOM      4  C   LIG d   1      -0.708  77.564 117.279  0.00  0.00     0.028 C 
ATOM      5  C   LIG d   1      -0.382  77.973 115.847  0.00  0.00    -0.047 C 
ATOM      6  C   LIG d   1      -1.466  77.403 114.903  0.00  0.00     0.091 C 
ENDROOT
BRANCH   1   7
ATOM      7  O   LIG d   1      -2.876  75.433 114.534  0.00  0.00    -0.368 OA
BRANCH   7   8
ATOM      8  C   LIG d   1      -3.924  75.204 115.509  0.00  0.00     0.119 C 
BRANCH   8   9
ATOM      9  C   LIG d   1      -4.935  74.226 114.880  0.00  0.00     0.028 C 
ATOM     10  C   LIG d   1      -6.387  74.559 115.260  0.00  0.00     0.006 C 
ENDBRANCH   8   9
BRANCH   8  11
ATOM     11  C   LIG d   1      -4.717  76.485 115.786  0.00  0.00     0.028 C 
ATOM     12  C   LIG d   1      -4.560  76.982 117.231  0.00  0.00     0.006 C 
ENDBRANCH   8  11
ENDBRANCH   7   8
ENDBRANCH   1   7
BRANCH   6  13
ATOM     13  N   LIG d   1      -1.177  77.685 113.473  0.00  0.00    -0.311 N 
ATOM     14  C   LIG d   1      -2.097  78.116 112.611  0.00  0.00     0.210 C 
ATOM     15  C   LIG d   1      -1.593  78.326 111.179  0.00  0.00     0.109 C 
ATOM     16  O   LIG d   1      -3.274  78.375 112.903  0.00  0.00    -0.276 OA
ATOM     17  H   LIG d   1      -0.239  77.531 113.158  0.00  0.00     0.149 HD
ENDBRANCH   6  13
BRANCH   5  18
ATOM     18  N   LIG d   1      -0.301  79.445 115.811  0.00  0.00     0.381 N 
ATOM     19  H   LIG d   1      -1.207  79.839 115.968  0.00  0.00    -0.090 HD
ATOM     20  H   LIG d   1       0.014  79.731 114.901  0.00  0.00    -0.090 HD
ATOM     21  H   LIG d   1       0.335  79.769 116.507  0.00  0.00    -0.090 HD
ENDBRANCH   5  18
BRANCH   3  22
ATOM     22  C   LIG d   1      -0.625  75.595 118.640  0.00  0.00     0.382 C 
ATOM     23  O   LIG d   1       0.561  75.593 119.048  0.00  0.00    -0.241 OA
ATOM     24  O   LIG d   1      -1.506  75.022 119.310  0.00  0.00    -0.241 OA
ENDBRANCH   3  22
TORSDOF 7
ENDMDL
MODEL 5
REMARK VINA RESULT:      -4.8      2.989      5.632
REMARK  7 active torsions:
REMARK  status: ('A' for Active; 'I' for Inactive)
REMARK    1  A    between atoms: C_2  and  C_3 
REMARK    2  A    between atoms: C_3  and  O_6 
REMARK    3  A    between atoms: C_3  and  C_4 
REMARK    4  A    between atoms: C_7  and  O_6 
REMARK    5  A    between atoms: C_9  and  C_10 
REMARK    6  A    between atoms: N_15  and  C_14 
REMARK    7  A    between atoms: N_20  and  C_19 
REMARK       I    between atoms: C_22  and  N_20 
ROOT
ATOM      1  C   LIG d   1      -2.822  78.428 116.162  0.00  0.00     0.161 C 
ATOM      2  C   LIG d   1      -3.007  79.310 115.084  0.00  0.00     0.016 C 
ATOM      3  C   LIG d   1      -2.441  79.106 113.805  0.00  0.00     0.038 C 
ATOM      4  C   LIG d   1      -1.770  77.920 113.472  0.00  0.00     0.028 C 
ATOM      5  C   LIG d   1      -1.127  77.231 114.670  0.00  0.00    -0.047 C 
ATOM      6  C   LIG d   1      -2.185  77.073 115.786  0.00  0.00     0.091 C 
ENDROOT
BRANCH   1   7
ATOM      7  O   LIG d   1      -4.074  78.220 116.845  0.00  0.00    -0.368 OA
BRANCH   7   8
ATOM      8  C   LIG d   1      -4.399  79.177 117.884  0.00  0.00     0.119 C 
BRANCH   8   9
ATOM      9  C   LIG d   1      -3.697  78.714 119.175  0.00  0.00     0.028 C 
ATOM     10  C   LIG d   1      -4.111  77.292 119.590  0.00  0.00     0.006 C 
ENDBRANCH   8   9
BRANCH   8  11
ATOM     11  C   LIG d   1      -5.896  79.161 118.207  0.00  0.00     0.028 C 
ATOM     12  C   LIG d   1      -6.451  80.558 118.527  0.00  0.00     0.006 C 
ENDBRANCH   8  11
ENDBRANCH   7   8
ENDBRANCH   1   7
BRANCH   6  13
ATOM     13  N   LIG d   1      -1.617  76.484 117.026  0.00  0.00    -0.311 N 
ATOM     14  C   LIG d   1      -1.637  75.179 117.294  0.00  0.00     0.210 C 
ATOM     15  C   LIG d   1      -1.016  74.785 118.637  0.00  0.00     0.109 C 
ATOM     16  O   LIG d   1      -2.082  74.308 116.531  0.00  0.00    -0.276 OA
ATOM     17  H   LIG d   1      -1.208  77.116 117.686  0.00  0.00     0.149 HD
ENDBRANCH   6  13
BRANCH   5  18
ATOM     18  N   LIG d   1      -0.582  75.942 114.204  0.00  0.00     0.381 N 
ATOM     19  H   LIG d   1       0.327  75.797 114.595  0.00  0.00    -0.090 HD
ATOM     20  H   LIG d   1      -0.494  75.970 113.203  0.00  0.00    -0.090 HD
ATOM     21  H   LIG d   1      -1.189  75.199 114.470  0.00  0.00    -0.090 HD
ENDBRANCH   5  18
BRANCH   3  22
ATOM     22  C   LIG d   1      -2.509  80.114 112.855  0.00  0.00     0.382 C 
ATOM     23  O   LIG d   1      -1.623  80.203 111.971  0.00  0.00    -0.241 OA
ATOM     24  O   LIG d   1      -3.422  80.961 112.897  0.00  0.00    -0.241 OA
ENDBRANCH   3  22
TORSDOF 7
ENDMDL
MODEL 6
REMARK VINA RESULT:      -4.8      3.122      4.289
REMARK  7 active torsions:
REMARK  status: ('A' for Active; 'I' for Inactive)
REMARK    1  A    between atoms: C_2  and  C_3 
REMARK    2  A    between atoms: C_3  and  O_6 
REMARK    3  A    between atoms: C_3  and  C_4 
REMARK    4  A    between atoms: C_7  and  O_6 
REMARK    5  A    between atoms: C_9  and  C_10 
REMARK    6  A    between atoms: N_15  and  C_14 
REMARK    7  A    between atoms: N_20  and  C_19 
REMARK       I    between atoms: C_22  and  N_20 
ROOT
ATOM      1  C   LIG d   1      -3.238  78.117 117.135  0.00  0.00     0.161 C 
ATOM      2  C   LIG d   1      -2.367  79.101 117.633  0.00  0.00     0.016 C 
ATOM      3  C   LIG d   1      -1.073  79.330 117.113  0.00  0.00     0.038 C 
ATOM      4  C   LIG d   1      -0.615  78.688 115.953  0.00  0.00     0.028 C 
ATOM      5  C   LIG d   1      -1.263  77.327 115.719  0.00  0.00    -0.047 C 
ATOM      6  C   LIG d   1      -2.799  77.482 115.799  0.00  0.00     0.091 C 
ENDROOT
BRANCH   1   7
ATOM      7  O   LIG d   1      -4.570  78.655 117.021  0.00  0.00    -0.368 OA
BRANCH   7   8
ATOM      8  C   LIG d   1      -5.493  78.304 118.081  0.00  0.00     0.119 C 
BRANCH   8   9
ATOM      9  C   LIG d   1      -6.397  77.174 117.551  0.00  0.00     0.028 C 
ATOM     10  C   LIG d   1      -7.684  77.017 118.378  0.00  0.00     0.006 C 
ENDBRANCH   8   9
BRANCH   8  11
ATOM     11  C   LIG d   1      -6.439  79.464 118.402  0.00  0.00     0.028 C 
ATOM     12  C   LIG d   1      -5.742  80.833 118.355  0.00  0.00     0.006 C 
ENDBRANCH   8  11
ENDBRANCH   7   8
ENDBRANCH   1   7
BRANCH   6  13
ATOM     13  N   LIG d   1      -3.507  76.182 115.665  0.00  0.00    -0.311 N 
ATOM     14  C   LIG d   1      -4.335  75.899 114.661  0.00  0.00     0.210 C 
ATOM     15  C   LIG d   1      -4.976  74.509 114.724  0.00  0.00     0.109 C 
ATOM     16  O   LIG d   1      -4.574  76.654 113.706  0.00  0.00    -0.276 OA
ATOM     17  H   LIG d   1      -3.347  75.499 116.380  0.00  0.00     0.149 HD
ENDBRANCH   6  13
BRANCH   5  18
ATOM     18  N   LIG d   1      -0.800  76.832 114.409  0.00  0.00     0.381 N 
ATOM     19  H   LIG d   1      -1.562  76.822 113.761  0.00  0.00    -0.090 HD
ATOM     20  H   LIG d   1      -0.465  75.891 114.517  0.00  0.00    -0.090 HD
ATOM     21  H   LIG d   1      -0.069  77.415 114.063  0.00  0.00    -0.090 HD
ENDBRANCH   5  18
BRANCH   3  22
ATOM     22  C   LIG d   1      -0.206  80.183 117.779  0.00  0.00     0.382 C 
ATOM     23  O   LIG d   1       0.015  80.022 119.004  0.00  0.00    -0.241 OA
ATOM     24  O   LIG d   1       0.325  81.138 117.181  0.00  0.00    -0.241 OA
ENDBRANCH   3  22
TORSDOF 7
ENDMDL
MODEL 7
REMARK VINA RESULT:      -4.7      2.136      4.645
REMARK  7 active torsions:
REMARK  status: ('A' for Active; 'I' for Inactive)
REMARK    1  A    between atoms: C_2  and  C_3 
REMARK    2  A    between atoms: C_3  and  O_6 
REMARK    3  A    between atoms: C_3  and  C_4 
REMARK    4  A    between atoms: C_7  and  O_6 
REMARK    5  A    between atoms: C_9  and  C_10 
REMARK    6  A    between atoms: N_15  and  C_14 
REMARK    7  A    between atoms: N_20  and  C_19 
REMARK       I    between atoms: C_22  and  N_20 
ROOT
ATOM      1  C   LIG d   1      -2.787  76.681 116.191  0.00  0.00     0.161 C 
ATOM      2  C   LIG d   1      -3.087  77.792 115.385  0.00  0.00     0.016 C 
ATOM      3  C   LIG d   1      -2.464  78.041 114.140  0.00  0.00     0.038 C 
ATOM      4  C   LIG d   1      -1.602  77.110 113.543  0.00  0.00     0.028 C 
ATOM      5  C   LIG d   1      -0.885  76.216 114.549  0.00  0.00    -0.047 C 
ATOM      6  C   LIG d   1      -1.930  75.597 115.504  0.00  0.00     0.091 C 
ENDROOT
BRANCH   1   7
ATOM      7  O   LIG d   1      -4.005  76.107 116.704  0.00  0.00    -0.368 OA
BRANCH   7   8
ATOM      8  C   LIG d   1      -5.232  76.536 116.064  0.00  0.00     0.119 C 
BRANCH   8   9
ATOM      9  C   LIG d   1      -6.282  76.749 117.172  0.00  0.00     0.028 C 
ATOM     10  C   LIG d   1      -7.605  76.023 116.873  0.00  0.00     0.006 C 
ENDBRANCH   8   9
BRANCH   8  11
ATOM     11  C   LIG d   1      -5.806  75.437 115.166  0.00  0.00     0.028 C 
ATOM     12  C   LIG d   1      -5.726  75.786 113.671  0.00  0.00     0.006 C 
ENDBRANCH   8  11
ENDBRANCH   7   8
ENDBRANCH   1   7
BRANCH   6  13
ATOM     13  N   LIG d   1      -1.305  74.775 116.573  0.00  0.00    -0.311 N 
ATOM     14  C   LIG d   1      -0.349  75.228 117.382  0.00  0.00     0.210 C 
ATOM     15  C   LIG d   1       0.173  74.210 118.401  0.00  0.00     0.109 C 
ATOM     16  O   LIG d   1       0.095  76.386 117.373  0.00  0.00    -0.276 OA
ATOM     17  H   LIG d   1      -1.627  73.832 116.670  0.00  0.00     0.149 HD
ENDBRANCH   6  13
BRANCH   5  18
ATOM     18  N   LIG d   1      -0.127  75.206 113.787  0.00  0.00     0.381 N 
ATOM     19  H   LIG d   1      -0.253  75.357 112.806  0.00  0.00    -0.090 HD
ATOM     20  H   LIG d   1      -0.483  74.294 114.013  0.00  0.00    -0.090 HD
ATOM     21  H   LIG d   1       0.841  75.260 114.017  0.00  0.00    -0.090 HD
ENDBRANCH   5  18
BRANCH   3  22
ATOM     22  C   LIG d   1      -2.672  79.253 113.498  0.00  0.00     0.382 C 
ATOM     23  O   LIG d   1      -3.201  80.208 114.117  0.00  0.00    -0.241 OA
ATOM     24  O   LIG d   1      -2.378  79.389 112.296  0.00  0.00    -0.241 OA
ENDBRANCH   3  22
TORSDOF 7
ENDMDL
MODEL 8
REMARK VINA RESULT:      -4.4      2.337      5.343
REMARK  7 active torsions:
REMARK  status: ('A' for Active; 'I' for Inactive)
REMARK    1  A    between atoms: C_2  and  C_3 
REMARK    2  A    between atoms: C_3  and  O_6 
REMARK    3  A    between atoms: C_3  and  C_4 
REMARK    4  A    between atoms: C_7  and  O_6 
REMARK    5  A    between atoms: C_9  and  C_10 
REMARK    6  A    between atoms: N_15  and  C_14 
REMARK    7  A    between atoms: N_20  and  C_19 
REMARK       I    between atoms: C_22  and  N_20 
ROOT
ATOM      1  C   LIG d   1      -2.309  77.829 116.772  0.00  0.00     0.161 C 
ATOM      2  C   LIG d   1      -3.188  76.974 116.088  0.00  0.00     0.016 C 
ATOM      3  C   LIG d   1      -3.281  76.919 114.678  0.00  0.00     0.038 C 
ATOM      4  C   LIG d   1      -2.386  77.612 113.849  0.00  0.00     0.028 C 
ATOM      5  C   LIG d   1      -1.816  78.872 114.492  0.00  0.00    -0.047 C 
ATOM      6  C   LIG d   1      -1.247  78.511 115.884  0.00  0.00     0.091 C 
ENDROOT
BRANCH   1   7
ATOM      7  O   LIG d   1      -1.674  77.115 117.852  0.00  0.00    -0.368 OA
BRANCH   7   8
ATOM      8  C   LIG d   1      -1.664  75.671 117.741  0.00  0.00     0.119 C 
BRANCH   8   9
ATOM      9  C   LIG d   1      -1.817  75.096 119.163  0.00  0.00     0.028 C 
ATOM     10  C   LIG d   1      -0.644  74.182 119.556  0.00  0.00     0.006 C 
ENDBRANCH   8   9
BRANCH   8  11
ATOM     11  C   LIG d   1      -0.309  75.160 117.241  0.00  0.00     0.028 C 
ATOM     12  C   LIG d   1      -0.390  74.530 115.841  0.00  0.00     0.006 C 
ENDBRANCH   8  11
ENDBRANCH   7   8
ENDBRANCH   1   7
BRANCH   6  13
ATOM     13  N   LIG d   1      -0.745  79.702 116.617  0.00  0.00    -0.311 N 
ATOM     14  C   LIG d   1       0.514  79.831 117.031  0.00  0.00     0.210 C 
ATOM     15  C   LIG d   1       0.818  81.129 117.786  0.00  0.00     0.109 C 
ATOM     16  O   LIG d   1       1.417  79.007 116.818  0.00  0.00    -0.276 OA
ATOM     17  H   LIG d   1      -1.403  80.433 116.805  0.00  0.00     0.149 HD
ENDBRANCH   6  13
BRANCH   5  18
ATOM     18  N   LIG d   1      -0.797  79.418 113.575  0.00  0.00     0.381 N 
ATOM     19  H   LIG d   1      -1.186  79.522 112.660  0.00  0.00    -0.090 HD
ATOM     20  H   LIG d   1      -0.029  78.772 113.520  0.00  0.00    -0.090 HD
ATOM     21  H   LIG d   1      -0.475  80.299 113.909  0.00  0.00    -0.090 HD
ENDBRANCH   5  18
BRANCH   3  22
ATOM     22  C   LIG d   1      -4.304  76.195 114.084  0.00  0.00     0.382 C 
ATOM     23  O   LIG d   1      -4.963  76.698 113.143  0.00  0.00    -0.241 OA
ATOM     24  O   LIG d   1      -4.604  75.063 114.507  0.00  0.00    -0.241 OA
ENDBRANCH   3  22
TORSDOF 7
ENDMDL
MODEL 9
REMARK VINA RESULT:      -4.3      2.479      4.562
REMARK  7 active torsions:
REMARK  status: ('A' for Active; 'I' for Inactive)
REMARK    1  A    between atoms: C_2  and  C_3 
REMARK    2  A    between atoms: C_3  and  O_6 
REMARK    3  A    between atoms: C_3  and  C_4 
REMARK    4  A    between atoms: C_7  and  O_6 
REMARK    5  A    between atoms: C_9  and  C_10 
REMARK    6  A    between atoms: N_15  and  C_14 
REMARK    7  A    between atoms: N_20  and  C_19 
REMARK       I    between atoms: C_22  and  N_20 
ROOT
ATOM      1  C   LIG d   1      -1.852  77.126 114.770  0.00  0.00     0.161 C 
ATOM      2  C   LIG d   1      -0.923  78.050 115.276  0.00  0.00     0.016 C 
ATOM      3  C   LIG d   1      -0.296  77.913 116.536  0.00  0.00     0.038 C 
ATOM      4  C   LIG d   1      -0.444  76.756 117.316  0.00  0.00     0.028 C 
ATOM      5  C   LIG d   1      -1.762  76.028 117.076  0.00  0.00    -0.047 C 
ATOM      6  C   LIG d   1      -1.941  75.802 115.558  0.00  0.00     0.091 C 
ENDROOT
BRANCH   1   7
ATOM      7  O   LIG d   1      -1.574  76.864 113.381  0.00  0.00    -0.368 OA
BRANCH   7   8
ATOM      8  C   LIG d   1      -1.544  78.021 112.508  0.00  0.00     0.119 C 
BRANCH   8   9
ATOM      9  C   LIG d   1      -2.972  78.598 112.456  0.00  0.00     0.028 C 
ATOM     10  C   LIG d   1      -3.019  80.083 112.856  0.00  0.00     0.006 C 
ENDBRANCH   8   9
BRANCH   8  11
ATOM     11  C   LIG d   1      -1.215  77.623 111.066  0.00  0.00     0.028 C 
ATOM     12  C   LIG d   1      -0.470  78.727 110.299  0.00  0.00     0.006 C 
ENDBRANCH   8  11
ENDBRANCH   7   8
ENDBRANCH   1   7
BRANCH   6  13
ATOM     13  N   LIG d   1      -3.245  75.170 115.229  0.00  0.00    -0.311 N 
ATOM     14  C   LIG d   1      -4.418  75.778 115.397  0.00  0.00     0.210 C 
ATOM     15  C   LIG d   1      -5.642  74.941 115.014  0.00  0.00     0.109 C 
ATOM     16  O   LIG d   1      -4.559  76.944 115.798  0.00  0.00    -0.276 OA
ATOM     17  H   LIG d   1      -3.222  74.236 114.869  0.00  0.00     0.149 HD
ENDBRANCH   6  13
BRANCH   5  18
ATOM     18  N   LIG d   1      -1.724  74.771 117.848  0.00  0.00     0.381 N 
ATOM     19  H   LIG d   1      -0.958  74.207 117.538  0.00  0.00    -0.090 HD
ATOM     20  H   LIG d   1      -2.576  74.264 117.685  0.00  0.00    -0.090 HD
ATOM     21  H   LIG d   1      -1.627  74.971 118.819  0.00  0.00    -0.090 HD
ENDBRANCH   5  18
BRANCH   3  22
ATOM     22  C   LIG d   1       0.457  78.959 117.046  0.00  0.00     0.382 C 
ATOM     23  O   LIG d   1       1.440  78.721 117.789  0.00  0.00    -0.241 OA
ATOM     24  O   LIG d   1       0.140  80.140 116.809  0.00  0.00    -0.241 OA
ENDBRANCH   3  22
TORSDOF 7
ENDMDL
