MODEL 1
REMARK VINA RESULT:      -6.6      0.000      0.000
REMARK  7 active torsions:
REMARK  status: ('A' for Active; 'I' for Inactive)
REMARK    1  A    between atoms: C_2  and  C_3 
REMARK    2  A    between atoms: C_3  and  O_6 
REMARK    3  A    between atoms: C_3  and  C_4 
REMARK    4  A    between atoms: C_7  and  O_6 
REMARK    5  A    between atoms: C_9  and  C_10 
REMARK    6  A    between atoms: N_15  and  C_14 
REMARK    7  A    between atoms: N_20  and  C_19 
REMARK       I    between atoms: C_22  and  N_20 
ROOT
ATOM      1  C   LIG d   1       0.455  82.473 111.036  0.00  0.00     0.161 C 
ATOM      2  C   LIG d   1      -0.656  82.251 111.866  0.00  0.00     0.016 C 
ATOM      3  C   LIG d   1      -1.227  80.975 112.076  0.00  0.00     0.038 C 
ATOM      4  C   LIG d   1      -0.629  79.804 111.586  0.00  0.00     0.028 C 
ATOM      5  C   LIG d   1       0.203  80.031 110.328  0.00  0.00    -0.047 C 
ATOM      6  C   LIG d   1       1.189  81.194 110.582  0.00  0.00     0.091 C 
ENDROOT
BRANCH   1   7
ATOM      7  O   LIG d   1       1.375  83.375 111.682  0.00  0.00    -0.368 OA
BRANCH   7   8
ATOM      8  C   LIG d   1       1.499  84.691 111.090  0.00  0.00     0.119 C 
BRANCH   8   9
ATOM      9  C   LIG d   1       0.562  84.739 109.868  0.00  0.00     0.028 C 
ATOM     10  C   LIG d   1      -0.513  85.831 109.995  0.00  0.00     0.006 C 
ENDBRANCH   8   9
BRANCH   8  11
ATOM     11  C   LIG d   1       2.906  84.921 110.531  0.00  0.00     0.028 C 
ATOM     12  C   LIG d   1       3.651  86.062 111.242  0.00  0.00     0.006 C 
ENDBRANCH   8  11
ENDBRANCH   7   8
ENDBRANCH   1   7
BRANCH   6  13
ATOM     13  N   LIG d   1       1.984  81.536 109.373  0.00  0.00    -0.311 N 
ATOM     14  C   LIG d   1       3.315  81.526 109.344  0.00  0.00     0.210 C 
ATOM     15  C   LIG d   1       3.936  81.931 108.004  0.00  0.00     0.109 C 
ATOM     16  O   LIG d   1       4.041  81.189 110.292  0.00  0.00    -0.276 OA
ATOM     17  H   LIG d   1       1.475  81.792 108.550  0.00  0.00     0.149 HD
ENDBRANCH   6  13
BRANCH   5  18
ATOM     18  N   LIG d   1       0.878  78.759 110.006  0.00  0.00     0.381 N 
ATOM     19  H   LIG d   1       1.595  78.576 110.680  0.00  0.00    -0.090 HD
ATOM     20  H   LIG d   1       1.309  78.840 109.102  0.00  0.00    -0.090 HD
ATOM     21  H   LIG d   1       0.218  78.014 110.002  0.00  0.00    -0.090 HD
ENDBRANCH   5  18
BRANCH   3  22
ATOM     22  C   LIG d   1      -2.434  80.865 112.751  0.00  0.00     0.382 C 
ATOM     23  O   LIG d   1      -2.958  79.737 112.919  0.00  0.00    -0.241 OA
ATOM     24  O   LIG d   1      -3.026  81.883 113.156  0.00  0.00    -0.241 OA
ENDBRANCH   3  22
TORSDOF 7
ENDMDL
MODEL 2
REMARK VINA RESULT:      -6.4      2.575      4.531
REMARK  7 active torsions:
REMARK  status: ('A' for Active; 'I' for Inactive)
REMARK    1  A    between atoms: C_2  and  C_3 
REMARK    2  A    between atoms: C_3  and  O_6 
REMARK    3  A    between atoms: C_3  and  C_4 
REMARK    4  A    between atoms: C_7  and  O_6 
REMARK    5  A    between atoms: C_9  and  C_10 
REMARK    6  A    between atoms: N_15  and  C_14 
REMARK    7  A    between atoms: N_20  and  C_19 
REMARK       I    between atoms: C_22  and  N_20 
ROOT
ATOM      1  C   LIG d   1       2.195  83.173 111.964  0.00  0.00     0.161 C 
ATOM      2  C   LIG d   1       1.127  82.260 111.942  0.00  0.00     0.016 C 
ATOM      3  C   LIG d   1      -0.231  82.651 111.964  0.00  0.00     0.038 C 
ATOM      4  C   LIG d   1      -0.618  83.996 111.855  0.00  0.00     0.028 C 
ATOM      5  C   LIG d   1       0.429  84.971 112.383  0.00  0.00    -0.047 C 
ATOM      6  C   LIG d   1       1.793  84.644 111.733  0.00  0.00     0.091 C 
ENDROOT
BRANCH   1   7
ATOM      7  O   LIG d   1       3.199  82.772 111.010  0.00  0.00    -0.368 OA
BRANCH   7   8
ATOM      8  C   LIG d   1       2.732  81.992 109.882  0.00  0.00     0.119 C 
BRANCH   8   9
ATOM      9  C   LIG d   1       3.687  80.794 109.720  0.00  0.00     0.028 C 
ATOM     10  C   LIG d   1       5.160  81.227 109.622  0.00  0.00     0.006 C 
ENDBRANCH   8   9
BRANCH   8  11
ATOM     11  C   LIG d   1       2.844  82.781 108.574  0.00  0.00     0.028 C 
ATOM     12  C   LIG d   1       1.529  83.469 108.178  0.00  0.00     0.006 C 
ENDBRANCH   8  11
ENDBRANCH   7   8
ENDBRANCH   1   7
BRANCH   6  13
ATOM     13  N   LIG d   1       2.890  85.498 112.257  0.00  0.00    -0.311 N 
ATOM     14  C   LIG d   1       3.213  86.680 111.735  0.00  0.00     0.210 C 
ATOM     15  C   LIG d   1       4.389  87.388 112.415  0.00  0.00     0.109 C 
ATOM     16  O   LIG d   1       2.617  87.224 110.793  0.00  0.00    -0.276 OA
ATOM     17  H   LIG d   1       3.406  85.148 113.040  0.00  0.00     0.149 HD
ENDBRANCH   6  13
BRANCH   5  18
ATOM     18  N   LIG d   1      -0.043  86.336 112.082  0.00  0.00     0.381 N 
ATOM     19  H   LIG d   1      -0.027  86.490 111.094  0.00  0.00    -0.090 HD
ATOM     20  H   LIG d   1       0.579  86.997 112.514  0.00  0.00    -0.090 HD
ATOM     21  H   LIG d   1      -0.967  86.462 112.431  0.00  0.00    -0.090 HD
ENDBRANCH   5  18
BRANCH   3  22
ATOM     22  C   LIG d   1      -1.219  81.694 112.136  0.00  0.00     0.382 C 
ATOM     23  O   LIG d   1      -1.034  80.522 111.729  0.00  0.00    -0.241 OA
ATOM     24  O   LIG d   1      -2.311  81.998 112.654  0.00  0.00    -0.241 OA
ENDBRANCH   3  22
TORSDOF 7
ENDMDL
MODEL 3
REMARK VINA RESULT:      -6.3      2.485      5.070
REMARK  7 active torsions:
REMARK  status: ('A' for Active; 'I' for Inactive)
REMARK    1  A    between atoms: C_2  and  C_3 
REMARK    2  A    between atoms: C_3  and  O_6 
REMARK    3  A    between atoms: C_3  and  C_4 
REMARK    4  A    between atoms: C_7  and  O_6 
REMARK    5  A    between atoms: C_9  and  C_10 
REMARK    6  A    between atoms: N_15  and  C_14 
REMARK    7  A    between atoms: N_20  and  C_19 
REMARK       I    between atoms: C_22  and  N_20 
ROOT
ATOM      1  C   LIG d   1       2.088  83.993 109.477  0.00  0.00     0.161 C 
ATOM      2  C   LIG d   1       2.267  85.279 110.014  0.00  0.00     0.016 C 
ATOM      3  C   LIG d   1       1.409  85.842 110.987  0.00  0.00     0.038 C 
ATOM      4  C   LIG d   1       0.395  85.094 111.604  0.00  0.00     0.028 C 
ATOM      5  C   LIG d   1      -0.138  83.962 110.732  0.00  0.00    -0.047 C 
ATOM      6  C   LIG d   1       1.053  83.121 110.218  0.00  0.00     0.091 C 
ENDROOT
BRANCH   1   7
ATOM      7  O   LIG d   1       3.356  83.313 109.404  0.00  0.00    -0.368 OA
BRANCH   7   8
ATOM      8  C   LIG d   1       3.609  82.323 110.432  0.00  0.00     0.119 C 
BRANCH   8   9
ATOM      9  C   LIG d   1       4.729  82.871 111.337  0.00  0.00     0.028 C 
ATOM     10  C   LIG d   1       4.233  83.190 112.757  0.00  0.00     0.006 C 
ENDBRANCH   8   9
BRANCH   8  11
ATOM     11  C   LIG d   1       4.167  81.029 109.833  0.00  0.00     0.028 C 
ATOM     12  C   LIG d   1       5.637  81.156 109.405  0.00  0.00     0.006 C 
ENDBRANCH   8  11
ENDBRANCH   7   8
ENDBRANCH   1   7
BRANCH   6  13
ATOM     13  N   LIG d   1       0.626  82.042 109.289  0.00  0.00    -0.311 N 
ATOM     14  C   LIG d   1       0.429  80.782 109.671  0.00  0.00     0.210 C 
ATOM     15  C   LIG d   1       0.010  79.825 108.550  0.00  0.00     0.109 C 
ATOM     16  O   LIG d   1       0.529  80.372 110.837  0.00  0.00    -0.276 OA
ATOM     17  H   LIG d   1       0.491  82.294 108.329  0.00  0.00     0.149 HD
ENDBRANCH   6  13
BRANCH   5  18
ATOM     18  N   LIG d   1      -1.088  83.181 111.547  0.00  0.00     0.381 N 
ATOM     19  H   LIG d   1      -1.185  83.602 112.450  0.00  0.00    -0.090 HD
ATOM     20  H   LIG d   1      -0.725  82.253 111.669  0.00  0.00    -0.090 HD
ATOM     21  H   LIG d   1      -1.974  83.142 111.094  0.00  0.00    -0.090 HD
ENDBRANCH   5  18
BRANCH   3  22
ATOM     22  C   LIG d   1       1.537  87.181 111.324  0.00  0.00     0.382 C 
ATOM     23  O   LIG d   1       2.647  87.754 111.205  0.00  0.00    -0.241 OA
ATOM     24  O   LIG d   1       0.568  87.812 111.786  0.00  0.00    -0.241 OA
ENDBRANCH   3  22
TORSDOF 7
ENDMDL
MODEL 4
REMARK VINA RESULT:      -6.2      3.544      6.053
REMARK  7 active torsions:
REMARK  status: ('A' for Active; 'I' for Inactive)
REMARK    1  A    between atoms: C_2  and  C_3 
REMARK    2  A    between atoms: C_3  and  O_6 
REMARK    3  A    between atoms: C_3  and  C_4 
REMARK    4  A    between atoms: C_7  and  O_6 
REMARK    5  A    between atoms: C_9  and  C_10 
REMARK    6  A    between atoms: N_15  and  C_14 
REMARK    7  A    between atoms: N_20  and  C_19 
REMARK       I    between atoms: C_22  and  N_20 
ROOT
ATOM      1  C   LIG d   1       3.864  85.602 111.357  0.00  0.00     0.161 C 
ATOM      2  C   LIG d   1       3.737  86.837 112.015  0.00  0.00     0.016 C 
ATOM      3  C   LIG d   1       2.600  87.669 111.893  0.00  0.00     0.038 C 
ATOM      4  C   LIG d   1       1.443  87.250 111.221  0.00  0.00     0.028 C 
ATOM      5  C   LIG d   1       1.717  86.229 110.123  0.00  0.00    -0.047 C 
ATOM      6  C   LIG d   1       2.566  85.078 110.708  0.00  0.00     0.091 C 
ENDROOT
BRANCH   1   7
ATOM      7  O   LIG d   1       4.404  84.620 112.263  0.00  0.00    -0.368 OA
BRANCH   7   8
ATOM      8  C   LIG d   1       3.442  83.748 112.905  0.00  0.00     0.119 C 
BRANCH   8   9
ATOM      9  C   LIG d   1       3.318  84.196 114.374  0.00  0.00     0.028 C 
ATOM     10  C   LIG d   1       1.881  84.596 114.747  0.00  0.00     0.006 C 
ENDBRANCH   8   9
BRANCH   8  11
ATOM     11  C   LIG d   1       3.949  82.304 112.962  0.00  0.00     0.028 C 
ATOM     12  C   LIG d   1       4.993  81.995 111.876  0.00  0.00     0.006 C 
ENDBRANCH   8  11
ENDBRANCH   7   8
ENDBRANCH   1   7
BRANCH   6  13
ATOM     13  N   LIG d   1       2.950  84.076 109.680  0.00  0.00    -0.311 N 
ATOM     14  C   LIG d   1       2.279  82.945 109.471  0.00  0.00     0.210 C 
ATOM     15  C   LIG d   1       2.856  82.043 108.376  0.00  0.00     0.109 C 
ATOM     16  O   LIG d   1       1.242  82.618 110.067  0.00  0.00    -0.276 OA
ATOM     17  H   LIG d   1       3.762  84.276 109.129  0.00  0.00     0.149 HD
ENDBRANCH   6  13
BRANCH   5  18
ATOM     18  N   LIG d   1       0.414  85.777 109.599  0.00  0.00     0.381 N 
ATOM     19  H   LIG d   1       0.377  84.777 109.598  0.00  0.00    -0.090 HD
ATOM     20  H   LIG d   1       0.315  86.097 108.652  0.00  0.00    -0.090 HD
ATOM     21  H   LIG d   1      -0.324  86.142 110.160  0.00  0.00    -0.090 HD
ENDBRANCH   5  18
BRANCH   3  22
ATOM     22  C   LIG d   1       2.630  88.954 112.415  0.00  0.00     0.382 C 
ATOM     23  O   LIG d   1       1.570  89.619 112.506  0.00  0.00    -0.241 OA
ATOM     24  O   LIG d   1       3.711  89.472 112.756  0.00  0.00    -0.241 OA
ENDBRANCH   3  22
TORSDOF 7
ENDMDL
MODEL 5
REMARK VINA RESULT:      -6.1      3.361      6.138
REMARK  7 active torsions:
REMARK  status: ('A' for Active; 'I' for Inactive)
REMARK    1  A    between atoms: C_2  and  C_3 
REMARK    2  A    between atoms: C_3  and  O_6 
REMARK    3  A    between atoms: C_3  and  C_4 
REMARK    4  A    between atoms: C_7  and  O_6 
REMARK    5  A    between atoms: C_9  and  C_10 
REMARK    6  A    between atoms: N_15  and  C_14 
REMARK    7  A    between atoms: N_20  and  C_19 
REMARK       I    between atoms: C_22  and  N_20 
ROOT
ATOM      1  C   LIG d   1       2.773  85.019 112.033  0.00  0.00     0.161 C 
ATOM      2  C   LIG d   1       2.973  86.332 112.492  0.00  0.00     0.016 C 
ATOM      3  C   LIG d   1       2.214  87.437 112.043  0.00  0.00     0.038 C 
ATOM      4  C   LIG d   1       1.094  87.279 111.213  0.00  0.00     0.028 C 
ATOM      5  C   LIG d   1       1.167  86.039 110.328  0.00  0.00    -0.047 C 
ATOM      6  C   LIG d   1       1.484  84.811 111.210  0.00  0.00     0.091 C 
ENDROOT
BRANCH   1   7
ATOM      7  O   LIG d   1       2.812  84.102 113.144  0.00  0.00    -0.368 OA
BRANCH   7   8
ATOM      8  C   LIG d   1       4.104  83.517 113.443  0.00  0.00     0.119 C 
BRANCH   8   9
ATOM      9  C   LIG d   1       4.194  82.181 112.681  0.00  0.00     0.028 C 
ATOM     10  C   LIG d   1       5.104  82.271 111.444  0.00  0.00     0.006 C 
ENDBRANCH   8   9
BRANCH   8  11
ATOM     11  C   LIG d   1       4.219  83.147 114.925  0.00  0.00     0.028 C 
ATOM     12  C   LIG d   1       4.879  84.252 115.765  0.00  0.00     0.006 C 
ENDBRANCH   8  11
ENDBRANCH   7   8
ENDBRANCH   1   7
BRANCH   6  13
ATOM     13  N   LIG d   1       1.656  83.569 110.412  0.00  0.00    -0.311 N 
ATOM     14  C   LIG d   1       0.673  82.699 110.190  0.00  0.00     0.210 C 
ATOM     15  C   LIG d   1       1.068  81.474 109.358  0.00  0.00     0.109 C 
ATOM     16  O   LIG d   1      -0.498  82.840 110.574  0.00  0.00    -0.276 OA
ATOM     17  H   LIG d   1       2.567  83.390 110.036  0.00  0.00     0.149 HD
ENDBRANCH   6  13
BRANCH   5  18
ATOM     18  N   LIG d   1      -0.120  85.923 109.617  0.00  0.00     0.381 N 
ATOM     19  H   LIG d   1      -0.184  86.632 108.913  0.00  0.00    -0.090 HD
ATOM     20  H   LIG d   1      -0.868  86.063 110.273  0.00  0.00    -0.090 HD
ATOM     21  H   LIG d   1      -0.199  85.022 109.199  0.00  0.00    -0.090 HD
ENDBRANCH   5  18
BRANCH   3  22
ATOM     22  C   LIG d   1       2.596  88.722 112.396  0.00  0.00     0.382 C 
ATOM     23  O   LIG d   1       1.754  89.652 112.388  0.00  0.00    -0.241 OA
ATOM     24  O   LIG d   1       3.783  88.972 112.679  0.00  0.00    -0.241 OA
ENDBRANCH   3  22
TORSDOF 7
ENDMDL
MODEL 6
REMARK VINA RESULT:      -6.0      2.945      4.096
REMARK  7 active torsions:
REMARK  status: ('A' for Active; 'I' for Inactive)
REMARK    1  A    between atoms: C_2  and  C_3 
REMARK    2  A    between atoms: C_3  and  O_6 
REMARK    3  A    between atoms: C_3  and  C_4 
REMARK    4  A    between atoms: C_7  and  O_6 
REMARK    5  A    between atoms: C_9  and  C_10 
REMARK    6  A    between atoms: N_15  and  C_14 
REMARK    7  A    between atoms: N_20  and  C_19 
REMARK       I    between atoms: C_22  and  N_20 
ROOT
ATOM      1  C   LIG d   1       2.422  85.216 110.606  0.00  0.00     0.161 C 
ATOM      2  C   LIG d   1       1.331  85.847 111.227  0.00  0.00     0.016 C 
ATOM      3  C   LIG d   1       0.018  85.322 111.214  0.00  0.00     0.038 C 
ATOM      4  C   LIG d   1      -0.264  84.045 110.706  0.00  0.00     0.028 C 
ATOM      5  C   LIG d   1       0.710  83.595 109.622  0.00  0.00    -0.047 C 
ATOM      6  C   LIG d   1       2.155  83.769 110.143  0.00  0.00     0.091 C 
ENDROOT
BRANCH   1   7
ATOM      7  O   LIG d   1       3.571  85.260 111.476  0.00  0.00    -0.368 OA
BRANCH   7   8
ATOM      8  C   LIG d   1       3.313  85.033 112.883  0.00  0.00     0.119 C 
BRANCH   8   9
ATOM      9  C   LIG d   1       4.000  86.167 113.668  0.00  0.00     0.028 C 
ATOM     10  C   LIG d   1       4.243  85.798 115.141  0.00  0.00     0.006 C 
ENDBRANCH   8   9
BRANCH   8  11
ATOM     11  C   LIG d   1       3.979  83.742 113.370  0.00  0.00     0.028 C 
ATOM     12  C   LIG d   1       2.981  82.587 113.548  0.00  0.00     0.006 C 
ENDBRANCH   8  11
ENDBRANCH   7   8
ENDBRANCH   1   7
BRANCH   6  13
ATOM     13  N   LIG d   1       3.172  83.431 109.114  0.00  0.00    -0.311 N 
ATOM     14  C   LIG d   1       4.097  82.487 109.280  0.00  0.00     0.210 C 
ATOM     15  C   LIG d   1       5.062  82.313 108.103  0.00  0.00     0.109 C 
ATOM     16  O   LIG d   1       4.190  81.756 110.277  0.00  0.00    -0.276 OA
ATOM     17  H   LIG d   1       3.150  83.955 108.261  0.00  0.00     0.149 HD
ENDBRANCH   6  13
BRANCH   5  18
ATOM     18  N   LIG d   1       0.382  82.198 109.281  0.00  0.00     0.381 N 
ATOM     19  H   LIG d   1       1.225  81.677 109.142  0.00  0.00    -0.090 HD
ATOM     20  H   LIG d   1      -0.141  82.187 108.423  0.00  0.00    -0.090 HD
ATOM     21  H   LIG d   1      -0.155  81.785 110.012  0.00  0.00    -0.090 HD
ENDBRANCH   5  18
BRANCH   3  22
ATOM     22  C   LIG d   1      -1.035  86.094 111.679  0.00  0.00     0.382 C 
ATOM     23  O   LIG d   1      -1.448  85.949 112.855  0.00  0.00    -0.241 OA
ATOM     24  O   LIG d   1      -1.608  86.902 110.924  0.00  0.00    -0.241 OA
ENDBRANCH   3  22
TORSDOF 7
ENDMDL
MODEL 7
REMARK VINA RESULT:      -6.0      3.304      6.200
REMARK  7 active torsions:
REMARK  status: ('A' for Active; 'I' for Inactive)
REMARK    1  A    between atoms: C_2  and  C_3 
REMARK    2  A    between atoms: C_3  and  O_6 
REMARK    3  A    between atoms: C_3  and  C_4 
REMARK    4  A    between atoms: C_7  and  O_6 
REMARK    5  A    between atoms: C_9  and  C_10 
REMARK    6  A    between atoms: N_15  and  C_14 
REMARK    7  A    between atoms: N_20  and  C_19 
REMARK       I    between atoms: C_22  and  N_20 
ROOT
ATOM      1  C   LIG d   1       3.780  85.091 111.660  0.00  0.00     0.161 C 
ATOM      2  C   LIG d   1       3.790  86.373 112.236  0.00  0.00     0.016 C 
ATOM      3  C   LIG d   1       2.842  87.374 111.924  0.00  0.00     0.038 C 
ATOM      4  C   LIG d   1       1.722  87.109 111.122  0.00  0.00     0.028 C 
ATOM      5  C   LIG d   1       1.947  85.982 110.119  0.00  0.00    -0.047 C 
ATOM      6  C   LIG d   1       2.502  84.748 110.868  0.00  0.00     0.091 C 
ENDROOT
BRANCH   1   7
ATOM      7  O   LIG d   1       4.022  84.097 112.676  0.00  0.00    -0.368 OA
BRANCH   7   8
ATOM      8  C   LIG d   1       3.538  84.413 114.005  0.00  0.00     0.119 C 
BRANCH   8   9
ATOM      9  C   LIG d   1       4.473  83.720 115.015  0.00  0.00     0.028 C 
ATOM     10  C   LIG d   1       4.933  84.668 116.135  0.00  0.00     0.006 C 
ENDBRANCH   8   9
BRANCH   8  11
ATOM     11  C   LIG d   1       2.153  83.807 114.251  0.00  0.00     0.028 C 
ATOM     12  C   LIG d   1       1.047  84.869 114.351  0.00  0.00     0.006 C 
ENDBRANCH   8  11
ENDBRANCH   7   8
ENDBRANCH   1   7
BRANCH   6  13
ATOM     13  N   LIG d   1       2.830  83.628 109.948  0.00  0.00    -0.311 N 
ATOM     14  C   LIG d   1       2.456  82.368 110.165  0.00  0.00     0.210 C 
ATOM     15  C   LIG d   1       2.915  81.365 109.103  0.00  0.00     0.109 C 
ATOM     16  O   LIG d   1       1.759  81.992 111.120  0.00  0.00    -0.276 OA
ATOM     17  H   LIG d   1       3.365  83.849 109.132  0.00  0.00     0.149 HD
ENDBRANCH   6  13
BRANCH   5  18
ATOM     18  N   LIG d   1       0.661  85.720 109.447  0.00  0.00     0.381 N 
ATOM     19  H   LIG d   1       0.698  84.838 108.976  0.00  0.00    -0.090 HD
ATOM     20  H   LIG d   1       0.501  86.437 108.760  0.00  0.00    -0.090 HD
ATOM     21  H   LIG d   1      -0.079  85.718 110.114  0.00  0.00    -0.090 HD
ENDBRANCH   5  18
BRANCH   3  22
ATOM     22  C   LIG d   1       3.031  88.668 112.384  0.00  0.00     0.382 C 
ATOM     23  O   LIG d   1       4.185  89.070 112.668  0.00  0.00    -0.241 OA
ATOM     24  O   LIG d   1       2.057  89.424 112.563  0.00  0.00    -0.241 OA
ENDBRANCH   3  22
TORSDOF 7
ENDMDL
MODEL 8
REMARK VINA RESULT:      -6.0      2.670      6.109
REMARK  7 active torsions:
REMARK  status: ('A' for Active; 'I' for Inactive)
REMARK    1  A    between atoms: C_2  and  C_3 
REMARK    2  A    between atoms: C_3  and  O_6 
REMARK    3  A    between atoms: C_3  and  C_4 
REMARK    4  A    between atoms: C_7  and  O_6 
REMARK    5  A    between atoms: C_9  and  C_10 
REMARK    6  A    between atoms: N_15  and  C_14 
REMARK    7  A    between atoms: N_20  and  C_19 
REMARK       I    between atoms: C_22  and  N_20 
ROOT
ATOM      1  C   LIG d   1       1.282  83.111 109.407  0.00  0.00     0.161 C 
ATOM      2  C   LIG d   1       2.427  82.387 109.036  0.00  0.00     0.016 C 
ATOM      3  C   LIG d   1       3.741  82.776 109.385  0.00  0.00     0.038 C 
ATOM      4  C   LIG d   1       3.990  83.842 110.263  0.00  0.00     0.028 C 
ATOM      5  C   LIG d   1       2.895  84.903 110.254  0.00  0.00    -0.047 C 
ATOM      6  C   LIG d   1       1.527  84.214 110.459  0.00  0.00     0.091 C 
ENDROOT
BRANCH   1   7
ATOM      7  O   LIG d   1       0.257  82.205 109.861  0.00  0.00    -0.368 OA
BRANCH   7   8
ATOM      8  C   LIG d   1       0.718  80.975 110.473  0.00  0.00     0.119 C 
BRANCH   8   9
ATOM      9  C   LIG d   1       0.065  79.806 109.712  0.00  0.00     0.028 C 
ATOM     10  C   LIG d   1      -0.774  78.902 110.632  0.00  0.00     0.006 C 
ENDBRANCH   8   9
BRANCH   8  11
ATOM     11  C   LIG d   1       0.220  80.849 111.916  0.00  0.00     0.028 C 
ATOM     12  C   LIG d   1       1.140  81.550 112.927  0.00  0.00     0.006 C 
ENDBRANCH   8  11
ENDBRANCH   7   8
ENDBRANCH   1   7
BRANCH   6  13
ATOM     13  N   LIG d   1       0.392  85.171 110.379  0.00  0.00    -0.311 N 
ATOM     14  C   LIG d   1      -0.110  85.802 111.439  0.00  0.00     0.210 C 
ATOM     15  C   LIG d   1      -1.291  86.730 111.139  0.00  0.00     0.109 C 
ATOM     16  O   LIG d   1       0.331  85.706 112.594  0.00  0.00    -0.276 OA
ATOM     17  H   LIG d   1      -0.006  85.331 109.475  0.00  0.00     0.149 HD
ENDBRANCH   6  13
BRANCH   5  18
ATOM     18  N   LIG d   1       3.214  85.881 111.311  0.00  0.00     0.381 N 
ATOM     19  H   LIG d   1       2.681  85.677 112.133  0.00  0.00    -0.090 HD
ATOM     20  H   LIG d   1       2.960  86.799 110.991  0.00  0.00    -0.090 HD
ATOM     21  H   LIG d   1       4.187  85.851 111.521  0.00  0.00    -0.090 HD
ENDBRANCH   5  18
BRANCH   3  22
ATOM     22  C   LIG d   1       4.824  82.121 108.820  0.00  0.00     0.382 C 
ATOM     23  O   LIG d   1       5.437  81.243 109.475  0.00  0.00    -0.241 OA
ATOM     24  O   LIG d   1       5.225  82.427 107.681  0.00  0.00    -0.241 OA
ENDBRANCH   3  22
TORSDOF 7
ENDMDL
MODEL 9
REMARK VINA RESULT:      -5.8      3.397      5.119
REMARK  7 active torsions:
REMARK  status: ('A' for Active; 'I' for Inactive)
REMARK    1  A    between atoms: C_2  and  C_3 
REMARK    2  A    between atoms: C_3  and  O_6 
REMARK    3  A    between atoms: C_3  and  C_4 
REMARK    4  A    between atoms: C_7  and  O_6 
REMARK    5  A    between atoms: C_9  and  C_10 
REMARK    6  A    between atoms: N_15  and  C_14 
REMARK    7  A    between atoms: N_20  and  C_19 
REMARK       I    between atoms: C_22  and  N_20 
ROOT
ATOM      1  C   LIG d   1       2.749  84.096 110.789  0.00  0.00     0.161 C 
ATOM      2  C   LIG d   1       3.457  82.891 110.650  0.00  0.00     0.016 C 
ATOM      3  C   LIG d   1       3.421  82.098 109.480  0.00  0.00     0.038 C 
ATOM      4  C   LIG d   1       2.791  82.536 108.306  0.00  0.00     0.028 C 
ATOM      5  C   LIG d   1       1.644  83.509 108.561  0.00  0.00    -0.047 C 
ATOM      6  C   LIG d   1       2.146  84.646 109.480  0.00  0.00     0.091 C 
ENDROOT
BRANCH   1   7
ATOM      7  O   LIG d   1       3.591  85.089 111.408  0.00  0.00    -0.368 OA
BRANCH   7   8
ATOM      8  C   LIG d   1       3.568  85.130 112.856  0.00  0.00     0.119 C 
BRANCH   8   9
ATOM      9  C   LIG d   1       2.136  84.782 113.307  0.00  0.00     0.028 C 
ATOM     10  C   LIG d   1       1.353  86.019 113.780  0.00  0.00     0.006 C 
ENDBRANCH   8   9
BRANCH   8  11
ATOM     11  C   LIG d   1       3.824  86.548 113.377  0.00  0.00     0.028 C 
ATOM     12  C   LIG d   1       4.496  87.454 112.334  0.00  0.00     0.006 C 
ENDBRANCH   8  11
ENDBRANCH   7   8
ENDBRANCH   1   7
BRANCH   6  13
ATOM     13  N   LIG d   1       1.063  85.596 109.847  0.00  0.00    -0.311 N 
ATOM     14  C   LIG d   1      -0.095  85.216 110.383  0.00  0.00     0.210 C 
ATOM     15  C   LIG d   1      -1.081  86.354 110.667  0.00  0.00     0.109 C 
ATOM     16  O   LIG d   1      -0.388  84.048 110.678  0.00  0.00    -0.276 OA
ATOM     17  H   LIG d   1       1.230  86.568 109.670  0.00  0.00     0.149 HD
ENDBRANCH   6  13
BRANCH   5  18
ATOM     18  N   LIG d   1       1.169  83.991 107.251  0.00  0.00     0.381 N 
ATOM     19  H   LIG d   1       0.241  84.353 107.339  0.00  0.00    -0.090 HD
ATOM     20  H   LIG d   1       1.146  83.218 106.609  0.00  0.00    -0.090 HD
ATOM     21  H   LIG d   1       1.779  84.699 106.906  0.00  0.00    -0.090 HD
ENDBRANCH   5  18
BRANCH   3  22
ATOM     22  C   LIG d   1       3.988  80.832 109.490  0.00  0.00     0.382 C 
ATOM     23  O   LIG d   1       3.255  79.817 109.417  0.00  0.00    -0.241 OA
ATOM     24  O   LIG d   1       5.219  80.692 109.616  0.00  0.00    -0.241 OA
ENDBRANCH   3  22
TORSDOF 7
ENDMDL
