MODEL 1
REMARK VINA RESULT:      -6.5      0.000      0.000
REMARK  7 active torsions:
REMARK  status: ('A' for Active; 'I' for Inactive)
REMARK    1  A    between atoms: C_2  and  C_3 
REMARK    2  A    between atoms: C_3  and  O_6 
REMARK    3  A    between atoms: C_3  and  C_4 
REMARK    4  A    between atoms: C_7  and  O_6 
REMARK    5  A    between atoms: C_9  and  C_10 
REMARK    6  A    between atoms: N_15  and  C_14 
REMARK    7  A    between atoms: N_20  and  C_19 
REMARK       I    between atoms: C_22  and  N_20 
ROOT
ATOM      1  C   LIG d   1       1.372  81.535 111.880  0.00  0.00     0.161 C 
ATOM      2  C   LIG d   1       2.395  82.119 111.114  0.00  0.00     0.016 C 
ATOM      3  C   LIG d   1       2.519  81.940 109.717  0.00  0.00     0.038 C 
ATOM      4  C   LIG d   1       1.535  81.284 108.963  0.00  0.00     0.028 C 
ATOM      5  C   LIG d   1       0.750  80.248 109.761  0.00  0.00    -0.047 C 
ATOM      6  C   LIG d   1       0.227  80.907 111.058  0.00  0.00     0.091 C 
ENDROOT
BRANCH   1   7
ATOM      7  O   LIG d   1       0.849  82.500 112.813  0.00  0.00    -0.368 OA
BRANCH   7   8
ATOM      8  C   LIG d   1       1.132  83.890 112.518  0.00  0.00     0.119 C 
BRANCH   8   9
ATOM      9  C   LIG d   1       1.515  84.576 113.844  0.00  0.00     0.028 C 
ATOM     10  C   LIG d   1       1.060  86.044 113.899  0.00  0.00     0.006 C 
ENDBRANCH   8   9
BRANCH   8  11
ATOM     11  C   LIG d   1      -0.122  84.623 112.031  0.00  0.00     0.028 C 
ATOM     12  C   LIG d   1      -0.167  84.773 110.502  0.00  0.00     0.006 C 
ENDBRANCH   8  11
ENDBRANCH   7   8
ENDBRANCH   1   7
BRANCH   6  13
ATOM     13  N   LIG d   1      -0.481  79.941 111.939  0.00  0.00    -0.311 N 
ATOM     14  C   LIG d   1      -1.725  80.123 112.376  0.00  0.00     0.210 C 
ATOM     15  C   LIG d   1      -2.259  79.015 113.289  0.00  0.00     0.109 C 
ATOM     16  O   LIG d   1      -2.450  81.081 112.068  0.00  0.00    -0.276 OA
ATOM     17  H   LIG d   1       0.023  79.119 112.212  0.00  0.00     0.149 HD
ENDBRANCH   6  13
BRANCH   5  18
ATOM     18  N   LIG d   1      -0.329  79.741 108.894  0.00  0.00     0.381 N 
ATOM     19  H   LIG d   1      -0.050  79.802 107.935  0.00  0.00    -0.090 HD
ATOM     20  H   LIG d   1      -1.145  80.314 109.022  0.00  0.00    -0.090 HD
ATOM     21  H   LIG d   1      -0.539  78.796 109.127  0.00  0.00    -0.090 HD
ENDBRANCH   5  18
BRANCH   3  22
ATOM     22  C   LIG d   1       3.659  82.388 109.066  0.00  0.00     0.382 C 
ATOM     23  O   LIG d   1       4.579  82.936 109.718  0.00  0.00    -0.241 OA
ATOM     24  O   LIG d   1       3.759  82.290 107.828  0.00  0.00    -0.241 OA
ENDBRANCH   3  22
TORSDOF 7
ENDMDL
MODEL 2
REMARK VINA RESULT:      -6.4      2.560      4.819
REMARK  7 active torsions:
REMARK  status: ('A' for Active; 'I' for Inactive)
REMARK    1  A    between atoms: C_2  and  C_3 
REMARK    2  A    between atoms: C_3  and  O_6 
REMARK    3  A    between atoms: C_3  and  C_4 
REMARK    4  A    between atoms: C_7  and  O_6 
REMARK    5  A    between atoms: C_9  and  C_10 
REMARK    6  A    between atoms: N_15  and  C_14 
REMARK    7  A    between atoms: N_20  and  C_19 
REMARK       I    between atoms: C_22  and  N_20 
ROOT
ATOM      1  C   LIG d   1       1.072  84.020 109.365  0.00  0.00     0.161 C 
ATOM      2  C   LIG d   1       0.793  85.315 109.835  0.00  0.00     0.016 C 
ATOM      3  C   LIG d   1       0.037  85.573 111.002  0.00  0.00     0.038 C 
ATOM      4  C   LIG d   1      -0.368  84.544 111.866  0.00  0.00     0.028 C 
ATOM      5  C   LIG d   1      -0.544  83.200 111.167  0.00  0.00    -0.047 C 
ATOM      6  C   LIG d   1       0.734  82.886 110.355  0.00  0.00     0.091 C 
ENDROOT
BRANCH   1   7
ATOM      7  O   LIG d   1       2.452  83.935 108.958  0.00  0.00    -0.368 OA
BRANCH   7   8
ATOM      8  C   LIG d   1       3.399  83.564 109.989  0.00  0.00     0.119 C 
BRANCH   8   9
ATOM      9  C   LIG d   1       4.061  84.860 110.497  0.00  0.00     0.028 C 
ATOM     10  C   LIG d   1       3.800  85.106 111.992  0.00  0.00     0.006 C 
ENDBRANCH   8   9
BRANCH   8  11
ATOM     11  C   LIG d   1       4.543  82.721 109.419  0.00  0.00     0.028 C 
ATOM     12  C   LIG d   1       4.123  81.903 108.187  0.00  0.00     0.006 C 
ENDBRANCH   8  11
ENDBRANCH   7   8
ENDBRANCH   1   7
BRANCH   6  13
ATOM     13  N   LIG d   1       0.613  81.628 109.573  0.00  0.00    -0.311 N 
ATOM     14  C   LIG d   1       1.357  80.547 109.803  0.00  0.00     0.210 C 
ATOM     15  C   LIG d   1       1.085  79.365 108.868  0.00  0.00     0.109 C 
ATOM     16  O   LIG d   1       2.193  80.445 110.713  0.00  0.00    -0.276 OA
ATOM     17  H   LIG d   1      -0.064  81.613 108.835  0.00  0.00     0.149 HD
ENDBRANCH   6  13
BRANCH   5  18
ATOM     18  N   LIG d   1      -0.831  82.192 112.205  0.00  0.00     0.381 N 
ATOM     19  H   LIG d   1      -1.725  81.776 112.035  0.00  0.00    -0.090 HD
ATOM     20  H   LIG d   1      -0.861  82.648 113.101  0.00  0.00    -0.090 HD
ATOM     21  H   LIG d   1      -0.124  81.491 112.204  0.00  0.00    -0.090 HD
ENDBRANCH   5  18
BRANCH   3  22
ATOM     22  C   LIG d   1      -0.357  86.870 111.292  0.00  0.00     0.382 C 
ATOM     23  O   LIG d   1      -1.570  87.184 111.238  0.00  0.00    -0.241 OA
ATOM     24  O   LIG d   1       0.491  87.741 111.565  0.00  0.00    -0.241 OA
ENDBRANCH   3  22
TORSDOF 7
ENDMDL
MODEL 3
REMARK VINA RESULT:      -6.3      1.648      4.996
REMARK  7 active torsions:
REMARK  status: ('A' for Active; 'I' for Inactive)
REMARK    1  A    between atoms: C_2  and  C_3 
REMARK    2  A    between atoms: C_3  and  O_6 
REMARK    3  A    between atoms: C_3  and  C_4 
REMARK    4  A    between atoms: C_7  and  O_6 
REMARK    5  A    between atoms: C_9  and  C_10 
REMARK    6  A    between atoms: N_15  and  C_14 
REMARK    7  A    between atoms: N_20  and  C_19 
REMARK       I    between atoms: C_22  and  N_20 
ROOT
ATOM      1  C   LIG d   1       0.160  82.572 111.228  0.00  0.00     0.161 C 
ATOM      2  C   LIG d   1      -0.958  82.204 111.995  0.00  0.00     0.016 C 
ATOM      3  C   LIG d   1      -1.501  80.899 112.004  0.00  0.00     0.038 C 
ATOM      4  C   LIG d   1      -0.867  79.828 111.357  0.00  0.00     0.028 C 
ATOM      5  C   LIG d   1      -0.022  80.256 110.162  0.00  0.00    -0.047 C 
ATOM      6  C   LIG d   1       0.931  81.391 110.603  0.00  0.00     0.091 C 
ENDROOT
BRANCH   1   7
ATOM      7  O   LIG d   1       1.047  83.388 112.018  0.00  0.00    -0.368 OA
BRANCH   7   8
ATOM      8  C   LIG d   1       1.149  84.780 111.627  0.00  0.00     0.119 C 
BRANCH   8   9
ATOM      9  C   LIG d   1       0.051  85.049 110.581  0.00  0.00     0.028 C 
ATOM     10  C   LIG d   1       0.629  85.439 109.210  0.00  0.00     0.006 C 
ENDBRANCH   8   9
BRANCH   8  11
ATOM     11  C   LIG d   1       2.472  85.061 110.908  0.00  0.00     0.028 C 
ATOM     12  C   LIG d   1       3.700  84.674 111.747  0.00  0.00     0.006 C 
ENDBRANCH   8  11
ENDBRANCH   7   8
ENDBRANCH   1   7
BRANCH   6  13
ATOM     13  N   LIG d   1       1.736  81.926 109.474  0.00  0.00    -0.311 N 
ATOM     14  C   LIG d   1       3.058  81.795 109.388  0.00  0.00     0.210 C 
ATOM     15  C   LIG d   1       3.694  82.439 108.152  0.00  0.00     0.109 C 
ATOM     16  O   LIG d   1       3.762  81.179 110.203  0.00  0.00    -0.276 OA
ATOM     17  H   LIG d   1       1.241  82.414 108.752  0.00  0.00     0.149 HD
ENDBRANCH   6  13
BRANCH   5  18
ATOM     18  N   LIG d   1       0.690  79.063 109.668  0.00  0.00     0.381 N 
ATOM     19  H   LIG d   1       1.585  79.327 109.307  0.00  0.00    -0.090 HD
ATOM     20  H   LIG d   1       0.157  78.652 108.922  0.00  0.00    -0.090 HD
ATOM     21  H   LIG d   1       0.803  78.403 110.406  0.00  0.00    -0.090 HD
ENDBRANCH   5  18
BRANCH   3  22
ATOM     22  C   LIG d   1      -2.715  80.663 112.632  0.00  0.00     0.382 C 
ATOM     23  O   LIG d   1      -3.135  79.488 112.764  0.00  0.00    -0.241 OA
ATOM     24  O   LIG d   1      -3.415  81.613 113.029  0.00  0.00    -0.241 OA
ENDBRANCH   3  22
TORSDOF 7
ENDMDL
MODEL 4
REMARK VINA RESULT:      -6.3      2.979      6.065
REMARK  7 active torsions:
REMARK  status: ('A' for Active; 'I' for Inactive)
REMARK    1  A    between atoms: C_2  and  C_3 
REMARK    2  A    between atoms: C_3  and  O_6 
REMARK    3  A    between atoms: C_3  and  C_4 
REMARK    4  A    between atoms: C_7  and  O_6 
REMARK    5  A    between atoms: C_9  and  C_10 
REMARK    6  A    between atoms: N_15  and  C_14 
REMARK    7  A    between atoms: N_20  and  C_19 
REMARK       I    between atoms: C_22  and  N_20 
ROOT
ATOM      1  C   LIG d   1       2.390  83.469 111.687  0.00  0.00     0.161 C 
ATOM      2  C   LIG d   1       1.383  82.493 111.611  0.00  0.00     0.016 C 
ATOM      3  C   LIG d   1       0.048  82.719 112.020  0.00  0.00     0.038 C 
ATOM      4  C   LIG d   1      -0.407  83.991 112.395  0.00  0.00     0.028 C 
ATOM      5  C   LIG d   1       0.690  84.883 112.967  0.00  0.00    -0.047 C 
ATOM      6  C   LIG d   1       1.887  84.896 111.989  0.00  0.00     0.091 C 
ENDROOT
BRANCH   1   7
ATOM      7  O   LIG d   1       3.173  83.459 110.477  0.00  0.00    -0.368 OA
BRANCH   7   8
ATOM      8  C   LIG d   1       2.829  82.441 109.504  0.00  0.00     0.119 C 
BRANCH   8   9
ATOM      9  C   LIG d   1       4.128  81.700 109.132  0.00  0.00     0.028 C 
ATOM     10  C   LIG d   1       3.953  80.172 109.134  0.00  0.00     0.006 C 
ENDBRANCH   8   9
BRANCH   8  11
ATOM     11  C   LIG d   1       2.330  83.065 108.198  0.00  0.00     0.028 C 
ATOM     12  C   LIG d   1       1.337  84.215 108.428  0.00  0.00     0.006 C 
ENDBRANCH   8  11
ENDBRANCH   7   8
ENDBRANCH   1   7
BRANCH   6  13
ATOM     13  N   LIG d   1       3.038  85.678 112.512  0.00  0.00    -0.311 N 
ATOM     14  C   LIG d   1       3.224  86.971 112.252  0.00  0.00     0.210 C 
ATOM     15  C   LIG d   1       4.485  87.580 112.873  0.00  0.00     0.109 C 
ATOM     16  O   LIG d   1       2.447  87.679 111.594  0.00  0.00    -0.276 OA
ATOM     17  H   LIG d   1       3.700  85.189 113.081  0.00  0.00     0.149 HD
ENDBRANCH   6  13
BRANCH   5  18
ATOM     18  N   LIG d   1       0.108  86.221 113.186  0.00  0.00     0.381 N 
ATOM     19  H   LIG d   1      -0.826  86.131 113.534  0.00  0.00    -0.090 HD
ATOM     20  H   LIG d   1       0.071  86.707 112.307  0.00  0.00    -0.090 HD
ATOM     21  H   LIG d   1       0.664  86.733 113.834  0.00  0.00    -0.090 HD
ENDBRANCH   5  18
BRANCH   3  22
ATOM     22  C   LIG d   1      -0.837  81.654 112.095  0.00  0.00     0.382 C 
ATOM     23  O   LIG d   1      -2.065  81.868 112.232  0.00  0.00    -0.241 OA
ATOM     24  O   LIG d   1      -0.418  80.481 112.072  0.00  0.00    -0.241 OA
ENDBRANCH   3  22
TORSDOF 7
ENDMDL
MODEL 5
REMARK VINA RESULT:      -6.1      2.183      4.354
REMARK  7 active torsions:
REMARK  status: ('A' for Active; 'I' for Inactive)
REMARK    1  A    between atoms: C_2  and  C_3 
REMARK    2  A    between atoms: C_3  and  O_6 
REMARK    3  A    between atoms: C_3  and  C_4 
REMARK    4  A    between atoms: C_7  and  O_6 
REMARK    5  A    between atoms: C_9  and  C_10 
REMARK    6  A    between atoms: N_15  and  C_14 
REMARK    7  A    between atoms: N_20  and  C_19 
REMARK       I    between atoms: C_22  and  N_20 
ROOT
ATOM      1  C   LIG d   1       0.801  82.613 110.287  0.00  0.00     0.161 C 
ATOM      2  C   LIG d   1       1.077  83.982 110.130  0.00  0.00     0.016 C 
ATOM      3  C   LIG d   1       1.476  84.822 111.195  0.00  0.00     0.038 C 
ATOM      4  C   LIG d   1       1.774  84.315 112.468  0.00  0.00     0.028 C 
ATOM      5  C   LIG d   1       1.024  83.029 112.798  0.00  0.00    -0.047 C 
ATOM      6  C   LIG d   1       1.227  82.019 111.646  0.00  0.00     0.091 C 
ENDROOT
BRANCH   1   7
ATOM      7  O   LIG d   1       1.394  81.868 109.206  0.00  0.00    -0.368 OA
BRANCH   7   8
ATOM      8  C   LIG d   1       2.713  81.323 109.455  0.00  0.00     0.119 C 
BRANCH   8   9
ATOM      9  C   LIG d   1       3.713  82.117 108.592  0.00  0.00     0.028 C 
ATOM     10  C   LIG d   1       4.581  83.073 109.428  0.00  0.00     0.006 C 
ENDBRANCH   8   9
BRANCH   8  11
ATOM     11  C   LIG d   1       2.819  79.874 108.970  0.00  0.00     0.028 C 
ATOM     12  C   LIG d   1       1.448  79.240 108.686  0.00  0.00     0.006 C 
ENDBRANCH   8  11
ENDBRANCH   7   8
ENDBRANCH   1   7
BRANCH   6  13
ATOM     13  N   LIG d   1       0.458  80.764 111.849  0.00  0.00    -0.311 N 
ATOM     14  C   LIG d   1      -0.859  80.735 112.050  0.00  0.00     0.210 C 
ATOM     15  C   LIG d   1      -1.451  79.338 112.257  0.00  0.00     0.109 C 
ATOM     16  O   LIG d   1      -1.597  81.732 112.045  0.00  0.00    -0.276 OA
ATOM     17  H   LIG d   1       0.973  79.906 111.837  0.00  0.00     0.149 HD
ENDBRANCH   6  13
BRANCH   5  18
ATOM     18  N   LIG d   1       1.530  82.537 114.094  0.00  0.00     0.381 N 
ATOM     19  H   LIG d   1       2.087  83.245 114.530  0.00  0.00    -0.090 HD
ATOM     20  H   LIG d   1       2.112  81.734 113.932  0.00  0.00    -0.090 HD
ATOM     21  H   LIG d   1       0.768  82.291 114.686  0.00  0.00    -0.090 HD
ENDBRANCH   5  18
BRANCH   3  22
ATOM     22  C   LIG d   1       1.542  86.193 111.000  0.00  0.00     0.382 C 
ATOM     23  O   LIG d   1       2.645  86.786 111.085  0.00  0.00    -0.241 OA
ATOM     24  O   LIG d   1       0.507  86.852 110.784  0.00  0.00    -0.241 OA
ENDBRANCH   3  22
TORSDOF 7
ENDMDL
MODEL 6
REMARK VINA RESULT:      -5.8      2.374      3.576
REMARK  7 active torsions:
REMARK  status: ('A' for Active; 'I' for Inactive)
REMARK    1  A    between atoms: C_2  and  C_3 
REMARK    2  A    between atoms: C_3  and  O_6 
REMARK    3  A    between atoms: C_3  and  C_4 
REMARK    4  A    between atoms: C_7  and  O_6 
REMARK    5  A    between atoms: C_9  and  C_10 
REMARK    6  A    between atoms: N_15  and  C_14 
REMARK    7  A    between atoms: N_20  and  C_19 
REMARK       I    between atoms: C_22  and  N_20 
ROOT
ATOM      1  C   LIG d   1       1.100  83.225 110.562  0.00  0.00     0.161 C 
ATOM      2  C   LIG d   1       1.373  82.317 109.526  0.00  0.00     0.016 C 
ATOM      3  C   LIG d   1       1.068  80.938 109.597  0.00  0.00     0.038 C 
ATOM      4  C   LIG d   1       0.325  80.398 110.658  0.00  0.00     0.028 C 
ATOM      5  C   LIG d   1       0.470  81.179 111.959  0.00  0.00    -0.047 C 
ATOM      6  C   LIG d   1       0.190  82.674 111.681  0.00  0.00     0.091 C 
ENDROOT
BRANCH   1   7
ATOM      7  O   LIG d   1       0.544  84.437 110.016  0.00  0.00    -0.368 OA
BRANCH   7   8
ATOM      8  C   LIG d   1       1.407  85.601 110.040  0.00  0.00     0.119 C 
BRANCH   8   9
ATOM      9  C   LIG d   1       2.800  85.134 110.505  0.00  0.00     0.028 C 
ATOM     10  C   LIG d   1       3.436  86.103 111.517  0.00  0.00     0.006 C 
ENDBRANCH   8   9
BRANCH   8  11
ATOM     11  C   LIG d   1       0.947  86.615 111.091  0.00  0.00     0.028 C 
ATOM     12  C   LIG d   1      -0.582  86.668 111.239  0.00  0.00     0.006 C 
ENDBRANCH   8  11
ENDBRANCH   7   8
ENDBRANCH   1   7
BRANCH   6  13
ATOM     13  N   LIG d   1       0.393  83.522 112.884  0.00  0.00    -0.311 N 
ATOM     14  C   LIG d   1       1.553  83.612 113.531  0.00  0.00     0.210 C 
ATOM     15  C   LIG d   1       1.540  84.528 114.758  0.00  0.00     0.109 C 
ATOM     16  O   LIG d   1       2.601  83.046 113.185  0.00  0.00    -0.276 OA
ATOM     17  H   LIG d   1      -0.397  84.041 113.215  0.00  0.00     0.149 HD
ENDBRANCH   6  13
BRANCH   5  18
ATOM     18  N   LIG d   1      -0.461  80.590 112.939  0.00  0.00     0.381 N 
ATOM     19  H   LIG d   1      -0.883  81.315 113.484  0.00  0.00    -0.090 HD
ATOM     20  H   LIG d   1       0.056  79.990 113.559  0.00  0.00    -0.090 HD
ATOM     21  H   LIG d   1      -1.165  80.065 112.468  0.00  0.00    -0.090 HD
ENDBRANCH   5  18
BRANCH   3  22
ATOM     22  C   LIG d   1       1.541  80.078 108.619  0.00  0.00     0.382 C 
ATOM     23  O   LIG d   1       2.776  79.956 108.436  0.00  0.00    -0.241 OA
ATOM     24  O   LIG d   1       0.748  79.455 107.887  0.00  0.00    -0.241 OA
ENDBRANCH   3  22
TORSDOF 7
ENDMDL
MODEL 7
REMARK VINA RESULT:      -5.7      3.428      5.735
REMARK  7 active torsions:
REMARK  status: ('A' for Active; 'I' for Inactive)
REMARK    1  A    between atoms: C_2  and  C_3 
REMARK    2  A    between atoms: C_3  and  O_6 
REMARK    3  A    between atoms: C_3  and  C_4 
REMARK    4  A    between atoms: C_7  and  O_6 
REMARK    5  A    between atoms: C_9  and  C_10 
REMARK    6  A    between atoms: N_15  and  C_14 
REMARK    7  A    between atoms: N_20  and  C_19 
REMARK       I    between atoms: C_22  and  N_20 
ROOT
ATOM      1  C   LIG d   1       1.221  83.542 112.633  0.00  0.00     0.161 C 
ATOM      2  C   LIG d   1       0.637  84.233 111.558  0.00  0.00     0.016 C 
ATOM      3  C   LIG d   1       0.255  85.592 111.623  0.00  0.00     0.038 C 
ATOM      4  C   LIG d   1       0.572  86.400 112.725  0.00  0.00     0.028 C 
ATOM      5  C   LIG d   1       0.708  85.620 114.028  0.00  0.00    -0.047 C 
ATOM      6  C   LIG d   1       1.676  84.435 113.805  0.00  0.00     0.091 C 
ENDROOT
BRANCH   1   7
ATOM      7  O   LIG d   1       2.321  82.740 112.158  0.00  0.00    -0.368 OA
BRANCH   7   8
ATOM      8  C   LIG d   1       2.975  83.205 110.952  0.00  0.00     0.119 C 
BRANCH   8   9
ATOM      9  C   LIG d   1       3.416  81.961 110.156  0.00  0.00     0.028 C 
ATOM     10  C   LIG d   1       4.097  82.327 108.826  0.00  0.00     0.006 C 
ENDBRANCH   8   9
BRANCH   8  11
ATOM     11  C   LIG d   1       4.267  83.960 111.275  0.00  0.00     0.028 C 
ATOM     12  C   LIG d   1       4.097  85.486 111.215  0.00  0.00     0.006 C 
ENDBRANCH   8  11
ENDBRANCH   7   8
ENDBRANCH   1   7
BRANCH   6  13
ATOM     13  N   LIG d   1       1.800  83.571 115.008  0.00  0.00    -0.311 N 
ATOM     14  C   LIG d   1       2.951  83.363 115.646  0.00  0.00     0.210 C 
ATOM     15  C   LIG d   1       2.862  82.422 116.851  0.00  0.00     0.109 C 
ATOM     16  O   LIG d   1       4.031  83.895 115.347  0.00  0.00    -0.276 OA
ATOM     17  H   LIG d   1       0.967  83.125 115.337  0.00  0.00     0.149 HD
ENDBRANCH   6  13
BRANCH   5  18
ATOM     18  N   LIG d   1       1.174  86.561 115.064  0.00  0.00     0.381 N 
ATOM     19  H   LIG d   1       0.400  87.089 115.415  0.00  0.00    -0.090 HD
ATOM     20  H   LIG d   1       1.831  87.200 114.651  0.00  0.00    -0.090 HD
ATOM     21  H   LIG d   1       1.609  86.061 115.808  0.00  0.00    -0.090 HD
ENDBRANCH   5  18
BRANCH   3  22
ATOM     22  C   LIG d   1      -0.488  86.147 110.592  0.00  0.00     0.382 C 
ATOM     23  O   LIG d   1      -0.253  85.821 109.403  0.00  0.00    -0.241 OA
ATOM     24  O   LIG d   1      -1.361  87.003 110.831  0.00  0.00    -0.241 OA
ENDBRANCH   3  22
TORSDOF 7
ENDMDL
MODEL 8
REMARK VINA RESULT:      -5.5      2.460      4.130
REMARK  7 active torsions:
REMARK  status: ('A' for Active; 'I' for Inactive)
REMARK    1  A    between atoms: C_2  and  C_3 
REMARK    2  A    between atoms: C_3  and  O_6 
REMARK    3  A    between atoms: C_3  and  C_4 
REMARK    4  A    between atoms: C_7  and  O_6 
REMARK    5  A    between atoms: C_9  and  C_10 
REMARK    6  A    between atoms: N_15  and  C_14 
REMARK    7  A    between atoms: N_20  and  C_19 
REMARK       I    between atoms: C_22  and  N_20 
ROOT
ATOM      1  C   LIG d   1       2.328  81.307 111.467  0.00  0.00     0.161 C 
ATOM      2  C   LIG d   1       2.093  80.782 110.185  0.00  0.00     0.016 C 
ATOM      3  C   LIG d   1       0.814  80.385 109.730  0.00  0.00     0.038 C 
ATOM      4  C   LIG d   1      -0.348  80.628 110.478  0.00  0.00     0.028 C 
ATOM      5  C   LIG d   1      -0.098  80.693 111.981  0.00  0.00    -0.047 C 
ATOM      6  C   LIG d   1       1.057  81.683 112.256  0.00  0.00     0.091 C 
ENDROOT
BRANCH   1   7
ATOM      7  O   LIG d   1       3.215  82.440 111.375  0.00  0.00    -0.368 OA
BRANCH   7   8
ATOM      8  C   LIG d   1       3.013  83.316 110.239  0.00  0.00     0.119 C 
BRANCH   8   9
ATOM      9  C   LIG d   1       4.324  83.333 109.429  0.00  0.00     0.028 C 
ATOM     10  C   LIG d   1       4.216  82.530 108.122  0.00  0.00     0.006 C 
ENDBRANCH   8   9
BRANCH   8  11
ATOM     11  C   LIG d   1       2.794  84.765 110.685  0.00  0.00     0.028 C 
ATOM     12  C   LIG d   1       4.064  85.410 111.261  0.00  0.00     0.006 C 
ENDBRANCH   8  11
ENDBRANCH   7   8
ENDBRANCH   1   7
BRANCH   6  13
ATOM     13  N   LIG d   1       1.422  81.743 113.695  0.00  0.00    -0.311 N 
ATOM     14  C   LIG d   1       1.680  82.880 114.340  0.00  0.00     0.210 C 
ATOM     15  C   LIG d   1       2.056  82.715 115.815  0.00  0.00     0.109 C 
ATOM     16  O   LIG d   1       1.601  84.011 113.837  0.00  0.00    -0.276 OA
ATOM     17  H   LIG d   1       1.478  80.873 114.188  0.00  0.00     0.149 HD
ENDBRANCH   6  13
BRANCH   5  18
ATOM     18  N   LIG d   1      -1.364  81.088 112.626  0.00  0.00     0.381 N 
ATOM     19  H   LIG d   1      -2.107  80.500 112.304  0.00  0.00    -0.090 HD
ATOM     20  H   LIG d   1      -1.578  82.035 112.369  0.00  0.00    -0.090 HD
ATOM     21  H   LIG d   1      -1.279  81.016 113.616  0.00  0.00    -0.090 HD
ENDBRANCH   5  18
BRANCH   3  22
ATOM     22  C   LIG d   1       0.694  79.700 108.531  0.00  0.00     0.382 C 
ATOM     23  O   LIG d   1      -0.365  79.787 107.863  0.00  0.00    -0.241 OA
ATOM     24  O   LIG d   1       1.614  78.962 108.130  0.00  0.00    -0.241 OA
ENDBRANCH   3  22
TORSDOF 7
ENDMDL
MODEL 9
REMARK VINA RESULT:      -5.5      2.758      4.659
REMARK  7 active torsions:
REMARK  status: ('A' for Active; 'I' for Inactive)
REMARK    1  A    between atoms: C_2  and  C_3 
REMARK    2  A    between atoms: C_3  and  O_6 
REMARK    3  A    between atoms: C_3  and  C_4 
REMARK    4  A    between atoms: C_7  and  O_6 
REMARK    5  A    between atoms: C_9  and  C_10 
REMARK    6  A    between atoms: N_15  and  C_14 
REMARK    7  A    between atoms: N_20  and  C_19 
REMARK       I    between atoms: C_22  and  N_20 
ROOT
ATOM      1  C   LIG d   1       2.627  84.201 110.529  0.00  0.00     0.161 C 
ATOM      2  C   LIG d   1       1.674  85.232 110.485  0.00  0.00     0.016 C 
ATOM      3  C   LIG d   1       0.284  85.014 110.632  0.00  0.00     0.038 C 
ATOM      4  C   LIG d   1      -0.236  83.761 110.986  0.00  0.00     0.028 C 
ATOM      5  C   LIG d   1       0.640  82.594 110.543  0.00  0.00    -0.047 C 
ATOM      6  C   LIG d   1       2.087  82.843 111.025  0.00  0.00     0.091 C 
ENDROOT
BRANCH   1   7
ATOM      7  O   LIG d   1       3.756  84.612 111.325  0.00  0.00    -0.368 OA
BRANCH   7   8
ATOM      8  C   LIG d   1       3.509  85.673 112.280  0.00  0.00     0.119 C 
BRANCH   8   9
ATOM      9  C   LIG d   1       4.573  86.763 112.047  0.00  0.00     0.028 C 
ATOM     10  C   LIG d   1       4.555  87.844 113.141  0.00  0.00     0.006 C 
ENDBRANCH   8   9
BRANCH   8  11
ATOM     11  C   LIG d   1       3.731  85.191 113.717  0.00  0.00     0.028 C 
ATOM     12  C   LIG d   1       2.461  84.600 114.350  0.00  0.00     0.006 C 
ENDBRANCH   8  11
ENDBRANCH   7   8
ENDBRANCH   1   7
BRANCH   6  13
ATOM     13  N   LIG d   1       3.028  81.789 110.561  0.00  0.00    -0.311 N 
ATOM     14  C   LIG d   1       2.985  81.253 109.343  0.00  0.00     0.210 C 
ATOM     15  C   LIG d   1       4.033  80.168 109.077  0.00  0.00     0.109 C 
ATOM     16  O   LIG d   1       2.200  81.595 108.446  0.00  0.00    -0.276 OA
ATOM     17  H   LIG d   1       3.718  81.474 111.214  0.00  0.00     0.149 HD
ENDBRANCH   6  13
BRANCH   5  18
ATOM     18  N   LIG d   1       0.051  81.360 111.095  0.00  0.00     0.381 N 
ATOM     19  H   LIG d   1      -0.935  81.480 111.218  0.00  0.00    -0.090 HD
ATOM     20  H   LIG d   1       0.461  81.178 111.994  0.00  0.00    -0.090 HD
ATOM     21  H   LIG d   1       0.225  80.594 110.482  0.00  0.00    -0.090 HD
ENDBRANCH   5  18
BRANCH   3  22
ATOM     22  C   LIG d   1      -0.603  86.051 110.385  0.00  0.00     0.382 C 
ATOM     23  O   LIG d   1      -0.712  86.992 111.207  0.00  0.00    -0.241 OA
ATOM     24  O   LIG d   1      -1.329  86.033 109.373  0.00  0.00    -0.241 OA
ENDBRANCH   3  22
TORSDOF 7
ENDMDL
