MODEL 1
REMARK VINA RESULT:      -6.2      0.000      0.000
REMARK  7 active torsions:
REMARK  status: ('A' for Active; 'I' for Inactive)
REMARK    1  A    between atoms: C_2  and  C_3 
REMARK    2  A    between atoms: C_3  and  O_6 
REMARK    3  A    between atoms: C_3  and  C_4 
REMARK    4  A    between atoms: C_7  and  O_6 
REMARK    5  A    between atoms: C_9  and  C_10 
REMARK    6  A    between atoms: N_15  and  C_14 
REMARK    7  A    between atoms: N_20  and  C_19 
REMARK       I    between atoms: C_22  and  N_20 
ROOT
ATOM      1  C   LIG d   1      -0.095  83.497 111.077  0.00  0.00     0.161 C 
ATOM      2  C   LIG d   1       0.702  83.546 109.921  0.00  0.00     0.016 C 
ATOM      3  C   LIG d   1       1.129  82.394 109.222  0.00  0.00     0.038 C 
ATOM      4  C   LIG d   1       0.659  81.113 109.546  0.00  0.00     0.028 C 
ATOM      5  C   LIG d   1       0.258  80.967 111.010  0.00  0.00    -0.047 C 
ATOM      6  C   LIG d   1      -0.709  82.115 111.381  0.00  0.00     0.091 C 
ENDROOT
BRANCH   1   7
ATOM      7  O   LIG d   1      -1.129  84.498 111.000  0.00  0.00    -0.368 OA
BRANCH   7   8
ATOM      8  C   LIG d   1      -0.956  85.660 111.849  0.00  0.00     0.119 C 
BRANCH   8   9
ATOM      9  C   LIG d   1      -0.344  86.779 110.984  0.00  0.00     0.028 C 
ATOM     10  C   LIG d   1       1.150  86.996 111.277  0.00  0.00     0.006 C 
ENDBRANCH   8   9
BRANCH   8  11
ATOM     11  C   LIG d   1       0.070  85.394 112.954  0.00  0.00     0.028 C 
ATOM     12  C   LIG d   1      -0.557  85.372 114.357  0.00  0.00     0.006 C 
ENDBRANCH   8  11
ENDBRANCH   7   8
ENDBRANCH   1   7
BRANCH   6  13
ATOM     13  N   LIG d   1      -1.085  82.096 112.819  0.00  0.00    -0.311 N 
ATOM     14  C   LIG d   1      -2.341  81.975 113.247  0.00  0.00     0.210 C 
ATOM     15  C   LIG d   1      -2.510  81.999 114.769  0.00  0.00     0.109 C 
ATOM     16  O   LIG d   1      -3.327  81.818 112.511  0.00  0.00    -0.276 OA
ATOM     17  H   LIG d   1      -0.344  82.186 113.486  0.00  0.00     0.149 HD
ENDBRANCH   6  13
BRANCH   5  18
ATOM     18  N   LIG d   1      -0.341  79.629 111.177  0.00  0.00     0.381 N 
ATOM     19  H   LIG d   1      -1.266  79.623 110.797  0.00  0.00    -0.090 HD
ATOM     20  H   LIG d   1      -0.401  79.421 112.158  0.00  0.00    -0.090 HD
ATOM     21  H   LIG d   1       0.220  78.945 110.718  0.00  0.00    -0.090 HD
ENDBRANCH   5  18
BRANCH   3  22
ATOM     22  C   LIG d   1       2.068  82.514 108.209  0.00  0.00     0.382 C 
ATOM     23  O   LIG d   1       1.742  83.021 107.108  0.00  0.00    -0.241 OA
ATOM     24  O   LIG d   1       3.226  82.082 108.366  0.00  0.00    -0.241 OA
ENDBRANCH   3  22
TORSDOF 7
ENDMDL
MODEL 2
REMARK VINA RESULT:      -6.2      2.660      5.519
REMARK  7 active torsions:
REMARK  status: ('A' for Active; 'I' for Inactive)
REMARK    1  A    between atoms: C_2  and  C_3 
REMARK    2  A    between atoms: C_3  and  O_6 
REMARK    3  A    between atoms: C_3  and  C_4 
REMARK    4  A    between atoms: C_7  and  O_6 
REMARK    5  A    between atoms: C_9  and  C_10 
REMARK    6  A    between atoms: N_15  and  C_14 
REMARK    7  A    between atoms: N_20  and  C_19 
REMARK       I    between atoms: C_22  and  N_20 
ROOT
ATOM      1  C   LIG d   1       1.686  83.831 111.662  0.00  0.00     0.161 C 
ATOM      2  C   LIG d   1       0.649  82.884 111.686  0.00  0.00     0.016 C 
ATOM      3  C   LIG d   1      -0.495  83.004 112.509  0.00  0.00     0.038 C 
ATOM      4  C   LIG d   1      -0.752  84.163 113.257  0.00  0.00     0.028 C 
ATOM      5  C   LIG d   1       0.510  84.922 113.651  0.00  0.00    -0.047 C 
ATOM      6  C   LIG d   1       1.371  85.156 112.388  0.00  0.00     0.091 C 
ENDROOT
BRANCH   1   7
ATOM      7  O   LIG d   1       2.081  84.088 110.300  0.00  0.00    -0.368 OA
BRANCH   7   8
ATOM      8  C   LIG d   1       1.031  84.007 109.306  0.00  0.00     0.119 C 
BRANCH   8   9
ATOM      9  C   LIG d   1       1.649  83.405 108.028  0.00  0.00     0.028 C 
ATOM     10  C   LIG d   1       2.826  82.463 108.333  0.00  0.00     0.006 C 
ENDBRANCH   8   9
BRANCH   8  11
ATOM     11  C   LIG d   1       0.538  85.399 108.900  0.00  0.00     0.028 C 
ATOM     12  C   LIG d   1      -0.715  85.836 109.676  0.00  0.00     0.006 C 
ENDBRANCH   8  11
ENDBRANCH   7   8
ENDBRANCH   1   7
BRANCH   6  13
ATOM     13  N   LIG d   1       2.664  85.818 112.698  0.00  0.00    -0.311 N 
ATOM     14  C   LIG d   1       3.093  86.916 112.078  0.00  0.00     0.210 C 
ATOM     15  C   LIG d   1       4.464  87.424 112.536  0.00  0.00     0.109 C 
ATOM     16  O   LIG d   1       2.454  87.535 111.214  0.00  0.00    -0.276 OA
ATOM     17  H   LIG d   1       3.232  85.400 113.409  0.00  0.00     0.149 HD
ENDBRANCH   6  13
BRANCH   5  18
ATOM     18  N   LIG d   1       0.091  86.176 114.305  0.00  0.00     0.381 N 
ATOM     19  H   LIG d   1      -0.262  85.979 115.220  0.00  0.00    -0.090 HD
ATOM     20  H   LIG d   1      -0.647  86.593 113.765  0.00  0.00    -0.090 HD
ATOM     21  H   LIG d   1       0.862  86.803 114.366  0.00  0.00    -0.090 HD
ENDBRANCH   5  18
BRANCH   3  22
ATOM     22  C   LIG d   1      -1.377  81.940 112.619  0.00  0.00     0.382 C 
ATOM     23  O   LIG d   1      -2.605  82.122 112.439  0.00  0.00    -0.241 OA
ATOM     24  O   LIG d   1      -0.965  80.809 112.941  0.00  0.00    -0.241 OA
ENDBRANCH   3  22
TORSDOF 7
ENDMDL
MODEL 3
REMARK VINA RESULT:      -6.1      1.420      1.694
REMARK  7 active torsions:
REMARK  status: ('A' for Active; 'I' for Inactive)
REMARK    1  A    between atoms: C_2  and  C_3 
REMARK    2  A    between atoms: C_3  and  O_6 
REMARK    3  A    between atoms: C_3  and  C_4 
REMARK    4  A    between atoms: C_7  and  O_6 
REMARK    5  A    between atoms: C_9  and  C_10 
REMARK    6  A    between atoms: N_15  and  C_14 
REMARK    7  A    between atoms: N_20  and  C_19 
REMARK       I    between atoms: C_22  and  N_20 
ROOT
ATOM      1  C   LIG d   1       1.272  83.429 111.704  0.00  0.00     0.161 C 
ATOM      2  C   LIG d   1       2.190  83.289 110.650  0.00  0.00     0.016 C 
ATOM      3  C   LIG d   1       2.152  82.222 109.722  0.00  0.00     0.038 C 
ATOM      4  C   LIG d   1       1.096  81.299 109.696  0.00  0.00     0.028 C 
ATOM      5  C   LIG d   1       0.425  81.108 111.052  0.00  0.00    -0.047 C 
ATOM      6  C   LIG d   1       0.048  82.493 111.625  0.00  0.00     0.091 C 
ENDROOT
BRANCH   1   7
ATOM      7  O   LIG d   1       0.848  84.802 111.803  0.00  0.00    -0.368 OA
BRANCH   7   8
ATOM      8  C   LIG d   1       1.067  85.623 110.630  0.00  0.00     0.119 C 
BRANCH   8   9
ATOM      9  C   LIG d   1       1.671  86.959 111.105  0.00  0.00     0.028 C 
ATOM     10  C   LIG d   1       3.104  86.798 111.638  0.00  0.00     0.006 C 
ENDBRANCH   8   9
BRANCH   8  11
ATOM     11  C   LIG d   1      -0.257  85.995 109.955  0.00  0.00     0.028 C 
ATOM     12  C   LIG d   1      -1.296  86.547 110.944  0.00  0.00     0.006 C 
ENDBRANCH   8  11
ENDBRANCH   7   8
ENDBRANCH   1   7
BRANCH   6  13
ATOM     13  N   LIG d   1      -0.538  82.403 112.988  0.00  0.00    -0.311 N 
ATOM     14  C   LIG d   1      -1.842  82.253 113.217  0.00  0.00     0.210 C 
ATOM     15  C   LIG d   1      -2.236  82.202 114.696  0.00  0.00     0.109 C 
ATOM     16  O   LIG d   1      -2.705  82.126 112.335  0.00  0.00    -0.276 OA
ATOM     17  H   LIG d   1       0.094  82.465 113.761  0.00  0.00     0.149 HD
ENDBRANCH   6  13
BRANCH   5  18
ATOM     18  N   LIG d   1      -0.742  80.228 110.852  0.00  0.00     0.381 N 
ATOM     19  H   LIG d   1      -0.950  79.743 111.702  0.00  0.00    -0.090 HD
ATOM     20  H   LIG d   1      -0.518  79.547 110.147  0.00  0.00    -0.090 HD
ATOM     21  H   LIG d   1      -1.530  80.766 110.566  0.00  0.00    -0.090 HD
ENDBRANCH   5  18
BRANCH   3  22
ATOM     22  C   LIG d   1       3.201  82.048 108.832  0.00  0.00     0.382 C 
ATOM     23  O   LIG d   1       3.013  82.210 107.602  0.00  0.00    -0.241 OA
ATOM     24  O   LIG d   1       4.322  81.689 109.239  0.00  0.00    -0.241 OA
ENDBRANCH   3  22
TORSDOF 7
ENDMDL
MODEL 4
REMARK VINA RESULT:      -6.1      2.673      5.754
REMARK  7 active torsions:
REMARK  status: ('A' for Active; 'I' for Inactive)
REMARK    1  A    between atoms: C_2  and  C_3 
REMARK    2  A    between atoms: C_3  and  O_6 
REMARK    3  A    between atoms: C_3  and  C_4 
REMARK    4  A    between atoms: C_7  and  O_6 
REMARK    5  A    between atoms: C_9  and  C_10 
REMARK    6  A    between atoms: N_15  and  C_14 
REMARK    7  A    between atoms: N_20  and  C_19 
REMARK       I    between atoms: C_22  and  N_20 
ROOT
ATOM      1  C   LIG d   1       1.618  83.843 111.426  0.00  0.00     0.161 C 
ATOM      2  C   LIG d   1       0.579  82.897 111.440  0.00  0.00     0.016 C 
ATOM      3  C   LIG d   1      -0.544  82.987 112.295  0.00  0.00     0.038 C 
ATOM      4  C   LIG d   1      -0.780  84.117 113.093  0.00  0.00     0.028 C 
ATOM      5  C   LIG d   1       0.494  84.859 113.484  0.00  0.00    -0.047 C 
ATOM      6  C   LIG d   1       1.323  85.139 112.210  0.00  0.00     0.091 C 
ENDROOT
BRANCH   1   7
ATOM      7  O   LIG d   1       1.979  84.152 110.065  0.00  0.00    -0.368 OA
BRANCH   7   8
ATOM      8  C   LIG d   1       3.256  83.639 109.613  0.00  0.00     0.119 C 
BRANCH   8   9
ATOM      9  C   LIG d   1       2.972  82.543 108.568  0.00  0.00     0.028 C 
ATOM     10  C   LIG d   1       1.777  82.889 107.665  0.00  0.00     0.006 C 
ENDBRANCH   8   9
BRANCH   8  11
ATOM     11  C   LIG d   1       4.007  82.934 110.747  0.00  0.00     0.028 C 
ATOM     12  C   LIG d   1       4.565  81.564 110.330  0.00  0.00     0.006 C 
ENDBRANCH   8  11
ENDBRANCH   7   8
ENDBRANCH   1   7
BRANCH   6  13
ATOM     13  N   LIG d   1       2.625  85.788 112.512  0.00  0.00    -0.311 N 
ATOM     14  C   LIG d   1       3.018  86.936 111.963  0.00  0.00     0.210 C 
ATOM     15  C   LIG d   1       4.405  87.420 112.397  0.00  0.00     0.109 C 
ATOM     16  O   LIG d   1       2.335  87.616 111.182  0.00  0.00    -0.276 OA
ATOM     17  H   LIG d   1       3.229  85.320 113.160  0.00  0.00     0.149 HD
ENDBRANCH   6  13
BRANCH   5  18
ATOM     18  N   LIG d   1       0.093  86.087 114.195  0.00  0.00     0.381 N 
ATOM     19  H   LIG d   1       0.907  86.587 114.493  0.00  0.00    -0.090 HD
ATOM     20  H   LIG d   1      -0.436  85.833 115.010  0.00  0.00    -0.090 HD
ATOM     21  H   LIG d   1      -0.458  86.663 113.598  0.00  0.00    -0.090 HD
ENDBRANCH   5  18
BRANCH   3  22
ATOM     22  C   LIG d   1      -1.425  81.921 112.387  0.00  0.00     0.382 C 
ATOM     23  O   LIG d   1      -2.662  82.129 112.405  0.00  0.00    -0.241 OA
ATOM     24  O   LIG d   1      -0.997  80.756 112.496  0.00  0.00    -0.241 OA
ENDBRANCH   3  22
TORSDOF 7
ENDMDL
MODEL 5
REMARK VINA RESULT:      -5.8      3.206      4.117
REMARK  7 active torsions:
REMARK  status: ('A' for Active; 'I' for Inactive)
REMARK    1  A    between atoms: C_2  and  C_3 
REMARK    2  A    between atoms: C_3  and  O_6 
REMARK    3  A    between atoms: C_3  and  C_4 
REMARK    4  A    between atoms: C_7  and  O_6 
REMARK    5  A    between atoms: C_9  and  C_10 
REMARK    6  A    between atoms: N_15  and  C_14 
REMARK    7  A    between atoms: N_20  and  C_19 
REMARK       I    between atoms: C_22  and  N_20 
ROOT
ATOM      1  C   LIG d   1       2.499  83.708 110.496  0.00  0.00     0.161 C 
ATOM      2  C   LIG d   1       3.231  82.509 110.533  0.00  0.00     0.016 C 
ATOM      3  C   LIG d   1       3.316  81.616 109.440  0.00  0.00     0.038 C 
ATOM      4  C   LIG d   1       2.796  81.937 108.178  0.00  0.00     0.028 C 
ATOM      5  C   LIG d   1       1.619  82.905 108.236  0.00  0.00    -0.047 C 
ATOM      6  C   LIG d   1       2.017  84.128 109.092  0.00  0.00     0.091 C 
ENDROOT
BRANCH   1   7
ATOM      7  O   LIG d   1       3.266  84.767 111.101  0.00  0.00    -0.368 OA
BRANCH   7   8
ATOM      8  C   LIG d   1       3.213  84.848 112.547  0.00  0.00     0.119 C 
BRANCH   8   9
ATOM      9  C   LIG d   1       1.742  84.660 112.967  0.00  0.00     0.028 C 
ATOM     10  C   LIG d   1       1.061  85.991 113.328  0.00  0.00     0.006 C 
ENDBRANCH   8   9
BRANCH   8  11
ATOM     11  C   LIG d   1       3.601  86.244 113.042  0.00  0.00     0.028 C 
ATOM     12  C   LIG d   1       4.364  87.060 111.986  0.00  0.00     0.006 C 
ENDBRANCH   8  11
ENDBRANCH   7   8
ENDBRANCH   1   7
BRANCH   6  13
ATOM     13  N   LIG d   1       0.894  85.085 109.270  0.00  0.00    -0.311 N 
ATOM     14  C   LIG d   1      -0.233  84.782 109.913  0.00  0.00     0.210 C 
ATOM     15  C   LIG d   1      -1.271  85.907 109.965  0.00  0.00     0.109 C 
ATOM     16  O   LIG d   1      -0.458  83.698 110.473  0.00  0.00    -0.276 OA
ATOM     17  H   LIG d   1       1.005  85.998 108.874  0.00  0.00     0.149 HD
ENDBRANCH   6  13
BRANCH   5  18
ATOM     18  N   LIG d   1       1.265  83.260 106.849  0.00  0.00     0.381 N 
ATOM     19  H   LIG d   1       0.270  83.293 106.750  0.00  0.00    -0.090 HD
ATOM     20  H   LIG d   1       1.620  82.552 106.231  0.00  0.00    -0.090 HD
ATOM     21  H   LIG d   1       1.658  84.144 106.612  0.00  0.00    -0.090 HD
ENDBRANCH   5  18
BRANCH   3  22
ATOM     22  C   LIG d   1       3.894  80.368 109.616  0.00  0.00     0.382 C 
ATOM     23  O   LIG d   1       3.212  79.330 109.435  0.00  0.00    -0.241 OA
ATOM     24  O   LIG d   1       5.076  80.267 109.997  0.00  0.00    -0.241 OA
ENDBRANCH   3  22
TORSDOF 7
ENDMDL
MODEL 6
REMARK VINA RESULT:      -5.6      1.598      1.815
REMARK  7 active torsions:
REMARK  status: ('A' for Active; 'I' for Inactive)
REMARK    1  A    between atoms: C_2  and  C_3 
REMARK    2  A    between atoms: C_3  and  O_6 
REMARK    3  A    between atoms: C_3  and  C_4 
REMARK    4  A    between atoms: C_7  and  O_6 
REMARK    5  A    between atoms: C_9  and  C_10 
REMARK    6  A    between atoms: N_15  and  C_14 
REMARK    7  A    between atoms: N_20  and  C_19 
REMARK       I    between atoms: C_22  and  N_20 
ROOT
ATOM      1  C   LIG d   1       1.704  83.112 112.108  0.00  0.00     0.161 C 
ATOM      2  C   LIG d   1       2.753  82.908 111.195  0.00  0.00     0.016 C 
ATOM      3  C   LIG d   1       2.766  81.860 110.246  0.00  0.00     0.038 C 
ATOM      4  C   LIG d   1       1.654  81.029 110.044  0.00  0.00     0.028 C 
ATOM      5  C   LIG d   1       0.777  80.879 111.282  0.00  0.00    -0.047 C 
ATOM      6  C   LIG d   1       0.433  82.284 111.828  0.00  0.00     0.091 C 
ENDROOT
BRANCH   1   7
ATOM      7  O   LIG d   1       1.383  84.516 112.177  0.00  0.00    -0.368 OA
BRANCH   7   8
ATOM      8  C   LIG d   1       0.281  84.959 111.347  0.00  0.00     0.119 C 
BRANCH   8   9
ATOM      9  C   LIG d   1       0.872  85.825 110.218  0.00  0.00     0.028 C 
ATOM     10  C   LIG d   1       0.681  85.189 108.830  0.00  0.00     0.006 C 
ENDBRANCH   8   9
BRANCH   8  11
ATOM     11  C   LIG d   1      -0.660  85.887 112.120  0.00  0.00     0.028 C 
ATOM     12  C   LIG d   1      -0.517  85.747 113.644  0.00  0.00     0.006 C 
ENDBRANCH   8  11
ENDBRANCH   7   8
ENDBRANCH   1   7
BRANCH   6  13
ATOM     13  N   LIG d   1      -0.353  82.226 113.088  0.00  0.00    -0.311 N 
ATOM     14  C   LIG d   1      -1.684  82.259 113.124  0.00  0.00     0.210 C 
ATOM     15  C   LIG d   1      -2.294  82.208 114.528  0.00  0.00     0.109 C 
ATOM     16  O   LIG d   1      -2.418  82.292 112.125  0.00  0.00    -0.276 OA
ATOM     17  H   LIG d   1       0.162  82.167 113.944  0.00  0.00     0.149 HD
ENDBRANCH   6  13
BRANCH   5  18
ATOM     18  N   LIG d   1      -0.416  80.102 110.893  0.00  0.00     0.381 N 
ATOM     19  H   LIG d   1      -0.765  80.435 110.016  0.00  0.00    -0.090 HD
ATOM     20  H   LIG d   1      -1.130  80.234 111.587  0.00  0.00    -0.090 HD
ATOM     21  H   LIG d   1      -0.185  79.136 110.822  0.00  0.00    -0.090 HD
ENDBRANCH   5  18
BRANCH   3  22
ATOM     22  C   LIG d   1       3.917  81.609 109.515  0.00  0.00     0.382 C 
ATOM     23  O   LIG d   1       4.214  82.344 108.542  0.00  0.00    -0.241 OA
ATOM     24  O   LIG d   1       4.638  80.631 109.788  0.00  0.00    -0.241 OA
ENDBRANCH   3  22
TORSDOF 7
ENDMDL
MODEL 7
REMARK VINA RESULT:      -5.6      2.592      3.705
REMARK  7 active torsions:
REMARK  status: ('A' for Active; 'I' for Inactive)
REMARK    1  A    between atoms: C_2  and  C_3 
REMARK    2  A    between atoms: C_3  and  O_6 
REMARK    3  A    between atoms: C_3  and  C_4 
REMARK    4  A    between atoms: C_7  and  O_6 
REMARK    5  A    between atoms: C_9  and  C_10 
REMARK    6  A    between atoms: N_15  and  C_14 
REMARK    7  A    between atoms: N_20  and  C_19 
REMARK       I    between atoms: C_22  and  N_20 
ROOT
ATOM      1  C   LIG d   1       2.479  84.737 111.514  0.00  0.00     0.161 C 
ATOM      2  C   LIG d   1       3.161  84.156 110.432  0.00  0.00     0.016 C 
ATOM      3  C   LIG d   1       2.553  83.265 109.517  0.00  0.00     0.038 C 
ATOM      4  C   LIG d   1       1.173  83.011 109.535  0.00  0.00     0.028 C 
ATOM      5  C   LIG d   1       0.544  83.180 110.914  0.00  0.00    -0.047 C 
ATOM      6  C   LIG d   1       0.947  84.560 111.484  0.00  0.00     0.091 C 
ENDROOT
BRANCH   1   7
ATOM      7  O   LIG d   1       2.820  86.135 111.612  0.00  0.00    -0.368 OA
BRANCH   7   8
ATOM      8  C   LIG d   1       3.979  86.453 112.421  0.00  0.00     0.119 C 
BRANCH   8   9
ATOM      9  C   LIG d   1       3.863  85.651 113.731  0.00  0.00     0.028 C 
ATOM     10  C   LIG d   1       2.975  86.353 114.772  0.00  0.00     0.006 C 
ENDBRANCH   8   9
BRANCH   8  11
ATOM     11  C   LIG d   1       3.976  87.925 112.844  0.00  0.00     0.028 C 
ATOM     12  C   LIG d   1       5.384  88.462 113.142  0.00  0.00     0.006 C 
ENDBRANCH   8  11
ENDBRANCH   7   8
ENDBRANCH   1   7
BRANCH   6  13
ATOM     13  N   LIG d   1       0.443  84.771 112.866  0.00  0.00    -0.311 N 
ATOM     14  C   LIG d   1      -0.679  85.434 113.143  0.00  0.00     0.210 C 
ATOM     15  C   LIG d   1      -1.007  85.554 114.635  0.00  0.00     0.109 C 
ATOM     16  O   LIG d   1      -1.451  85.905 112.294  0.00  0.00    -0.276 OA
ATOM     17  H   LIG d   1       0.991  84.395 113.614  0.00  0.00     0.149 HD
ENDBRANCH   6  13
BRANCH   5  18
ATOM     18  N   LIG d   1      -0.914  83.021 110.761  0.00  0.00     0.381 N 
ATOM     19  H   LIG d   1      -1.360  83.110 111.652  0.00  0.00    -0.090 HD
ATOM     20  H   LIG d   1      -1.105  82.102 110.403  0.00  0.00    -0.090 HD
ATOM     21  H   LIG d   1      -1.268  83.710 110.134  0.00  0.00    -0.090 HD
ENDBRANCH   5  18
BRANCH   3  22
ATOM     22  C   LIG d   1       3.336  82.586 108.596  0.00  0.00     0.382 C 
ATOM     23  O   LIG d   1       4.587  82.630 108.683  0.00  0.00    -0.241 OA
ATOM     24  O   LIG d   1       2.808  81.966 107.653  0.00  0.00    -0.241 OA
ENDBRANCH   3  22
TORSDOF 7
ENDMDL
MODEL 8
REMARK VINA RESULT:      -5.6      2.860      5.170
REMARK  7 active torsions:
REMARK  status: ('A' for Active; 'I' for Inactive)
REMARK    1  A    between atoms: C_2  and  C_3 
REMARK    2  A    between atoms: C_3  and  O_6 
REMARK    3  A    between atoms: C_3  and  C_4 
REMARK    4  A    between atoms: C_7  and  O_6 
REMARK    5  A    between atoms: C_9  and  C_10 
REMARK    6  A    between atoms: N_15  and  C_14 
REMARK    7  A    between atoms: N_20  and  C_19 
REMARK       I    between atoms: C_22  and  N_20 
ROOT
ATOM      1  C   LIG d   1       1.780  84.222 111.474  0.00  0.00     0.161 C 
ATOM      2  C   LIG d   1       2.600  85.363 111.457  0.00  0.00     0.016 C 
ATOM      3  C   LIG d   1       2.511  86.400 112.414  0.00  0.00     0.038 C 
ATOM      4  C   LIG d   1       1.692  86.294 113.548  0.00  0.00     0.028 C 
ATOM      5  C   LIG d   1       0.482  85.391 113.339  0.00  0.00    -0.047 C 
ATOM      6  C   LIG d   1       0.959  84.036 112.767  0.00  0.00     0.091 C 
ENDROOT
BRANCH   1   7
ATOM      7  O   LIG d   1       2.573  83.048 111.210  0.00  0.00    -0.368 OA
BRANCH   7   8
ATOM      8  C   LIG d   1       2.276  82.342 109.980  0.00  0.00     0.119 C 
BRANCH   8   9
ATOM      9  C   LIG d   1       3.610  82.120 109.241  0.00  0.00     0.028 C 
ATOM     10  C   LIG d   1       4.820  82.604 110.056  0.00  0.00     0.006 C 
ENDBRANCH   8   9
BRANCH   8  11
ATOM     11  C   LIG d   1       1.427  83.199 109.037  0.00  0.00     0.028 C 
ATOM     12  C   LIG d   1       1.773  82.977 107.556  0.00  0.00     0.006 C 
ENDBRANCH   8  11
ENDBRANCH   7   8
ENDBRANCH   1   7
BRANCH   6  13
ATOM     13  N   LIG d   1      -0.172  83.123 112.454  0.00  0.00    -0.311 N 
ATOM     14  C   LIG d   1      -0.281  81.893 112.953  0.00  0.00     0.210 C 
ATOM     15  C   LIG d   1      -1.513  81.113 112.486  0.00  0.00     0.109 C 
ATOM     16  O   LIG d   1       0.509  81.387 113.764  0.00  0.00    -0.276 OA
ATOM     17  H   LIG d   1      -0.875  83.466 111.828  0.00  0.00     0.149 HD
ENDBRANCH   6  13
BRANCH   5  18
ATOM     18  N   LIG d   1      -0.206  85.260 114.638  0.00  0.00     0.381 N 
ATOM     19  H   LIG d   1       0.293  84.619 115.222  0.00  0.00    -0.090 HD
ATOM     20  H   LIG d   1      -1.128  84.891 114.481  0.00  0.00    -0.090 HD
ATOM     21  H   LIG d   1      -0.267  86.149 115.083  0.00  0.00    -0.090 HD
ENDBRANCH   5  18
BRANCH   3  22
ATOM     22  C   LIG d   1       3.216  87.578 112.219  0.00  0.00     0.382 C 
ATOM     23  O   LIG d   1       2.658  88.684 112.417  0.00  0.00    -0.241 OA
ATOM     24  O   LIG d   1       4.391  87.549 111.805  0.00  0.00    -0.241 OA
ENDBRANCH   3  22
TORSDOF 7
ENDMDL
MODEL 9
REMARK VINA RESULT:      -5.5      2.397      4.766
REMARK  7 active torsions:
REMARK  status: ('A' for Active; 'I' for Inactive)
REMARK    1  A    between atoms: C_2  and  C_3 
REMARK    2  A    between atoms: C_3  and  O_6 
REMARK    3  A    between atoms: C_3  and  C_4 
REMARK    4  A    between atoms: C_7  and  O_6 
REMARK    5  A    between atoms: C_9  and  C_10 
REMARK    6  A    between atoms: N_15  and  C_14 
REMARK    7  A    between atoms: N_20  and  C_19 
REMARK       I    between atoms: C_22  and  N_20 
ROOT
ATOM      1  C   LIG d   1      -0.096  83.832 111.958  0.00  0.00     0.161 C 
ATOM      2  C   LIG d   1       0.487  85.029 112.409  0.00  0.00     0.016 C 
ATOM      3  C   LIG d   1       1.180  85.924 111.562  0.00  0.00     0.038 C 
ATOM      4  C   LIG d   1       1.206  85.757 110.169  0.00  0.00     0.028 C 
ATOM      5  C   LIG d   1       1.065  84.303 109.731  0.00  0.00    -0.047 C 
ATOM      6  C   LIG d   1      -0.173  83.688 110.424  0.00  0.00     0.091 C 
ENDROOT
BRANCH   1   7
ATOM      7  O   LIG d   1      -1.404  83.676 112.542  0.00  0.00    -0.368 OA
BRANCH   7   8
ATOM      8  C   LIG d   1      -1.519  82.686 113.594  0.00  0.00     0.119 C 
BRANCH   8   9
ATOM      9  C   LIG d   1      -2.718  81.781 113.249  0.00  0.00     0.028 C 
ATOM     10  C   LIG d   1      -2.281  80.401 112.729  0.00  0.00     0.006 C 
ENDBRANCH   8   9
BRANCH   8  11
ATOM     11  C   LIG d   1      -1.873  83.335 114.935  0.00  0.00     0.028 C 
ATOM     12  C   LIG d   1      -3.151  82.754 115.559  0.00  0.00     0.006 C 
ENDBRANCH   8  11
ENDBRANCH   7   8
ENDBRANCH   1   7
BRANCH   6  13
ATOM     13  N   LIG d   1      -0.336  82.244 110.115  0.00  0.00    -0.311 N 
ATOM     14  C   LIG d   1       0.581  81.323 110.410  0.00  0.00     0.210 C 
ATOM     15  C   LIG d   1       0.222  79.895 109.987  0.00  0.00     0.109 C 
ATOM     16  O   LIG d   1       1.642  81.549 111.010  0.00  0.00    -0.276 OA
ATOM     17  H   LIG d   1      -1.182  81.968 109.657  0.00  0.00     0.149 HD
ENDBRANCH   6  13
BRANCH   5  18
ATOM     18  N   LIG d   1       0.970  84.288 108.259  0.00  0.00     0.381 N 
ATOM     19  H   LIG d   1       0.968  85.226 107.910  0.00  0.00    -0.090 HD
ATOM     20  H   LIG d   1       0.105  83.851 107.993  0.00  0.00    -0.090 HD
ATOM     21  H   LIG d   1       1.738  83.785 107.873  0.00  0.00    -0.090 HD
ENDBRANCH   5  18
BRANCH   3  22
ATOM     22  C   LIG d   1       1.889  86.980 112.112  0.00  0.00     0.382 C 
ATOM     23  O   LIG d   1       1.914  87.138 113.356  0.00  0.00    -0.241 OA
ATOM     24  O   LIG d   1       2.468  87.803 111.377  0.00  0.00    -0.241 OA
ENDBRANCH   3  22
TORSDOF 7
ENDMDL
