MODEL 1
REMARK VINA RESULT:      -6.6      0.000      0.000
REMARK  7 active torsions:
REMARK  status: ('A' for Active; 'I' for Inactive)
REMARK    1  A    between atoms: C_2  and  C_3 
REMARK    2  A    between atoms: C_3  and  O_6 
REMARK    3  A    between atoms: C_3  and  C_4 
REMARK    4  A    between atoms: C_7  and  O_6 
REMARK    5  A    between atoms: C_9  and  C_10 
REMARK    6  A    between atoms: N_15  and  C_14 
REMARK    7  A    between atoms: N_20  and  C_19 
REMARK       I    between atoms: C_22  and  N_20 
ROOT
ATOM      1  C   LIG d   1       0.380  83.068 111.128  0.00  0.00     0.161 C 
ATOM      2  C   LIG d   1      -0.745  82.910 111.954  0.00  0.00     0.016 C 
ATOM      3  C   LIG d   1      -1.285  81.651 112.303  0.00  0.00     0.038 C 
ATOM      4  C   LIG d   1      -0.640  80.450 111.969  0.00  0.00     0.028 C 
ATOM      5  C   LIG d   1       0.217  80.552 110.711  0.00  0.00    -0.047 C 
ATOM      6  C   LIG d   1       1.162  81.768 110.845  0.00  0.00     0.091 C 
ENDROOT
BRANCH   1   7
ATOM      7  O   LIG d   1       1.256  84.069 111.682  0.00  0.00    -0.368 OA
BRANCH   7   8
ATOM      8  C   LIG d   1       1.342  85.316 110.949  0.00  0.00     0.119 C 
BRANCH   8   9
ATOM      9  C   LIG d   1       0.368  85.222 109.759  0.00  0.00     0.028 C 
ATOM     10  C   LIG d   1       1.039  85.577 108.422  0.00  0.00     0.006 C 
ENDBRANCH   8   9
BRANCH   8  11
ATOM     11  C   LIG d   1       2.728  85.501 110.324  0.00  0.00     0.028 C 
ATOM     12  C   LIG d   1       3.870  85.226 111.316  0.00  0.00     0.006 C 
ENDBRANCH   8  11
ENDBRANCH   7   8
ENDBRANCH   1   7
BRANCH   6  13
ATOM     13  N   LIG d   1       1.976  81.990 109.622  0.00  0.00    -0.311 N 
ATOM     14  C   LIG d   1       3.308  81.963 109.613  0.00  0.00     0.210 C 
ATOM     15  C   LIG d   1       3.951  82.237 108.250  0.00  0.00     0.109 C 
ATOM     16  O   LIG d   1       4.017  81.706 110.598  0.00  0.00    -0.276 OA
ATOM     17  H   LIG d   1       1.481  82.175 108.772  0.00  0.00     0.149 HD
ENDBRANCH   6  13
BRANCH   5  18
ATOM     18  N   LIG d   1       0.937  79.274 110.558  0.00  0.00     0.381 N 
ATOM     19  H   LIG d   1       1.880  79.376 110.876  0.00  0.00    -0.090 HD
ATOM     20  H   LIG d   1       0.958  79.027 109.584  0.00  0.00    -0.090 HD
ATOM     21  H   LIG d   1       0.478  78.559 111.079  0.00  0.00    -0.090 HD
ENDBRANCH   5  18
BRANCH   3  22
ATOM     22  C   LIG d   1      -2.504  81.583 112.960  0.00  0.00     0.382 C 
ATOM     23  O   LIG d   1      -3.147  80.506 112.978  0.00  0.00    -0.241 OA
ATOM     24  O   LIG d   1      -2.989  82.597 113.496  0.00  0.00    -0.241 OA
ENDBRANCH   3  22
TORSDOF 7
ENDMDL
MODEL 2
REMARK VINA RESULT:      -6.4      2.244      3.242
REMARK  7 active torsions:
REMARK  status: ('A' for Active; 'I' for Inactive)
REMARK    1  A    between atoms: C_2  and  C_3 
REMARK    2  A    between atoms: C_3  and  O_6 
REMARK    3  A    between atoms: C_3  and  C_4 
REMARK    4  A    between atoms: C_7  and  O_6 
REMARK    5  A    between atoms: C_9  and  C_10 
REMARK    6  A    between atoms: N_15  and  C_14 
REMARK    7  A    between atoms: N_20  and  C_19 
REMARK       I    between atoms: C_22  and  N_20 
ROOT
ATOM      1  C   LIG d   1      -0.279  83.880 110.783  0.00  0.00     0.161 C 
ATOM      2  C   LIG d   1      -0.399  84.808 111.831  0.00  0.00     0.016 C 
ATOM      3  C   LIG d   1      -0.343  84.450 113.198  0.00  0.00     0.038 C 
ATOM      4  C   LIG d   1      -0.009  83.152 113.611  0.00  0.00     0.028 C 
ATOM      5  C   LIG d   1      -0.377  82.078 112.593  0.00  0.00    -0.047 C 
ATOM      6  C   LIG d   1       0.197  82.477 111.214  0.00  0.00     0.091 C 
ENDROOT
BRANCH   1   7
ATOM      7  O   LIG d   1       0.586  84.410 109.759  0.00  0.00    -0.368 OA
BRANCH   7   8
ATOM      8  C   LIG d   1       1.983  84.038 109.848  0.00  0.00     0.119 C 
BRANCH   8   9
ATOM      9  C   LIG d   1       2.791  85.327 110.092  0.00  0.00     0.028 C 
ATOM     10  C   LIG d   1       1.944  86.596 109.896  0.00  0.00     0.006 C 
ENDBRANCH   8   9
BRANCH   8  11
ATOM     11  C   LIG d   1       2.498  83.482 108.517  0.00  0.00     0.028 C 
ATOM     12  C   LIG d   1       1.545  83.763 107.345  0.00  0.00     0.006 C 
ENDBRANCH   8  11
ENDBRANCH   7   8
ENDBRANCH   1   7
BRANCH   6  13
ATOM     13  N   LIG d   1      -0.189  81.523 110.142  0.00  0.00    -0.311 N 
ATOM     14  C   LIG d   1       0.579  80.506 109.753  0.00  0.00     0.210 C 
ATOM     15  C   LIG d   1       0.001  79.656 108.618  0.00  0.00     0.109 C 
ATOM     16  O   LIG d   1       1.670  80.209 110.263  0.00  0.00    -0.276 OA
ATOM     17  H   LIG d   1      -1.073  81.671 109.696  0.00  0.00     0.149 HD
ENDBRANCH   6  13
BRANCH   5  18
ATOM     18  N   LIG d   1       0.150  80.793 113.089  0.00  0.00     0.381 N 
ATOM     19  H   LIG d   1       0.365  80.869 114.063  0.00  0.00    -0.090 HD
ATOM     20  H   LIG d   1       0.998  80.577 112.595  0.00  0.00    -0.090 HD
ATOM     21  H   LIG d   1      -0.521  80.071 112.945  0.00  0.00    -0.090 HD
ENDBRANCH   5  18
BRANCH   3  22
ATOM     22  C   LIG d   1      -0.662  85.388 114.167  0.00  0.00     0.382 C 
ATOM     23  O   LIG d   1       0.229  85.825 114.935  0.00  0.00    -0.241 OA
ATOM     24  O   LIG d   1      -1.839  85.771 114.314  0.00  0.00    -0.241 OA
ENDBRANCH   3  22
TORSDOF 7
ENDMDL
MODEL 3
REMARK VINA RESULT:      -6.3      0.801      1.655
REMARK  7 active torsions:
REMARK  status: ('A' for Active; 'I' for Inactive)
REMARK    1  A    between atoms: C_2  and  C_3 
REMARK    2  A    between atoms: C_3  and  O_6 
REMARK    3  A    between atoms: C_3  and  C_4 
REMARK    4  A    between atoms: C_7  and  O_6 
REMARK    5  A    between atoms: C_9  and  C_10 
REMARK    6  A    between atoms: N_15  and  C_14 
REMARK    7  A    between atoms: N_20  and  C_19 
REMARK       I    between atoms: C_22  and  N_20 
ROOT
ATOM      1  C   LIG d   1       0.244  82.770 111.040  0.00  0.00     0.161 C 
ATOM      2  C   LIG d   1      -0.838  82.539 111.906  0.00  0.00     0.016 C 
ATOM      3  C   LIG d   1      -1.279  81.247 112.273  0.00  0.00     0.038 C 
ATOM      4  C   LIG d   1      -0.568  80.092 111.914  0.00  0.00     0.028 C 
ATOM      5  C   LIG d   1       0.234  80.249 110.627  0.00  0.00    -0.047 C 
ATOM      6  C   LIG d   1       1.100  81.525 110.728  0.00  0.00     0.091 C 
ENDROOT
BRANCH   1   7
ATOM      7  O   LIG d   1       1.071  83.829 111.563  0.00  0.00    -0.368 OA
BRANCH   7   8
ATOM      8  C   LIG d   1       1.250  84.981 110.702  0.00  0.00     0.119 C 
BRANCH   8   9
ATOM      9  C   LIG d   1       2.645  85.566 110.998  0.00  0.00     0.028 C 
ATOM     10  C   LIG d   1       2.632  87.101 111.082  0.00  0.00     0.006 C 
ENDBRANCH   8   9
BRANCH   8  11
ATOM     11  C   LIG d   1       0.261  86.096 111.051  0.00  0.00     0.028 C 
ATOM     12  C   LIG d   1      -0.996  86.076 110.167  0.00  0.00     0.006 C 
ENDBRANCH   8  11
ENDBRANCH   7   8
ENDBRANCH   1   7
BRANCH   6  13
ATOM     13  N   LIG d   1       1.853  81.800 109.476  0.00  0.00    -0.311 N 
ATOM     14  C   LIG d   1       3.165  82.026 109.445  0.00  0.00     0.210 C 
ATOM     15  C   LIG d   1       3.739  82.308 108.053  0.00  0.00     0.109 C 
ATOM     16  O   LIG d   1       3.913  81.989 110.433  0.00  0.00    -0.276 OA
ATOM     17  H   LIG d   1       1.329  81.817 108.623  0.00  0.00     0.149 HD
ENDBRANCH   6  13
BRANCH   5  18
ATOM     18  N   LIG d   1       1.032  79.021 110.446  0.00  0.00     0.381 N 
ATOM     19  H   LIG d   1       0.662  78.486 109.686  0.00  0.00    -0.090 HD
ATOM     20  H   LIG d   1       0.970  78.467 111.282  0.00  0.00    -0.090 HD
ATOM     21  H   LIG d   1       1.983  79.257 110.265  0.00  0.00    -0.090 HD
ENDBRANCH   5  18
BRANCH   3  22
ATOM     22  C   LIG d   1      -2.466  81.099 112.974  0.00  0.00     0.382 C 
ATOM     23  O   LIG d   1      -2.688  80.043 113.615  0.00  0.00    -0.241 OA
ATOM     24  O   LIG d   1      -3.337  81.989 112.937  0.00  0.00    -0.241 OA
ENDBRANCH   3  22
TORSDOF 7
ENDMDL
MODEL 4
REMARK VINA RESULT:      -6.3      2.163      4.573
REMARK  7 active torsions:
REMARK  status: ('A' for Active; 'I' for Inactive)
REMARK    1  A    between atoms: C_2  and  C_3 
REMARK    2  A    between atoms: C_3  and  O_6 
REMARK    3  A    between atoms: C_3  and  C_4 
REMARK    4  A    between atoms: C_7  and  O_6 
REMARK    5  A    between atoms: C_9  and  C_10 
REMARK    6  A    between atoms: N_15  and  C_14 
REMARK    7  A    between atoms: N_20  and  C_19 
REMARK       I    between atoms: C_22  and  N_20 
ROOT
ATOM      1  C   LIG d   1       1.332  82.941 110.366  0.00  0.00     0.161 C 
ATOM      2  C   LIG d   1       1.869  81.897 109.593  0.00  0.00     0.016 C 
ATOM      3  C   LIG d   1       1.804  80.536 109.971  0.00  0.00     0.038 C 
ATOM      4  C   LIG d   1       1.059  80.110 111.081  0.00  0.00     0.028 C 
ATOM      5  C   LIG d   1       0.926  81.173 112.166  0.00  0.00    -0.047 C 
ATOM      6  C   LIG d   1       0.420  82.485 111.524  0.00  0.00     0.091 C 
ENDROOT
BRANCH   1   7
ATOM      7  O   LIG d   1       0.634  83.870 109.514  0.00  0.00    -0.368 OA
BRANCH   7   8
ATOM      8  C   LIG d   1       1.326  85.109 109.221  0.00  0.00     0.119 C 
BRANCH   8   9
ATOM      9  C   LIG d   1       0.590  86.238 109.970  0.00  0.00     0.028 C 
ATOM     10  C   LIG d   1      -0.923  85.985 110.072  0.00  0.00     0.006 C 
ENDBRANCH   8   9
BRANCH   8  11
ATOM     11  C   LIG d   1       1.218  85.470 107.737  0.00  0.00     0.028 C 
ATOM     12  C   LIG d   1       1.460  84.267 106.812  0.00  0.00     0.006 C 
ENDBRANCH   8  11
ENDBRANCH   7   8
ENDBRANCH   1   7
BRANCH   6  13
ATOM     13  N   LIG d   1       0.342  83.601 112.501  0.00  0.00    -0.311 N 
ATOM     14  C   LIG d   1      -0.771  83.924 113.158  0.00  0.00     0.210 C 
ATOM     15  C   LIG d   1      -0.639  85.122 114.105  0.00  0.00     0.109 C 
ATOM     16  O   LIG d   1      -1.846  83.313 113.071  0.00  0.00    -0.276 OA
ATOM     17  H   LIG d   1       1.177  84.131 112.656  0.00  0.00     0.149 HD
ENDBRANCH   6  13
BRANCH   5  18
ATOM     18  N   LIG d   1       0.014  80.645 113.198  0.00  0.00     0.381 N 
ATOM     19  H   LIG d   1       0.422  80.763 114.103  0.00  0.00    -0.090 HD
ATOM     20  H   LIG d   1      -0.122  79.662 113.039  0.00  0.00    -0.090 HD
ATOM     21  H   LIG d   1      -0.861  81.120 113.155  0.00  0.00    -0.090 HD
ENDBRANCH   5  18
BRANCH   3  22
ATOM     22  C   LIG d   1       2.522  79.590 109.256  0.00  0.00     0.382 C 
ATOM     23  O   LIG d   1       1.936  78.854 108.426  0.00  0.00    -0.241 OA
ATOM     24  O   LIG d   1       3.740  79.432 109.464  0.00  0.00    -0.241 OA
ENDBRANCH   3  22
TORSDOF 7
ENDMDL
MODEL 5
REMARK VINA RESULT:      -6.1      2.078      3.597
REMARK  7 active torsions:
REMARK  status: ('A' for Active; 'I' for Inactive)
REMARK    1  A    between atoms: C_2  and  C_3 
REMARK    2  A    between atoms: C_3  and  O_6 
REMARK    3  A    between atoms: C_3  and  C_4 
REMARK    4  A    between atoms: C_7  and  O_6 
REMARK    5  A    between atoms: C_9  and  C_10 
REMARK    6  A    between atoms: N_15  and  C_14 
REMARK    7  A    between atoms: N_20  and  C_19 
REMARK       I    between atoms: C_22  and  N_20 
ROOT
ATOM      1  C   LIG d   1       1.627  82.069 112.384  0.00  0.00     0.161 C 
ATOM      2  C   LIG d   1       0.408  81.432 112.668  0.00  0.00     0.016 C 
ATOM      3  C   LIG d   1      -0.852  82.049 112.489  0.00  0.00     0.038 C 
ATOM      4  C   LIG d   1      -0.984  83.299 111.867  0.00  0.00     0.028 C 
ATOM      5  C   LIG d   1       0.245  84.188 112.027  0.00  0.00    -0.047 C 
ATOM      6  C   LIG d   1       1.499  83.391 111.600  0.00  0.00     0.091 C 
ENDROOT
BRANCH   1   7
ATOM      7  O   LIG d   1       2.504  81.158 111.691  0.00  0.00    -0.368 OA
BRANCH   7   8
ATOM      8  C   LIG d   1       2.521  81.266 110.246  0.00  0.00     0.119 C 
BRANCH   8   9
ATOM      9  C   LIG d   1       1.940  79.958 109.677  0.00  0.00     0.028 C 
ATOM     10  C   LIG d   1       0.485  80.117 109.207  0.00  0.00     0.006 C 
ENDBRANCH   8   9
BRANCH   8  11
ATOM     11  C   LIG d   1       3.954  81.340 109.710  0.00  0.00     0.028 C 
ATOM     12  C   LIG d   1       4.043  82.032 108.341  0.00  0.00     0.006 C 
ENDBRANCH   8  11
ENDBRANCH   7   8
ENDBRANCH   1   7
BRANCH   6  13
ATOM     13  N   LIG d   1       2.755  84.159 111.805  0.00  0.00    -0.311 N 
ATOM     14  C   LIG d   1       3.320  84.906 110.858  0.00  0.00     0.210 C 
ATOM     15  C   LIG d   1       4.622  85.599 111.272  0.00  0.00     0.109 C 
ATOM     16  O   LIG d   1       2.850  85.087 109.725  0.00  0.00    -0.276 OA
ATOM     17  H   LIG d   1       3.187  84.094 112.705  0.00  0.00     0.149 HD
ENDBRANCH   6  13
BRANCH   5  18
ATOM     18  N   LIG d   1       0.026  85.400 111.216  0.00  0.00     0.381 N 
ATOM     19  H   LIG d   1      -0.084  85.149 110.254  0.00  0.00    -0.090 HD
ATOM     20  H   LIG d   1       0.832  85.995 111.297  0.00  0.00    -0.090 HD
ATOM     21  H   LIG d   1      -0.785  85.883 111.535  0.00  0.00    -0.090 HD
ENDBRANCH   5  18
BRANCH   3  22
ATOM     22  C   LIG d   1      -1.995  81.429 112.972  0.00  0.00     0.382 C 
ATOM     23  O   LIG d   1      -1.931  80.262 113.426  0.00  0.00    -0.241 OA
ATOM     24  O   LIG d   1      -3.097  82.007 112.919  0.00  0.00    -0.241 OA
ENDBRANCH   3  22
TORSDOF 7
ENDMDL
MODEL 6
REMARK VINA RESULT:      -6.1      2.145      5.124
REMARK  7 active torsions:
REMARK  status: ('A' for Active; 'I' for Inactive)
REMARK    1  A    between atoms: C_2  and  C_3 
REMARK    2  A    between atoms: C_3  and  O_6 
REMARK    3  A    between atoms: C_3  and  C_4 
REMARK    4  A    between atoms: C_7  and  O_6 
REMARK    5  A    between atoms: C_9  and  C_10 
REMARK    6  A    between atoms: N_15  and  C_14 
REMARK    7  A    between atoms: N_20  and  C_19 
REMARK       I    between atoms: C_22  and  N_20 
ROOT
ATOM      1  C   LIG d   1       0.997  82.079 110.877  0.00  0.00     0.161 C 
ATOM      2  C   LIG d   1       2.038  82.546 110.058  0.00  0.00     0.016 C 
ATOM      3  C   LIG d   1       2.808  81.705 109.222  0.00  0.00     0.038 C 
ATOM      4  C   LIG d   1       2.487  80.352 109.034  0.00  0.00     0.028 C 
ATOM      5  C   LIG d   1       1.762  79.730 110.223  0.00  0.00    -0.047 C 
ATOM      6  C   LIG d   1       0.560  80.625 110.601  0.00  0.00     0.091 C 
ENDROOT
BRANCH   1   7
ATOM      7  O   LIG d   1      -0.134  82.967 110.785  0.00  0.00    -0.368 OA
BRANCH   7   8
ATOM      8  C   LIG d   1       0.036  84.279 111.377  0.00  0.00     0.119 C 
BRANCH   8   9
ATOM      9  C   LIG d   1      -0.724  84.284 112.718  0.00  0.00     0.028 C 
ATOM     10  C   LIG d   1       0.076  84.962 113.843  0.00  0.00     0.006 C 
ENDBRANCH   8   9
BRANCH   8  11
ATOM     11  C   LIG d   1      -0.632  85.364 110.528  0.00  0.00     0.028 C 
ATOM     12  C   LIG d   1       0.216  85.779 109.316  0.00  0.00     0.006 C 
ENDBRANCH   8  11
ENDBRANCH   7   8
ENDBRANCH   1   7
BRANCH   6  13
ATOM     13  N   LIG d   1      -0.155  80.133 111.808  0.00  0.00    -0.311 N 
ATOM     14  C   LIG d   1      -1.188  79.294 111.758  0.00  0.00     0.210 C 
ATOM     15  C   LIG d   1      -1.792  78.929 113.117  0.00  0.00     0.109 C 
ATOM     16  O   LIG d   1      -1.641  78.792 110.718  0.00  0.00    -0.276 OA
ATOM     17  H   LIG d   1       0.168  80.465 112.696  0.00  0.00     0.149 HD
ENDBRANCH   6  13
BRANCH   5  18
ATOM     18  N   LIG d   1       1.367  78.362 109.838  0.00  0.00     0.381 N 
ATOM     19  H   LIG d   1       2.093  77.940 109.293  0.00  0.00    -0.090 HD
ATOM     20  H   LIG d   1       0.537  78.410 109.274  0.00  0.00    -0.090 HD
ATOM     21  H   LIG d   1       1.193  77.816 110.652  0.00  0.00    -0.090 HD
ENDBRANCH   5  18
BRANCH   3  22
ATOM     22  C   LIG d   1       3.937  82.208 108.595  0.00  0.00     0.382 C 
ATOM     23  O   LIG d   1       4.869  82.696 109.278  0.00  0.00    -0.241 OA
ATOM     24  O   LIG d   1       4.017  82.220 107.352  0.00  0.00    -0.241 OA
ENDBRANCH   3  22
TORSDOF 7
ENDMDL
MODEL 7
REMARK VINA RESULT:      -6.1      1.677      2.293
REMARK  7 active torsions:
REMARK  status: ('A' for Active; 'I' for Inactive)
REMARK    1  A    between atoms: C_2  and  C_3 
REMARK    2  A    between atoms: C_3  and  O_6 
REMARK    3  A    between atoms: C_3  and  C_4 
REMARK    4  A    between atoms: C_7  and  O_6 
REMARK    5  A    between atoms: C_9  and  C_10 
REMARK    6  A    between atoms: N_15  and  C_14 
REMARK    7  A    between atoms: N_20  and  C_19 
REMARK       I    between atoms: C_22  and  N_20 
ROOT
ATOM      1  C   LIG d   1       0.220  82.375 110.710  0.00  0.00     0.161 C 
ATOM      2  C   LIG d   1      -0.392  81.646 111.744  0.00  0.00     0.016 C 
ATOM      3  C   LIG d   1      -0.617  80.252 111.684  0.00  0.00     0.038 C 
ATOM      4  C   LIG d   1      -0.107  79.462 110.643  0.00  0.00     0.028 C 
ATOM      5  C   LIG d   1       0.075  80.226 109.336  0.00  0.00    -0.047 C 
ATOM      6  C   LIG d   1       0.883  81.514 109.616  0.00  0.00     0.091 C 
ENDROOT
BRANCH   1   7
ATOM      7  O   LIG d   1       1.174  83.303 111.265  0.00  0.00    -0.368 OA
BRANCH   7   8
ATOM      8  C   LIG d   1       0.692  84.648 111.502  0.00  0.00     0.119 C 
BRANCH   8   9
ATOM      9  C   LIG d   1       1.721  85.622 110.897  0.00  0.00     0.028 C 
ATOM     10  C   LIG d   1       1.247  86.221 109.561  0.00  0.00     0.006 C 
ENDBRANCH   8   9
BRANCH   8  11
ATOM     11  C   LIG d   1       0.658  84.972 112.998  0.00  0.00     0.028 C 
ATOM     12  C   LIG d   1      -0.763  84.941 113.583  0.00  0.00     0.006 C 
ENDBRANCH   8  11
ENDBRANCH   7   8
ENDBRANCH   1   7
BRANCH   6  13
ATOM     13  N   LIG d   1       1.034  82.362 108.405  0.00  0.00    -0.311 N 
ATOM     14  C   LIG d   1       2.157  83.010 108.099  0.00  0.00     0.210 C 
ATOM     15  C   LIG d   1       2.093  83.845 106.817  0.00  0.00     0.109 C 
ATOM     16  O   LIG d   1       3.210  82.947 108.751  0.00  0.00    -0.276 OA
ATOM     17  H   LIG d   1       0.238  82.444 107.803  0.00  0.00     0.149 HD
ENDBRANCH   6  13
BRANCH   5  18
ATOM     18  N   LIG d   1       0.741  79.321 108.380  0.00  0.00     0.381 N 
ATOM     19  H   LIG d   1       0.056  78.774 107.898  0.00  0.00    -0.090 HD
ATOM     20  H   LIG d   1       1.343  78.697 108.888  0.00  0.00    -0.090 HD
ATOM     21  H   LIG d   1       1.275  79.850 107.725  0.00  0.00    -0.090 HD
ENDBRANCH   5  18
BRANCH   3  22
ATOM     22  C   LIG d   1      -1.396  79.640 112.654  0.00  0.00     0.382 C 
ATOM     23  O   LIG d   1      -2.625  79.476 112.460  0.00  0.00    -0.241 OA
ATOM     24  O   LIG d   1      -0.894  79.290 113.739  0.00  0.00    -0.241 OA
ENDBRANCH   3  22
TORSDOF 7
ENDMDL
MODEL 8
REMARK VINA RESULT:      -6.0      2.930      4.903
REMARK  7 active torsions:
REMARK  status: ('A' for Active; 'I' for Inactive)
REMARK    1  A    between atoms: C_2  and  C_3 
REMARK    2  A    between atoms: C_3  and  O_6 
REMARK    3  A    between atoms: C_3  and  C_4 
REMARK    4  A    between atoms: C_7  and  O_6 
REMARK    5  A    between atoms: C_9  and  C_10 
REMARK    6  A    between atoms: N_15  and  C_14 
REMARK    7  A    between atoms: N_20  and  C_19 
REMARK       I    between atoms: C_22  and  N_20 
ROOT
ATOM      1  C   LIG d   1       3.026  84.226 111.525  0.00  0.00     0.161 C 
ATOM      2  C   LIG d   1       1.744  83.671 111.676  0.00  0.00     0.016 C 
ATOM      3  C   LIG d   1       0.551  84.407 111.495  0.00  0.00     0.038 C 
ATOM      4  C   LIG d   1       0.557  85.720 111.000  0.00  0.00     0.028 C 
ATOM      5  C   LIG d   1       1.840  86.480 111.317  0.00  0.00    -0.047 C 
ATOM      6  C   LIG d   1       3.052  85.627 110.878  0.00  0.00     0.091 C 
ENDROOT
BRANCH   1   7
ATOM      7  O   LIG d   1       3.868  83.318 110.789  0.00  0.00    -0.368 OA
BRANCH   7   8
ATOM      8  C   LIG d   1       3.191  82.414 109.882  0.00  0.00     0.119 C 
BRANCH   8   9
ATOM      9  C   LIG d   1       3.962  81.079 109.898  0.00  0.00     0.028 C 
ATOM     10  C   LIG d   1       3.069  79.882 109.533  0.00  0.00     0.006 C 
ENDBRANCH   8   9
BRANCH   8  11
ATOM     11  C   LIG d   1       3.272  82.911 108.436  0.00  0.00     0.028 C 
ATOM     12  C   LIG d   1       1.928  83.443 107.913  0.00  0.00     0.006 C 
ENDBRANCH   8  11
ENDBRANCH   7   8
ENDBRANCH   1   7
BRANCH   6  13
ATOM     13  N   LIG d   1       4.349  86.260 111.229  0.00  0.00    -0.311 N 
ATOM     14  C   LIG d   1       4.548  86.951 112.350  0.00  0.00     0.210 C 
ATOM     15  C   LIG d   1       5.954  87.538 112.507  0.00  0.00     0.109 C 
ATOM     16  O   LIG d   1       3.703  87.106 113.245  0.00  0.00    -0.276 OA
ATOM     17  H   LIG d   1       5.099  86.158 110.574  0.00  0.00     0.149 HD
ENDBRANCH   6  13
BRANCH   5  18
ATOM     18  N   LIG d   1       1.769  87.782 110.627  0.00  0.00     0.381 N 
ATOM     19  H   LIG d   1       2.409  88.425 111.049  0.00  0.00    -0.090 HD
ATOM     20  H   LIG d   1       0.840  88.152 110.725  0.00  0.00    -0.090 HD
ATOM     21  H   LIG d   1       1.990  87.669 109.662  0.00  0.00    -0.090 HD
ENDBRANCH   5  18
BRANCH   3  22
ATOM     22  C   LIG d   1      -0.665  83.843 111.848  0.00  0.00     0.382 C 
ATOM     23  O   LIG d   1      -1.157  82.924 111.149  0.00  0.00    -0.241 OA
ATOM     24  O   LIG d   1      -1.298  84.270 112.832  0.00  0.00    -0.241 OA
ENDBRANCH   3  22
TORSDOF 7
ENDMDL
MODEL 9
REMARK VINA RESULT:      -5.8      2.315      3.413
REMARK  7 active torsions:
REMARK  status: ('A' for Active; 'I' for Inactive)
REMARK    1  A    between atoms: C_2  and  C_3 
REMARK    2  A    between atoms: C_3  and  O_6 
REMARK    3  A    between atoms: C_3  and  C_4 
REMARK    4  A    between atoms: C_7  and  O_6 
REMARK    5  A    between atoms: C_9  and  C_10 
REMARK    6  A    between atoms: N_15  and  C_14 
REMARK    7  A    between atoms: N_20  and  C_19 
REMARK       I    between atoms: C_22  and  N_20 
ROOT
ATOM      1  C   LIG d   1       2.305  84.532 111.112  0.00  0.00     0.161 C 
ATOM      2  C   LIG d   1       1.287  85.246 111.765  0.00  0.00     0.016 C 
ATOM      3  C   LIG d   1      -0.032  84.759 111.915  0.00  0.00     0.038 C 
ATOM      4  C   LIG d   1      -0.385  83.450 111.552  0.00  0.00     0.028 C 
ATOM      5  C   LIG d   1       0.480  82.878 110.433  0.00  0.00    -0.047 C 
ATOM      6  C   LIG d   1       1.969  83.057 110.808  0.00  0.00     0.091 C 
ENDROOT
BRANCH   1   7
ATOM      7  O   LIG d   1       3.528  84.621 111.871  0.00  0.00    -0.368 OA
BRANCH   7   8
ATOM      8  C   LIG d   1       3.793  85.896 112.505  0.00  0.00     0.119 C 
BRANCH   8   9
ATOM      9  C   LIG d   1       4.814  86.645 111.628  0.00  0.00     0.028 C 
ATOM     10  C   LIG d   1       5.797  87.487 112.460  0.00  0.00     0.006 C 
ENDBRANCH   8   9
BRANCH   8  11
ATOM     11  C   LIG d   1       4.481  85.712 113.861  0.00  0.00     0.028 C 
ATOM     12  C   LIG d   1       3.543  85.986 115.047  0.00  0.00     0.006 C 
ENDBRANCH   8  11
ENDBRANCH   7   8
ENDBRANCH   1   7
BRANCH   6  13
ATOM     13  N   LIG d   1       2.884  82.600 109.730  0.00  0.00    -0.311 N 
ATOM     14  C   LIG d   1       3.827  81.677 109.911  0.00  0.00     0.210 C 
ATOM     15  C   LIG d   1       4.674  81.367 108.673  0.00  0.00     0.109 C 
ATOM     16  O   LIG d   1       4.021  81.063 110.971  0.00  0.00    -0.276 OA
ATOM     17  H   LIG d   1       2.775  83.024 108.829  0.00  0.00     0.149 HD
ENDBRANCH   6  13
BRANCH   5  18
ATOM     18  N   LIG d   1       0.095  81.466 110.251  0.00  0.00     0.381 N 
ATOM     19  H   LIG d   1      -0.899  81.375 110.313  0.00  0.00    -0.090 HD
ATOM     20  H   LIG d   1       0.509  80.919 110.986  0.00  0.00    -0.090 HD
ATOM     21  H   LIG d   1       0.411  81.138 109.365  0.00  0.00    -0.090 HD
ENDBRANCH   5  18
BRANCH   3  22
ATOM     22  C   LIG d   1      -1.025  85.598 112.397  0.00  0.00     0.382 C 
ATOM     23  O   LIG d   1      -1.332  85.572 113.613  0.00  0.00    -0.241 OA
ATOM     24  O   LIG d   1      -1.646  86.351 111.623  0.00  0.00    -0.241 OA
ENDBRANCH   3  22
TORSDOF 7
ENDMDL
