MODEL 1
REMARK VINA RESULT:      -6.1      0.000      0.000
REMARK  7 active torsions:
REMARK  status: ('A' for Active; 'I' for Inactive)
REMARK    1  A    between atoms: C_2  and  C_3 
REMARK    2  A    between atoms: C_3  and  O_6 
REMARK    3  A    between atoms: C_3  and  C_4 
REMARK    4  A    between atoms: C_7  and  O_6 
REMARK    5  A    between atoms: C_9  and  C_10 
REMARK    6  A    between atoms: N_15  and  C_14 
REMARK    7  A    between atoms: N_20  and  C_19 
REMARK       I    between atoms: C_22  and  N_20 
ROOT
ATOM      1  C   LIG d   1       2.014  83.532 111.224  0.00  0.00     0.161 C 
ATOM      2  C   LIG d   1       2.817  82.842 110.300  0.00  0.00     0.016 C 
ATOM      3  C   LIG d   1       2.709  81.453 110.060  0.00  0.00     0.038 C 
ATOM      4  C   LIG d   1       1.680  80.681 110.620  0.00  0.00     0.028 C 
ATOM      5  C   LIG d   1       1.163  81.233 111.945  0.00  0.00    -0.047 C 
ATOM      6  C   LIG d   1       0.813  82.727 111.763  0.00  0.00     0.091 C 
ENDROOT
BRANCH   1   7
ATOM      7  O   LIG d   1       1.567  84.776 110.650  0.00  0.00    -0.368 OA
BRANCH   7   8
ATOM      8  C   LIG d   1       0.531  84.676 109.642  0.00  0.00     0.119 C 
BRANCH   8   9
ATOM      9  C   LIG d   1       1.065  85.347 108.361  0.00  0.00     0.028 C 
ATOM     10  C   LIG d   1       1.470  84.323 107.288  0.00  0.00     0.006 C 
ENDBRANCH   8   9
BRANCH   8  11
ATOM     11  C   LIG d   1      -0.709  85.485 110.036  0.00  0.00     0.028 C 
ATOM     12  C   LIG d   1      -0.462  86.405 111.242  0.00  0.00     0.006 C 
ENDBRANCH   8  11
ENDBRANCH   7   8
ENDBRANCH   1   7
BRANCH   6  13
ATOM     13  N   LIG d   1       0.378  83.366 113.033  0.00  0.00    -0.311 N 
ATOM     14  C   LIG d   1      -0.893  83.419 113.429  0.00  0.00     0.210 C 
ATOM     15  C   LIG d   1      -1.125  84.140 114.761  0.00  0.00     0.109 C 
ATOM     16  O   LIG d   1      -1.845  82.909 112.821  0.00  0.00    -0.276 OA
ATOM     17  H   LIG d   1       1.090  83.777 113.604  0.00  0.00     0.149 HD
ENDBRANCH   6  13
BRANCH   5  18
ATOM     18  N   LIG d   1       0.005  80.412 112.346  0.00  0.00     0.381 N 
ATOM     19  H   LIG d   1       0.272  79.783 113.077  0.00  0.00    -0.090 HD
ATOM     20  H   LIG d   1      -0.298  79.869 111.557  0.00  0.00    -0.090 HD
ATOM     21  H   LIG d   1      -0.737  80.999 112.659  0.00  0.00    -0.090 HD
ENDBRANCH   5  18
BRANCH   3  22
ATOM     22  C   LIG d   1       3.661  80.815 109.280  0.00  0.00     0.382 C 
ATOM     23  O   LIG d   1       4.296  81.460 108.411  0.00  0.00    -0.241 OA
ATOM     24  O   LIG d   1       3.863  79.592 109.404  0.00  0.00    -0.241 OA
ENDBRANCH   3  22
TORSDOF 7
ENDMDL
MODEL 2
REMARK VINA RESULT:      -6.1      2.239      3.407
REMARK  7 active torsions:
REMARK  status: ('A' for Active; 'I' for Inactive)
REMARK    1  A    between atoms: C_2  and  C_3 
REMARK    2  A    between atoms: C_3  and  O_6 
REMARK    3  A    between atoms: C_3  and  C_4 
REMARK    4  A    between atoms: C_7  and  O_6 
REMARK    5  A    between atoms: C_9  and  C_10 
REMARK    6  A    between atoms: N_15  and  C_14 
REMARK    7  A    between atoms: N_20  and  C_19 
REMARK       I    between atoms: C_22  and  N_20 
ROOT
ATOM      1  C   LIG d   1       0.712  81.967 110.687  0.00  0.00     0.161 C 
ATOM      2  C   LIG d   1       1.638  82.487 109.767  0.00  0.00     0.016 C 
ATOM      3  C   LIG d   1       2.302  81.697 108.801  0.00  0.00     0.038 C 
ATOM      4  C   LIG d   1       1.969  80.350 108.589  0.00  0.00     0.028 C 
ATOM      5  C   LIG d   1       1.405  79.663 109.828  0.00  0.00    -0.047 C 
ATOM      6  C   LIG d   1       0.254  80.522 110.398  0.00  0.00     0.091 C 
ENDROOT
BRANCH   1   7
ATOM      7  O   LIG d   1      -0.428  82.844 110.782  0.00  0.00    -0.368 OA
BRANCH   7   8
ATOM      8  C   LIG d   1      -0.160  84.190 111.248  0.00  0.00     0.119 C 
BRANCH   8   9
ATOM      9  C   LIG d   1      -0.778  84.325 112.653  0.00  0.00     0.028 C 
ATOM     10  C   LIG d   1       0.236  84.027 113.770  0.00  0.00     0.006 C 
ENDBRANCH   8   9
BRANCH   8  11
ATOM     11  C   LIG d   1      -0.880  85.232 110.386  0.00  0.00     0.028 C 
ATOM     12  C   LIG d   1      -1.244  86.503 111.169  0.00  0.00     0.006 C 
ENDBRANCH   8  11
ENDBRANCH   7   8
ENDBRANCH   1   7
BRANCH   6  13
ATOM     13  N   LIG d   1      -0.299  79.964 111.660  0.00  0.00    -0.311 N 
ATOM     14  C   LIG d   1      -1.312  79.101 111.698  0.00  0.00     0.210 C 
ATOM     15  C   LIG d   1      -1.739  78.666 113.103  0.00  0.00     0.109 C 
ATOM     16  O   LIG d   1      -1.877  78.629 110.700  0.00  0.00    -0.276 OA
ATOM     17  H   LIG d   1       0.121  80.270 112.516  0.00  0.00     0.149 HD
ENDBRANCH   6  13
BRANCH   5  18
ATOM     18  N   LIG d   1       0.974  78.310 109.429  0.00  0.00     0.381 N 
ATOM     19  H   LIG d   1       0.896  77.727 110.239  0.00  0.00    -0.090 HD
ATOM     20  H   LIG d   1       1.669  77.913 108.821  0.00  0.00    -0.090 HD
ATOM     21  H   LIG d   1       0.098  78.356 108.958  0.00  0.00    -0.090 HD
ENDBRANCH   5  18
BRANCH   3  22
ATOM     22  C   LIG d   1       3.339  82.243 108.061  0.00  0.00     0.382 C 
ATOM     23  O   LIG d   1       4.505  81.797 108.191  0.00  0.00    -0.241 OA
ATOM     24  O   LIG d   1       3.132  83.206 107.299  0.00  0.00    -0.241 OA
ENDBRANCH   3  22
TORSDOF 7
ENDMDL
MODEL 3
REMARK VINA RESULT:      -6.1      2.012      4.943
REMARK  7 active torsions:
REMARK  status: ('A' for Active; 'I' for Inactive)
REMARK    1  A    between atoms: C_2  and  C_3 
REMARK    2  A    between atoms: C_3  and  O_6 
REMARK    3  A    between atoms: C_3  and  C_4 
REMARK    4  A    between atoms: C_7  and  O_6 
REMARK    5  A    between atoms: C_9  and  C_10 
REMARK    6  A    between atoms: N_15  and  C_14 
REMARK    7  A    between atoms: N_20  and  C_19 
REMARK       I    between atoms: C_22  and  N_20 
ROOT
ATOM      1  C   LIG d   1      -0.060  82.830 111.195  0.00  0.00     0.161 C 
ATOM      2  C   LIG d   1      -1.103  82.552 112.095  0.00  0.00     0.016 C 
ATOM      3  C   LIG d   1      -1.549  81.243 112.389  0.00  0.00     0.038 C 
ATOM      4  C   LIG d   1      -0.878  80.107 111.914  0.00  0.00     0.028 C 
ATOM      5  C   LIG d   1      -0.136  80.345 110.603  0.00  0.00    -0.047 C 
ATOM      6  C   LIG d   1       0.757  81.598 110.752  0.00  0.00     0.091 C 
ENDROOT
BRANCH   1   7
ATOM      7  O   LIG d   1       0.810  83.835 111.751  0.00  0.00    -0.368 OA
BRANCH   7   8
ATOM      8  C   LIG d   1       0.815  85.117 111.076  0.00  0.00     0.119 C 
BRANCH   8   9
ATOM      9  C   LIG d   1       0.012  86.102 111.948  0.00  0.00     0.028 C 
ATOM     10  C   LIG d   1      -1.329  86.494 111.306  0.00  0.00     0.006 C 
ENDBRANCH   8   9
BRANCH   8  11
ATOM     11  C   LIG d   1       0.064  85.049 109.744  0.00  0.00     0.028 C 
ATOM     12  C   LIG d   1       0.932  85.471 108.548  0.00  0.00     0.006 C 
ENDBRANCH   8  11
ENDBRANCH   7   8
ENDBRANCH   1   7
BRANCH   6  13
ATOM     13  N   LIG d   1       1.454  81.951 109.488  0.00  0.00    -0.311 N 
ATOM     14  C   LIG d   1       2.748  82.260 109.426  0.00  0.00     0.210 C 
ATOM     15  C   LIG d   1       3.262  82.613 108.027  0.00  0.00     0.109 C 
ATOM     16  O   LIG d   1       3.526  82.244 110.392  0.00  0.00    -0.276 OA
ATOM     17  H   LIG d   1       0.905  81.958 108.651  0.00  0.00     0.149 HD
ENDBRANCH   6  13
BRANCH   5  18
ATOM     18  N   LIG d   1       0.630  79.122 110.296  0.00  0.00     0.381 N 
ATOM     19  H   LIG d   1       1.505  79.367 109.878  0.00  0.00    -0.090 HD
ATOM     20  H   LIG d   1       0.110  78.570 109.637  0.00  0.00    -0.090 HD
ATOM     21  H   LIG d   1       0.786  78.599 111.129  0.00  0.00    -0.090 HD
ENDBRANCH   5  18
BRANCH   3  22
ATOM     22  C   LIG d   1      -2.704  81.062 113.135  0.00  0.00     0.382 C 
ATOM     23  O   LIG d   1      -3.197  79.915 113.259  0.00  0.00    -0.241 OA
ATOM     24  O   LIG d   1      -3.284  82.038 113.648  0.00  0.00    -0.241 OA
ENDBRANCH   3  22
TORSDOF 7
ENDMDL
MODEL 4
REMARK VINA RESULT:      -6.0      0.946      1.168
REMARK  7 active torsions:
REMARK  status: ('A' for Active; 'I' for Inactive)
REMARK    1  A    between atoms: C_2  and  C_3 
REMARK    2  A    between atoms: C_3  and  O_6 
REMARK    3  A    between atoms: C_3  and  C_4 
REMARK    4  A    between atoms: C_7  and  O_6 
REMARK    5  A    between atoms: C_9  and  C_10 
REMARK    6  A    between atoms: N_15  and  C_14 
REMARK    7  A    between atoms: N_20  and  C_19 
REMARK       I    between atoms: C_22  and  N_20 
ROOT
ATOM      1  C   LIG d   1       1.642  83.376 111.215  0.00  0.00     0.161 C 
ATOM      2  C   LIG d   1       2.526  83.096 110.159  0.00  0.00     0.016 C 
ATOM      3  C   LIG d   1       2.545  81.863 109.467  0.00  0.00     0.038 C 
ATOM      4  C   LIG d   1       1.573  80.875 109.685  0.00  0.00     0.028 C 
ATOM      5  C   LIG d   1       0.975  80.913 111.087  0.00  0.00    -0.047 C 
ATOM      6  C   LIG d   1       0.502  82.352 111.392  0.00  0.00     0.091 C 
ENDROOT
BRANCH   1   7
ATOM      7  O   LIG d   1       1.104  84.704 111.061  0.00  0.00    -0.368 OA
BRANCH   7   8
ATOM      8  C   LIG d   1       0.169  84.891 109.970  0.00  0.00     0.119 C 
BRANCH   8   9
ATOM      9  C   LIG d   1       0.821  85.858 108.963  0.00  0.00     0.028 C 
ATOM     10  C   LIG d   1       1.205  85.163 107.646  0.00  0.00     0.006 C 
ENDBRANCH   8   9
BRANCH   8  11
ATOM     11  C   LIG d   1      -1.105  85.597 110.442  0.00  0.00     0.028 C 
ATOM     12  C   LIG d   1      -1.030  86.043 111.911  0.00  0.00     0.006 C 
ENDBRANCH   8  11
ENDBRANCH   7   8
ENDBRANCH   1   7
BRANCH   6  13
ATOM     13  N   LIG d   1      -0.020  82.496 112.776  0.00  0.00    -0.311 N 
ATOM     14  C   LIG d   1      -1.308  82.366 113.092  0.00  0.00     0.210 C 
ATOM     15  C   LIG d   1      -1.634  82.573 114.574  0.00  0.00     0.109 C 
ATOM     16  O   LIG d   1      -2.205  82.067 112.290  0.00  0.00    -0.276 OA
ATOM     17  H   LIG d   1       0.644  82.707 113.495  0.00  0.00     0.149 HD
ENDBRANCH   6  13
BRANCH   5  18
ATOM     18  N   LIG d   1      -0.117  79.923 111.132  0.00  0.00     0.381 N 
ATOM     19  H   LIG d   1      -0.579  79.887 110.246  0.00  0.00    -0.090 HD
ATOM     20  H   LIG d   1      -0.786  80.208 111.825  0.00  0.00    -0.090 HD
ATOM     21  H   LIG d   1       0.246  79.024 111.362  0.00  0.00    -0.090 HD
ENDBRANCH   5  18
BRANCH   3  22
ATOM     22  C   LIG d   1       3.569  81.593 108.572  0.00  0.00     0.382 C 
ATOM     23  O   LIG d   1       4.341  80.625 108.776  0.00  0.00    -0.241 OA
ATOM     24  O   LIG d   1       3.759  82.332 107.587  0.00  0.00    -0.241 OA
ENDBRANCH   3  22
TORSDOF 7
ENDMDL
MODEL 5
REMARK VINA RESULT:      -6.0      2.059      4.992
REMARK  7 active torsions:
REMARK  status: ('A' for Active; 'I' for Inactive)
REMARK    1  A    between atoms: C_2  and  C_3 
REMARK    2  A    between atoms: C_3  and  O_6 
REMARK    3  A    between atoms: C_3  and  C_4 
REMARK    4  A    between atoms: C_7  and  O_6 
REMARK    5  A    between atoms: C_9  and  C_10 
REMARK    6  A    between atoms: N_15  and  C_14 
REMARK    7  A    between atoms: N_20  and  C_19 
REMARK       I    between atoms: C_22  and  N_20 
ROOT
ATOM      1  C   LIG d   1       1.029  83.563 110.501  0.00  0.00     0.161 C 
ATOM      2  C   LIG d   1       1.037  84.641 111.402  0.00  0.00     0.016 C 
ATOM      3  C   LIG d   1       0.201  84.710 112.540  0.00  0.00     0.038 C 
ATOM      4  C   LIG d   1      -0.597  83.629 112.940  0.00  0.00     0.028 C 
ATOM      5  C   LIG d   1      -1.013  82.723 111.786  0.00  0.00    -0.047 C 
ATOM      6  C   LIG d   1       0.245  82.324 110.982  0.00  0.00     0.091 C 
ENDROOT
BRANCH   1   7
ATOM      7  O   LIG d   1       2.382  83.199 110.163  0.00  0.00    -0.368 OA
BRANCH   7   8
ATOM      8  C   LIG d   1       2.931  83.820 108.974  0.00  0.00     0.119 C 
BRANCH   8   9
ATOM      9  C   LIG d   1       2.005  83.461 107.795  0.00  0.00     0.028 C 
ATOM     10  C   LIG d   1       1.539  84.703 107.017  0.00  0.00     0.006 C 
ENDBRANCH   8   9
BRANCH   8  11
ATOM     11  C   LIG d   1       4.295  83.225 108.614  0.00  0.00     0.028 C 
ATOM     12  C   LIG d   1       4.221  81.728 108.272  0.00  0.00     0.006 C 
ENDBRANCH   8  11
ENDBRANCH   7   8
ENDBRANCH   1   7
BRANCH   6  13
ATOM     13  N   LIG d   1      -0.082  81.507 109.785  0.00  0.00    -0.311 N 
ATOM     14  C   LIG d   1       0.612  80.430 109.420  0.00  0.00     0.210 C 
ATOM     15  C   LIG d   1       0.118  79.744 108.142  0.00  0.00     0.109 C 
ATOM     16  O   LIG d   1       1.570  79.959 110.051  0.00  0.00    -0.276 OA
ATOM     17  H   LIG d   1      -0.865  81.799 109.233  0.00  0.00     0.149 HD
ENDBRANCH   6  13
BRANCH   5  18
ATOM     18  N   LIG d   1      -1.723  81.565 112.361  0.00  0.00     0.381 N 
ATOM     19  H   LIG d   1      -2.277  81.123 111.655  0.00  0.00    -0.090 HD
ATOM     20  H   LIG d   1      -2.337  81.888 113.088  0.00  0.00    -0.090 HD
ATOM     21  H   LIG d   1      -1.068  80.915 112.735  0.00  0.00    -0.090 HD
ENDBRANCH   5  18
BRANCH   3  22
ATOM     22  C   LIG d   1       0.129  85.887 113.269  0.00  0.00     0.382 C 
ATOM     23  O   LIG d   1       0.909  86.835 113.008  0.00  0.00    -0.241 OA
ATOM     24  O   LIG d   1      -0.676  85.997 114.213  0.00  0.00    -0.241 OA
ENDBRANCH   3  22
TORSDOF 7
ENDMDL
MODEL 6
REMARK VINA RESULT:      -5.9      1.909      2.596
REMARK  7 active torsions:
REMARK  status: ('A' for Active; 'I' for Inactive)
REMARK    1  A    between atoms: C_2  and  C_3 
REMARK    2  A    between atoms: C_3  and  O_6 
REMARK    3  A    between atoms: C_3  and  C_4 
REMARK    4  A    between atoms: C_7  and  O_6 
REMARK    5  A    between atoms: C_9  and  C_10 
REMARK    6  A    between atoms: N_15  and  C_14 
REMARK    7  A    between atoms: N_20  and  C_19 
REMARK       I    between atoms: C_22  and  N_20 
ROOT
ATOM      1  C   LIG d   1       2.263  83.285 111.657  0.00  0.00     0.161 C 
ATOM      2  C   LIG d   1       3.232  83.378 110.644  0.00  0.00     0.016 C 
ATOM      3  C   LIG d   1       3.092  82.769 109.376  0.00  0.00     0.038 C 
ATOM      4  C   LIG d   1       1.898  82.149 108.979  0.00  0.00     0.028 C 
ATOM      5  C   LIG d   1       1.087  81.595 110.145  0.00  0.00    -0.047 C 
ATOM      6  C   LIG d   1       0.907  82.706 111.204  0.00  0.00     0.091 C 
ENDROOT
BRANCH   1   7
ATOM      7  O   LIG d   1       2.077  84.574 112.275  0.00  0.00    -0.368 OA
BRANCH   7   8
ATOM      8  C   LIG d   1       2.418  85.725 111.463  0.00  0.00     0.119 C 
BRANCH   8   9
ATOM      9  C   LIG d   1       3.139  86.736 112.375  0.00  0.00     0.028 C 
ATOM     10  C   LIG d   1       4.661  86.515 112.410  0.00  0.00     0.006 C 
ENDBRANCH   8   9
BRANCH   8  11
ATOM     11  C   LIG d   1       1.164  86.449 110.966  0.00  0.00     0.028 C 
ATOM     12  C   LIG d   1       0.711  85.972 109.577  0.00  0.00     0.006 C 
ENDBRANCH   8  11
ENDBRANCH   7   8
ENDBRANCH   1   7
BRANCH   6  13
ATOM     13  N   LIG d   1       0.196  82.224 112.417  0.00  0.00    -0.311 N 
ATOM     14  C   LIG d   1      -0.853  82.849 112.949  0.00  0.00     0.210 C 
ATOM     15  C   LIG d   1      -1.424  82.194 114.210  0.00  0.00     0.109 C 
ATOM     16  O   LIG d   1      -1.384  83.865 112.478  0.00  0.00    -0.276 OA
ATOM     17  H   LIG d   1       0.541  81.387 112.845  0.00  0.00     0.149 HD
ENDBRANCH   6  13
BRANCH   5  18
ATOM     18  N   LIG d   1      -0.193  81.100 109.602  0.00  0.00     0.381 N 
ATOM     19  H   LIG d   1      -0.366  80.173 109.935  0.00  0.00    -0.090 HD
ATOM     20  H   LIG d   1      -0.131  81.069 108.600  0.00  0.00    -0.090 HD
ATOM     21  H   LIG d   1      -0.936  81.704 109.878  0.00  0.00    -0.090 HD
ENDBRANCH   5  18
BRANCH   3  22
ATOM     22  C   LIG d   1       4.169  82.744 108.503  0.00  0.00     0.382 C 
ATOM     23  O   LIG d   1       4.205  81.899 107.576  0.00  0.00    -0.241 OA
ATOM     24  O   LIG d   1       5.127  83.526 108.658  0.00  0.00    -0.241 OA
ENDBRANCH   3  22
TORSDOF 7
ENDMDL
MODEL 7
REMARK VINA RESULT:      -5.7      2.921      5.152
REMARK  7 active torsions:
REMARK  status: ('A' for Active; 'I' for Inactive)
REMARK    1  A    between atoms: C_2  and  C_3 
REMARK    2  A    between atoms: C_3  and  O_6 
REMARK    3  A    between atoms: C_3  and  C_4 
REMARK    4  A    between atoms: C_7  and  O_6 
REMARK    5  A    between atoms: C_9  and  C_10 
REMARK    6  A    between atoms: N_15  and  C_14 
REMARK    7  A    between atoms: N_20  and  C_19 
REMARK       I    between atoms: C_22  and  N_20 
ROOT
ATOM      1  C   LIG d   1      -0.024  81.392 110.919  0.00  0.00     0.161 C 
ATOM      2  C   LIG d   1      -0.712  80.343 111.551  0.00  0.00     0.016 C 
ATOM      3  C   LIG d   1      -0.878  79.063 110.975  0.00  0.00     0.038 C 
ATOM      4  C   LIG d   1      -0.233  78.697 109.784  0.00  0.00     0.028 C 
ATOM      5  C   LIG d   1       0.055  79.877 108.863  0.00  0.00    -0.047 C 
ATOM      6  C   LIG d   1       0.781  80.978 109.670  0.00  0.00     0.091 C 
ENDROOT
BRANCH   1   7
ATOM      7  O   LIG d   1       0.832  82.058 111.869  0.00  0.00    -0.368 OA
BRANCH   7   8
ATOM      8  C   LIG d   1       0.543  83.455 112.118  0.00  0.00     0.119 C 
BRANCH   8   9
ATOM      9  C   LIG d   1       0.275  83.610 113.628  0.00  0.00     0.028 C 
ATOM     10  C   LIG d   1      -1.153  83.192 114.017  0.00  0.00     0.006 C 
ENDBRANCH   8   9
BRANCH   8  11
ATOM     11  C   LIG d   1      -0.756  83.887 111.430  0.00  0.00     0.028 C 
ATOM     12  C   LIG d   1      -0.560  85.083 110.486  0.00  0.00     0.006 C 
ENDBRANCH   8  11
ENDBRANCH   7   8
ENDBRANCH   1   7
BRANCH   6  13
ATOM     13  N   LIG d   1       1.025  82.203 108.865  0.00  0.00    -0.311 N 
ATOM     14  C   LIG d   1       2.174  82.453 108.240  0.00  0.00     0.210 C 
ATOM     15  C   LIG d   1       2.222  83.784 107.482  0.00  0.00     0.109 C 
ATOM     16  O   LIG d   1       3.147  81.685 108.215  0.00  0.00    -0.276 OA
ATOM     17  H   LIG d   1       0.277  82.866 108.806  0.00  0.00     0.149 HD
ENDBRANCH   6  13
BRANCH   5  18
ATOM     18  N   LIG d   1       0.849  79.373 107.727  0.00  0.00     0.381 N 
ATOM     19  H   LIG d   1       0.321  79.455 106.881  0.00  0.00    -0.090 HD
ATOM     20  H   LIG d   1       1.053  78.401 107.879  0.00  0.00    -0.090 HD
ATOM     21  H   LIG d   1       1.698  79.890 107.649  0.00  0.00    -0.090 HD
ENDBRANCH   5  18
BRANCH   3  22
ATOM     22  C   LIG d   1      -1.729  78.146 111.572  0.00  0.00     0.382 C 
ATOM     23  O   LIG d   1      -2.766  78.541 112.158  0.00  0.00    -0.241 OA
ATOM     24  O   LIG d   1      -1.452  76.931 111.570  0.00  0.00    -0.241 OA
ENDBRANCH   3  22
TORSDOF 7
ENDMDL
MODEL 8
REMARK VINA RESULT:      -5.7      2.716      5.764
REMARK  7 active torsions:
REMARK  status: ('A' for Active; 'I' for Inactive)
REMARK    1  A    between atoms: C_2  and  C_3 
REMARK    2  A    between atoms: C_3  and  O_6 
REMARK    3  A    between atoms: C_3  and  C_4 
REMARK    4  A    between atoms: C_7  and  O_6 
REMARK    5  A    between atoms: C_9  and  C_10 
REMARK    6  A    between atoms: N_15  and  C_14 
REMARK    7  A    between atoms: N_20  and  C_19 
REMARK       I    between atoms: C_22  and  N_20 
ROOT
ATOM      1  C   LIG d   1       0.334  82.678 110.719  0.00  0.00     0.161 C 
ATOM      2  C   LIG d   1       0.129  84.019 111.083  0.00  0.00     0.016 C 
ATOM      3  C   LIG d   1       0.491  85.112 110.262  0.00  0.00     0.038 C 
ATOM      4  C   LIG d   1       0.947  84.933 108.948  0.00  0.00     0.028 C 
ATOM      5  C   LIG d   1       1.643  83.594 108.726  0.00  0.00    -0.047 C 
ATOM      6  C   LIG d   1       0.729  82.461 109.243  0.00  0.00     0.091 C 
ENDROOT
BRANCH   1   7
ATOM      7  O   LIG d   1      -0.834  81.899 111.045  0.00  0.00    -0.368 OA
BRANCH   7   8
ATOM      8  C   LIG d   1      -0.656  80.875 112.055  0.00  0.00     0.119 C 
BRANCH   8   9
ATOM      9  C   LIG d   1      -1.769  81.061 113.104  0.00  0.00     0.028 C 
ATOM     10  C   LIG d   1      -2.784  79.905 113.095  0.00  0.00     0.006 C 
ENDBRANCH   8   9
BRANCH   8  11
ATOM     11  C   LIG d   1       0.657  81.067 112.818  0.00  0.00     0.028 C 
ATOM     12  C   LIG d   1       0.440  81.433 114.295  0.00  0.00     0.006 C 
ENDBRANCH   8  11
ENDBRANCH   7   8
ENDBRANCH   1   7
BRANCH   6  13
ATOM     13  N   LIG d   1       1.370  81.124 109.141  0.00  0.00    -0.311 N 
ATOM     14  C   LIG d   1       0.729  80.034 108.720  0.00  0.00     0.210 C 
ATOM     15  C   LIG d   1       1.570  78.754 108.709  0.00  0.00     0.109 C 
ATOM     16  O   LIG d   1      -0.446  80.013 108.324  0.00  0.00    -0.276 OA
ATOM     17  H   LIG d   1       2.331  81.057 109.413  0.00  0.00     0.149 HD
ENDBRANCH   6  13
BRANCH   5  18
ATOM     18  N   LIG d   1       1.945  83.482 107.286  0.00  0.00     0.381 N 
ATOM     19  H   LIG d   1       2.878  83.796 107.110  0.00  0.00    -0.090 HD
ATOM     20  H   LIG d   1       1.312  84.072 106.775  0.00  0.00    -0.090 HD
ATOM     21  H   LIG d   1       1.843  82.537 106.989  0.00  0.00    -0.090 HD
ENDBRANCH   5  18
BRANCH   3  22
ATOM     22  C   LIG d   1       0.434  86.401 110.770  0.00  0.00     0.382 C 
ATOM     23  O   LIG d   1      -0.673  86.907 111.072  0.00  0.00    -0.241 OA
ATOM     24  O   LIG d   1       1.472  87.080 110.887  0.00  0.00    -0.241 OA
ENDBRANCH   3  22
TORSDOF 7
ENDMDL
MODEL 9
REMARK VINA RESULT:      -5.6      2.360      3.187
REMARK  7 active torsions:
REMARK  status: ('A' for Active; 'I' for Inactive)
REMARK    1  A    between atoms: C_2  and  C_3 
REMARK    2  A    between atoms: C_3  and  O_6 
REMARK    3  A    between atoms: C_3  and  C_4 
REMARK    4  A    between atoms: C_7  and  O_6 
REMARK    5  A    between atoms: C_9  and  C_10 
REMARK    6  A    between atoms: N_15  and  C_14 
REMARK    7  A    between atoms: N_20  and  C_19 
REMARK       I    between atoms: C_22  and  N_20 
ROOT
ATOM      1  C   LIG d   1       2.602  83.175 111.900  0.00  0.00     0.161 C 
ATOM      2  C   LIG d   1       3.261  83.306 110.667  0.00  0.00     0.016 C 
ATOM      3  C   LIG d   1       2.595  83.267 109.420  0.00  0.00     0.038 C 
ATOM      4  C   LIG d   1       1.195  83.246 109.328  0.00  0.00     0.028 C 
ATOM      5  C   LIG d   1       0.519  82.604 110.535  0.00  0.00    -0.047 C 
ATOM      6  C   LIG d   1       1.063  83.262 111.824  0.00  0.00     0.091 C 
ENDROOT
BRANCH   1   7
ATOM      7  O   LIG d   1       3.113  84.147 112.834  0.00  0.00    -0.368 OA
BRANCH   7   8
ATOM      8  C   LIG d   1       3.664  85.356 112.256  0.00  0.00     0.119 C 
BRANCH   8   9
ATOM      9  C   LIG d   1       4.973  85.672 113.006  0.00  0.00     0.028 C 
ATOM     10  C   LIG d   1       5.332  87.167 112.956  0.00  0.00     0.006 C 
ENDBRANCH   8   9
BRANCH   8  11
ATOM     11  C   LIG d   1       2.752  86.560 112.508  0.00  0.00     0.028 C 
ATOM     12  C   LIG d   1       1.710  86.762 111.396  0.00  0.00     0.006 C 
ENDBRANCH   8  11
ENDBRANCH   7   8
ENDBRANCH   1   7
BRANCH   6  13
ATOM     13  N   LIG d   1       0.516  82.635 113.055  0.00  0.00    -0.311 N 
ATOM     14  C   LIG d   1      -0.583  83.067 113.672  0.00  0.00     0.210 C 
ATOM     15  C   LIG d   1      -0.962  82.291 114.937  0.00  0.00     0.109 C 
ATOM     16  O   LIG d   1      -1.297  84.000 113.274  0.00  0.00    -0.276 OA
ATOM     17  H   LIG d   1       1.015  81.852 113.429  0.00  0.00     0.149 HD
ENDBRANCH   6  13
BRANCH   5  18
ATOM     18  N   LIG d   1      -0.938  82.773 110.372  0.00  0.00     0.381 N 
ATOM     19  H   LIG d   1      -1.377  81.876 110.303  0.00  0.00    -0.090 HD
ATOM     20  H   LIG d   1      -1.113  83.275 109.520  0.00  0.00    -0.090 HD
ATOM     21  H   LIG d   1      -1.312  83.276 111.146  0.00  0.00    -0.090 HD
ENDBRANCH   5  18
BRANCH   3  22
ATOM     22  C   LIG d   1       3.333  83.210 108.248  0.00  0.00     0.382 C 
ATOM     23  O   LIG d   1       2.763  83.361 107.141  0.00  0.00    -0.241 OA
ATOM     24  O   LIG d   1       4.554  82.965 108.281  0.00  0.00    -0.241 OA
ENDBRANCH   3  22
TORSDOF 7
ENDMDL
