MODEL 1
REMARK VINA RESULT:      -6.4      0.000      0.000
REMARK  7 active torsions:
REMARK  status: ('A' for Active; 'I' for Inactive)
REMARK    1  A    between atoms: C_2  and  C_3 
REMARK    2  A    between atoms: C_3  and  O_6 
REMARK    3  A    between atoms: C_3  and  C_4 
REMARK    4  A    between atoms: C_7  and  O_6 
REMARK    5  A    between atoms: C_9  and  C_10 
REMARK    6  A    between atoms: N_15  and  C_14 
REMARK    7  A    between atoms: N_20  and  C_19 
REMARK       I    between atoms: C_22  and  N_20 
ROOT
ATOM      1  C   LIG d   1       1.576  82.731 111.381  0.00  0.00     0.161 C 
ATOM      2  C   LIG d   1       0.467  81.910 111.644  0.00  0.00     0.016 C 
ATOM      3  C   LIG d   1      -0.608  82.297 112.475  0.00  0.00     0.038 C 
ATOM      4  C   LIG d   1      -0.721  83.599 112.983  0.00  0.00     0.028 C 
ATOM      5  C   LIG d   1       0.622  84.300 113.158  0.00  0.00    -0.047 C 
ATOM      6  C   LIG d   1       1.417  84.197 111.836  0.00  0.00     0.091 C 
ENDROOT
BRANCH   1   7
ATOM      7  O   LIG d   1       1.905  82.675 109.979  0.00  0.00    -0.368 OA
BRANCH   7   8
ATOM      8  C   LIG d   1       2.760  81.581 109.568  0.00  0.00     0.119 C 
BRANCH   8   9
ATOM      9  C   LIG d   1       4.124  81.775 110.258  0.00  0.00     0.028 C 
ATOM     10  C   LIG d   1       4.922  82.946 109.662  0.00  0.00     0.006 C 
ENDBRANCH   8   9
BRANCH   8  11
ATOM     11  C   LIG d   1       3.055  81.637 108.066  0.00  0.00     0.028 C 
ATOM     12  C   LIG d   1       2.092  82.562 107.304  0.00  0.00     0.006 C 
ENDBRANCH   8  11
ENDBRANCH   7   8
ENDBRANCH   1   7
BRANCH   6  13
ATOM     13  N   LIG d   1       2.778  84.784 111.947  0.00  0.00    -0.311 N 
ATOM     14  C   LIG d   1       3.081  86.015 111.539  0.00  0.00     0.210 C 
ATOM     15  C   LIG d   1       4.547  86.416 111.726  0.00  0.00     0.109 C 
ATOM     16  O   LIG d   1       2.267  86.825 111.070  0.00  0.00    -0.276 OA
ATOM     17  H   LIG d   1       3.493  84.207 112.344  0.00  0.00     0.149 HD
ENDBRANCH   6  13
BRANCH   5  18
ATOM     18  N   LIG d   1       0.349  85.693 113.561  0.00  0.00     0.381 N 
ATOM     19  H   LIG d   1       1.133  86.271 113.334  0.00  0.00    -0.090 HD
ATOM     20  H   LIG d   1       0.214  85.722 114.557  0.00  0.00    -0.090 HD
ATOM     21  H   LIG d   1      -0.467  86.028 113.098  0.00  0.00    -0.090 HD
ENDBRANCH   5  18
BRANCH   3  22
ATOM     22  C   LIG d   1      -1.566  81.363 112.839  0.00  0.00     0.382 C 
ATOM     23  O   LIG d   1      -1.220  80.297 113.404  0.00  0.00    -0.241 OA
ATOM     24  O   LIG d   1      -2.768  81.552 112.570  0.00  0.00    -0.241 OA
ENDBRANCH   3  22
TORSDOF 7
ENDMDL
MODEL 2
REMARK VINA RESULT:      -6.3      2.572      4.224
REMARK  7 active torsions:
REMARK  status: ('A' for Active; 'I' for Inactive)
REMARK    1  A    between atoms: C_2  and  C_3 
REMARK    2  A    between atoms: C_3  and  O_6 
REMARK    3  A    between atoms: C_3  and  C_4 
REMARK    4  A    between atoms: C_7  and  O_6 
REMARK    5  A    between atoms: C_9  and  C_10 
REMARK    6  A    between atoms: N_15  and  C_14 
REMARK    7  A    between atoms: N_20  and  C_19 
REMARK       I    between atoms: C_22  and  N_20 
ROOT
ATOM      1  C   LIG d   1       0.269  83.631 110.502  0.00  0.00     0.161 C 
ATOM      2  C   LIG d   1       0.159  84.704 111.403  0.00  0.00     0.016 C 
ATOM      3  C   LIG d   1      -0.141  84.540 112.775  0.00  0.00     0.038 C 
ATOM      4  C   LIG d   1      -0.203  83.273 113.374  0.00  0.00     0.028 C 
ATOM      5  C   LIG d   1      -0.599  82.164 112.406  0.00  0.00    -0.047 C 
ATOM      6  C   LIG d   1       0.314  82.236 111.160  0.00  0.00     0.091 C 
ENDROOT
BRANCH   1   7
ATOM      7  O   LIG d   1       1.417  83.822 109.653  0.00  0.00    -0.368 OA
BRANCH   7   8
ATOM      8  C   LIG d   1       2.672  83.294 110.149  0.00  0.00     0.119 C 
BRANCH   8   9
ATOM      9  C   LIG d   1       3.556  84.493 110.541  0.00  0.00     0.028 C 
ATOM     10  C   LIG d   1       3.848  84.539 112.050  0.00  0.00     0.006 C 
ENDBRANCH   8   9
BRANCH   8  11
ATOM     11  C   LIG d   1       3.444  82.563 109.047  0.00  0.00     0.028 C 
ATOM     12  C   LIG d   1       2.616  82.370 107.767  0.00  0.00     0.006 C 
ENDBRANCH   8  11
ENDBRANCH   7   8
ENDBRANCH   1   7
BRANCH   6  13
ATOM     13  N   LIG d   1      -0.061  81.238 110.125  0.00  0.00    -0.311 N 
ATOM     14  C   LIG d   1       0.675  80.165 109.841  0.00  0.00     0.210 C 
ATOM     15  C   LIG d   1       0.117  79.275 108.725  0.00  0.00     0.109 C 
ATOM     16  O   LIG d   1       1.719  79.848 110.429  0.00  0.00    -0.276 OA
ATOM     17  H   LIG d   1      -0.911  81.401 109.620  0.00  0.00     0.149 HD
ENDBRANCH   6  13
BRANCH   5  18
ATOM     18  N   LIG d   1      -0.491  80.882 113.128  0.00  0.00     0.381 N 
ATOM     19  H   LIG d   1      -1.306  80.328 112.959  0.00  0.00    -0.090 HD
ATOM     20  H   LIG d   1      -0.435  81.068 114.114  0.00  0.00    -0.090 HD
ATOM     21  H   LIG d   1       0.323  80.390 112.830  0.00  0.00    -0.090 HD
ENDBRANCH   5  18
BRANCH   3  22
ATOM     22  C   LIG d   1      -0.421  85.652 113.555  0.00  0.00     0.382 C 
ATOM     23  O   LIG d   1       0.503  86.431 113.891  0.00  0.00    -0.241 OA
ATOM     24  O   LIG d   1      -1.579  85.861 113.963  0.00  0.00    -0.241 OA
ENDBRANCH   3  22
TORSDOF 7
ENDMDL
MODEL 3
REMARK VINA RESULT:      -6.3      2.339      4.296
REMARK  7 active torsions:
REMARK  status: ('A' for Active; 'I' for Inactive)
REMARK    1  A    between atoms: C_2  and  C_3 
REMARK    2  A    between atoms: C_3  and  O_6 
REMARK    3  A    between atoms: C_3  and  C_4 
REMARK    4  A    between atoms: C_7  and  O_6 
REMARK    5  A    between atoms: C_9  and  C_10 
REMARK    6  A    between atoms: N_15  and  C_14 
REMARK    7  A    between atoms: N_20  and  C_19 
REMARK       I    between atoms: C_22  and  N_20 
ROOT
ATOM      1  C   LIG d   1       0.494  82.367 111.128  0.00  0.00     0.161 C 
ATOM      2  C   LIG d   1      -0.594  82.155 111.991  0.00  0.00     0.016 C 
ATOM      3  C   LIG d   1      -1.135  80.877 112.262  0.00  0.00     0.038 C 
ATOM      4  C   LIG d   1      -0.524  79.701 111.803  0.00  0.00     0.028 C 
ATOM      5  C   LIG d   1       0.275  79.895 110.519  0.00  0.00    -0.047 C 
ATOM      6  C   LIG d   1       1.243  81.086 110.705  0.00  0.00     0.091 C 
ENDROOT
BRANCH   1   7
ATOM      7  O   LIG d   1       1.410  83.311 111.719  0.00  0.00    -0.368 OA
BRANCH   7   8
ATOM      8  C   LIG d   1       1.471  84.616 111.093  0.00  0.00     0.119 C 
BRANCH   8   9
ATOM      9  C   LIG d   1       0.595  84.564 109.827  0.00  0.00     0.028 C 
ATOM     10  C   LIG d   1      -0.529  85.614 109.847  0.00  0.00     0.006 C 
ENDBRANCH   8   9
BRANCH   8  11
ATOM     11  C   LIG d   1       2.885  84.929 110.595  0.00  0.00     0.028 C 
ATOM     12  C   LIG d   1       3.654  85.870 111.536  0.00  0.00     0.006 C 
ENDBRANCH   8  11
ENDBRANCH   7   8
ENDBRANCH   1   7
BRANCH   6  13
ATOM     13  N   LIG d   1       2.004  81.398 109.467  0.00  0.00    -0.311 N 
ATOM     14  C   LIG d   1       3.334  81.441 109.415  0.00  0.00     0.210 C 
ATOM     15  C   LIG d   1       3.916  81.801 108.045  0.00  0.00     0.109 C 
ATOM     16  O   LIG d   1       4.088  81.183 110.366  0.00  0.00    -0.276 OA
ATOM     17  H   LIG d   1       1.472  81.589 108.641  0.00  0.00     0.149 HD
ENDBRANCH   6  13
BRANCH   5  18
ATOM     18  N   LIG d   1       0.969  78.626 110.229  0.00  0.00     0.381 N 
ATOM     19  H   LIG d   1       0.331  77.861 110.327  0.00  0.00    -0.090 HD
ATOM     20  H   LIG d   1       1.713  78.504 110.893  0.00  0.00    -0.090 HD
ATOM     21  H   LIG d   1       1.339  78.643 109.304  0.00  0.00    -0.090 HD
ENDBRANCH   5  18
BRANCH   3  22
ATOM     22  C   LIG d   1      -2.323  80.770 112.968  0.00  0.00     0.382 C 
ATOM     23  O   LIG d   1      -3.144  81.719 112.963  0.00  0.00    -0.241 OA
ATOM     24  O   LIG d   1      -2.565  79.754 113.647  0.00  0.00    -0.241 OA
ENDBRANCH   3  22
TORSDOF 7
ENDMDL
MODEL 4
REMARK VINA RESULT:      -6.3      1.515      2.236
REMARK  7 active torsions:
REMARK  status: ('A' for Active; 'I' for Inactive)
REMARK    1  A    between atoms: C_2  and  C_3 
REMARK    2  A    between atoms: C_3  and  O_6 
REMARK    3  A    between atoms: C_3  and  C_4 
REMARK    4  A    between atoms: C_7  and  O_6 
REMARK    5  A    between atoms: C_9  and  C_10 
REMARK    6  A    between atoms: N_15  and  C_14 
REMARK    7  A    between atoms: N_20  and  C_19 
REMARK       I    between atoms: C_22  and  N_20 
ROOT
ATOM      1  C   LIG d   1       2.146  83.805 111.533  0.00  0.00     0.161 C 
ATOM      2  C   LIG d   1       1.109  82.868 111.674  0.00  0.00     0.016 C 
ATOM      3  C   LIG d   1       0.072  82.993 112.627  0.00  0.00     0.038 C 
ATOM      4  C   LIG d   1      -0.084  84.149 113.406  0.00  0.00     0.028 C 
ATOM      5  C   LIG d   1       1.224  84.893 113.653  0.00  0.00    -0.047 C 
ATOM      6  C   LIG d   1       1.931  85.127 112.299  0.00  0.00     0.091 C 
ENDROOT
BRANCH   1   7
ATOM      7  O   LIG d   1       2.380  84.068 110.135  0.00  0.00    -0.368 OA
BRANCH   7   8
ATOM      8  C   LIG d   1       1.244  83.888 109.254  0.00  0.00     0.119 C 
BRANCH   8   9
ATOM      9  C   LIG d   1       1.772  83.297 107.933  0.00  0.00     0.028 C 
ATOM     10  C   LIG d   1       2.705  82.095 108.158  0.00  0.00     0.006 C 
ENDBRANCH   8   9
BRANCH   8  11
ATOM     11  C   LIG d   1       0.616  85.233 108.875  0.00  0.00     0.028 C 
ATOM     12  C   LIG d   1      -0.629  85.566 109.712  0.00  0.00     0.006 C 
ENDBRANCH   8  11
ENDBRANCH   7   8
ENDBRANCH   1   7
BRANCH   6  13
ATOM     13  N   LIG d   1       3.259  85.776 112.457  0.00  0.00    -0.311 N 
ATOM     14  C   LIG d   1       3.475  87.070 112.226  0.00  0.00     0.210 C 
ATOM     15  C   LIG d   1       4.922  87.530 112.431  0.00  0.00     0.109 C 
ATOM     16  O   LIG d   1       2.600  87.886 111.902  0.00  0.00    -0.276 OA
ATOM     17  H   LIG d   1       4.020  85.193 112.747  0.00  0.00     0.149 HD
ENDBRANCH   6  13
BRANCH   5  18
ATOM     18  N   LIG d   1       0.897  86.147 114.359  0.00  0.00     0.381 N 
ATOM     19  H   LIG d   1       0.914  86.912 113.715  0.00  0.00    -0.090 HD
ATOM     20  H   LIG d   1       1.592  86.313 115.065  0.00  0.00    -0.090 HD
ATOM     21  H   LIG d   1      -0.004  86.077 114.778  0.00  0.00    -0.090 HD
ENDBRANCH   5  18
BRANCH   3  22
ATOM     22  C   LIG d   1      -0.801  81.936 112.835  0.00  0.00     0.382 C 
ATOM     23  O   LIG d   1      -1.971  81.991 112.385  0.00  0.00    -0.241 OA
ATOM     24  O   LIG d   1      -0.447  80.947 113.504  0.00  0.00    -0.241 OA
ENDBRANCH   3  22
TORSDOF 7
ENDMDL
MODEL 5
REMARK VINA RESULT:      -6.2      3.063      6.421
REMARK  7 active torsions:
REMARK  status: ('A' for Active; 'I' for Inactive)
REMARK    1  A    between atoms: C_2  and  C_3 
REMARK    2  A    between atoms: C_3  and  O_6 
REMARK    3  A    between atoms: C_3  and  C_4 
REMARK    4  A    between atoms: C_7  and  O_6 
REMARK    5  A    between atoms: C_9  and  C_10 
REMARK    6  A    between atoms: N_15  and  C_14 
REMARK    7  A    between atoms: N_20  and  C_19 
REMARK       I    between atoms: C_22  and  N_20 
ROOT
ATOM      1  C   LIG d   1       0.582  81.672 110.744  0.00  0.00     0.161 C 
ATOM      2  C   LIG d   1       1.389  82.152 109.699  0.00  0.00     0.016 C 
ATOM      3  C   LIG d   1       1.959  81.318 108.709  0.00  0.00     0.038 C 
ATOM      4  C   LIG d   1       1.634  79.957 108.610  0.00  0.00     0.028 C 
ATOM      5  C   LIG d   1       1.225  79.334 109.940  0.00  0.00    -0.047 C 
ATOM      6  C   LIG d   1       0.126  80.207 110.587  0.00  0.00     0.091 C 
ENDROOT
BRANCH   1   7
ATOM      7  O   LIG d   1      -0.558  82.536 110.916  0.00  0.00    -0.368 OA
BRANCH   7   8
ATOM      8  C   LIG d   1      -0.499  83.455 112.036  0.00  0.00     0.119 C 
BRANCH   8   9
ATOM      9  C   LIG d   1       0.157  84.755 111.533  0.00  0.00     0.028 C 
ATOM     10  C   LIG d   1      -0.526  85.306 110.269  0.00  0.00     0.006 C 
ENDBRANCH   8   9
BRANCH   8  11
ATOM     11  C   LIG d   1       0.429  82.932 113.136  0.00  0.00     0.028 C 
ATOM     12  C   LIG d   1       1.437  83.988 113.617  0.00  0.00     0.006 C 
ENDBRANCH   8  11
ENDBRANCH   7   8
ENDBRANCH   1   7
BRANCH   6  13
ATOM     13  N   LIG d   1      -0.271  79.713 111.932  0.00  0.00    -0.311 N 
ATOM     14  C   LIG d   1      -1.330  78.933 112.143  0.00  0.00     0.210 C 
ATOM     15  C   LIG d   1      -1.572  78.555 113.608  0.00  0.00     0.109 C 
ATOM     16  O   LIG d   1      -2.072  78.492 111.253  0.00  0.00    -0.276 OA
ATOM     17  H   LIG d   1       0.294  79.998 112.708  0.00  0.00     0.149 HD
ENDBRANCH   6  13
BRANCH   5  18
ATOM     18  N   LIG d   1       0.782  77.953 109.668  0.00  0.00     0.381 N 
ATOM     19  H   LIG d   1       1.488  77.307 109.957  0.00  0.00    -0.090 HD
ATOM     20  H   LIG d   1       0.643  77.846 108.678  0.00  0.00    -0.090 HD
ATOM     21  H   LIG d   1      -0.068  77.766 110.152  0.00  0.00    -0.090 HD
ENDBRANCH   5  18
BRANCH   3  22
ATOM     22  C   LIG d   1       2.896  81.838 107.829  0.00  0.00     0.382 C 
ATOM     23  O   LIG d   1       4.120  81.735 108.085  0.00  0.00    -0.241 OA
ATOM     24  O   LIG d   1       2.532  82.446 106.805  0.00  0.00    -0.241 OA
ENDBRANCH   3  22
TORSDOF 7
ENDMDL
MODEL 6
REMARK VINA RESULT:      -5.8      2.597      4.511
REMARK  7 active torsions:
REMARK  status: ('A' for Active; 'I' for Inactive)
REMARK    1  A    between atoms: C_2  and  C_3 
REMARK    2  A    between atoms: C_3  and  O_6 
REMARK    3  A    between atoms: C_3  and  C_4 
REMARK    4  A    between atoms: C_7  and  O_6 
REMARK    5  A    between atoms: C_9  and  C_10 
REMARK    6  A    between atoms: N_15  and  C_14 
REMARK    7  A    between atoms: N_20  and  C_19 
REMARK       I    between atoms: C_22  and  N_20 
ROOT
ATOM      1  C   LIG d   1       1.789  82.974 111.424  0.00  0.00     0.161 C 
ATOM      2  C   LIG d   1       2.334  82.497 110.220  0.00  0.00     0.016 C 
ATOM      3  C   LIG d   1       2.010  83.032 108.953  0.00  0.00     0.038 C 
ATOM      4  C   LIG d   1       1.228  84.189 108.814  0.00  0.00     0.028 C 
ATOM      5  C   LIG d   1       0.250  84.400 109.965  0.00  0.00    -0.047 C 
ATOM      6  C   LIG d   1       1.020  84.306 111.302  0.00  0.00     0.091 C 
ENDROOT
BRANCH   1   7
ATOM      7  O   LIG d   1       2.824  83.083 112.421  0.00  0.00    -0.368 OA
BRANCH   7   8
ATOM      8  C   LIG d   1       4.157  82.701 111.999  0.00  0.00     0.119 C 
BRANCH   8   9
ATOM      9  C   LIG d   1       4.601  81.519 112.882  0.00  0.00     0.028 C 
ATOM     10  C   LIG d   1       3.930  81.534 114.265  0.00  0.00     0.006 C 
ENDBRANCH   8   9
BRANCH   8  11
ATOM     11  C   LIG d   1       5.170  83.816 112.276  0.00  0.00     0.028 C 
ATOM     12  C   LIG d   1       4.506  85.122 112.741  0.00  0.00     0.006 C 
ENDBRANCH   8  11
ENDBRANCH   7   8
ENDBRANCH   1   7
BRANCH   6  13
ATOM     13  N   LIG d   1       0.123  84.418 112.482  0.00  0.00    -0.311 N 
ATOM     14  C   LIG d   1       0.194  85.412 113.365  0.00  0.00     0.210 C 
ATOM     15  C   LIG d   1      -0.811  85.325 114.518  0.00  0.00     0.109 C 
ATOM     16  O   LIG d   1       0.972  86.375 113.286  0.00  0.00    -0.276 OA
ATOM     17  H   LIG d   1      -0.559  83.695 112.606  0.00  0.00     0.149 HD
ENDBRANCH   6  13
BRANCH   5  18
ATOM     18  N   LIG d   1      -0.401  85.708 109.763  0.00  0.00     0.381 N 
ATOM     19  H   LIG d   1      -1.257  85.586 109.259  0.00  0.00    -0.090 HD
ATOM     20  H   LIG d   1       0.207  86.292 109.216  0.00  0.00    -0.090 HD
ATOM     21  H   LIG d   1      -0.583  86.138 110.643  0.00  0.00    -0.090 HD
ENDBRANCH   5  18
BRANCH   3  22
ATOM     22  C   LIG d   1       2.438  82.385 107.803  0.00  0.00     0.382 C 
ATOM     23  O   LIG d   1       3.217  81.406 107.889  0.00  0.00    -0.241 OA
ATOM     24  O   LIG d   1       2.090  82.796 106.680  0.00  0.00    -0.241 OA
ENDBRANCH   3  22
TORSDOF 7
ENDMDL
MODEL 7
REMARK VINA RESULT:      -5.7      2.873      6.040
REMARK  7 active torsions:
REMARK  status: ('A' for Active; 'I' for Inactive)
REMARK    1  A    between atoms: C_2  and  C_3 
REMARK    2  A    between atoms: C_3  and  O_6 
REMARK    3  A    between atoms: C_3  and  C_4 
REMARK    4  A    between atoms: C_7  and  O_6 
REMARK    5  A    between atoms: C_9  and  C_10 
REMARK    6  A    between atoms: N_15  and  C_14 
REMARK    7  A    between atoms: N_20  and  C_19 
REMARK       I    between atoms: C_22  and  N_20 
ROOT
ATOM      1  C   LIG d   1       1.479  81.114 111.721  0.00  0.00     0.161 C 
ATOM      2  C   LIG d   1       2.479  81.606 110.865  0.00  0.00     0.016 C 
ATOM      3  C   LIG d   1       2.549  81.289 109.488  0.00  0.00     0.038 C 
ATOM      4  C   LIG d   1       1.531  80.575 108.839  0.00  0.00     0.028 C 
ATOM      5  C   LIG d   1       0.766  79.634 109.764  0.00  0.00    -0.047 C 
ATOM      6  C   LIG d   1       0.298  80.424 111.007  0.00  0.00     0.091 C 
ENDROOT
BRANCH   1   7
ATOM      7  O   LIG d   1       1.000  82.173 112.572  0.00  0.00    -0.368 OA
BRANCH   7   8
ATOM      8  C   LIG d   1       1.166  83.521 112.067  0.00  0.00     0.119 C 
BRANCH   8   9
ATOM      9  C   LIG d   1       1.492  84.429 113.268  0.00  0.00     0.028 C 
ATOM     10  C   LIG d   1       1.485  83.664 114.602  0.00  0.00     0.006 C 
ENDBRANCH   8   9
BRANCH   8  11
ATOM     11  C   LIG d   1      -0.145  84.065 111.491  0.00  0.00     0.028 C 
ATOM     12  C   LIG d   1       0.011  84.608 110.062  0.00  0.00     0.006 C 
ENDBRANCH   8  11
ENDBRANCH   7   8
ENDBRANCH   1   7
BRANCH   6  13
ATOM     13  N   LIG d   1      -0.386  79.559 112.003  0.00  0.00    -0.311 N 
ATOM     14  C   LIG d   1      -1.567  79.855 112.544  0.00  0.00     0.210 C 
ATOM     15  C   LIG d   1      -2.085  78.837 113.565  0.00  0.00     0.109 C 
ATOM     16  O   LIG d   1      -2.249  80.848 112.250  0.00  0.00    -0.276 OA
ATOM     17  H   LIG d   1       0.083  78.717 112.275  0.00  0.00     0.149 HD
ENDBRANCH   6  13
BRANCH   5  18
ATOM     18  N   LIG d   1      -0.350  79.059 108.990  0.00  0.00     0.381 N 
ATOM     19  H   LIG d   1      -0.552  78.136 109.321  0.00  0.00    -0.090 HD
ATOM     20  H   LIG d   1      -0.078  78.995 108.025  0.00  0.00    -0.090 HD
ATOM     21  H   LIG d   1      -1.158  79.635 109.077  0.00  0.00    -0.090 HD
ENDBRANCH   5  18
BRANCH   3  22
ATOM     22  C   LIG d   1       3.668  81.654 108.756  0.00  0.00     0.382 C 
ATOM     23  O   LIG d   1       3.584  81.796 107.512  0.00  0.00    -0.241 OA
ATOM     24  O   LIG d   1       4.770  81.801 109.317  0.00  0.00    -0.241 OA
ENDBRANCH   3  22
TORSDOF 7
ENDMDL
MODEL 8
REMARK VINA RESULT:      -5.6      2.723      5.873
REMARK  7 active torsions:
REMARK  status: ('A' for Active; 'I' for Inactive)
REMARK    1  A    between atoms: C_2  and  C_3 
REMARK    2  A    between atoms: C_3  and  O_6 
REMARK    3  A    between atoms: C_3  and  C_4 
REMARK    4  A    between atoms: C_7  and  O_6 
REMARK    5  A    between atoms: C_9  and  C_10 
REMARK    6  A    between atoms: N_15  and  C_14 
REMARK    7  A    between atoms: N_20  and  C_19 
REMARK       I    between atoms: C_22  and  N_20 
ROOT
ATOM      1  C   LIG d   1       0.332  82.339 111.052  0.00  0.00     0.161 C 
ATOM      2  C   LIG d   1       0.272  83.728 111.256  0.00  0.00     0.016 C 
ATOM      3  C   LIG d   1       0.834  84.670 110.364  0.00  0.00     0.038 C 
ATOM      4  C   LIG d   1       1.366  84.290 109.122  0.00  0.00     0.028 C 
ATOM      5  C   LIG d   1       1.901  82.863 109.104  0.00  0.00    -0.047 C 
ATOM      6  C   LIG d   1       0.811  81.911 109.649  0.00  0.00     0.091 C 
ENDROOT
BRANCH   1   7
ATOM      7  O   LIG d   1      -0.948  81.746 111.348  0.00  0.00    -0.368 OA
BRANCH   7   8
ATOM      8  C   LIG d   1      -1.150  81.314 112.716  0.00  0.00     0.119 C 
BRANCH   8   9
ATOM      9  C   LIG d   1       0.079  80.477 113.123  0.00  0.00     0.028 C 
ATOM     10  C   LIG d   1       1.073  81.275 113.983  0.00  0.00     0.006 C 
ENDBRANCH   8   9
BRANCH   8  11
ATOM     11  C   LIG d   1      -2.344  80.363 112.829  0.00  0.00     0.028 C 
ATOM     12  C   LIG d   1      -1.974  79.014 113.466  0.00  0.00     0.006 C 
ENDBRANCH   8  11
ENDBRANCH   7   8
ENDBRANCH   1   7
BRANCH   6  13
ATOM     13  N   LIG d   1       1.282  80.505 109.744  0.00  0.00    -0.311 N 
ATOM     14  C   LIG d   1       0.685  79.489 109.124  0.00  0.00     0.210 C 
ATOM     15  C   LIG d   1       1.320  78.117 109.371  0.00  0.00     0.109 C 
ATOM     16  O   LIG d   1      -0.291  79.597 108.366  0.00  0.00    -0.276 OA
ATOM     17  H   LIG d   1       2.087  80.331 110.313  0.00  0.00     0.149 HD
ENDBRANCH   6  13
BRANCH   5  18
ATOM     18  N   LIG d   1       2.297  82.553 107.717  0.00  0.00     0.381 N 
ATOM     19  H   LIG d   1       2.511  83.400 107.229  0.00  0.00    -0.090 HD
ATOM     20  H   LIG d   1       1.527  82.107 107.251  0.00  0.00    -0.090 HD
ATOM     21  H   LIG d   1       3.090  81.950 107.716  0.00  0.00    -0.090 HD
ENDBRANCH   5  18
BRANCH   3  22
ATOM     22  C   LIG d   1       0.903  86.006 110.729  0.00  0.00     0.382 C 
ATOM     23  O   LIG d   1       1.987  86.629 110.626  0.00  0.00    -0.241 OA
ATOM     24  O   LIG d   1      -0.095  86.584 111.201  0.00  0.00    -0.241 OA
ENDBRANCH   3  22
TORSDOF 7
ENDMDL
MODEL 9
REMARK VINA RESULT:      -5.3      2.688      5.703
REMARK  7 active torsions:
REMARK  status: ('A' for Active; 'I' for Inactive)
REMARK    1  A    between atoms: C_2  and  C_3 
REMARK    2  A    between atoms: C_3  and  O_6 
REMARK    3  A    between atoms: C_3  and  C_4 
REMARK    4  A    between atoms: C_7  and  O_6 
REMARK    5  A    between atoms: C_9  and  C_10 
REMARK    6  A    between atoms: N_15  and  C_14 
REMARK    7  A    between atoms: N_20  and  C_19 
REMARK       I    between atoms: C_22  and  N_20 
ROOT
ATOM      1  C   LIG d   1       3.080  82.809 111.755  0.00  0.00     0.161 C 
ATOM      2  C   LIG d   1       3.211  84.173 112.062  0.00  0.00     0.016 C 
ATOM      3  C   LIG d   1       2.772  85.209 111.206  0.00  0.00     0.038 C 
ATOM      4  C   LIG d   1       2.030  84.947 110.045  0.00  0.00     0.028 C 
ATOM      5  C   LIG d   1       2.314  83.576 109.441  0.00  0.00    -0.047 C 
ATOM      6  C   LIG d   1       2.174  82.503 110.544  0.00  0.00     0.091 C 
ENDROOT
BRANCH   1   7
ATOM      7  O   LIG d   1       2.625  82.088 112.917  0.00  0.00    -0.368 OA
BRANCH   7   8
ATOM      8  C   LIG d   1       1.660  82.772 113.754  0.00  0.00     0.119 C 
BRANCH   8   9
ATOM      9  C   LIG d   1       2.024  82.470 115.221  0.00  0.00     0.028 C 
ATOM     10  C   LIG d   1       3.368  81.735 115.353  0.00  0.00     0.006 C 
ENDBRANCH   8   9
BRANCH   8  11
ATOM     11  C   LIG d   1       0.251  82.204 113.560  0.00  0.00     0.028 C 
ATOM     12  C   LIG d   1       0.258  80.734 113.109  0.00  0.00     0.006 C 
ENDBRANCH   8  11
ENDBRANCH   7   8
ENDBRANCH   1   7
BRANCH   6  13
ATOM     13  N   LIG d   1       2.518  81.141 110.057  0.00  0.00    -0.311 N 
ATOM     14  C   LIG d   1       1.609  80.255 109.655  0.00  0.00     0.210 C 
ATOM     15  C   LIG d   1       2.176  78.903 109.211  0.00  0.00     0.109 C 
ATOM     16  O   LIG d   1       0.389  80.471 109.594  0.00  0.00    -0.276 OA
ATOM     17  H   LIG d   1       3.488  80.893 110.044  0.00  0.00     0.149 HD
ENDBRANCH   6  13
BRANCH   5  18
ATOM     18  N   LIG d   1       1.376  83.379 108.320  0.00  0.00     0.381 N 
ATOM     19  H   LIG d   1       1.848  83.536 107.452  0.00  0.00    -0.090 HD
ATOM     20  H   LIG d   1       0.630  84.048 108.399  0.00  0.00    -0.090 HD
ATOM     21  H   LIG d   1       1.006  82.455 108.343  0.00  0.00    -0.090 HD
ENDBRANCH   5  18
BRANCH   3  22
ATOM     22  C   LIG d   1       3.109  86.524 111.489  0.00  0.00     0.382 C 
ATOM     23  O   LIG d   1       2.215  87.402 111.545  0.00  0.00    -0.241 OA
ATOM     24  O   LIG d   1       4.301  86.851 111.646  0.00  0.00    -0.241 OA
ENDBRANCH   3  22
TORSDOF 7
ENDMDL
