MODEL 1
REMARK VINA RESULT:      -6.8      0.000      0.000
REMARK  7 active torsions:
REMARK  status: ('A' for Active; 'I' for Inactive)
REMARK    1  A    between atoms: C_2  and  C_3 
REMARK    2  A    between atoms: C_3  and  O_6 
REMARK    3  A    between atoms: C_3  and  C_4 
REMARK    4  A    between atoms: C_7  and  O_6 
REMARK    5  A    between atoms: C_9  and  C_10 
REMARK    6  A    between atoms: N_15  and  C_14 
REMARK    7  A    between atoms: N_20  and  C_19 
REMARK       I    between atoms: C_22  and  N_20 
ROOT
ATOM      1  C   LIG d   1       1.557  83.856 109.116  0.00  0.00     0.161 C 
ATOM      2  C   LIG d   1       1.746  85.163 109.593  0.00  0.00     0.016 C 
ATOM      3  C   LIG d   1       1.218  85.628 110.819  0.00  0.00     0.038 C 
ATOM      4  C   LIG d   1       0.587  84.767 111.729  0.00  0.00     0.028 C 
ATOM      5  C   LIG d   1      -0.067  83.559 111.066  0.00  0.00    -0.047 C 
ATOM      6  C   LIG d   1       0.966  82.870 110.146  0.00  0.00     0.091 C 
ENDROOT
BRANCH   1   7
ATOM      7  O   LIG d   1       2.797  83.344 108.587  0.00  0.00    -0.368 OA
BRANCH   7   8
ATOM      8  C   LIG d   1       3.569  82.500 109.476  0.00  0.00     0.119 C 
BRANCH   8   9
ATOM      9  C   LIG d   1       4.836  83.282 109.873  0.00  0.00     0.028 C 
ATOM     10  C   LIG d   1       4.763  83.830 111.308  0.00  0.00     0.006 C 
ENDBRANCH   8   9
BRANCH   8  11
ATOM     11  C   LIG d   1       4.074  81.247 108.755  0.00  0.00     0.028 C 
ATOM     12  C   LIG d   1       4.490  80.129 109.725  0.00  0.00     0.006 C 
ENDBRANCH   8  11
ENDBRANCH   7   8
ENDBRANCH   1   7
BRANCH   6  13
ATOM     13  N   LIG d   1       0.384  81.729 109.394  0.00  0.00    -0.311 N 
ATOM     14  C   LIG d   1       0.507  80.459 109.777  0.00  0.00     0.210 C 
ATOM     15  C   LIG d   1      -0.152  79.436 108.847  0.00  0.00     0.109 C 
ATOM     16  O   LIG d   1       1.073  80.085 110.816  0.00  0.00    -0.276 OA
ATOM     17  H   LIG d   1      -0.118  81.944 108.555  0.00  0.00     0.149 HD
ENDBRANCH   6  13
BRANCH   5  18
ATOM     18  N   LIG d   1      -0.566  82.677 112.138  0.00  0.00     0.381 N 
ATOM     19  H   LIG d   1       0.196  82.166 112.538  0.00  0.00    -0.090 HD
ATOM     20  H   LIG d   1      -1.214  82.019 111.743  0.00  0.00    -0.090 HD
ATOM     21  H   LIG d   1      -1.017  83.218 112.842  0.00  0.00    -0.090 HD
ENDBRANCH   5  18
BRANCH   3  22
ATOM     22  C   LIG d   1       1.283  86.978 111.128  0.00  0.00     0.382 C 
ATOM     23  O   LIG d   1       2.378  87.586 111.055  0.00  0.00    -0.241 OA
ATOM     24  O   LIG d   1       0.269  87.586 111.521  0.00  0.00    -0.241 OA
ENDBRANCH   3  22
TORSDOF 7
ENDMDL
MODEL 2
REMARK VINA RESULT:      -6.2      2.210      5.333
REMARK  7 active torsions:
REMARK  status: ('A' for Active; 'I' for Inactive)
REMARK    1  A    between atoms: C_2  and  C_3 
REMARK    2  A    between atoms: C_3  and  O_6 
REMARK    3  A    between atoms: C_3  and  C_4 
REMARK    4  A    between atoms: C_7  and  O_6 
REMARK    5  A    between atoms: C_9  and  C_10 
REMARK    6  A    between atoms: N_15  and  C_14 
REMARK    7  A    between atoms: N_20  and  C_19 
REMARK       I    between atoms: C_22  and  N_20 
ROOT
ATOM      1  C   LIG d   1       1.569  82.315 111.108  0.00  0.00     0.161 C 
ATOM      2  C   LIG d   1       2.390  81.178 111.027  0.00  0.00     0.016 C 
ATOM      3  C   LIG d   1       2.853  80.639 109.804  0.00  0.00     0.038 C 
ATOM      4  C   LIG d   1       2.649  81.293 108.581  0.00  0.00     0.028 C 
ATOM      5  C   LIG d   1       1.400  82.168 108.562  0.00  0.00    -0.047 C 
ATOM      6  C   LIG d   1       1.427  83.106 109.791  0.00  0.00     0.091 C 
ENDROOT
BRANCH   1   7
ATOM      7  O   LIG d   1       2.033  83.179 112.164  0.00  0.00    -0.368 OA
BRANCH   7   8
ATOM      8  C   LIG d   1       3.119  84.075 111.823  0.00  0.00     0.119 C 
BRANCH   8   9
ATOM      9  C   LIG d   1       4.415  83.474 112.402  0.00  0.00     0.028 C 
ATOM     10  C   LIG d   1       5.390  83.015 111.306  0.00  0.00     0.006 C 
ENDBRANCH   8   9
BRANCH   8  11
ATOM     11  C   LIG d   1       2.958  85.433 112.512  0.00  0.00     0.028 C 
ATOM     12  C   LIG d   1       3.702  86.564 111.783  0.00  0.00     0.006 C 
ENDBRANCH   8  11
ENDBRANCH   7   8
ENDBRANCH   1   7
BRANCH   6  13
ATOM     13  N   LIG d   1       0.201  83.939 109.895  0.00  0.00    -0.311 N 
ATOM     14  C   LIG d   1       0.193  85.259 109.722  0.00  0.00     0.210 C 
ATOM     15  C   LIG d   1      -1.175  85.927 109.894  0.00  0.00     0.109 C 
ATOM     16  O   LIG d   1       1.184  85.937 109.409  0.00  0.00    -0.276 OA
ATOM     17  H   LIG d   1      -0.654  83.466 110.115  0.00  0.00     0.149 HD
ENDBRANCH   6  13
BRANCH   5  18
ATOM     18  N   LIG d   1       1.385  82.896 107.279  0.00  0.00     0.381 N 
ATOM     19  H   LIG d   1       1.750  82.312 106.554  0.00  0.00    -0.090 HD
ATOM     20  H   LIG d   1       1.974  83.706 107.358  0.00  0.00    -0.090 HD
ATOM     21  H   LIG d   1       0.454  83.174 107.056  0.00  0.00    -0.090 HD
ENDBRANCH   5  18
BRANCH   3  22
ATOM     22  C   LIG d   1       3.496  79.410 109.795  0.00  0.00     0.382 C 
ATOM     23  O   LIG d   1       4.749  79.358 109.759  0.00  0.00    -0.241 OA
ATOM     24  O   LIG d   1       2.837  78.353 109.778  0.00  0.00    -0.241 OA
ENDBRANCH   3  22
TORSDOF 7
ENDMDL
MODEL 3
REMARK VINA RESULT:      -6.2      2.567      5.052
REMARK  7 active torsions:
REMARK  status: ('A' for Active; 'I' for Inactive)
REMARK    1  A    between atoms: C_2  and  C_3 
REMARK    2  A    between atoms: C_3  and  O_6 
REMARK    3  A    between atoms: C_3  and  C_4 
REMARK    4  A    between atoms: C_7  and  O_6 
REMARK    5  A    between atoms: C_9  and  C_10 
REMARK    6  A    between atoms: N_15  and  C_14 
REMARK    7  A    between atoms: N_20  and  C_19 
REMARK       I    between atoms: C_22  and  N_20 
ROOT
ATOM      1  C   LIG d   1      -0.039  82.922 110.771  0.00  0.00     0.161 C 
ATOM      2  C   LIG d   1      -1.036  82.647 111.722  0.00  0.00     0.016 C 
ATOM      3  C   LIG d   1      -1.179  81.393 112.359  0.00  0.00     0.038 C 
ATOM      4  C   LIG d   1      -0.235  80.368 112.198  0.00  0.00     0.028 C 
ATOM      5  C   LIG d   1       0.501  80.426 110.864  0.00  0.00    -0.047 C 
ATOM      6  C   LIG d   1       1.067  81.851 110.666  0.00  0.00     0.091 C 
ENDROOT
BRANCH   1   7
ATOM      7  O   LIG d   1       0.539  84.216 111.031  0.00  0.00    -0.368 OA
BRANCH   7   8
ATOM      8  C   LIG d   1       0.446  85.183 109.956  0.00  0.00     0.119 C 
BRANCH   8   9
ATOM      9  C   LIG d   1       1.402  86.344 110.292  0.00  0.00     0.028 C 
ATOM     10  C   LIG d   1       2.771  85.851 110.792  0.00  0.00     0.006 C 
ENDBRANCH   8   9
BRANCH   8  11
ATOM     11  C   LIG d   1      -0.949  85.813 109.892  0.00  0.00     0.028 C 
ATOM     12  C   LIG d   1      -1.283  86.650 111.137  0.00  0.00     0.006 C 
ENDBRANCH   8  11
ENDBRANCH   7   8
ENDBRANCH   1   7
BRANCH   6  13
ATOM     13  N   LIG d   1       1.731  82.019 109.347  0.00  0.00    -0.311 N 
ATOM     14  C   LIG d   1       3.042  81.878 109.163  0.00  0.00     0.210 C 
ATOM     15  C   LIG d   1       3.523  82.114 107.728  0.00  0.00     0.109 C 
ATOM     16  O   LIG d   1       3.848  81.547 110.045  0.00  0.00    -0.276 OA
ATOM     17  H   LIG d   1       1.146  82.257 108.569  0.00  0.00     0.149 HD
ENDBRANCH   6  13
BRANCH   5  18
ATOM     18  N   LIG d   1       1.548  79.387 110.887  0.00  0.00     0.381 N 
ATOM     19  H   LIG d   1       1.373  78.746 111.635  0.00  0.00    -0.090 HD
ATOM     20  H   LIG d   1       2.438  79.825 111.049  0.00  0.00    -0.090 HD
ATOM     21  H   LIG d   1       1.563  78.900 110.018  0.00  0.00    -0.090 HD
ENDBRANCH   5  18
BRANCH   3  22
ATOM     22  C   LIG d   1      -2.299  81.141 113.137  0.00  0.00     0.382 C 
ATOM     23  O   LIG d   1      -2.166  80.699 114.303  0.00  0.00    -0.241 OA
ATOM     24  O   LIG d   1      -3.442  81.308 112.671  0.00  0.00    -0.241 OA
ENDBRANCH   3  22
TORSDOF 7
ENDMDL
MODEL 4
REMARK VINA RESULT:      -6.1      2.532      4.301
REMARK  7 active torsions:
REMARK  status: ('A' for Active; 'I' for Inactive)
REMARK    1  A    between atoms: C_2  and  C_3 
REMARK    2  A    between atoms: C_3  and  O_6 
REMARK    3  A    between atoms: C_3  and  C_4 
REMARK    4  A    between atoms: C_7  and  O_6 
REMARK    5  A    between atoms: C_9  and  C_10 
REMARK    6  A    between atoms: N_15  and  C_14 
REMARK    7  A    between atoms: N_20  and  C_19 
REMARK       I    between atoms: C_22  and  N_20 
ROOT
ATOM      1  C   LIG d   1      -0.115  82.886 111.245  0.00  0.00     0.161 C 
ATOM      2  C   LIG d   1      -0.580  84.186 111.506  0.00  0.00     0.016 C 
ATOM      3  C   LIG d   1      -0.322  85.289 110.661  0.00  0.00     0.038 C 
ATOM      4  C   LIG d   1       0.295  85.137 109.411  0.00  0.00     0.028 C 
ATOM      5  C   LIG d   1       1.226  83.931 109.338  0.00  0.00    -0.047 C 
ATOM      6  C   LIG d   1       0.465  82.679 109.830  0.00  0.00     0.091 C 
ENDROOT
BRANCH   1   7
ATOM      7  O   LIG d   1      -1.163  81.931 111.501  0.00  0.00    -0.368 OA
BRANCH   7   8
ATOM      8  C   LIG d   1      -1.260  81.440 112.861  0.00  0.00     0.119 C 
BRANCH   8   9
ATOM      9  C   LIG d   1      -0.325  80.221 112.980  0.00  0.00     0.028 C 
ATOM     10  C   LIG d   1       0.926  80.521 113.824  0.00  0.00     0.006 C 
ENDBRANCH   8   9
BRANCH   8  11
ATOM     11  C   LIG d   1      -2.663  80.905 113.162  0.00  0.00     0.028 C 
ATOM     12  C   LIG d   1      -2.755  80.208 114.528  0.00  0.00     0.006 C 
ENDBRANCH   8  11
ENDBRANCH   7   8
ENDBRANCH   1   7
BRANCH   6  13
ATOM     13  N   LIG d   1       1.329  81.470 109.870  0.00  0.00    -0.311 N 
ATOM     14  C   LIG d   1       0.938  80.276 109.430  0.00  0.00     0.210 C 
ATOM     15  C   LIG d   1       1.977  79.159 109.583  0.00  0.00     0.109 C 
ATOM     16  O   LIG d   1      -0.157  80.041 108.898  0.00  0.00    -0.276 OA
ATOM     17  H   LIG d   1       2.246  81.578 110.258  0.00  0.00     0.149 HD
ENDBRANCH   6  13
BRANCH   5  18
ATOM     18  N   LIG d   1       1.693  83.813 107.943  0.00  0.00     0.381 N 
ATOM     19  H   LIG d   1       2.267  82.999 107.846  0.00  0.00    -0.090 HD
ATOM     20  H   LIG d   1       2.248  84.619 107.717  0.00  0.00    -0.090 HD
ATOM     21  H   LIG d   1       0.913  83.753 107.326  0.00  0.00    -0.090 HD
ENDBRANCH   5  18
BRANCH   3  22
ATOM     22  C   LIG d   1      -0.648  86.569 111.083  0.00  0.00     0.382 C 
ATOM     23  O   LIG d   1      -1.850  86.923 111.142  0.00  0.00    -0.241 OA
ATOM     24  O   LIG d   1       0.247  87.389 111.364  0.00  0.00    -0.241 OA
ENDBRANCH   3  22
TORSDOF 7
ENDMDL
MODEL 5
REMARK VINA RESULT:      -6.0      2.730      5.185
REMARK  7 active torsions:
REMARK  status: ('A' for Active; 'I' for Inactive)
REMARK    1  A    between atoms: C_2  and  C_3 
REMARK    2  A    between atoms: C_3  and  O_6 
REMARK    3  A    between atoms: C_3  and  C_4 
REMARK    4  A    between atoms: C_7  and  O_6 
REMARK    5  A    between atoms: C_9  and  C_10 
REMARK    6  A    between atoms: N_15  and  C_14 
REMARK    7  A    between atoms: N_20  and  C_19 
REMARK       I    between atoms: C_22  and  N_20 
ROOT
ATOM      1  C   LIG d   1       0.173  81.927 111.305  0.00  0.00     0.161 C 
ATOM      2  C   LIG d   1      -0.943  81.798 112.148  0.00  0.00     0.016 C 
ATOM      3  C   LIG d   1      -1.558  80.559 112.441  0.00  0.00     0.038 C 
ATOM      4  C   LIG d   1      -1.002  79.339 112.028  0.00  0.00     0.028 C 
ATOM      5  C   LIG d   1      -0.165  79.454 110.759  0.00  0.00    -0.047 C 
ATOM      6  C   LIG d   1       0.861  80.596 110.936  0.00  0.00     0.091 C 
ENDROOT
BRANCH   1   7
ATOM      7  O   LIG d   1       1.125  82.837 111.891  0.00  0.00    -0.368 OA
BRANCH   7   8
ATOM      8  C   LIG d   1       1.316  84.094 111.197  0.00  0.00     0.119 C 
BRANCH   8   9
ATOM      9  C   LIG d   1       0.772  85.213 112.107  0.00  0.00     0.028 C 
ATOM     10  C   LIG d   1      -0.675  85.600 111.760  0.00  0.00     0.006 C 
ENDBRANCH   8   9
BRANCH   8  11
ATOM     11  C   LIG d   1       0.469  84.161 109.922  0.00  0.00     0.028 C 
ATOM     12  C   LIG d   1       1.317  84.325 108.651  0.00  0.00     0.006 C 
ENDBRANCH   8  11
ENDBRANCH   7   8
ENDBRANCH   1   7
BRANCH   6  13
ATOM     13  N   LIG d   1       1.665  80.831 109.708  0.00  0.00    -0.311 N 
ATOM     14  C   LIG d   1       2.996  80.884 109.701  0.00  0.00     0.210 C 
ATOM     15  C   LIG d   1       3.625  81.157 108.332  0.00  0.00     0.109 C 
ATOM     16  O   LIG d   1       3.716  80.698 110.694  0.00  0.00    -0.276 OA
ATOM     17  H   LIG d   1       1.162  80.961 108.851  0.00  0.00     0.149 HD
ENDBRANCH   6  13
BRANCH   5  18
ATOM     18  N   LIG d   1       0.465  78.142 110.521  0.00  0.00     0.381 N 
ATOM     19  H   LIG d   1       1.055  78.191 109.714  0.00  0.00    -0.090 HD
ATOM     20  H   LIG d   1      -0.254  77.463 110.344  0.00  0.00    -0.090 HD
ATOM     21  H   LIG d   1       1.000  77.871 111.316  0.00  0.00    -0.090 HD
ENDBRANCH   5  18
BRANCH   3  22
ATOM     22  C   LIG d   1      -2.766  80.536 113.121  0.00  0.00     0.382 C 
ATOM     23  O   LIG d   1      -3.742  81.195 112.689  0.00  0.00    -0.241 OA
ATOM     24  O   LIG d   1      -2.879  79.898 114.186  0.00  0.00    -0.241 OA
ENDBRANCH   3  22
TORSDOF 7
ENDMDL
MODEL 6
REMARK VINA RESULT:      -6.0      2.308      4.768
REMARK  7 active torsions:
REMARK  status: ('A' for Active; 'I' for Inactive)
REMARK    1  A    between atoms: C_2  and  C_3 
REMARK    2  A    between atoms: C_3  and  O_6 
REMARK    3  A    between atoms: C_3  and  C_4 
REMARK    4  A    between atoms: C_7  and  O_6 
REMARK    5  A    between atoms: C_9  and  C_10 
REMARK    6  A    between atoms: N_15  and  C_14 
REMARK    7  A    between atoms: N_20  and  C_19 
REMARK       I    between atoms: C_22  and  N_20 
ROOT
ATOM      1  C   LIG d   1       1.418  82.495 111.638  0.00  0.00     0.161 C 
ATOM      2  C   LIG d   1       2.274  82.835 110.577  0.00  0.00     0.016 C 
ATOM      3  C   LIG d   1       2.252  82.186 109.321  0.00  0.00     0.038 C 
ATOM      4  C   LIG d   1       1.264  81.248 108.988  0.00  0.00     0.028 C 
ATOM      5  C   LIG d   1       0.696  80.512 110.197  0.00  0.00    -0.047 C 
ATOM      6  C   LIG d   1       0.260  81.549 111.256  0.00  0.00     0.091 C 
ENDROOT
BRANCH   1   7
ATOM      7  O   LIG d   1       0.905  83.692 112.255  0.00  0.00    -0.368 OA
BRANCH   7   8
ATOM      8  C   LIG d   1       0.700  84.825 111.376  0.00  0.00     0.119 C 
BRANCH   8   9
ATOM      9  C   LIG d   1       1.264  86.071 112.086  0.00  0.00     0.028 C 
ATOM     10  C   LIG d   1       2.377  86.755 111.275  0.00  0.00     0.006 C 
ENDBRANCH   8   9
BRANCH   8  11
ATOM     11  C   LIG d   1      -0.791  85.112 111.176  0.00  0.00     0.028 C 
ATOM     12  C   LIG d   1      -1.081  85.875 109.873  0.00  0.00     0.006 C 
ENDBRANCH   8  11
ENDBRANCH   7   8
ENDBRANCH   1   7
BRANCH   6  13
ATOM     13  N   LIG d   1      -0.230  80.912 112.506  0.00  0.00    -0.311 N 
ATOM     14  C   LIG d   1      -1.468  81.070 112.973  0.00  0.00     0.210 C 
ATOM     15  C   LIG d   1      -1.760  80.340 114.288  0.00  0.00     0.109 C 
ATOM     16  O   LIG d   1      -2.360  81.718 112.407  0.00  0.00    -0.276 OA
ATOM     17  H   LIG d   1       0.419  80.343 113.013  0.00  0.00     0.149 HD
ENDBRANCH   6  13
BRANCH   5  18
ATOM     18  N   LIG d   1      -0.416  79.667 109.722  0.00  0.00     0.381 N 
ATOM     19  H   LIG d   1      -0.932  79.315 110.504  0.00  0.00    -0.090 HD
ATOM     20  H   LIG d   1      -0.038  78.886 109.216  0.00  0.00    -0.090 HD
ATOM     21  H   LIG d   1      -1.018  80.197 109.130  0.00  0.00    -0.090 HD
ENDBRANCH   5  18
BRANCH   3  22
ATOM     22  C   LIG d   1       3.252  82.446 108.396  0.00  0.00     0.382 C 
ATOM     23  O   LIG d   1       4.439  82.585 108.778  0.00  0.00    -0.241 OA
ATOM     24  O   LIG d   1       2.976  82.587 107.190  0.00  0.00    -0.241 OA
ENDBRANCH   3  22
TORSDOF 7
ENDMDL
MODEL 7
REMARK VINA RESULT:      -6.0      2.513      3.194
REMARK  7 active torsions:
REMARK  status: ('A' for Active; 'I' for Inactive)
REMARK    1  A    between atoms: C_2  and  C_3 
REMARK    2  A    between atoms: C_3  and  O_6 
REMARK    3  A    between atoms: C_3  and  C_4 
REMARK    4  A    between atoms: C_7  and  O_6 
REMARK    5  A    between atoms: C_9  and  C_10 
REMARK    6  A    between atoms: N_15  and  C_14 
REMARK    7  A    between atoms: N_20  and  C_19 
REMARK       I    between atoms: C_22  and  N_20 
ROOT
ATOM      1  C   LIG d   1       3.765  85.522 110.847  0.00  0.00     0.161 C 
ATOM      2  C   LIG d   1       3.856  86.493 111.859  0.00  0.00     0.016 C 
ATOM      3  C   LIG d   1       2.762  87.283 112.280  0.00  0.00     0.038 C 
ATOM      4  C   LIG d   1       1.458  87.048 111.820  0.00  0.00     0.028 C 
ATOM      5  C   LIG d   1       1.409  86.420 110.432  0.00  0.00    -0.047 C 
ATOM      6  C   LIG d   1       2.326  85.175 110.412  0.00  0.00     0.091 C 
ENDROOT
BRANCH   1   7
ATOM      7  O   LIG d   1       4.468  84.330 111.249  0.00  0.00    -0.368 OA
BRANCH   7   8
ATOM      8  C   LIG d   1       3.668  83.302 111.884  0.00  0.00     0.119 C 
BRANCH   8   9
ATOM      9  C   LIG d   1       4.089  83.237 113.365  0.00  0.00     0.028 C 
ATOM     10  C   LIG d   1       3.039  83.857 114.302  0.00  0.00     0.006 C 
ENDBRANCH   8   9
BRANCH   8  11
ATOM     11  C   LIG d   1       3.984  81.917 111.312  0.00  0.00     0.028 C 
ATOM     12  C   LIG d   1       4.963  81.971 110.128  0.00  0.00     0.006 C 
ENDBRANCH   8  11
ENDBRANCH   7   8
ENDBRANCH   1   7
BRANCH   6  13
ATOM     13  N   LIG d   1       2.402  84.549 109.066  0.00  0.00    -0.311 N 
ATOM     14  C   LIG d   1       1.684  83.485 108.711  0.00  0.00     0.210 C 
ATOM     15  C   LIG d   1       1.929  82.986 107.284  0.00  0.00     0.109 C 
ATOM     16  O   LIG d   1       0.844  82.926 109.432  0.00  0.00    -0.276 OA
ATOM     17  H   LIG d   1       3.036  84.957 108.408  0.00  0.00     0.149 HD
ENDBRANCH   6  13
BRANCH   5  18
ATOM     18  N   LIG d   1      -0.001  86.103 110.135  0.00  0.00     0.381 N 
ATOM     19  H   LIG d   1      -0.256  85.244 110.578  0.00  0.00    -0.090 HD
ATOM     20  H   LIG d   1      -0.106  85.989 109.142  0.00  0.00    -0.090 HD
ATOM     21  H   LIG d   1      -0.590  86.839 110.456  0.00  0.00    -0.090 HD
ENDBRANCH   5  18
BRANCH   3  22
ATOM     22  C   LIG d   1       2.975  88.347 113.143  0.00  0.00     0.382 C 
ATOM     23  O   LIG d   1       3.942  89.123 112.954  0.00  0.00    -0.241 OA
ATOM     24  O   LIG d   1       2.237  88.515 114.133  0.00  0.00    -0.241 OA
ENDBRANCH   3  22
TORSDOF 7
ENDMDL
MODEL 8
REMARK VINA RESULT:      -5.8      1.926      4.600
REMARK  7 active torsions:
REMARK  status: ('A' for Active; 'I' for Inactive)
REMARK    1  A    between atoms: C_2  and  C_3 
REMARK    2  A    between atoms: C_3  and  O_6 
REMARK    3  A    between atoms: C_3  and  C_4 
REMARK    4  A    between atoms: C_7  and  O_6 
REMARK    5  A    between atoms: C_9  and  C_10 
REMARK    6  A    between atoms: N_15  and  C_14 
REMARK    7  A    between atoms: N_20  and  C_19 
REMARK       I    between atoms: C_22  and  N_20 
ROOT
ATOM      1  C   LIG d   1       1.366  83.242 111.075  0.00  0.00     0.161 C 
ATOM      2  C   LIG d   1       2.662  83.199 110.535  0.00  0.00     0.016 C 
ATOM      3  C   LIG d   1       3.046  82.312 109.504  0.00  0.00     0.038 C 
ATOM      4  C   LIG d   1       2.114  81.506 108.833  0.00  0.00     0.028 C 
ATOM      5  C   LIG d   1       0.898  81.151 109.683  0.00  0.00    -0.047 C 
ATOM      6  C   LIG d   1       0.308  82.448 110.281  0.00  0.00     0.091 C 
ENDROOT
BRANCH   1   7
ATOM      7  O   LIG d   1       0.948  84.612 111.236  0.00  0.00    -0.368 OA
BRANCH   7   8
ATOM      8  C   LIG d   1       1.365  85.531 110.196  0.00  0.00     0.119 C 
BRANCH   8   9
ATOM      9  C   LIG d   1       1.832  86.828 110.884  0.00  0.00     0.028 C 
ATOM     10  C   LIG d   1       1.854  86.704 112.417  0.00  0.00     0.006 C 
ENDBRANCH   8   9
BRANCH   8  11
ATOM     11  C   LIG d   1       0.185  85.944 109.311  0.00  0.00     0.028 C 
ATOM     12  C   LIG d   1      -1.150  85.965 110.071  0.00  0.00     0.006 C 
ENDBRANCH   8  11
ENDBRANCH   7   8
ENDBRANCH   1   7
BRANCH   6  13
ATOM     13  N   LIG d   1      -0.835  82.183 111.194  0.00  0.00    -0.311 N 
ATOM     14  C   LIG d   1      -0.753  81.387 112.258  0.00  0.00     0.210 C 
ATOM     15  C   LIG d   1      -2.053  81.234 113.054  0.00  0.00     0.109 C 
ATOM     16  O   LIG d   1       0.282  80.817 112.638  0.00  0.00    -0.276 OA
ATOM     17  H   LIG d   1      -1.704  82.629 110.978  0.00  0.00     0.149 HD
ENDBRANCH   6  13
BRANCH   5  18
ATOM     18  N   LIG d   1      -0.053  80.427 108.819  0.00  0.00     0.381 N 
ATOM     19  H   LIG d   1       0.072  80.708 107.867  0.00  0.00    -0.090 HD
ATOM     20  H   LIG d   1      -0.989  80.663 109.098  0.00  0.00    -0.090 HD
ATOM     21  H   LIG d   1       0.089  79.444 108.904  0.00  0.00    -0.090 HD
ENDBRANCH   5  18
BRANCH   3  22
ATOM     22  C   LIG d   1       4.384  82.196 109.160  0.00  0.00     0.382 C 
ATOM     23  O   LIG d   1       5.254  82.078 110.056  0.00  0.00    -0.241 OA
ATOM     24  O   LIG d   1       4.737  82.251 107.967  0.00  0.00    -0.241 OA
ENDBRANCH   3  22
TORSDOF 7
ENDMDL
MODEL 9
REMARK VINA RESULT:      -5.8      2.071      3.281
REMARK  7 active torsions:
REMARK  status: ('A' for Active; 'I' for Inactive)
REMARK    1  A    between atoms: C_2  and  C_3 
REMARK    2  A    between atoms: C_3  and  O_6 
REMARK    3  A    between atoms: C_3  and  C_4 
REMARK    4  A    between atoms: C_7  and  O_6 
REMARK    5  A    between atoms: C_9  and  C_10 
REMARK    6  A    between atoms: N_15  and  C_14 
REMARK    7  A    between atoms: N_20  and  C_19 
REMARK       I    between atoms: C_22  and  N_20 
ROOT
ATOM      1  C   LIG d   1       2.142  84.272 110.107  0.00  0.00     0.161 C 
ATOM      2  C   LIG d   1       1.132  85.223 110.329  0.00  0.00     0.016 C 
ATOM      3  C   LIG d   1      -0.171  84.887 110.761  0.00  0.00     0.038 C 
ATOM      4  C   LIG d   1      -0.511  83.582 111.148  0.00  0.00     0.028 C 
ATOM      5  C   LIG d   1       0.327  82.509 110.460  0.00  0.00    -0.047 C 
ATOM      6  C   LIG d   1       1.824  82.856 110.630  0.00  0.00     0.091 C 
ENDROOT
BRANCH   1   7
ATOM      7  O   LIG d   1       3.387  84.743 110.662  0.00  0.00    -0.368 OA
BRANCH   7   8
ATOM      8  C   LIG d   1       3.322  85.287 112.003  0.00  0.00     0.119 C 
BRANCH   8   9
ATOM      9  C   LIG d   1       4.086  86.625 111.998  0.00  0.00     0.028 C 
ATOM     10  C   LIG d   1       3.292  87.756 112.672  0.00  0.00     0.006 C 
ENDBRANCH   8   9
BRANCH   8  11
ATOM     11  C   LIG d   1       4.069  84.397 113.002  0.00  0.00     0.028 C 
ATOM     12  C   LIG d   1       3.162  83.874 114.127  0.00  0.00     0.006 C 
ENDBRANCH   8  11
ENDBRANCH   7   8
ENDBRANCH   1   7
BRANCH   6  13
ATOM     13  N   LIG d   1       2.712  81.902 109.915  0.00  0.00    -0.311 N 
ATOM     14  C   LIG d   1       3.595  81.120 110.532  0.00  0.00     0.210 C 
ATOM     15  C   LIG d   1       4.424  80.225 109.606  0.00  0.00     0.109 C 
ATOM     16  O   LIG d   1       3.748  81.058 111.761  0.00  0.00    -0.276 OA
ATOM     17  H   LIG d   1       2.632  81.865 108.918  0.00  0.00     0.149 HD
ENDBRANCH   6  13
BRANCH   5  18
ATOM     18  N   LIG d   1      -0.036  81.210 111.056  0.00  0.00     0.381 N 
ATOM     19  H   LIG d   1       0.332  80.466 110.498  0.00  0.00    -0.090 HD
ATOM     20  H   LIG d   1      -1.038  81.127 111.070  0.00  0.00    -0.090 HD
ATOM     21  H   LIG d   1       0.322  81.147 111.984  0.00  0.00    -0.090 HD
ENDBRANCH   5  18
BRANCH   3  22
ATOM     22  C   LIG d   1      -1.163  85.856 110.771  0.00  0.00     0.382 C 
ATOM     23  O   LIG d   1      -1.572  86.323 111.861  0.00  0.00    -0.241 OA
ATOM     24  O   LIG d   1      -1.685  86.236 109.706  0.00  0.00    -0.241 OA
ENDBRANCH   3  22
TORSDOF 7
ENDMDL
