MODEL 1
REMARK VINA RESULT:      -6.5      0.000      0.000
REMARK  7 active torsions:
REMARK  status: ('A' for Active; 'I' for Inactive)
REMARK    1  A    between atoms: C_2  and  C_3 
REMARK    2  A    between atoms: C_3  and  O_6 
REMARK    3  A    between atoms: C_3  and  C_4 
REMARK    4  A    between atoms: C_7  and  O_6 
REMARK    5  A    between atoms: C_9  and  C_10 
REMARK    6  A    between atoms: N_15  and  C_14 
REMARK    7  A    between atoms: N_20  and  C_19 
REMARK       I    between atoms: C_22  and  N_20 
ROOT
ATOM      1  C   LIG d   1       2.393  84.206 111.272  0.00  0.00     0.161 C 
ATOM      2  C   LIG d   1       3.126  85.402 111.195  0.00  0.00     0.016 C 
ATOM      3  C   LIG d   1       3.418  86.209 112.318  0.00  0.00     0.038 C 
ATOM      4  C   LIG d   1       3.123  85.795 113.626  0.00  0.00     0.028 C 
ATOM      5  C   LIG d   1       1.938  84.838 113.705  0.00  0.00    -0.047 C 
ATOM      6  C   LIG d   1       2.159  83.682 112.704  0.00  0.00     0.091 C 
ENDROOT
BRANCH   1   7
ATOM      7  O   LIG d   1       3.025  83.193 110.464  0.00  0.00    -0.368 OA
BRANCH   7   8
ATOM      8  C   LIG d   1       2.237  82.671 109.366  0.00  0.00     0.119 C 
BRANCH   8   9
ATOM      9  C   LIG d   1       3.202  81.947 108.407  0.00  0.00     0.028 C 
ATOM     10  C   LIG d   1       4.676  82.280 108.696  0.00  0.00     0.006 C 
ENDBRANCH   8   9
BRANCH   8  11
ATOM     11  C   LIG d   1       1.616  83.800 108.539  0.00  0.00     0.028 C 
ATOM     12  C   LIG d   1       1.592  83.493 107.033  0.00  0.00     0.006 C 
ENDBRANCH   8  11
ENDBRANCH   7   8
ENDBRANCH   1   7
BRANCH   6  13
ATOM     13  N   LIG d   1       1.006  82.745 112.657  0.00  0.00    -0.311 N 
ATOM     14  C   LIG d   1       1.133  81.422 112.744  0.00  0.00     0.210 C 
ATOM     15  C   LIG d   1      -0.181  80.639 112.654  0.00  0.00     0.109 C 
ATOM     16  O   LIG d   1       2.205  80.824 112.921  0.00  0.00    -0.276 OA
ATOM     17  H   LIG d   1       0.096  83.146 112.547  0.00  0.00     0.149 HD
ENDBRANCH   6  13
BRANCH   5  18
ATOM     18  N   LIG d   1       1.828  84.380 115.103  0.00  0.00     0.381 N 
ATOM     19  H   LIG d   1       0.895  84.522 115.434  0.00  0.00    -0.090 HD
ATOM     20  H   LIG d   1       2.451  84.924 115.674  0.00  0.00    -0.090 HD
ATOM     21  H   LIG d   1       2.067  83.414 115.165  0.00  0.00    -0.090 HD
ENDBRANCH   5  18
BRANCH   3  22
ATOM     22  C   LIG d   1       3.976  87.465 112.136  0.00  0.00     0.382 C 
ATOM     23  O   LIG d   1       5.194  87.575 111.858  0.00  0.00    -0.241 OA
ATOM     24  O   LIG d   1       3.287  88.491 112.289  0.00  0.00    -0.241 OA
ENDBRANCH   3  22
TORSDOF 7
ENDMDL
MODEL 2
REMARK VINA RESULT:      -6.5      2.900      6.016
REMARK  7 active torsions:
REMARK  status: ('A' for Active; 'I' for Inactive)
REMARK    1  A    between atoms: C_2  and  C_3 
REMARK    2  A    between atoms: C_3  and  O_6 
REMARK    3  A    between atoms: C_3  and  C_4 
REMARK    4  A    between atoms: C_7  and  O_6 
REMARK    5  A    between atoms: C_9  and  C_10 
REMARK    6  A    between atoms: N_15  and  C_14 
REMARK    7  A    between atoms: N_20  and  C_19 
REMARK       I    between atoms: C_22  and  N_20 
ROOT
ATOM      1  C   LIG d   1       0.013  82.504 111.638  0.00  0.00     0.161 C 
ATOM      2  C   LIG d   1      -1.136  82.216 112.392  0.00  0.00     0.016 C 
ATOM      3  C   LIG d   1      -1.581  80.901 112.661  0.00  0.00     0.038 C 
ATOM      4  C   LIG d   1      -0.817  79.776 112.319  0.00  0.00     0.028 C 
ATOM      5  C   LIG d   1       0.094  80.004 111.118  0.00  0.00    -0.047 C 
ATOM      6  C   LIG d   1       0.920  81.289 111.352  0.00  0.00     0.091 C 
ENDROOT
BRANCH   1   7
ATOM      7  O   LIG d   1       0.768  83.552 112.279  0.00  0.00    -0.368 OA
BRANCH   7   8
ATOM      8  C   LIG d   1       0.804  84.825 111.587  0.00  0.00     0.119 C 
BRANCH   8   9
ATOM      9  C   LIG d   1      -0.075  84.694 110.329  0.00  0.00     0.028 C 
ATOM     10  C   LIG d   1       0.601  85.280 109.077  0.00  0.00     0.006 C 
ENDBRANCH   8   9
BRANCH   8  11
ATOM     11  C   LIG d   1       2.211  85.137 111.069  0.00  0.00     0.028 C 
ATOM     12  C   LIG d   1       3.315  84.454 111.892  0.00  0.00     0.006 C 
ENDBRANCH   8  11
ENDBRANCH   7   8
ENDBRANCH   1   7
BRANCH   6  13
ATOM     13  N   LIG d   1       1.777  81.632 110.187  0.00  0.00    -0.311 N 
ATOM     14  C   LIG d   1       3.037  81.220 110.057  0.00  0.00     0.210 C 
ATOM     15  C   LIG d   1       3.748  81.704 108.789  0.00  0.00     0.109 C 
ATOM     16  O   LIG d   1       3.623  80.473 110.855  0.00  0.00    -0.276 OA
ATOM     17  H   LIG d   1       1.371  82.209 109.476  0.00  0.00     0.149 HD
ENDBRANCH   6  13
BRANCH   5  18
ATOM     18  N   LIG d   1       0.930  78.800 110.958  0.00  0.00     0.381 N 
ATOM     19  H   LIG d   1       0.436  78.112 110.426  0.00  0.00    -0.090 HD
ATOM     20  H   LIG d   1       1.125  78.416 111.866  0.00  0.00    -0.090 HD
ATOM     21  H   LIG d   1       1.783  79.035 110.499  0.00  0.00    -0.090 HD
ENDBRANCH   5  18
BRANCH   3  22
ATOM     22  C   LIG d   1      -2.823  80.702 113.244  0.00  0.00     0.382 C 
ATOM     23  O   LIG d   1      -3.049  79.654 113.897  0.00  0.00    -0.241 OA
ATOM     24  O   LIG d   1      -3.736  81.536 113.088  0.00  0.00    -0.241 OA
ENDBRANCH   3  22
TORSDOF 7
ENDMDL
MODEL 3
REMARK VINA RESULT:      -6.3      2.342      5.114
REMARK  7 active torsions:
REMARK  status: ('A' for Active; 'I' for Inactive)
REMARK    1  A    between atoms: C_2  and  C_3 
REMARK    2  A    between atoms: C_3  and  O_6 
REMARK    3  A    between atoms: C_3  and  C_4 
REMARK    4  A    between atoms: C_7  and  O_6 
REMARK    5  A    between atoms: C_9  and  C_10 
REMARK    6  A    between atoms: N_15  and  C_14 
REMARK    7  A    between atoms: N_20  and  C_19 
REMARK       I    between atoms: C_22  and  N_20 
ROOT
ATOM      1  C   LIG d   1       1.992  82.998 112.329  0.00  0.00     0.161 C 
ATOM      2  C   LIG d   1       0.945  82.062 112.363  0.00  0.00     0.016 C 
ATOM      3  C   LIG d   1      -0.411  82.403 112.156  0.00  0.00     0.038 C 
ATOM      4  C   LIG d   1      -0.799  83.688 111.749  0.00  0.00     0.028 C 
ATOM      5  C   LIG d   1       0.167  84.781 112.195  0.00  0.00    -0.047 C 
ATOM      6  C   LIG d   1       1.601  84.385 111.777  0.00  0.00     0.091 C 
ENDROOT
BRANCH   1   7
ATOM      7  O   LIG d   1       3.106  82.460 111.589  0.00  0.00    -0.368 OA
BRANCH   7   8
ATOM      8  C   LIG d   1       2.808  81.963 110.261  0.00  0.00     0.119 C 
BRANCH   8   9
ATOM      9  C   LIG d   1       3.449  80.568 110.134  0.00  0.00     0.028 C 
ATOM     10  C   LIG d   1       2.405  79.439 110.151  0.00  0.00     0.006 C 
ENDBRANCH   8   9
BRANCH   8  11
ATOM     11  C   LIG d   1       3.481  82.818 109.183  0.00  0.00     0.028 C 
ATOM     12  C   LIG d   1       4.699  82.127 108.549  0.00  0.00     0.006 C 
ENDBRANCH   8  11
ENDBRANCH   7   8
ENDBRANCH   1   7
BRANCH   6  13
ATOM     13  N   LIG d   1       2.619  85.360 112.249  0.00  0.00    -0.311 N 
ATOM     14  C   LIG d   1       3.009  86.416 111.537  0.00  0.00     0.210 C 
ATOM     15  C   LIG d   1       4.083  87.282 112.200  0.00  0.00     0.109 C 
ATOM     16  O   LIG d   1       2.543  86.734 110.432  0.00  0.00    -0.276 OA
ATOM     17  H   LIG d   1       3.026  85.195 113.149  0.00  0.00     0.149 HD
ENDBRANCH   6  13
BRANCH   5  18
ATOM     18  N   LIG d   1      -0.283  86.048 111.587  0.00  0.00     0.381 N 
ATOM     19  H   LIG d   1      -0.367  85.938 110.596  0.00  0.00    -0.090 HD
ATOM     20  H   LIG d   1       0.405  86.758 111.768  0.00  0.00    -0.090 HD
ATOM     21  H   LIG d   1      -1.160  86.319 111.974  0.00  0.00    -0.090 HD
ENDBRANCH   5  18
BRANCH   3  22
ATOM     22  C   LIG d   1      -1.401  81.461 112.395  0.00  0.00     0.382 C 
ATOM     23  O   LIG d   1      -1.182  80.249 112.159  0.00  0.00    -0.241 OA
ATOM     24  O   LIG d   1      -2.524  81.815 112.802  0.00  0.00    -0.241 OA
ENDBRANCH   3  22
TORSDOF 7
ENDMDL
MODEL 4
REMARK VINA RESULT:      -6.2      2.665      4.943
REMARK  7 active torsions:
REMARK  status: ('A' for Active; 'I' for Inactive)
REMARK    1  A    between atoms: C_2  and  C_3 
REMARK    2  A    between atoms: C_3  and  O_6 
REMARK    3  A    between atoms: C_3  and  C_4 
REMARK    4  A    between atoms: C_7  and  O_6 
REMARK    5  A    between atoms: C_9  and  C_10 
REMARK    6  A    between atoms: N_15  and  C_14 
REMARK    7  A    between atoms: N_20  and  C_19 
REMARK       I    between atoms: C_22  and  N_20 
ROOT
ATOM      1  C   LIG d   1       0.912  82.308 112.186  0.00  0.00     0.161 C 
ATOM      2  C   LIG d   1       1.914  82.839 111.357  0.00  0.00     0.016 C 
ATOM      3  C   LIG d   1       2.190  82.351 110.059  0.00  0.00     0.038 C 
ATOM      4  C   LIG d   1       1.377  81.391 109.439  0.00  0.00     0.028 C 
ATOM      5  C   LIG d   1       0.667  80.471 110.427  0.00  0.00    -0.047 C 
ATOM      6  C   LIG d   1      -0.058  81.334 111.485  0.00  0.00     0.091 C 
ENDROOT
BRANCH   1   7
ATOM      7  O   LIG d   1       0.180  83.378 112.815  0.00  0.00    -0.368 OA
BRANCH   7   8
ATOM      8  C   LIG d   1       0.580  84.723 112.453  0.00  0.00     0.119 C 
BRANCH   8   9
ATOM      9  C   LIG d   1       1.007  85.442 113.747  0.00  0.00     0.028 C 
ATOM     10  C   LIG d   1       2.390  86.103 113.622  0.00  0.00     0.006 C 
ENDBRANCH   8   9
BRANCH   8  11
ATOM     11  C   LIG d   1      -0.604  85.530 111.913  0.00  0.00     0.028 C 
ATOM     12  C   LIG d   1      -0.839  85.310 110.410  0.00  0.00     0.006 C 
ENDBRANCH   8  11
ENDBRANCH   7   8
ENDBRANCH   1   7
BRANCH   6  13
ATOM     13  N   LIG d   1      -0.708  80.511 112.538  0.00  0.00    -0.311 N 
ATOM     14  C   LIG d   1      -1.934  80.750 113.001  0.00  0.00     0.210 C 
ATOM     15  C   LIG d   1      -2.407  79.794 114.101  0.00  0.00     0.109 C 
ATOM     16  O   LIG d   1      -2.687  81.643 112.584  0.00  0.00    -0.276 OA
ATOM     17  H   LIG d   1      -0.180  79.747 112.911  0.00  0.00     0.149 HD
ENDBRANCH   6  13
BRANCH   5  18
ATOM     18  N   LIG d   1      -0.251  79.611 109.655  0.00  0.00     0.381 N 
ATOM     19  H   LIG d   1      -0.969  80.170 109.239  0.00  0.00    -0.090 HD
ATOM     20  H   LIG d   1      -0.684  78.954 110.280  0.00  0.00    -0.090 HD
ATOM     21  H   LIG d   1       0.253  79.124 108.947  0.00  0.00    -0.090 HD
ENDBRANCH   5  18
BRANCH   3  22
ATOM     22  C   LIG d   1       3.315  82.797 109.382  0.00  0.00     0.382 C 
ATOM     23  O   LIG d   1       3.665  82.241 108.313  0.00  0.00    -0.241 OA
ATOM     24  O   LIG d   1       4.009  83.719 109.849  0.00  0.00    -0.241 OA
ENDBRANCH   3  22
TORSDOF 7
ENDMDL
MODEL 5
REMARK VINA RESULT:      -6.2      2.653      5.024
REMARK  7 active torsions:
REMARK  status: ('A' for Active; 'I' for Inactive)
REMARK    1  A    between atoms: C_2  and  C_3 
REMARK    2  A    between atoms: C_3  and  O_6 
REMARK    3  A    between atoms: C_3  and  C_4 
REMARK    4  A    between atoms: C_7  and  O_6 
REMARK    5  A    between atoms: C_9  and  C_10 
REMARK    6  A    between atoms: N_15  and  C_14 
REMARK    7  A    between atoms: N_20  and  C_19 
REMARK       I    between atoms: C_22  and  N_20 
ROOT
ATOM      1  C   LIG d   1       2.365  85.011 110.917  0.00  0.00     0.161 C 
ATOM      2  C   LIG d   1       1.278  85.696 111.486  0.00  0.00     0.016 C 
ATOM      3  C   LIG d   1      -0.016  85.139 111.608  0.00  0.00     0.038 C 
ATOM      4  C   LIG d   1      -0.275  83.794 111.304  0.00  0.00     0.028 C 
ATOM      5  C   LIG d   1       0.670  83.216 110.256  0.00  0.00    -0.047 C 
ATOM      6  C   LIG d   1       2.128  83.504 110.682  0.00  0.00     0.091 C 
ENDROOT
BRANCH   1   7
ATOM      7  O   LIG d   1       3.544  85.213 111.721  0.00  0.00    -0.368 OA
BRANCH   7   8
ATOM      8  C   LIG d   1       3.324  85.711 113.063  0.00  0.00     0.119 C 
BRANCH   8   9
ATOM      9  C   LIG d   1       4.429  86.743 113.361  0.00  0.00     0.028 C 
ATOM     10  C   LIG d   1       5.040  87.335 112.080  0.00  0.00     0.006 C 
ENDBRANCH   8   9
BRANCH   8  11
ATOM     11  C   LIG d   1       3.509  84.605 114.106  0.00  0.00     0.028 C 
ATOM     12  C   LIG d   1       4.638  84.909 115.103  0.00  0.00     0.006 C 
ENDBRANCH   8  11
ENDBRANCH   7   8
ENDBRANCH   1   7
BRANCH   6  13
ATOM     13  N   LIG d   1       3.115  83.046 109.670  0.00  0.00    -0.311 N 
ATOM     14  C   LIG d   1       3.728  81.865 109.725  0.00  0.00     0.210 C 
ATOM     15  C   LIG d   1       4.724  81.600 108.592  0.00  0.00     0.109 C 
ATOM     16  O   LIG d   1       3.517  80.999 110.587  0.00  0.00    -0.276 OA
ATOM     17  H   LIG d   1       3.323  83.675 108.918  0.00  0.00     0.149 HD
ENDBRANCH   6  13
BRANCH   5  18
ATOM     18  N   LIG d   1       0.376  81.776 110.136  0.00  0.00     0.381 N 
ATOM     19  H   LIG d   1       1.133  81.313 109.673  0.00  0.00    -0.090 HD
ATOM     20  H   LIG d   1      -0.453  81.658 109.581  0.00  0.00    -0.090 HD
ATOM     21  H   LIG d   1       0.239  81.380 111.040  0.00  0.00    -0.090 HD
ENDBRANCH   5  18
BRANCH   3  22
ATOM     22  C   LIG d   1      -1.075  85.942 112.000  0.00  0.00     0.382 C 
ATOM     23  O   LIG d   1      -1.606  85.774 113.125  0.00  0.00    -0.241 OA
ATOM     24  O   LIG d   1      -1.536  86.802 111.227  0.00  0.00    -0.241 OA
ENDBRANCH   3  22
TORSDOF 7
ENDMDL
MODEL 6
REMARK VINA RESULT:      -6.0      3.193      5.035
REMARK  7 active torsions:
REMARK  status: ('A' for Active; 'I' for Inactive)
REMARK    1  A    between atoms: C_2  and  C_3 
REMARK    2  A    between atoms: C_3  and  O_6 
REMARK    3  A    between atoms: C_3  and  C_4 
REMARK    4  A    between atoms: C_7  and  O_6 
REMARK    5  A    between atoms: C_9  and  C_10 
REMARK    6  A    between atoms: N_15  and  C_14 
REMARK    7  A    between atoms: N_20  and  C_19 
REMARK       I    between atoms: C_22  and  N_20 
ROOT
ATOM      1  C   LIG d   1       1.507  83.316 111.584  0.00  0.00     0.161 C 
ATOM      2  C   LIG d   1       0.462  84.098 112.103  0.00  0.00     0.016 C 
ATOM      3  C   LIG d   1      -0.263  85.038 111.335  0.00  0.00     0.038 C 
ATOM      4  C   LIG d   1      -0.090  85.152 109.947  0.00  0.00     0.028 C 
ATOM      5  C   LIG d   1       1.301  84.743 109.475  0.00  0.00    -0.047 C 
ATOM      6  C   LIG d   1       1.635  83.346 110.047  0.00  0.00     0.091 C 
ENDROOT
BRANCH   1   7
ATOM      7  O   LIG d   1       1.379  81.958 112.050  0.00  0.00    -0.368 OA
BRANCH   7   8
ATOM      8  C   LIG d   1       0.189  81.248 111.625  0.00  0.00     0.119 C 
BRANCH   8   9
ATOM      9  C   LIG d   1      -0.389  80.533 112.862  0.00  0.00     0.028 C 
ATOM     10  C   LIG d   1      -1.904  80.752 113.011  0.00  0.00     0.006 C 
ENDBRANCH   8   9
BRANCH   8  11
ATOM     11  C   LIG d   1       0.530  80.132 110.634  0.00  0.00     0.028 C 
ATOM     12  C   LIG d   1       1.969  79.616 110.789  0.00  0.00     0.006 C 
ENDBRANCH   8  11
ENDBRANCH   7   8
ENDBRANCH   1   7
BRANCH   6  13
ATOM     13  N   LIG d   1       3.012  82.907 109.702  0.00  0.00    -0.311 N 
ATOM     14  C   LIG d   1       3.307  82.215 108.603  0.00  0.00     0.210 C 
ATOM     15  C   LIG d   1       4.786  81.846 108.448  0.00  0.00     0.109 C 
ATOM     16  O   LIG d   1       2.490  81.900 107.725  0.00  0.00    -0.276 OA
ATOM     17  H   LIG d   1       3.742  83.147 110.344  0.00  0.00     0.149 HD
ENDBRANCH   6  13
BRANCH   5  18
ATOM     18  N   LIG d   1       1.299  84.778 108.000  0.00  0.00     0.381 N 
ATOM     19  H   LIG d   1       0.361  84.880 107.665  0.00  0.00    -0.090 HD
ATOM     20  H   LIG d   1       1.664  83.908 107.654  0.00  0.00    -0.090 HD
ATOM     21  H   LIG d   1       1.860  85.535 107.676  0.00  0.00    -0.090 HD
ENDBRANCH   5  18
BRANCH   3  22
ATOM     22  C   LIG d   1      -1.145  85.905 111.962  0.00  0.00     0.382 C 
ATOM     23  O   LIG d   1      -1.478  85.705 113.155  0.00  0.00    -0.241 OA
ATOM     24  O   LIG d   1      -1.645  86.859 111.337  0.00  0.00    -0.241 OA
ENDBRANCH   3  22
TORSDOF 7
ENDMDL
MODEL 7
REMARK VINA RESULT:      -6.0      2.849      5.983
REMARK  7 active torsions:
REMARK  status: ('A' for Active; 'I' for Inactive)
REMARK    1  A    between atoms: C_2  and  C_3 
REMARK    2  A    between atoms: C_3  and  O_6 
REMARK    3  A    between atoms: C_3  and  C_4 
REMARK    4  A    between atoms: C_7  and  O_6 
REMARK    5  A    between atoms: C_9  and  C_10 
REMARK    6  A    between atoms: N_15  and  C_14 
REMARK    7  A    between atoms: N_20  and  C_19 
REMARK       I    between atoms: C_22  and  N_20 
ROOT
ATOM      1  C   LIG d   1       1.003  81.415 110.819  0.00  0.00     0.161 C 
ATOM      2  C   LIG d   1       1.037  80.080 110.384  0.00  0.00     0.016 C 
ATOM      3  C   LIG d   1       0.202  79.068 110.914  0.00  0.00     0.038 C 
ATOM      4  C   LIG d   1      -0.835  79.358 111.813  0.00  0.00     0.028 C 
ATOM      5  C   LIG d   1      -0.575  80.602 112.656  0.00  0.00    -0.047 C 
ATOM      6  C   LIG d   1      -0.197  81.773 111.720  0.00  0.00     0.091 C 
ENDROOT
BRANCH   1   7
ATOM      7  O   LIG d   1       1.058  82.300 109.682  0.00  0.00    -0.368 OA
BRANCH   7   8
ATOM      8  C   LIG d   1       2.325  82.962 109.450  0.00  0.00     0.119 C 
BRANCH   8   9
ATOM      9  C   LIG d   1       3.035  82.214 108.305  0.00  0.00     0.028 C 
ATOM     10  C   LIG d   1       4.538  82.024 108.571  0.00  0.00     0.006 C 
ENDBRANCH   8   9
BRANCH   8  11
ATOM     11  C   LIG d   1       3.254  82.828 110.660  0.00  0.00     0.028 C 
ATOM     12  C   LIG d   1       3.453  84.155 111.409  0.00  0.00     0.006 C 
ENDBRANCH   8  11
ENDBRANCH   7   8
ENDBRANCH   1   7
BRANCH   6  13
ATOM     13  N   LIG d   1       0.155  83.007 112.469  0.00  0.00    -0.311 N 
ATOM     14  C   LIG d   1      -0.271  84.221 112.124  0.00  0.00     0.210 C 
ATOM     15  C   LIG d   1       0.225  85.359 113.021  0.00  0.00     0.109 C 
ATOM     16  O   LIG d   1      -1.039  84.459 111.180  0.00  0.00    -0.276 OA
ATOM     17  H   LIG d   1       0.749  82.902 113.268  0.00  0.00     0.149 HD
ENDBRANCH   6  13
BRANCH   5  18
ATOM     18  N   LIG d   1      -1.792  80.865 113.448  0.00  0.00     0.381 N 
ATOM     19  H   LIG d   1      -2.381  80.057 113.442  0.00  0.00    -0.090 HD
ATOM     20  H   LIG d   1      -2.295  81.626 113.027  0.00  0.00    -0.090 HD
ATOM     21  H   LIG d   1      -1.545  81.099 114.385  0.00  0.00    -0.090 HD
ENDBRANCH   5  18
BRANCH   3  22
ATOM     22  C   LIG d   1       0.427  77.743 110.573  0.00  0.00     0.382 C 
ATOM     23  O   LIG d   1      -0.476  76.889 110.745  0.00  0.00    -0.241 OA
ATOM     24  O   LIG d   1       1.537  77.383 110.136  0.00  0.00    -0.241 OA
ENDBRANCH   3  22
TORSDOF 7
ENDMDL
MODEL 8
REMARK VINA RESULT:      -5.9      2.971      6.340
REMARK  7 active torsions:
REMARK  status: ('A' for Active; 'I' for Inactive)
REMARK    1  A    between atoms: C_2  and  C_3 
REMARK    2  A    between atoms: C_3  and  O_6 
REMARK    3  A    between atoms: C_3  and  C_4 
REMARK    4  A    between atoms: C_7  and  O_6 
REMARK    5  A    between atoms: C_9  and  C_10 
REMARK    6  A    between atoms: N_15  and  C_14 
REMARK    7  A    between atoms: N_20  and  C_19 
REMARK       I    between atoms: C_22  and  N_20 
ROOT
ATOM      1  C   LIG d   1       0.332  82.410 111.102  0.00  0.00     0.161 C 
ATOM      2  C   LIG d   1      -0.169  81.640 112.164  0.00  0.00     0.016 C 
ATOM      3  C   LIG d   1      -0.248  80.229 112.133  0.00  0.00     0.038 C 
ATOM      4  C   LIG d   1       0.312  79.477 111.089  0.00  0.00     0.028 C 
ATOM      5  C   LIG d   1       0.375  80.232 109.766  0.00  0.00    -0.047 C 
ATOM      6  C   LIG d   1       1.051  81.602 110.000  0.00  0.00     0.091 C 
ENDROOT
BRANCH   1   7
ATOM      7  O   LIG d   1       1.199  83.442 111.612  0.00  0.00    -0.368 OA
BRANCH   7   8
ATOM      8  C   LIG d   1       0.726  84.803 111.465  0.00  0.00     0.119 C 
BRANCH   8   9
ATOM      9  C   LIG d   1       1.944  85.682 111.122  0.00  0.00     0.028 C 
ATOM     10  C   LIG d   1       3.137  84.858 110.610  0.00  0.00     0.006 C 
ENDBRANCH   8   9
BRANCH   8  11
ATOM     11  C   LIG d   1       0.188  85.353 112.789  0.00  0.00     0.028 C 
ATOM     12  C   LIG d   1       1.260  85.410 113.889  0.00  0.00     0.006 C 
ENDBRANCH   8  11
ENDBRANCH   7   8
ENDBRANCH   1   7
BRANCH   6  13
ATOM     13  N   LIG d   1       1.076  82.439 108.773  0.00  0.00    -0.311 N 
ATOM     14  C   LIG d   1       2.134  82.528 107.968  0.00  0.00     0.210 C 
ATOM     15  C   LIG d   1       1.956  83.463 106.767  0.00  0.00     0.109 C 
ATOM     16  O   LIG d   1       3.191  81.896 108.116  0.00  0.00    -0.276 OA
ATOM     17  H   LIG d   1       0.249  82.961 108.559  0.00  0.00     0.149 HD
ENDBRANCH   6  13
BRANCH   5  18
ATOM     18  N   LIG d   1       1.104  79.384 108.804  0.00  0.00     0.381 N 
ATOM     19  H   LIG d   1       1.399  79.936 108.023  0.00  0.00    -0.090 HD
ATOM     20  H   LIG d   1       0.485  78.668 108.467  0.00  0.00    -0.090 HD
ATOM     21  H   LIG d   1       1.895  78.970 109.245  0.00  0.00    -0.090 HD
ENDBRANCH   5  18
BRANCH   3  22
ATOM     22  C   LIG d   1      -0.930  79.556 113.136  0.00  0.00     0.382 C 
ATOM     23  O   LIG d   1      -1.020  80.062 114.281  0.00  0.00    -0.241 OA
ATOM     24  O   LIG d   1      -1.417  78.430 112.923  0.00  0.00    -0.241 OA
ENDBRANCH   3  22
TORSDOF 7
ENDMDL
MODEL 9
REMARK VINA RESULT:      -5.8      2.431      3.887
REMARK  7 active torsions:
REMARK  status: ('A' for Active; 'I' for Inactive)
REMARK    1  A    between atoms: C_2  and  C_3 
REMARK    2  A    between atoms: C_3  and  O_6 
REMARK    3  A    between atoms: C_3  and  C_4 
REMARK    4  A    between atoms: C_7  and  O_6 
REMARK    5  A    between atoms: C_9  and  C_10 
REMARK    6  A    between atoms: N_15  and  C_14 
REMARK    7  A    between atoms: N_20  and  C_19 
REMARK       I    between atoms: C_22  and  N_20 
ROOT
ATOM      1  C   LIG d   1       2.497  83.713 111.745  0.00  0.00     0.161 C 
ATOM      2  C   LIG d   1       1.624  84.001 110.683  0.00  0.00     0.016 C 
ATOM      3  C   LIG d   1       1.395  85.309 110.196  0.00  0.00     0.038 C 
ATOM      4  C   LIG d   1       2.145  86.408 110.643  0.00  0.00     0.028 C 
ATOM      5  C   LIG d   1       2.675  86.242 112.063  0.00  0.00    -0.047 C 
ATOM      6  C   LIG d   1       3.406  84.885 112.171  0.00  0.00     0.091 C 
ENDROOT
BRANCH   1   7
ATOM      7  O   LIG d   1       3.291  82.554 111.424  0.00  0.00    -0.368 OA
BRANCH   7   8
ATOM      8  C   LIG d   1       2.728  81.647 110.445  0.00  0.00     0.119 C 
BRANCH   8   9
ATOM      9  C   LIG d   1       2.304  80.366 111.191  0.00  0.00     0.028 C 
ATOM     10  C   LIG d   1       0.786  80.302 111.430  0.00  0.00     0.006 C 
ENDBRANCH   8   9
BRANCH   8  11
ATOM     11  C   LIG d   1       3.784  81.195 109.432  0.00  0.00     0.028 C 
ATOM     12  C   LIG d   1       4.500  82.373 108.752  0.00  0.00     0.006 C 
ENDBRANCH   8  11
ENDBRANCH   7   8
ENDBRANCH   1   7
BRANCH   6  13
ATOM     13  N   LIG d   1       3.883  84.606 113.550  0.00  0.00    -0.311 N 
ATOM     14  C   LIG d   1       3.067  84.334 114.567  0.00  0.00     0.210 C 
ATOM     15  C   LIG d   1       3.765  84.096 115.910  0.00  0.00     0.109 C 
ATOM     16  O   LIG d   1       1.834  84.234 114.477  0.00  0.00    -0.276 OA
ATOM     17  H   LIG d   1       4.872  84.635 113.706  0.00  0.00     0.149 HD
ENDBRANCH   6  13
BRANCH   5  18
ATOM     18  N   LIG d   1       3.549  87.395 112.349  0.00  0.00     0.381 N 
ATOM     19  H   LIG d   1       3.105  88.240 112.049  0.00  0.00    -0.090 HD
ATOM     20  H   LIG d   1       4.406  87.289 111.835  0.00  0.00    -0.090 HD
ATOM     21  H   LIG d   1       3.743  87.442 113.325  0.00  0.00    -0.090 HD
ENDBRANCH   5  18
BRANCH   3  22
ATOM     22  C   LIG d   1       0.379  85.533 109.280  0.00  0.00     0.382 C 
ATOM     23  O   LIG d   1      -0.816  85.541 109.659  0.00  0.00    -0.241 OA
ATOM     24  O   LIG d   1       0.641  85.683 108.071  0.00  0.00    -0.241 OA
ENDBRANCH   3  22
TORSDOF 7
ENDMDL
