MODEL 1
REMARK VINA RESULT:      -6.7      0.000      0.000
REMARK  7 active torsions:
REMARK  status: ('A' for Active; 'I' for Inactive)
REMARK    1  A    between atoms: C_2  and  C_3 
REMARK    2  A    between atoms: C_3  and  O_6 
REMARK    3  A    between atoms: C_3  and  C_4 
REMARK    4  A    between atoms: C_7  and  O_6 
REMARK    5  A    between atoms: C_9  and  C_10 
REMARK    6  A    between atoms: N_15  and  C_14 
REMARK    7  A    between atoms: N_20  and  C_19 
REMARK       I    between atoms: C_22  and  N_20 
ROOT
ATOM      1  C   LIG d   1      -0.124  82.630 111.099  0.00  0.00     0.161 C 
ATOM      2  C   LIG d   1      -1.235  82.282 111.885  0.00  0.00     0.016 C 
ATOM      3  C   LIG d   1      -1.757  80.970 111.958  0.00  0.00     0.038 C 
ATOM      4  C   LIG d   1      -1.106  79.879 111.363  0.00  0.00     0.028 C 
ATOM      5  C   LIG d   1      -0.269  80.263 110.147  0.00  0.00    -0.047 C 
ATOM      6  C   LIG d   1       0.666  81.432 110.530  0.00  0.00     0.091 C 
ENDROOT
BRANCH   1   7
ATOM      7  O   LIG d   1       0.751  83.497 111.846  0.00  0.00    -0.368 OA
BRANCH   7   8
ATOM      8  C   LIG d   1       0.829  84.870 111.390  0.00  0.00     0.119 C 
BRANCH   8   9
ATOM      9  C   LIG d   1      -0.212  85.044 110.267  0.00  0.00     0.028 C 
ATOM     10  C   LIG d   1       0.405  85.617 108.979  0.00  0.00     0.006 C 
ENDBRANCH   8   9
BRANCH   8  11
ATOM     11  C   LIG d   1       2.183  85.165 110.738  0.00  0.00     0.028 C 
ATOM     12  C   LIG d   1       3.335  84.370 111.372  0.00  0.00     0.006 C 
ENDBRANCH   8  11
ENDBRANCH   7   8
ENDBRANCH   1   7
BRANCH   6  13
ATOM     13  N   LIG d   1       1.460  81.925 109.375  0.00  0.00    -0.311 N 
ATOM     14  C   LIG d   1       2.693  81.505 109.100  0.00  0.00     0.210 C 
ATOM     15  C   LIG d   1       3.341  82.156 107.874  0.00  0.00     0.109 C 
ATOM     16  O   LIG d   1       3.301  80.630 109.736  0.00  0.00    -0.276 OA
ATOM     17  H   LIG d   1       1.031  82.614 108.788  0.00  0.00     0.149 HD
ENDBRANCH   6  13
BRANCH   5  18
ATOM     18  N   LIG d   1       0.461  79.058 109.710  0.00  0.00     0.381 N 
ATOM     19  H   LIG d   1      -0.157  78.271 109.704  0.00  0.00    -0.090 HD
ATOM     20  H   LIG d   1       1.201  78.872 110.363  0.00  0.00    -0.090 HD
ATOM     21  H   LIG d   1       0.839  79.200 108.799  0.00  0.00    -0.090 HD
ENDBRANCH   5  18
BRANCH   3  22
ATOM     22  C   LIG d   1      -2.965  80.745 112.600  0.00  0.00     0.382 C 
ATOM     23  O   LIG d   1      -3.623  81.712 113.055  0.00  0.00    -0.241 OA
ATOM     24  O   LIG d   1      -3.385  79.585 112.768  0.00  0.00    -0.241 OA
ENDBRANCH   3  22
TORSDOF 7
ENDMDL
MODEL 2
REMARK VINA RESULT:      -6.1      1.677      5.086
REMARK  7 active torsions:
REMARK  status: ('A' for Active; 'I' for Inactive)
REMARK    1  A    between atoms: C_2  and  C_3 
REMARK    2  A    between atoms: C_3  and  O_6 
REMARK    3  A    between atoms: C_3  and  C_4 
REMARK    4  A    between atoms: C_7  and  O_6 
REMARK    5  A    between atoms: C_9  and  C_10 
REMARK    6  A    between atoms: N_15  and  C_14 
REMARK    7  A    between atoms: N_20  and  C_19 
REMARK       I    between atoms: C_22  and  N_20 
ROOT
ATOM      1  C   LIG d   1       1.292  81.395 111.521  0.00  0.00     0.161 C 
ATOM      2  C   LIG d   1       2.459  81.856 110.890  0.00  0.00     0.016 C 
ATOM      3  C   LIG d   1       2.678  81.765 109.496  0.00  0.00     0.038 C 
ATOM      4  C   LIG d   1       1.674  81.341 108.614  0.00  0.00     0.028 C 
ATOM      5  C   LIG d   1       0.665  80.394 109.255  0.00  0.00    -0.047 C 
ATOM      6  C   LIG d   1       0.139  81.031 110.562  0.00  0.00     0.091 C 
ENDROOT
BRANCH   1   7
ATOM      7  O   LIG d   1       0.848  82.361 112.494  0.00  0.00    -0.368 OA
BRANCH   7   8
ATOM      8  C   LIG d   1       0.975  83.754 112.113  0.00  0.00     0.119 C 
BRANCH   8   9
ATOM      9  C   LIG d   1       1.537  84.516 113.329  0.00  0.00     0.028 C 
ATOM     10  C   LIG d   1       3.072  84.614 113.301  0.00  0.00     0.006 C 
ENDBRANCH   8   9
BRANCH   8  11
ATOM     11  C   LIG d   1      -0.394  84.383 111.838  0.00  0.00     0.028 C 
ATOM     12  C   LIG d   1      -0.602  84.730 110.355  0.00  0.00     0.006 C 
ENDBRANCH   8  11
ENDBRANCH   7   8
ENDBRANCH   1   7
BRANCH   6  13
ATOM     13  N   LIG d   1      -0.790  80.133 111.296  0.00  0.00    -0.311 N 
ATOM     14  C   LIG d   1      -1.931  80.549 111.844  0.00  0.00     0.210 C 
ATOM     15  C   LIG d   1      -2.731  79.464 112.573  0.00  0.00     0.109 C 
ATOM     16  O   LIG d   1      -2.372  81.705 111.769  0.00  0.00    -0.276 OA
ATOM     17  H   LIG d   1      -0.526  79.171 111.378  0.00  0.00     0.149 HD
ENDBRANCH   6  13
BRANCH   5  18
ATOM     18  N   LIG d   1      -0.400  80.142 108.266  0.00  0.00     0.381 N 
ATOM     19  H   LIG d   1      -1.155  80.783 108.409  0.00  0.00    -0.090 HD
ATOM     20  H   LIG d   1      -0.750  79.209 108.397  0.00  0.00    -0.090 HD
ATOM     21  H   LIG d   1      -0.039  80.243 107.343  0.00  0.00    -0.090 HD
ENDBRANCH   5  18
BRANCH   3  22
ATOM     22  C   LIG d   1       3.928  82.064 108.976  0.00  0.00     0.382 C 
ATOM     23  O   LIG d   1       4.097  82.106 107.734  0.00  0.00    -0.241 OA
ATOM     24  O   LIG d   1       4.900  82.248 109.734  0.00  0.00    -0.241 OA
ENDBRANCH   3  22
TORSDOF 7
ENDMDL
MODEL 3
REMARK VINA RESULT:      -6.0      2.776      4.523
REMARK  7 active torsions:
REMARK  status: ('A' for Active; 'I' for Inactive)
REMARK    1  A    between atoms: C_2  and  C_3 
REMARK    2  A    between atoms: C_3  and  O_6 
REMARK    3  A    between atoms: C_3  and  C_4 
REMARK    4  A    between atoms: C_7  and  O_6 
REMARK    5  A    between atoms: C_9  and  C_10 
REMARK    6  A    between atoms: N_15  and  C_14 
REMARK    7  A    between atoms: N_20  and  C_19 
REMARK       I    between atoms: C_22  and  N_20 
ROOT
ATOM      1  C   LIG d   1       1.995  83.262 112.581  0.00  0.00     0.161 C 
ATOM      2  C   LIG d   1       1.061  82.213 112.536  0.00  0.00     0.016 C 
ATOM      3  C   LIG d   1      -0.326  82.413 112.352  0.00  0.00     0.038 C 
ATOM      4  C   LIG d   1      -0.859  83.675 112.047  0.00  0.00     0.028 C 
ATOM      5  C   LIG d   1      -0.022  84.831 112.581  0.00  0.00    -0.047 C 
ATOM      6  C   LIG d   1       1.446  84.635 112.139  0.00  0.00     0.091 C 
ENDROOT
BRANCH   1   7
ATOM      7  O   LIG d   1       3.158  82.914 111.805  0.00  0.00    -0.368 OA
BRANCH   7   8
ATOM      8  C   LIG d   1       2.905  82.356 110.492  0.00  0.00     0.119 C 
BRANCH   8   9
ATOM      9  C   LIG d   1       4.049  81.371 110.180  0.00  0.00     0.028 C 
ATOM     10  C   LIG d   1       3.630  80.285 109.174  0.00  0.00     0.006 C 
ENDBRANCH   8   9
BRANCH   8  11
ATOM     11  C   LIG d   1       2.988  83.431 109.404  0.00  0.00     0.028 C 
ATOM     12  C   LIG d   1       1.668  83.603 108.636  0.00  0.00     0.006 C 
ENDBRANCH   8  11
ENDBRANCH   7   8
ENDBRANCH   1   7
BRANCH   6  13
ATOM     13  N   LIG d   1       2.349  85.679 112.690  0.00  0.00    -0.311 N 
ATOM     14  C   LIG d   1       2.651  86.803 112.044  0.00  0.00     0.210 C 
ATOM     15  C   LIG d   1       3.617  87.735 112.783  0.00  0.00     0.109 C 
ATOM     16  O   LIG d   1       2.186  87.132 110.942  0.00  0.00    -0.276 OA
ATOM     17  H   LIG d   1       2.747  85.507 113.593  0.00  0.00     0.149 HD
ENDBRANCH   6  13
BRANCH   5  18
ATOM     18  N   LIG d   1      -0.616  86.083 112.075  0.00  0.00     0.381 N 
ATOM     19  H   LIG d   1      -0.194  86.329 111.201  0.00  0.00    -0.090 HD
ATOM     20  H   LIG d   1      -0.431  86.820 112.732  0.00  0.00    -0.090 HD
ATOM     21  H   LIG d   1      -1.599  85.971 111.957  0.00  0.00    -0.090 HD
ENDBRANCH   5  18
BRANCH   3  22
ATOM     22  C   LIG d   1      -1.201  81.350 112.512  0.00  0.00     0.382 C 
ATOM     23  O   LIG d   1      -2.331  81.380 111.967  0.00  0.00    -0.241 OA
ATOM     24  O   LIG d   1      -0.893  80.381 113.231  0.00  0.00    -0.241 OA
ENDBRANCH   3  22
TORSDOF 7
ENDMDL
MODEL 4
REMARK VINA RESULT:      -5.9      3.776      6.671
REMARK  7 active torsions:
REMARK  status: ('A' for Active; 'I' for Inactive)
REMARK    1  A    between atoms: C_2  and  C_3 
REMARK    2  A    between atoms: C_3  and  O_6 
REMARK    3  A    between atoms: C_3  and  C_4 
REMARK    4  A    between atoms: C_7  and  O_6 
REMARK    5  A    between atoms: C_9  and  C_10 
REMARK    6  A    between atoms: N_15  and  C_14 
REMARK    7  A    between atoms: N_20  and  C_19 
REMARK       I    between atoms: C_22  and  N_20 
ROOT
ATOM      1  C   LIG d   1       2.561  85.535 111.974  0.00  0.00     0.161 C 
ATOM      2  C   LIG d   1       3.222  86.773 111.917  0.00  0.00     0.016 C 
ATOM      3  C   LIG d   1       3.534  87.542 113.062  0.00  0.00     0.038 C 
ATOM      4  C   LIG d   1       3.341  87.049 114.361  0.00  0.00     0.028 C 
ATOM      5  C   LIG d   1       2.218  86.022 114.458  0.00  0.00    -0.047 C 
ATOM      6  C   LIG d   1       2.442  84.930 113.388  0.00  0.00     0.091 C 
ENDROOT
BRANCH   1   7
ATOM      7  O   LIG d   1       3.199  84.600 111.081  0.00  0.00    -0.368 OA
BRANCH   7   8
ATOM      8  C   LIG d   1       2.570  84.423 109.788  0.00  0.00     0.119 C 
BRANCH   8   9
ATOM      9  C   LIG d   1       1.048  84.558 109.991  0.00  0.00     0.028 C 
ATOM     10  C   LIG d   1       0.407  85.539 108.995  0.00  0.00     0.006 C 
ENDBRANCH   8   9
BRANCH   8  11
ATOM     11  C   LIG d   1       2.783  83.004 109.253  0.00  0.00     0.028 C 
ATOM     12  C   LIG d   1       4.092  82.371 109.751  0.00  0.00     0.006 C 
ENDBRANCH   8  11
ENDBRANCH   7   8
ENDBRANCH   1   7
BRANCH   6  13
ATOM     13  N   LIG d   1       1.342  83.931 113.359  0.00  0.00    -0.311 N 
ATOM     14  C   LIG d   1       1.546  82.618 113.259  0.00  0.00     0.210 C 
ATOM     15  C   LIG d   1       0.273  81.767 113.226  0.00  0.00     0.109 C 
ATOM     16  O   LIG d   1       2.661  82.076 113.227  0.00  0.00    -0.276 OA
ATOM     17  H   LIG d   1       0.406  84.281 113.411  0.00  0.00     0.149 HD
ENDBRANCH   6  13
BRANCH   5  18
ATOM     18  N   LIG d   1       2.217  85.492 115.835  0.00  0.00     0.381 N 
ATOM     19  H   LIG d   1       3.148  85.241 116.102  0.00  0.00    -0.090 HD
ATOM     20  H   LIG d   1       1.646  84.665 115.864  0.00  0.00    -0.090 HD
ATOM     21  H   LIG d   1       1.856  86.175 116.464  0.00  0.00    -0.090 HD
ENDBRANCH   5  18
BRANCH   3  22
ATOM     22  C   LIG d   1       4.010  88.835 112.912  0.00  0.00     0.382 C 
ATOM     23  O   LIG d   1       5.187  89.029 112.521  0.00  0.00    -0.241 OA
ATOM     24  O   LIG d   1       3.293  89.810 113.207  0.00  0.00    -0.241 OA
ENDBRANCH   3  22
TORSDOF 7
ENDMDL
MODEL 5
REMARK VINA RESULT:      -5.7      2.484      5.859
REMARK  7 active torsions:
REMARK  status: ('A' for Active; 'I' for Inactive)
REMARK    1  A    between atoms: C_2  and  C_3 
REMARK    2  A    between atoms: C_3  and  O_6 
REMARK    3  A    between atoms: C_3  and  C_4 
REMARK    4  A    between atoms: C_7  and  O_6 
REMARK    5  A    between atoms: C_9  and  C_10 
REMARK    6  A    between atoms: N_15  and  C_14 
REMARK    7  A    between atoms: N_20  and  C_19 
REMARK       I    between atoms: C_22  and  N_20 
ROOT
ATOM      1  C   LIG d   1       0.512  82.819 109.897  0.00  0.00     0.161 C 
ATOM      2  C   LIG d   1       1.572  81.994 109.487  0.00  0.00     0.016 C 
ATOM      3  C   LIG d   1       2.923  82.414 109.470  0.00  0.00     0.038 C 
ATOM      4  C   LIG d   1       3.323  83.645 110.010  0.00  0.00     0.028 C 
ATOM      5  C   LIG d   1       2.231  84.708 109.970  0.00  0.00    -0.047 C 
ATOM      6  C   LIG d   1       0.942  84.126 110.594  0.00  0.00     0.091 C 
ENDROOT
BRANCH   1   7
ATOM      7  O   LIG d   1      -0.388  82.073 110.742  0.00  0.00    -0.368 OA
BRANCH   7   8
ATOM      8  C   LIG d   1       0.228  81.133 111.656  0.00  0.00     0.119 C 
BRANCH   8   9
ATOM      9  C   LIG d   1      -0.702  79.909 111.758  0.00  0.00     0.028 C 
ATOM     10  C   LIG d   1      -0.792  79.129 110.435  0.00  0.00     0.006 C 
ENDBRANCH   8   9
BRANCH   8  11
ATOM     11  C   LIG d   1       0.303  81.704 113.075  0.00  0.00     0.028 C 
ATOM     12  C   LIG d   1      -0.862  82.652 113.399  0.00  0.00     0.006 C 
ENDBRANCH   8  11
ENDBRANCH   7   8
ENDBRANCH   1   7
BRANCH   6  13
ATOM     13  N   LIG d   1      -0.202  85.073 110.519  0.00  0.00    -0.311 N 
ATOM     14  C   LIG d   1      -0.478  85.966 111.468  0.00  0.00     0.210 C 
ATOM     15  C   LIG d   1      -1.713  86.831 111.201  0.00  0.00     0.109 C 
ATOM     16  O   LIG d   1       0.202  86.146 112.489  0.00  0.00    -0.276 OA
ATOM     17  H   LIG d   1      -0.787  85.017 109.709  0.00  0.00     0.149 HD
ENDBRANCH   6  13
BRANCH   5  18
ATOM     18  N   LIG d   1       2.736  85.894 110.687  0.00  0.00     0.381 N 
ATOM     19  H   LIG d   1       2.230  86.015 111.541  0.00  0.00    -0.090 HD
ATOM     20  H   LIG d   1       2.589  86.707 110.115  0.00  0.00    -0.090 HD
ATOM     21  H   LIG d   1       3.708  85.787 110.880  0.00  0.00    -0.090 HD
ENDBRANCH   5  18
BRANCH   3  22
ATOM     22  C   LIG d   1       3.884  81.613 108.872  0.00  0.00     0.382 C 
ATOM     23  O   LIG d   1       4.245  81.842 107.692  0.00  0.00    -0.241 OA
ATOM     24  O   LIG d   1       4.361  80.637 109.481  0.00  0.00    -0.241 OA
ENDBRANCH   3  22
TORSDOF 7
ENDMDL
MODEL 6
REMARK VINA RESULT:      -5.5      2.748      5.987
REMARK  7 active torsions:
REMARK  status: ('A' for Active; 'I' for Inactive)
REMARK    1  A    between atoms: C_2  and  C_3 
REMARK    2  A    between atoms: C_3  and  O_6 
REMARK    3  A    between atoms: C_3  and  C_4 
REMARK    4  A    between atoms: C_7  and  O_6 
REMARK    5  A    between atoms: C_9  and  C_10 
REMARK    6  A    between atoms: N_15  and  C_14 
REMARK    7  A    between atoms: N_20  and  C_19 
REMARK       I    between atoms: C_22  and  N_20 
ROOT
ATOM      1  C   LIG d   1       1.359  83.933 111.247  0.00  0.00     0.161 C 
ATOM      2  C   LIG d   1       2.278  84.993 111.175  0.00  0.00     0.016 C 
ATOM      3  C   LIG d   1       2.345  86.031 112.133  0.00  0.00     0.038 C 
ATOM      4  C   LIG d   1       1.593  85.998 113.316  0.00  0.00     0.028 C 
ATOM      5  C   LIG d   1       0.293  85.211 113.185  0.00  0.00    -0.047 C 
ATOM      6  C   LIG d   1       0.606  83.820 112.588  0.00  0.00     0.091 C 
ENDROOT
BRANCH   1   7
ATOM      7  O   LIG d   1       2.021  82.690 110.938  0.00  0.00    -0.368 OA
BRANCH   7   8
ATOM      8  C   LIG d   1       1.828  82.182 109.595  0.00  0.00     0.119 C 
BRANCH   8   9
ATOM      9  C   LIG d   1       1.705  80.649 109.694  0.00  0.00     0.028 C 
ATOM     10  C   LIG d   1       0.242  80.177 109.715  0.00  0.00     0.006 C 
ENDBRANCH   8   9
BRANCH   8  11
ATOM     11  C   LIG d   1       3.059  82.435 108.720  0.00  0.00     0.028 C 
ATOM     12  C   LIG d   1       4.379  82.302 109.497  0.00  0.00     0.006 C 
ENDBRANCH   8  11
ENDBRANCH   7   8
ENDBRANCH   1   7
BRANCH   6  13
ATOM     13  N   LIG d   1      -0.622  83.017 112.349  0.00  0.00    -0.311 N 
ATOM     14  C   LIG d   1      -0.848  81.835 112.920  0.00  0.00     0.210 C 
ATOM     15  C   LIG d   1      -2.166  81.166 112.521  0.00  0.00     0.109 C 
ATOM     16  O   LIG d   1      -0.096  81.293 113.744  0.00  0.00    -0.276 OA
ATOM     17  H   LIG d   1      -1.299  83.397 111.717  0.00  0.00     0.149 HD
ENDBRANCH   6  13
BRANCH   5  18
ATOM     18  N   LIG d   1      -0.322  85.141 114.524  0.00  0.00     0.381 N 
ATOM     19  H   LIG d   1       0.392  85.079 115.222  0.00  0.00    -0.090 HD
ATOM     20  H   LIG d   1      -0.889  84.313 114.578  0.00  0.00    -0.090 HD
ATOM     21  H   LIG d   1      -0.884  85.948 114.684  0.00  0.00    -0.090 HD
ENDBRANCH   5  18
BRANCH   3  22
ATOM     22  C   LIG d   1       3.144  87.138 111.891  0.00  0.00     0.382 C 
ATOM     23  O   LIG d   1       4.119  87.049 111.107  0.00  0.00    -0.241 OA
ATOM     24  O   LIG d   1       2.928  88.214 112.481  0.00  0.00    -0.241 OA
ENDBRANCH   3  22
TORSDOF 7
ENDMDL
MODEL 7
REMARK VINA RESULT:      -5.3      3.296      5.253
REMARK  7 active torsions:
REMARK  status: ('A' for Active; 'I' for Inactive)
REMARK    1  A    between atoms: C_2  and  C_3 
REMARK    2  A    between atoms: C_3  and  O_6 
REMARK    3  A    between atoms: C_3  and  C_4 
REMARK    4  A    between atoms: C_7  and  O_6 
REMARK    5  A    between atoms: C_9  and  C_10 
REMARK    6  A    between atoms: N_15  and  C_14 
REMARK    7  A    between atoms: N_20  and  C_19 
REMARK       I    between atoms: C_22  and  N_20 
ROOT
ATOM      1  C   LIG d   1       0.824  83.044 111.985  0.00  0.00     0.161 C 
ATOM      2  C   LIG d   1       0.157  83.968 111.164  0.00  0.00     0.016 C 
ATOM      3  C   LIG d   1      -0.378  85.187 111.639  0.00  0.00     0.038 C 
ATOM      4  C   LIG d   1      -0.147  85.638 112.947  0.00  0.00     0.028 C 
ATOM      5  C   LIG d   1       0.087  84.509 113.945  0.00  0.00    -0.047 C 
ATOM      6  C   LIG d   1       1.182  83.569 113.391  0.00  0.00     0.091 C 
ENDROOT
BRANCH   1   7
ATOM      7  O   LIG d   1       2.005  82.559 111.315  0.00  0.00    -0.368 OA
BRANCH   7   8
ATOM      8  C   LIG d   1       1.880  82.328 109.891  0.00  0.00     0.119 C 
BRANCH   8   9
ATOM      9  C   LIG d   1       1.951  80.805 109.661  0.00  0.00     0.028 C 
ATOM     10  C   LIG d   1       0.719  80.267 108.913  0.00  0.00     0.006 C 
ENDBRANCH   8   9
BRANCH   8  11
ATOM     11  C   LIG d   1       3.072  82.909 109.125  0.00  0.00     0.028 C 
ATOM     12  C   LIG d   1       4.381  82.151 109.396  0.00  0.00     0.006 C 
ENDBRANCH   8  11
ENDBRANCH   7   8
ENDBRANCH   1   7
BRANCH   6  13
ATOM     13  N   LIG d   1       1.414  82.390 114.266  0.00  0.00    -0.311 N 
ATOM     14  C   LIG d   1       2.400  82.322 115.158  0.00  0.00     0.210 C 
ATOM     15  C   LIG d   1       2.472  81.008 115.943  0.00  0.00     0.109 C 
ATOM     16  O   LIG d   1       3.203  83.237 115.397  0.00  0.00    -0.276 OA
ATOM     17  H   LIG d   1       0.790  81.615 114.161  0.00  0.00     0.149 HD
ENDBRANCH   6  13
BRANCH   5  18
ATOM     18  N   LIG d   1       0.450  85.122 115.236  0.00  0.00     0.381 N 
ATOM     19  H   LIG d   1       1.219  85.749 115.109  0.00  0.00    -0.090 HD
ATOM     20  H   LIG d   1       0.735  84.398 115.871  0.00  0.00    -0.090 HD
ATOM     21  H   LIG d   1      -0.331  85.615 115.611  0.00  0.00    -0.090 HD
ENDBRANCH   5  18
BRANCH   3  22
ATOM     22  C   LIG d   1      -1.187  85.952 110.812  0.00  0.00     0.382 C 
ATOM     23  O   LIG d   1      -1.095  85.838 109.566  0.00  0.00    -0.241 OA
ATOM     24  O   LIG d   1      -1.976  86.785 111.296  0.00  0.00    -0.241 OA
ENDBRANCH   3  22
TORSDOF 7
ENDMDL
MODEL 8
REMARK VINA RESULT:      -5.2      2.619      3.482
REMARK  7 active torsions:
REMARK  status: ('A' for Active; 'I' for Inactive)
REMARK    1  A    between atoms: C_2  and  C_3 
REMARK    2  A    between atoms: C_3  and  O_6 
REMARK    3  A    between atoms: C_3  and  C_4 
REMARK    4  A    between atoms: C_7  and  O_6 
REMARK    5  A    between atoms: C_9  and  C_10 
REMARK    6  A    between atoms: N_15  and  C_14 
REMARK    7  A    between atoms: N_20  and  C_19 
REMARK       I    between atoms: C_22  and  N_20 
ROOT
ATOM      1  C   LIG d   1       1.172  83.676 111.964  0.00  0.00     0.161 C 
ATOM      2  C   LIG d   1       0.577  84.498 112.935  0.00  0.00     0.016 C 
ATOM      3  C   LIG d   1      -0.056  83.998 114.097  0.00  0.00     0.038 C 
ATOM      4  C   LIG d   1      -0.002  82.639 114.443  0.00  0.00     0.028 C 
ATOM      5  C   LIG d   1       0.150  81.713 113.242  0.00  0.00    -0.047 C 
ATOM      6  C   LIG d   1       1.338  82.199 112.380  0.00  0.00     0.091 C 
ENDROOT
BRANCH   1   7
ATOM      7  O   LIG d   1       2.442  84.230 111.567  0.00  0.00    -0.368 OA
BRANCH   7   8
ATOM      8  C   LIG d   1       2.442  85.017 110.351  0.00  0.00     0.119 C 
BRANCH   8   9
ATOM      9  C   LIG d   1       2.254  86.492 110.754  0.00  0.00     0.028 C 
ATOM     10  C   LIG d   1       3.291  86.954 111.791  0.00  0.00     0.006 C 
ENDBRANCH   8   9
BRANCH   8  11
ATOM     11  C   LIG d   1       1.236  84.680 109.469  0.00  0.00     0.028 C 
ATOM     12  C   LIG d   1       1.578  83.690 108.345  0.00  0.00     0.006 C 
ENDBRANCH   8  11
ENDBRANCH   7   8
ENDBRANCH   1   7
BRANCH   6  13
ATOM     13  N   LIG d   1       1.504  81.398 111.140  0.00  0.00    -0.311 N 
ATOM     14  C   LIG d   1       2.691  81.086 110.622  0.00  0.00     0.210 C 
ATOM     15  C   LIG d   1       2.636  80.270 109.327  0.00  0.00     0.109 C 
ATOM     16  O   LIG d   1       3.783  81.380 111.129  0.00  0.00    -0.276 OA
ATOM     17  H   LIG d   1       0.669  81.091 110.680  0.00  0.00     0.149 HD
ENDBRANCH   6  13
BRANCH   5  18
ATOM     18  N   LIG d   1       0.331  80.342 113.756  0.00  0.00     0.381 N 
ATOM     19  H   LIG d   1      -0.324  79.726 113.316  0.00  0.00    -0.090 HD
ATOM     20  H   LIG d   1       0.153  80.339 114.744  0.00  0.00    -0.090 HD
ATOM     21  H   LIG d   1       1.261  80.031 113.578  0.00  0.00    -0.090 HD
ENDBRANCH   5  18
BRANCH   3  22
ATOM     22  C   LIG d   1      -0.785  84.855 114.906  0.00  0.00     0.382 C 
ATOM     23  O   LIG d   1      -1.878  85.321 114.501  0.00  0.00    -0.241 OA
ATOM     24  O   LIG d   1      -0.344  85.205 116.016  0.00  0.00    -0.241 OA
ENDBRANCH   3  22
TORSDOF 7
ENDMDL
MODEL 9
REMARK VINA RESULT:      -5.2      4.454      7.604
REMARK  7 active torsions:
REMARK  status: ('A' for Active; 'I' for Inactive)
REMARK    1  A    between atoms: C_2  and  C_3 
REMARK    2  A    between atoms: C_3  and  O_6 
REMARK    3  A    between atoms: C_3  and  C_4 
REMARK    4  A    between atoms: C_7  and  O_6 
REMARK    5  A    between atoms: C_9  and  C_10 
REMARK    6  A    between atoms: N_15  and  C_14 
REMARK    7  A    between atoms: N_20  and  C_19 
REMARK       I    between atoms: C_22  and  N_20 
ROOT
ATOM      1  C   LIG d   1       2.632  86.022 112.967  0.00  0.00     0.161 C 
ATOM      2  C   LIG d   1       3.483  87.093 112.645  0.00  0.00     0.016 C 
ATOM      3  C   LIG d   1       3.806  88.130 113.550  0.00  0.00     0.038 C 
ATOM      4  C   LIG d   1       3.417  88.086 114.897  0.00  0.00     0.028 C 
ATOM      5  C   LIG d   1       2.142  87.285 115.134  0.00  0.00    -0.047 C 
ATOM      6  C   LIG d   1       2.289  85.899 114.466  0.00  0.00     0.091 C 
ENDROOT
BRANCH   1   7
ATOM      7  O   LIG d   1       3.194  84.788 112.478  0.00  0.00    -0.368 OA
BRANCH   7   8
ATOM      8  C   LIG d   1       3.092  84.563 111.051  0.00  0.00     0.119 C 
BRANCH   8   9
ATOM      9  C   LIG d   1       1.594  84.462 110.704  0.00  0.00     0.028 C 
ATOM     10  C   LIG d   1       1.114  85.632 109.829  0.00  0.00     0.006 C 
ENDBRANCH   8   9
BRANCH   8  11
ATOM     11  C   LIG d   1       3.693  83.211 110.656  0.00  0.00     0.028 C 
ATOM     12  C   LIG d   1       3.634  82.952 109.142  0.00  0.00     0.006 C 
ENDBRANCH   8  11
ENDBRANCH   7   8
ENDBRANCH   1   7
BRANCH   6  13
ATOM     13  N   LIG d   1       1.052  85.082 114.578  0.00  0.00    -0.311 N 
ATOM     14  C   LIG d   1      -0.070  85.355 113.914  0.00  0.00     0.210 C 
ATOM     15  C   LIG d   1      -1.234  84.398 114.188  0.00  0.00     0.109 C 
ATOM     16  O   LIG d   1      -0.201  86.281 113.099  0.00  0.00    -0.276 OA
ATOM     17  H   LIG d   1       1.080  84.293 115.194  0.00  0.00     0.149 HD
ENDBRANCH   6  13
BRANCH   5  18
ATOM     18  N   LIG d   1       1.929  87.206 116.592  0.00  0.00     0.381 N 
ATOM     19  H   LIG d   1       1.001  87.504 116.815  0.00  0.00    -0.090 HD
ATOM     20  H   LIG d   1       2.578  87.822 117.049  0.00  0.00    -0.090 HD
ATOM     21  H   LIG d   1       2.070  86.271 116.906  0.00  0.00    -0.090 HD
ENDBRANCH   5  18
BRANCH   3  22
ATOM     22  C   LIG d   1       4.492  89.247 113.099  0.00  0.00     0.382 C 
ATOM     23  O   LIG d   1       3.952  90.378 113.149  0.00  0.00    -0.241 OA
ATOM     24  O   LIG d   1       5.628  89.132 112.601  0.00  0.00    -0.241 OA
ENDBRANCH   3  22
TORSDOF 7
ENDMDL
