MODEL 1
REMARK VINA RESULT:      -6.6      0.000      0.000
REMARK  7 active torsions:
REMARK  status: ('A' for Active; 'I' for Inactive)
REMARK    1  A    between atoms: C_2  and  C_3 
REMARK    2  A    between atoms: C_3  and  O_6 
REMARK    3  A    between atoms: C_3  and  C_4 
REMARK    4  A    between atoms: C_7  and  O_6 
REMARK    5  A    between atoms: C_9  and  C_10 
REMARK    6  A    between atoms: N_15  and  C_14 
REMARK    7  A    between atoms: N_20  and  C_19 
REMARK       I    between atoms: C_22  and  N_20 
ROOT
ATOM      1  C   LIG d   1       1.575  83.029 111.478  0.00  0.00     0.161 C 
ATOM      2  C   LIG d   1       2.474  82.726 110.441  0.00  0.00     0.016 C 
ATOM      3  C   LIG d   1       2.451  81.508 109.724  0.00  0.00     0.038 C 
ATOM      4  C   LIG d   1       1.426  80.565 109.894  0.00  0.00     0.028 C 
ATOM      5  C   LIG d   1       0.791  80.605 111.280  0.00  0.00    -0.047 C 
ATOM      6  C   LIG d   1       0.381  82.060 111.602  0.00  0.00     0.091 C 
ENDROOT
BRANCH   1   7
ATOM      7  O   LIG d   1       1.108  84.385 111.338  0.00  0.00    -0.368 OA
BRANCH   7   8
ATOM      8  C   LIG d   1       1.654  85.136 110.226  0.00  0.00     0.119 C 
BRANCH   8   9
ATOM      9  C   LIG d   1       2.273  86.426 110.799  0.00  0.00     0.028 C 
ATOM     10  C   LIG d   1       3.696  86.205 111.338  0.00  0.00     0.006 C 
ENDBRANCH   8   9
BRANCH   8  11
ATOM     11  C   LIG d   1       0.550  85.604 109.274  0.00  0.00     0.028 C 
ATOM     12  C   LIG d   1      -0.756  85.957 110.003  0.00  0.00     0.006 C 
ENDBRANCH   8  11
ENDBRANCH   7   8
ENDBRANCH   1   7
BRANCH   6  13
ATOM     13  N   LIG d   1      -0.172  82.202 112.975  0.00  0.00    -0.311 N 
ATOM     14  C   LIG d   1      -1.476  82.176 113.246  0.00  0.00     0.210 C 
ATOM     15  C   LIG d   1      -1.832  82.360 114.724  0.00  0.00     0.109 C 
ATOM     16  O   LIG d   1      -2.369  81.986 112.407  0.00  0.00    -0.276 OA
ATOM     17  H   LIG d   1       0.484  82.329 113.720  0.00  0.00     0.149 HD
ENDBRANCH   6  13
BRANCH   5  18
ATOM     18  N   LIG d   1      -0.349  79.670 111.274  0.00  0.00     0.381 N 
ATOM     19  H   LIG d   1      -0.330  79.116 110.441  0.00  0.00    -0.090 HD
ATOM     20  H   LIG d   1      -1.204  80.199 111.281  0.00  0.00    -0.090 HD
ATOM     21  H   LIG d   1      -0.310  79.079 112.076  0.00  0.00    -0.090 HD
ENDBRANCH   5  18
BRANCH   3  22
ATOM     22  C   LIG d   1       3.486  81.205 108.851  0.00  0.00     0.382 C 
ATOM     23  O   LIG d   1       4.340  80.342 109.168  0.00  0.00    -0.241 OA
ATOM     24  O   LIG d   1       3.601  81.815 107.772  0.00  0.00    -0.241 OA
ENDBRANCH   3  22
TORSDOF 7
ENDMDL
MODEL 2
REMARK VINA RESULT:      -6.4      2.853      5.418
REMARK  7 active torsions:
REMARK  status: ('A' for Active; 'I' for Inactive)
REMARK    1  A    between atoms: C_2  and  C_3 
REMARK    2  A    between atoms: C_3  and  O_6 
REMARK    3  A    between atoms: C_3  and  C_4 
REMARK    4  A    between atoms: C_7  and  O_6 
REMARK    5  A    between atoms: C_9  and  C_10 
REMARK    6  A    between atoms: N_15  and  C_14 
REMARK    7  A    between atoms: N_20  and  C_19 
REMARK       I    between atoms: C_22  and  N_20 
ROOT
ATOM      1  C   LIG d   1       1.924  84.184 112.094  0.00  0.00     0.161 C 
ATOM      2  C   LIG d   1       0.870  83.264 112.217  0.00  0.00     0.016 C 
ATOM      3  C   LIG d   1      -0.243  83.464 113.066  0.00  0.00     0.038 C 
ATOM      4  C   LIG d   1      -0.452  84.676 113.740  0.00  0.00     0.028 C 
ATOM      5  C   LIG d   1       0.837  85.433 114.040  0.00  0.00    -0.047 C 
ATOM      6  C   LIG d   1       1.658  85.562 112.736  0.00  0.00     0.091 C 
ENDROOT
BRANCH   1   7
ATOM      7  O   LIG d   1       2.277  84.339 110.705  0.00  0.00    -0.368 OA
BRANCH   7   8
ATOM      8  C   LIG d   1       1.207  84.138 109.749  0.00  0.00     0.119 C 
BRANCH   8   9
ATOM      9  C   LIG d   1       1.812  83.433 108.519  0.00  0.00     0.028 C 
ATOM     10  C   LIG d   1       3.204  82.846 108.804  0.00  0.00     0.006 C 
ENDBRANCH   8   9
BRANCH   8  11
ATOM     11  C   LIG d   1       0.667  85.473 109.227  0.00  0.00     0.028 C 
ATOM     12  C   LIG d   1      -0.645  85.892 109.908  0.00  0.00     0.006 C 
ENDBRANCH   8  11
ENDBRANCH   7   8
ENDBRANCH   1   7
BRANCH   6  13
ATOM     13  N   LIG d   1       2.974  86.216 112.957  0.00  0.00    -0.311 N 
ATOM     14  C   LIG d   1       3.328  87.363 112.380  0.00  0.00     0.210 C 
ATOM     15  C   LIG d   1       4.736  87.854 112.728  0.00  0.00     0.109 C 
ATOM     16  O   LIG d   1       2.597  88.038 111.639  0.00  0.00    -0.276 OA
ATOM     17  H   LIG d   1       3.617  85.753 113.569  0.00  0.00     0.149 HD
ENDBRANCH   6  13
BRANCH   5  18
ATOM     18  N   LIG d   1       0.463  86.738 114.618  0.00  0.00     0.381 N 
ATOM     19  H   LIG d   1       0.777  87.476 114.021  0.00  0.00    -0.090 HD
ATOM     20  H   LIG d   1       0.916  86.840 115.510  0.00  0.00    -0.090 HD
ATOM     21  H   LIG d   1      -0.525  86.790 114.732  0.00  0.00    -0.090 HD
ENDBRANCH   5  18
BRANCH   3  22
ATOM     22  C   LIG d   1      -1.140  82.428 113.279  0.00  0.00     0.382 C 
ATOM     23  O   LIG d   1      -2.065  82.222 112.457  0.00  0.00    -0.241 OA
ATOM     24  O   LIG d   1      -1.063  81.726 114.305  0.00  0.00    -0.241 OA
ENDBRANCH   3  22
TORSDOF 7
ENDMDL
MODEL 3
REMARK VINA RESULT:      -6.3      1.561      4.903
REMARK  7 active torsions:
REMARK  status: ('A' for Active; 'I' for Inactive)
REMARK    1  A    between atoms: C_2  and  C_3 
REMARK    2  A    between atoms: C_3  and  O_6 
REMARK    3  A    between atoms: C_3  and  C_4 
REMARK    4  A    between atoms: C_7  and  O_6 
REMARK    5  A    between atoms: C_9  and  C_10 
REMARK    6  A    between atoms: N_15  and  C_14 
REMARK    7  A    between atoms: N_20  and  C_19 
REMARK       I    between atoms: C_22  and  N_20 
ROOT
ATOM      1  C   LIG d   1       0.720  82.781 111.139  0.00  0.00     0.161 C 
ATOM      2  C   LIG d   1      -0.299  82.646 112.097  0.00  0.00     0.016 C 
ATOM      3  C   LIG d   1      -0.894  81.407 112.431  0.00  0.00     0.038 C 
ATOM      4  C   LIG d   1      -0.401  80.191 111.936  0.00  0.00     0.028 C 
ATOM      5  C   LIG d   1       0.293  80.323 110.585  0.00  0.00    -0.047 C 
ATOM      6  C   LIG d   1       1.347  81.451 110.670  0.00  0.00     0.091 C 
ENDROOT
BRANCH   1   7
ATOM      7  O   LIG d   1       1.741  83.669 111.635  0.00  0.00    -0.368 OA
BRANCH   7   8
ATOM      8  C   LIG d   1       1.823  84.966 110.996  0.00  0.00     0.119 C 
BRANCH   8   9
ATOM      9  C   LIG d   1       1.064  84.872 109.658  0.00  0.00     0.028 C 
ATOM     10  C   LIG d   1       0.086  86.041 109.454  0.00  0.00     0.006 C 
ENDBRANCH   8   9
BRANCH   8  11
ATOM     11  C   LIG d   1       3.267  85.312 110.619  0.00  0.00     0.028 C 
ATOM     12  C   LIG d   1       3.831  86.485 111.437  0.00  0.00     0.006 C 
ENDBRANCH   8  11
ENDBRANCH   7   8
ENDBRANCH   1   7
BRANCH   6  13
ATOM     13  N   LIG d   1       2.014  81.704 109.366  0.00  0.00    -0.311 N 
ATOM     14  C   LIG d   1       3.334  81.818 109.228  0.00  0.00     0.210 C 
ATOM     15  C   LIG d   1       3.812  82.098 107.800  0.00  0.00     0.109 C 
ATOM     16  O   LIG d   1       4.155  81.681 110.147  0.00  0.00    -0.276 OA
ATOM     17  H   LIG d   1       1.424  81.797 108.563  0.00  0.00     0.149 HD
ENDBRANCH   6  13
BRANCH   5  18
ATOM     18  N   LIG d   1       0.878  79.010 110.253  0.00  0.00     0.381 N 
ATOM     19  H   LIG d   1       0.958  78.916 109.260  0.00  0.00    -0.090 HD
ATOM     20  H   LIG d   1       0.266  78.288 110.590  0.00  0.00    -0.090 HD
ATOM     21  H   LIG d   1       1.775  78.920 110.676  0.00  0.00    -0.090 HD
ENDBRANCH   5  18
BRANCH   3  22
ATOM     22  C   LIG d   1      -2.020  81.381 113.239  0.00  0.00     0.382 C 
ATOM     23  O   LIG d   1      -3.127  81.756 112.784  0.00  0.00    -0.241 OA
ATOM     24  O   LIG d   1      -1.934  81.030 114.431  0.00  0.00    -0.241 OA
ENDBRANCH   3  22
TORSDOF 7
ENDMDL
MODEL 4
REMARK VINA RESULT:      -5.9      1.975      4.440
REMARK  7 active torsions:
REMARK  status: ('A' for Active; 'I' for Inactive)
REMARK    1  A    between atoms: C_2  and  C_3 
REMARK    2  A    between atoms: C_3  and  O_6 
REMARK    3  A    between atoms: C_3  and  C_4 
REMARK    4  A    between atoms: C_7  and  O_6 
REMARK    5  A    between atoms: C_9  and  C_10 
REMARK    6  A    between atoms: N_15  and  C_14 
REMARK    7  A    between atoms: N_20  and  C_19 
REMARK       I    between atoms: C_22  and  N_20 
ROOT
ATOM      1  C   LIG d   1       0.430  83.600 110.663  0.00  0.00     0.161 C 
ATOM      2  C   LIG d   1       1.354  84.636 110.443  0.00  0.00     0.016 C 
ATOM      3  C   LIG d   1       1.868  85.452 111.477  0.00  0.00     0.038 C 
ATOM      4  C   LIG d   1       1.607  85.187 112.830  0.00  0.00     0.028 C 
ATOM      5  C   LIG d   1       0.282  84.469 113.061  0.00  0.00    -0.047 C 
ATOM      6  C   LIG d   1       0.218  83.226 112.145  0.00  0.00     0.091 C 
ENDROOT
BRANCH   1   7
ATOM      7  O   LIG d   1       0.809  82.437 109.901  0.00  0.00    -0.368 OA
BRANCH   7   8
ATOM      8  C   LIG d   1       2.002  81.745 110.346  0.00  0.00     0.119 C 
BRANCH   8   9
ATOM      9  C   LIG d   1       2.996  81.732 109.168  0.00  0.00     0.028 C 
ATOM     10  C   LIG d   1       4.335  82.400 109.523  0.00  0.00     0.006 C 
ENDBRANCH   8   9
BRANCH   8  11
ATOM     11  C   LIG d   1       1.712  80.272 110.648  0.00  0.00     0.028 C 
ATOM     12  C   LIG d   1       1.872  79.368 109.416  0.00  0.00     0.006 C 
ENDBRANCH   8  11
ENDBRANCH   7   8
ENDBRANCH   1   7
BRANCH   6  13
ATOM     13  N   LIG d   1      -1.081  82.512 112.247  0.00  0.00    -0.311 N 
ATOM     14  C   LIG d   1      -1.288  81.479 113.063  0.00  0.00     0.210 C 
ATOM     15  C   LIG d   1      -2.695  80.876 112.998  0.00  0.00     0.109 C 
ATOM     16  O   LIG d   1      -0.450  81.026 113.857  0.00  0.00    -0.276 OA
ATOM     17  H   LIG d   1      -1.826  82.834 111.660  0.00  0.00     0.149 HD
ENDBRANCH   6  13
BRANCH   5  18
ATOM     18  N   LIG d   1       0.201  84.134 114.496  0.00  0.00     0.381 N 
ATOM     19  H   LIG d   1      -0.632  83.610 114.675  0.00  0.00    -0.090 HD
ATOM     20  H   LIG d   1       0.158  84.986 115.027  0.00  0.00    -0.090 HD
ATOM     21  H   LIG d   1       1.001  83.605 114.768  0.00  0.00    -0.090 HD
ENDBRANCH   5  18
BRANCH   3  22
ATOM     22  C   LIG d   1       2.623  86.571 111.158  0.00  0.00     0.382 C 
ATOM     23  O   LIG d   1       2.056  87.672 110.960  0.00  0.00    -0.241 OA
ATOM     24  O   LIG d   1       3.858  86.482 111.023  0.00  0.00    -0.241 OA
ENDBRANCH   3  22
TORSDOF 7
ENDMDL
MODEL 5
REMARK VINA RESULT:      -5.4      2.185      4.881
REMARK  7 active torsions:
REMARK  status: ('A' for Active; 'I' for Inactive)
REMARK    1  A    between atoms: C_2  and  C_3 
REMARK    2  A    between atoms: C_3  and  O_6 
REMARK    3  A    between atoms: C_3  and  C_4 
REMARK    4  A    between atoms: C_7  and  O_6 
REMARK    5  A    between atoms: C_9  and  C_10 
REMARK    6  A    between atoms: N_15  and  C_14 
REMARK    7  A    between atoms: N_20  and  C_19 
REMARK       I    between atoms: C_22  and  N_20 
ROOT
ATOM      1  C   LIG d   1       1.454  82.226 111.882  0.00  0.00     0.161 C 
ATOM      2  C   LIG d   1       0.249  82.149 112.601  0.00  0.00     0.016 C 
ATOM      3  C   LIG d   1      -0.652  81.064 112.496  0.00  0.00     0.038 C 
ATOM      4  C   LIG d   1      -0.333  79.903 111.775  0.00  0.00     0.028 C 
ATOM      5  C   LIG d   1       0.645  80.150 110.632  0.00  0.00    -0.047 C 
ATOM      6  C   LIG d   1       1.870  80.919 111.176  0.00  0.00     0.091 C 
ENDROOT
BRANCH   1   7
ATOM      7  O   LIG d   1       2.510  82.686 112.748  0.00  0.00    -0.368 OA
BRANCH   7   8
ATOM      8  C   LIG d   1       2.748  84.116 112.758  0.00  0.00     0.119 C 
BRANCH   8   9
ATOM      9  C   LIG d   1       3.774  84.422 111.649  0.00  0.00     0.028 C 
ATOM     10  C   LIG d   1       3.253  85.455 110.637  0.00  0.00     0.006 C 
ENDBRANCH   8   9
BRANCH   8  11
ATOM     11  C   LIG d   1       3.417  84.560 114.063  0.00  0.00     0.028 C 
ATOM     12  C   LIG d   1       2.417  85.135 115.078  0.00  0.00     0.006 C 
ENDBRANCH   8  11
ENDBRANCH   7   8
ENDBRANCH   1   7
BRANCH   6  13
ATOM     13  N   LIG d   1       2.838  81.274 110.106  0.00  0.00    -0.311 N 
ATOM     14  C   LIG d   1       2.542  82.082 109.088  0.00  0.00     0.210 C 
ATOM     15  C   LIG d   1       3.678  82.300 108.085  0.00  0.00     0.109 C 
ATOM     16  O   LIG d   1       1.456  82.662 108.939  0.00  0.00    -0.276 OA
ATOM     17  H   LIG d   1       3.753  80.872 110.166  0.00  0.00     0.149 HD
ENDBRANCH   6  13
BRANCH   5  18
ATOM     18  N   LIG d   1       0.995  78.838 110.054  0.00  0.00     0.381 N 
ATOM     19  H   LIG d   1       0.190  78.244 110.050  0.00  0.00    -0.090 HD
ATOM     20  H   LIG d   1       1.700  78.409 110.627  0.00  0.00    -0.090 HD
ATOM     21  H   LIG d   1       1.336  78.954 109.126  0.00  0.00    -0.090 HD
ENDBRANCH   5  18
BRANCH   3  22
ATOM     22  C   LIG d   1      -1.904  81.151 113.086  0.00  0.00     0.382 C 
ATOM     23  O   LIG d   1      -2.768  81.926 112.610  0.00  0.00    -0.241 OA
ATOM     24  O   LIG d   1      -2.165  80.497 114.113  0.00  0.00    -0.241 OA
ENDBRANCH   3  22
TORSDOF 7
ENDMDL
MODEL 6
REMARK VINA RESULT:      -5.3      2.903      5.361
REMARK  7 active torsions:
REMARK  status: ('A' for Active; 'I' for Inactive)
REMARK    1  A    between atoms: C_2  and  C_3 
REMARK    2  A    between atoms: C_3  and  O_6 
REMARK    3  A    between atoms: C_3  and  C_4 
REMARK    4  A    between atoms: C_7  and  O_6 
REMARK    5  A    between atoms: C_9  and  C_10 
REMARK    6  A    between atoms: N_15  and  C_14 
REMARK    7  A    between atoms: N_20  and  C_19 
REMARK       I    between atoms: C_22  and  N_20 
ROOT
ATOM      1  C   LIG d   1       3.293  83.842 112.483  0.00  0.00     0.161 C 
ATOM      2  C   LIG d   1       3.591  85.180 112.790  0.00  0.00     0.016 C 
ATOM      3  C   LIG d   1       3.215  86.269 111.970  0.00  0.00     0.038 C 
ATOM      4  C   LIG d   1       2.379  86.104 110.856  0.00  0.00     0.028 C 
ATOM      5  C   LIG d   1       2.474  84.719 110.227  0.00  0.00    -0.047 C 
ATOM      6  C   LIG d   1       2.285  83.652 111.330  0.00  0.00     0.091 C 
ENDROOT
BRANCH   1   7
ATOM      7  O   LIG d   1       2.834  83.159 113.667  0.00  0.00    -0.368 OA
BRANCH   7   8
ATOM      8  C   LIG d   1       1.398  83.113 113.859  0.00  0.00     0.119 C 
BRANCH   8   9
ATOM      9  C   LIG d   1       1.060  84.039 115.043  0.00  0.00     0.028 C 
ATOM     10  C   LIG d   1       0.352  85.329 114.596  0.00  0.00     0.006 C 
ENDBRANCH   8   9
BRANCH   8  11
ATOM     11  C   LIG d   1       0.939  81.717 114.292  0.00  0.00     0.028 C 
ATOM     12  C   LIG d   1       2.037  80.929 115.024  0.00  0.00     0.006 C 
ENDBRANCH   8  11
ENDBRANCH   7   8
ENDBRANCH   1   7
BRANCH   6  13
ATOM     13  N   LIG d   1       2.448  82.268 110.814  0.00  0.00    -0.311 N 
ATOM     14  C   LIG d   1       1.424  81.495 110.454  0.00  0.00     0.210 C 
ATOM     15  C   LIG d   1       1.812  80.095 109.968  0.00  0.00     0.109 C 
ATOM     16  O   LIG d   1       0.235  81.847 110.460  0.00  0.00    -0.276 OA
ATOM     17  H   LIG d   1       3.381  81.913 110.746  0.00  0.00     0.149 HD
ENDBRANCH   6  13
BRANCH   5  18
ATOM     18  N   LIG d   1       1.453  84.640 109.166  0.00  0.00     0.381 N 
ATOM     19  H   LIG d   1       1.679  83.900 108.531  0.00  0.00    -0.090 HD
ATOM     20  H   LIG d   1       1.449  85.505 108.653  0.00  0.00    -0.090 HD
ATOM     21  H   LIG d   1       0.555  84.479 109.567  0.00  0.00    -0.090 HD
ENDBRANCH   5  18
BRANCH   3  22
ATOM     22  C   LIG d   1       3.711  87.535 112.240  0.00  0.00     0.382 C 
ATOM     23  O   LIG d   1       4.950  87.735 112.246  0.00  0.00    -0.241 OA
ATOM     24  O   LIG d   1       2.938  88.470 112.522  0.00  0.00    -0.241 OA
ENDBRANCH   3  22
TORSDOF 7
ENDMDL
MODEL 7
REMARK VINA RESULT:      -5.2      2.134      2.495
REMARK  7 active torsions:
REMARK  status: ('A' for Active; 'I' for Inactive)
REMARK    1  A    between atoms: C_2  and  C_3 
REMARK    2  A    between atoms: C_3  and  O_6 
REMARK    3  A    between atoms: C_3  and  C_4 
REMARK    4  A    between atoms: C_7  and  O_6 
REMARK    5  A    between atoms: C_9  and  C_10 
REMARK    6  A    between atoms: N_15  and  C_14 
REMARK    7  A    between atoms: N_20  and  C_19 
REMARK       I    between atoms: C_22  and  N_20 
ROOT
ATOM      1  C   LIG d   1       0.835  81.753 113.650  0.00  0.00     0.161 C 
ATOM      2  C   LIG d   1       1.850  81.648 112.684  0.00  0.00     0.016 C 
ATOM      3  C   LIG d   1       1.732  80.864 111.514  0.00  0.00     0.038 C 
ATOM      4  C   LIG d   1       0.525  80.247 111.153  0.00  0.00     0.028 C 
ATOM      5  C   LIG d   1      -0.364  79.912 112.346  0.00  0.00    -0.047 C 
ATOM      6  C   LIG d   1      -0.530  81.176 113.219  0.00  0.00     0.091 C 
ENDROOT
BRANCH   1   7
ATOM      7  O   LIG d   1       0.692  83.127 114.060  0.00  0.00    -0.368 OA
BRANCH   7   8
ATOM      8  C   LIG d   1       1.155  84.125 113.118  0.00  0.00     0.119 C 
BRANCH   8   9
ATOM      9  C   LIG d   1       1.872  85.226 113.924  0.00  0.00     0.028 C 
ATOM     10  C   LIG d   1       0.939  86.397 114.276  0.00  0.00     0.006 C 
ENDBRANCH   8   9
BRANCH   8  11
ATOM     11  C   LIG d   1      -0.018  84.828 112.428  0.00  0.00     0.028 C 
ATOM     12  C   LIG d   1      -0.403  84.172 111.092  0.00  0.00     0.006 C 
ENDBRANCH   8  11
ENDBRANCH   7   8
ENDBRANCH   1   7
BRANCH   6  13
ATOM     13  N   LIG d   1      -1.317  80.915 114.452  0.00  0.00    -0.311 N 
ATOM     14  C   LIG d   1      -2.636  81.078 114.528  0.00  0.00     0.210 C 
ATOM     15  C   LIG d   1      -3.248  80.771 115.899  0.00  0.00     0.109 C 
ATOM     16  O   LIG d   1      -3.363  81.417 113.582  0.00  0.00    -0.276 OA
ATOM     17  H   LIG d   1      -0.811  80.606 115.259  0.00  0.00     0.149 HD
ENDBRANCH   6  13
BRANCH   5  18
ATOM     18  N   LIG d   1      -1.644  79.402 111.818  0.00  0.00     0.381 N 
ATOM     19  H   LIG d   1      -1.653  79.477 110.821  0.00  0.00    -0.090 HD
ATOM     20  H   LIG d   1      -2.393  79.962 112.184  0.00  0.00    -0.090 HD
ATOM     21  H   LIG d   1      -1.769  78.451 112.088  0.00  0.00    -0.090 HD
ENDBRANCH   5  18
BRANCH   3  22
ATOM     22  C   LIG d   1       2.843  80.658 110.710  0.00  0.00     0.382 C 
ATOM     23  O   LIG d   1       3.972  81.057 111.085  0.00  0.00    -0.241 OA
ATOM     24  O   LIG d   1       2.724  80.117 109.594  0.00  0.00    -0.241 OA
ENDBRANCH   3  22
TORSDOF 7
ENDMDL
MODEL 8
REMARK VINA RESULT:      -5.2      2.045      4.600
REMARK  7 active torsions:
REMARK  status: ('A' for Active; 'I' for Inactive)
REMARK    1  A    between atoms: C_2  and  C_3 
REMARK    2  A    between atoms: C_3  and  O_6 
REMARK    3  A    between atoms: C_3  and  C_4 
REMARK    4  A    between atoms: C_7  and  O_6 
REMARK    5  A    between atoms: C_9  and  C_10 
REMARK    6  A    between atoms: N_15  and  C_14 
REMARK    7  A    between atoms: N_20  and  C_19 
REMARK       I    between atoms: C_22  and  N_20 
ROOT
ATOM      1  C   LIG d   1       0.761  82.642 110.660  0.00  0.00     0.161 C 
ATOM      2  C   LIG d   1       1.582  81.706 110.009  0.00  0.00     0.016 C 
ATOM      3  C   LIG d   1       2.959  81.915 109.767  0.00  0.00     0.038 C 
ATOM      4  C   LIG d   1       3.646  83.017 110.297  0.00  0.00     0.028 C 
ATOM      5  C   LIG d   1       2.755  84.233 110.527  0.00  0.00    -0.047 C 
ATOM      6  C   LIG d   1       1.516  83.801 111.343  0.00  0.00     0.091 C 
ENDROOT
BRANCH   1   7
ATOM      7  O   LIG d   1      -0.089  81.969 111.610  0.00  0.00    -0.368 OA
BRANCH   7   8
ATOM      8  C   LIG d   1       0.401  80.705 112.120  0.00  0.00     0.119 C 
BRANCH   8   9
ATOM      9  C   LIG d   1      -0.787  79.724 112.149  0.00  0.00     0.028 C 
ATOM     10  C   LIG d   1      -2.009  80.304 112.880  0.00  0.00     0.006 C 
ENDBRANCH   8   9
BRANCH   8  11
ATOM     11  C   LIG d   1       0.857  80.832 113.577  0.00  0.00     0.028 C 
ATOM     12  C   LIG d   1       2.355  81.152 113.707  0.00  0.00     0.006 C 
ENDBRANCH   8  11
ENDBRANCH   7   8
ENDBRANCH   1   7
BRANCH   6  13
ATOM     13  N   LIG d   1       0.551  84.913 111.540  0.00  0.00    -0.311 N 
ATOM     14  C   LIG d   1       0.020  85.610 110.537  0.00  0.00     0.210 C 
ATOM     15  C   LIG d   1      -0.938  86.727 110.961  0.00  0.00     0.109 C 
ATOM     16  O   LIG d   1       0.228  85.388 109.334  0.00  0.00    -0.276 OA
ATOM     17  H   LIG d   1       0.303  85.140 112.483  0.00  0.00     0.149 HD
ENDBRANCH   6  13
BRANCH   5  18
ATOM     18  N   LIG d   1       3.568  85.259 111.208  0.00  0.00     0.381 N 
ATOM     19  H   LIG d   1       4.003  84.863 112.017  0.00  0.00    -0.090 HD
ATOM     20  H   LIG d   1       2.965  86.005 111.507  0.00  0.00    -0.090 HD
ATOM     21  H   LIG d   1       4.263  85.611 110.587  0.00  0.00    -0.090 HD
ENDBRANCH   5  18
BRANCH   3  22
ATOM     22  C   LIG d   1       3.655  81.035 108.952  0.00  0.00     0.382 C 
ATOM     23  O   LIG d   1       4.168  80.000 109.442  0.00  0.00    -0.241 OA
ATOM     24  O   LIG d   1       3.813  81.284 107.742  0.00  0.00    -0.241 OA
ENDBRANCH   3  22
TORSDOF 7
ENDMDL
MODEL 9
REMARK VINA RESULT:      -5.1      3.408      5.782
REMARK  7 active torsions:
REMARK  status: ('A' for Active; 'I' for Inactive)
REMARK    1  A    between atoms: C_2  and  C_3 
REMARK    2  A    between atoms: C_3  and  O_6 
REMARK    3  A    between atoms: C_3  and  C_4 
REMARK    4  A    between atoms: C_7  and  O_6 
REMARK    5  A    between atoms: C_9  and  C_10 
REMARK    6  A    between atoms: N_15  and  C_14 
REMARK    7  A    between atoms: N_20  and  C_19 
REMARK       I    between atoms: C_22  and  N_20 
ROOT
ATOM      1  C   LIG d   1       2.457  84.838 113.494  0.00  0.00     0.161 C 
ATOM      2  C   LIG d   1       3.045  86.106 113.630  0.00  0.00     0.016 C 
ATOM      3  C   LIG d   1       3.145  87.035 112.569  0.00  0.00     0.038 C 
ATOM      4  C   LIG d   1       2.523  86.816 111.330  0.00  0.00     0.028 C 
ATOM      5  C   LIG d   1       2.354  85.339 110.991  0.00  0.00    -0.047 C 
ATOM      6  C   LIG d   1       1.675  84.625 112.181  0.00  0.00     0.091 C 
ENDROOT
BRANCH   1   7
ATOM      7  O   LIG d   1       1.612  84.567 114.630  0.00  0.00    -0.368 OA
BRANCH   7   8
ATOM      8  C   LIG d   1       2.293  84.278 115.876  0.00  0.00     0.119 C 
BRANCH   8   9
ATOM      9  C   LIG d   1       3.001  82.919 115.712  0.00  0.00     0.028 C 
ATOM     10  C   LIG d   1       4.450  82.946 116.225  0.00  0.00     0.006 C 
ENDBRANCH   8   9
BRANCH   8  11
ATOM     11  C   LIG d   1       1.297  84.080 117.023  0.00  0.00     0.028 C 
ATOM     12  C   LIG d   1      -0.029  83.457 116.559  0.00  0.00     0.006 C 
ENDBRANCH   8  11
ENDBRANCH   7   8
ENDBRANCH   1   7
BRANCH   6  13
ATOM     13  N   LIG d   1       1.548  83.160 111.966  0.00  0.00    -0.311 N 
ATOM     14  C   LIG d   1       0.460  82.586 111.454  0.00  0.00     0.210 C 
ATOM     15  C   LIG d   1       0.530  81.060 111.335  0.00  0.00     0.109 C 
ATOM     16  O   LIG d   1      -0.543  83.198 111.058  0.00  0.00    -0.276 OA
ATOM     17  H   LIG d   1       2.327  82.591 112.231  0.00  0.00     0.149 HD
ENDBRANCH   6  13
BRANCH   5  18
ATOM     18  N   LIG d   1       1.571  85.256 109.743  0.00  0.00     0.381 N 
ATOM     19  H   LIG d   1       1.859  84.456 109.215  0.00  0.00    -0.090 HD
ATOM     20  H   LIG d   1       1.749  86.077 109.193  0.00  0.00    -0.090 HD
ATOM     21  H   LIG d   1       0.600  85.191 109.954  0.00  0.00    -0.090 HD
ENDBRANCH   5  18
BRANCH   3  22
ATOM     22  C   LIG d   1       3.907  88.182 112.729  0.00  0.00     0.382 C 
ATOM     23  O   LIG d   1       5.159  88.118 112.661  0.00  0.00    -0.241 OA
ATOM     24  O   LIG d   1       3.362  89.273 112.984  0.00  0.00    -0.241 OA
ENDBRANCH   3  22
TORSDOF 7
ENDMDL
