MODEL 1
REMARK VINA RESULT:      -6.3      0.000      0.000
REMARK  7 active torsions:
REMARK  status: ('A' for Active; 'I' for Inactive)
REMARK    1  A    between atoms: C_2  and  C_3 
REMARK    2  A    between atoms: C_3  and  O_6 
REMARK    3  A    between atoms: C_3  and  C_4 
REMARK    4  A    between atoms: C_7  and  O_6 
REMARK    5  A    between atoms: C_9  and  C_10 
REMARK    6  A    between atoms: N_15  and  C_14 
REMARK    7  A    between atoms: N_20  and  C_19 
REMARK       I    between atoms: C_22  and  N_20 
ROOT
ATOM      1  C   LIG d   1       2.214  85.496 110.245  0.00  0.00     0.161 C 
ATOM      2  C   LIG d   1       1.164  86.232 110.819  0.00  0.00     0.016 C 
ATOM      3  C   LIG d   1      -0.041  85.646 111.270  0.00  0.00     0.038 C 
ATOM      4  C   LIG d   1      -0.218  84.256 111.316  0.00  0.00     0.028 C 
ATOM      5  C   LIG d   1       0.613  83.505 110.281  0.00  0.00    -0.047 C 
ATOM      6  C   LIG d   1       2.085  83.965 110.389  0.00  0.00     0.091 C 
ENDROOT
BRANCH   1   7
ATOM      7  O   LIG d   1       3.475  85.944 110.781  0.00  0.00    -0.368 OA
BRANCH   7   8
ATOM      8  C   LIG d   1       3.441  86.481 112.126  0.00  0.00     0.119 C 
BRANCH   8   9
ATOM      9  C   LIG d   1       4.488  87.610 112.201  0.00  0.00     0.028 C 
ATOM     10  C   LIG d   1       3.970  88.842 112.961  0.00  0.00     0.006 C 
ENDBRANCH   8   9
BRANCH   8  11
ATOM     11  C   LIG d   1       3.894  85.440 113.153  0.00  0.00     0.028 C 
ATOM     12  C   LIG d   1       2.732  84.886 113.993  0.00  0.00     0.006 C 
ENDBRANCH   8  11
ENDBRANCH   7   8
ENDBRANCH   1   7
BRANCH   6  13
ATOM     13  N   LIG d   1       2.951  83.341 109.355  0.00  0.00    -0.311 N 
ATOM     14  C   LIG d   1       4.061  82.662 109.641  0.00  0.00     0.210 C 
ATOM     15  C   LIG d   1       4.818  82.118 108.425  0.00  0.00     0.109 C 
ATOM     16  O   LIG d   1       4.472  82.430 110.788  0.00  0.00    -0.276 OA
ATOM     17  H   LIG d   1       2.675  83.454 108.400  0.00  0.00     0.149 HD
ENDBRANCH   6  13
BRANCH   5  18
ATOM     18  N   LIG d   1       0.439  82.062 110.531  0.00  0.00     0.381 N 
ATOM     19  H   LIG d   1       1.036  81.773 111.279  0.00  0.00    -0.090 HD
ATOM     20  H   LIG d   1       0.701  81.554 109.704  0.00  0.00    -0.090 HD
ATOM     21  H   LIG d   1      -0.511  81.868 110.760  0.00  0.00    -0.090 HD
ENDBRANCH   5  18
BRANCH   3  22
ATOM     22  C   LIG d   1      -1.101  86.458 111.644  0.00  0.00     0.382 C 
ATOM     23  O   LIG d   1      -1.533  86.423 112.822  0.00  0.00    -0.241 OA
ATOM     24  O   LIG d   1      -1.661  87.192 110.807  0.00  0.00    -0.241 OA
ENDBRANCH   3  22
TORSDOF 7
ENDMDL
MODEL 2
REMARK VINA RESULT:      -6.2      2.954      4.042
REMARK  7 active torsions:
REMARK  status: ('A' for Active; 'I' for Inactive)
REMARK    1  A    between atoms: C_2  and  C_3 
REMARK    2  A    between atoms: C_3  and  O_6 
REMARK    3  A    between atoms: C_3  and  C_4 
REMARK    4  A    between atoms: C_7  and  O_6 
REMARK    5  A    between atoms: C_9  and  C_10 
REMARK    6  A    between atoms: N_15  and  C_14 
REMARK    7  A    between atoms: N_20  and  C_19 
REMARK       I    between atoms: C_22  and  N_20 
ROOT
ATOM      1  C   LIG d   1       0.440  82.611 111.210  0.00  0.00     0.161 C 
ATOM      2  C   LIG d   1      -0.705  82.351 111.981  0.00  0.00     0.016 C 
ATOM      3  C   LIG d   1      -1.237  81.055 112.172  0.00  0.00     0.038 C 
ATOM      4  C   LIG d   1      -0.568  79.906 111.726  0.00  0.00     0.028 C 
ATOM      5  C   LIG d   1       0.321  80.156 110.513  0.00  0.00    -0.047 C 
ATOM      6  C   LIG d   1       1.247  81.358 110.808  0.00  0.00     0.091 C 
ENDROOT
BRANCH   1   7
ATOM      7  O   LIG d   1       1.288  83.553 111.897  0.00  0.00    -0.368 OA
BRANCH   7   8
ATOM      8  C   LIG d   1       1.360  84.881 111.323  0.00  0.00     0.119 C 
BRANCH   8   9
ATOM      9  C   LIG d   1       0.549  84.865 110.013  0.00  0.00     0.028 C 
ATOM     10  C   LIG d   1      -0.548  85.942 109.989  0.00  0.00     0.006 C 
ENDBRANCH   8   9
BRANCH   8  11
ATOM     11  C   LIG d   1       2.792  85.232 110.908  0.00  0.00     0.028 C 
ATOM     12  C   LIG d   1       3.276  86.564 111.503  0.00  0.00     0.006 C 
ENDBRANCH   8  11
ENDBRANCH   7   8
ENDBRANCH   1   7
BRANCH   6  13
ATOM     13  N   LIG d   1       2.092  81.723 109.641  0.00  0.00    -0.311 N 
ATOM     14  C   LIG d   1       3.419  81.817 109.698  0.00  0.00     0.210 C 
ATOM     15  C   LIG d   1       4.095  82.227 108.386  0.00  0.00     0.109 C 
ATOM     16  O   LIG d   1       4.103  81.570 110.703  0.00  0.00    -0.276 OA
ATOM     17  H   LIG d   1       1.621  81.911 108.778  0.00  0.00     0.149 HD
ENDBRANCH   6  13
BRANCH   5  18
ATOM     18  N   LIG d   1       1.062  78.910 110.239  0.00  0.00     0.381 N 
ATOM     19  H   LIG d   1       0.956  78.277 111.007  0.00  0.00    -0.090 HD
ATOM     20  H   LIG d   1       2.038  79.127 110.141  0.00  0.00    -0.090 HD
ATOM     21  H   LIG d   1       0.723  78.488 109.403  0.00  0.00    -0.090 HD
ENDBRANCH   5  18
BRANCH   3  22
ATOM     22  C   LIG d   1      -2.473  80.903 112.782  0.00  0.00     0.382 C 
ATOM     23  O   LIG d   1      -2.965  79.758 112.926  0.00  0.00    -0.241 OA
ATOM     24  O   LIG d   1      -3.123  81.900 113.150  0.00  0.00    -0.241 OA
ENDBRANCH   3  22
TORSDOF 7
ENDMDL
MODEL 3
REMARK VINA RESULT:      -6.2      2.687      5.480
REMARK  7 active torsions:
REMARK  status: ('A' for Active; 'I' for Inactive)
REMARK    1  A    between atoms: C_2  and  C_3 
REMARK    2  A    between atoms: C_3  and  O_6 
REMARK    3  A    between atoms: C_3  and  C_4 
REMARK    4  A    between atoms: C_7  and  O_6 
REMARK    5  A    between atoms: C_9  and  C_10 
REMARK    6  A    between atoms: N_15  and  C_14 
REMARK    7  A    between atoms: N_20  and  C_19 
REMARK       I    between atoms: C_22  and  N_20 
ROOT
ATOM      1  C   LIG d   1       1.422  81.743 112.051  0.00  0.00     0.161 C 
ATOM      2  C   LIG d   1       2.591  82.128 111.375  0.00  0.00     0.016 C 
ATOM      3  C   LIG d   1       2.815  81.876 110.002  0.00  0.00     0.038 C 
ATOM      4  C   LIG d   1       1.813  81.352 109.172  0.00  0.00     0.028 C 
ATOM      5  C   LIG d   1       0.802  80.485 109.915  0.00  0.00    -0.047 C 
ATOM      6  C   LIG d   1       0.272  81.269 111.137  0.00  0.00     0.091 C 
ENDROOT
BRANCH   1   7
ATOM      7  O   LIG d   1       0.974  82.815 112.904  0.00  0.00    -0.368 OA
BRANCH   7   8
ATOM      8  C   LIG d   1       1.185  84.158 112.402  0.00  0.00     0.119 C 
BRANCH   8   9
ATOM      9  C   LIG d   1       1.879  84.965 113.517  0.00  0.00     0.028 C 
ATOM     10  C   LIG d   1       3.303  85.398 113.129  0.00  0.00     0.006 C 
ENDBRANCH   8   9
BRANCH   8  11
ATOM     11  C   LIG d   1      -0.145  84.874 112.152  0.00  0.00     0.028 C 
ATOM     12  C   LIG d   1      -0.555  84.869 110.671  0.00  0.00     0.006 C 
ENDBRANCH   8  11
ENDBRANCH   7   8
ENDBRANCH   1   7
BRANCH   6  13
ATOM     13  N   LIG d   1      -0.659  80.462 111.968  0.00  0.00    -0.311 N 
ATOM     14  C   LIG d   1      -1.761  80.959 112.527  0.00  0.00     0.210 C 
ATOM     15  C   LIG d   1      -2.570  79.961 113.360  0.00  0.00     0.109 C 
ATOM     16  O   LIG d   1      -2.162  82.124 112.386  0.00  0.00    -0.276 OA
ATOM     17  H   LIG d   1      -0.426  79.498 112.109  0.00  0.00     0.149 HD
ENDBRANCH   6  13
BRANCH   5  18
ATOM     18  N   LIG d   1      -0.259  80.119 108.959  0.00  0.00     0.381 N 
ATOM     19  H   LIG d   1      -0.408  79.129 108.980  0.00  0.00    -0.090 HD
ATOM     20  H   LIG d   1       0.036  80.373 108.032  0.00  0.00    -0.090 HD
ATOM     21  H   LIG d   1      -1.104  80.594 109.189  0.00  0.00    -0.090 HD
ENDBRANCH   5  18
BRANCH   3  22
ATOM     22  C   LIG d   1       4.067  82.113 109.455  0.00  0.00     0.382 C 
ATOM     23  O   LIG d   1       4.179  82.359 108.229  0.00  0.00    -0.241 OA
ATOM     24  O   LIG d   1       5.089  82.040 110.162  0.00  0.00    -0.241 OA
ENDBRANCH   3  22
TORSDOF 7
ENDMDL
MODEL 4
REMARK VINA RESULT:      -6.0      2.549      5.030
REMARK  7 active torsions:
REMARK  status: ('A' for Active; 'I' for Inactive)
REMARK    1  A    between atoms: C_2  and  C_3 
REMARK    2  A    between atoms: C_3  and  O_6 
REMARK    3  A    between atoms: C_3  and  C_4 
REMARK    4  A    between atoms: C_7  and  O_6 
REMARK    5  A    between atoms: C_9  and  C_10 
REMARK    6  A    between atoms: N_15  and  C_14 
REMARK    7  A    between atoms: N_20  and  C_19 
REMARK       I    between atoms: C_22  and  N_20 
ROOT
ATOM      1  C   LIG d   1       2.366  83.628 111.289  0.00  0.00     0.161 C 
ATOM      2  C   LIG d   1       1.318  82.694 111.254  0.00  0.00     0.016 C 
ATOM      3  C   LIG d   1      -0.011  83.001 111.629  0.00  0.00     0.038 C 
ATOM      4  C   LIG d   1      -0.414  84.312 111.922  0.00  0.00     0.028 C 
ATOM      5  C   LIG d   1       0.714  85.187 112.458  0.00  0.00    -0.047 C 
ATOM      6  C   LIG d   1       1.923  85.091 111.499  0.00  0.00     0.091 C 
ENDROOT
BRANCH   1   7
ATOM      7  O   LIG d   1       3.162  83.513 110.093  0.00  0.00    -0.368 OA
BRANCH   7   8
ATOM      8  C   LIG d   1       3.263  82.186 109.519  0.00  0.00     0.119 C 
BRANCH   8   9
ATOM      9  C   LIG d   1       4.651  81.626 109.890  0.00  0.00     0.028 C 
ATOM     10  C   LIG d   1       4.744  80.105 109.683  0.00  0.00     0.006 C 
ENDBRANCH   8   9
BRANCH   8  11
ATOM     11  C   LIG d   1       3.242  82.237 107.989  0.00  0.00     0.028 C 
ATOM     12  C   LIG d   1       1.899  82.731 107.428  0.00  0.00     0.006 C 
ENDBRANCH   8  11
ENDBRANCH   7   8
ENDBRANCH   1   7
BRANCH   6  13
ATOM     13  N   LIG d   1       3.100  85.851 111.993  0.00  0.00    -0.311 N 
ATOM     14  C   LIG d   1       3.299  87.143 111.736  0.00  0.00     0.210 C 
ATOM     15  C   LIG d   1       4.587  87.728 112.323  0.00  0.00     0.109 C 
ATOM     16  O   LIG d   1       2.516  87.867 111.103  0.00  0.00    -0.276 OA
ATOM     17  H   LIG d   1       3.771  85.348 112.541  0.00  0.00     0.149 HD
ENDBRANCH   6  13
BRANCH   5  18
ATOM     18  N   LIG d   1       0.189  86.560 112.590  0.00  0.00     0.381 N 
ATOM     19  H   LIG d   1       0.839  87.123 113.100  0.00  0.00    -0.090 HD
ATOM     20  H   LIG d   1      -0.674  86.529 113.104  0.00  0.00    -0.090 HD
ATOM     21  H   LIG d   1       0.033  86.953 111.688  0.00  0.00    -0.090 HD
ENDBRANCH   5  18
BRANCH   3  22
ATOM     22  C   LIG d   1      -0.943  81.982 111.753  0.00  0.00     0.382 C 
ATOM     23  O   LIG d   1      -0.709  80.854 111.254  0.00  0.00    -0.241 OA
ATOM     24  O   LIG d   1      -2.034  82.188 112.318  0.00  0.00    -0.241 OA
ENDBRANCH   3  22
TORSDOF 7
ENDMDL
MODEL 5
REMARK VINA RESULT:      -5.7      2.896      5.009
REMARK  7 active torsions:
REMARK  status: ('A' for Active; 'I' for Inactive)
REMARK    1  A    between atoms: C_2  and  C_3 
REMARK    2  A    between atoms: C_3  and  O_6 
REMARK    3  A    between atoms: C_3  and  C_4 
REMARK    4  A    between atoms: C_7  and  O_6 
REMARK    5  A    between atoms: C_9  and  C_10 
REMARK    6  A    between atoms: N_15  and  C_14 
REMARK    7  A    between atoms: N_20  and  C_19 
REMARK       I    between atoms: C_22  and  N_20 
ROOT
ATOM      1  C   LIG d   1       2.658  82.819 110.805  0.00  0.00     0.161 C 
ATOM      2  C   LIG d   1       2.061  81.888 109.938  0.00  0.00     0.016 C 
ATOM      3  C   LIG d   1       1.185  80.867 110.376  0.00  0.00     0.038 C 
ATOM      4  C   LIG d   1       0.726  80.802 111.700  0.00  0.00     0.028 C 
ATOM      5  C   LIG d   1       1.694  81.413 112.708  0.00  0.00    -0.047 C 
ATOM      6  C   LIG d   1       2.081  82.833 112.236  0.00  0.00     0.091 C 
ENDROOT
BRANCH   1   7
ATOM      7  O   LIG d   1       2.592  84.137 110.225  0.00  0.00    -0.368 OA
BRANCH   7   8
ATOM      8  C   LIG d   1       1.544  85.002 110.727  0.00  0.00     0.119 C 
BRANCH   8   9
ATOM      9  C   LIG d   1       0.449  85.079 109.645  0.00  0.00     0.028 C 
ATOM     10  C   LIG d   1      -0.785  85.866 110.115  0.00  0.00     0.006 C 
ENDBRANCH   8   9
BRANCH   8  11
ATOM     11  C   LIG d   1       2.044  86.440 110.901  0.00  0.00     0.028 C 
ATOM     12  C   LIG d   1       3.476  86.510 111.454  0.00  0.00     0.006 C 
ENDBRANCH   8  11
ENDBRANCH   7   8
ENDBRANCH   1   7
BRANCH   6  13
ATOM     13  N   LIG d   1       3.091  83.469 113.121  0.00  0.00    -0.311 N 
ATOM     14  C   LIG d   1       2.773  84.207 114.184  0.00  0.00     0.210 C 
ATOM     15  C   LIG d   1       3.967  84.786 114.949  0.00  0.00     0.109 C 
ATOM     16  O   LIG d   1       1.617  84.409 114.584  0.00  0.00    -0.276 OA
ATOM     17  H   LIG d   1       4.054  83.330 112.888  0.00  0.00     0.149 HD
ENDBRANCH   6  13
BRANCH   5  18
ATOM     18  N   LIG d   1       1.030  81.402 114.025  0.00  0.00     0.381 N 
ATOM     19  H   LIG d   1       0.813  82.339 114.303  0.00  0.00    -0.090 HD
ATOM     20  H   LIG d   1       1.660  81.011 114.703  0.00  0.00    -0.090 HD
ATOM     21  H   LIG d   1       0.196  80.858 113.983  0.00  0.00    -0.090 HD
ENDBRANCH   5  18
BRANCH   3  22
ATOM     22  C   LIG d   1       0.792  79.873 109.493  0.00  0.00     0.382 C 
ATOM     23  O   LIG d   1      -0.415  79.764 109.169  0.00  0.00    -0.241 OA
ATOM     24  O   LIG d   1       1.622  79.057 109.050  0.00  0.00    -0.241 OA
ENDBRANCH   3  22
TORSDOF 7
ENDMDL
MODEL 6
REMARK VINA RESULT:      -5.5      4.317      6.410
REMARK  7 active torsions:
REMARK  status: ('A' for Active; 'I' for Inactive)
REMARK    1  A    between atoms: C_2  and  C_3 
REMARK    2  A    between atoms: C_3  and  O_6 
REMARK    3  A    between atoms: C_3  and  C_4 
REMARK    4  A    between atoms: C_7  and  O_6 
REMARK    5  A    between atoms: C_9  and  C_10 
REMARK    6  A    between atoms: N_15  and  C_14 
REMARK    7  A    between atoms: N_20  and  C_19 
REMARK       I    between atoms: C_22  and  N_20 
ROOT
ATOM      1  C   LIG d   1       0.771  80.588 111.157  0.00  0.00     0.161 C 
ATOM      2  C   LIG d   1       0.012  79.557 110.579  0.00  0.00     0.016 C 
ATOM      3  C   LIG d   1      -1.020  78.875 111.263  0.00  0.00     0.038 C 
ATOM      4  C   LIG d   1      -1.467  79.282 112.529  0.00  0.00     0.028 C 
ATOM      5  C   LIG d   1      -0.395  79.991 113.350  0.00  0.00    -0.047 C 
ATOM      6  C   LIG d   1       0.224  81.122 112.497  0.00  0.00     0.091 C 
ENDROOT
BRANCH   1   7
ATOM      7  O   LIG d   1       0.926  81.667 110.214  0.00  0.00    -0.368 OA
BRANCH   7   8
ATOM      8  C   LIG d   1       2.271  81.901 109.728  0.00  0.00     0.119 C 
BRANCH   8   9
ATOM      9  C   LIG d   1       2.299  81.512 108.237  0.00  0.00     0.028 C 
ATOM     10  C   LIG d   1       1.929  82.688 107.317  0.00  0.00     0.006 C 
ENDBRANCH   8   9
BRANCH   8  11
ATOM     11  C   LIG d   1       3.279  80.970 110.408  0.00  0.00     0.028 C 
ATOM     12  C   LIG d   1       4.626  80.908 109.670  0.00  0.00     0.006 C 
ENDBRANCH   8  11
ENDBRANCH   7   8
ENDBRANCH   1   7
BRANCH   6  13
ATOM     13  N   LIG d   1       1.340  81.812 113.196  0.00  0.00    -0.311 N 
ATOM     14  C   LIG d   1       1.488  83.135 113.212  0.00  0.00     0.210 C 
ATOM     15  C   LIG d   1       2.718  83.640 113.973  0.00  0.00     0.109 C 
ATOM     16  O   LIG d   1       0.699  83.941 112.696  0.00  0.00    -0.276 OA
ATOM     17  H   LIG d   1       2.009  81.235 113.667  0.00  0.00     0.149 HD
ENDBRANCH   6  13
BRANCH   5  18
ATOM     18  N   LIG d   1      -1.033  80.483 114.586  0.00  0.00     0.381 N 
ATOM     19  H   LIG d   1      -1.519  81.337 114.400  0.00  0.00    -0.090 HD
ATOM     20  H   LIG d   1      -0.320  80.668 115.269  0.00  0.00    -0.090 HD
ATOM     21  H   LIG d   1      -1.669  79.800 114.936  0.00  0.00    -0.090 HD
ENDBRANCH   5  18
BRANCH   3  22
ATOM     22  C   LIG d   1      -1.591  77.745 110.696  0.00  0.00     0.382 C 
ATOM     23  O   LIG d   1      -0.978  76.650 110.728  0.00  0.00    -0.241 OA
ATOM     24  O   LIG d   1      -2.690  77.816 110.115  0.00  0.00    -0.241 OA
ENDBRANCH   3  22
TORSDOF 7
ENDMDL
MODEL 7
REMARK VINA RESULT:      -5.5      3.071      4.865
REMARK  7 active torsions:
REMARK  status: ('A' for Active; 'I' for Inactive)
REMARK    1  A    between atoms: C_2  and  C_3 
REMARK    2  A    between atoms: C_3  and  O_6 
REMARK    3  A    between atoms: C_3  and  C_4 
REMARK    4  A    between atoms: C_7  and  O_6 
REMARK    5  A    between atoms: C_9  and  C_10 
REMARK    6  A    between atoms: N_15  and  C_14 
REMARK    7  A    between atoms: N_20  and  C_19 
REMARK       I    between atoms: C_22  and  N_20 
ROOT
ATOM      1  C   LIG d   1       2.512  86.492 112.376  0.00  0.00     0.161 C 
ATOM      2  C   LIG d   1       2.605  87.892 112.458  0.00  0.00     0.016 C 
ATOM      3  C   LIG d   1       2.828  88.587 113.669  0.00  0.00     0.038 C 
ATOM      4  C   LIG d   1       3.126  87.916 114.865  0.00  0.00     0.028 C 
ATOM      5  C   LIG d   1       2.545  86.508 114.931  0.00  0.00    -0.047 C 
ATOM      6  C   LIG d   1       2.945  85.739 113.651  0.00  0.00     0.091 C 
ENDROOT
BRANCH   1   7
ATOM      7  O   LIG d   1       3.258  86.019 111.237  0.00  0.00    -0.368 OA
BRANCH   7   8
ATOM      8  C   LIG d   1       2.495  85.326 110.219  0.00  0.00     0.119 C 
BRANCH   8   9
ATOM      9  C   LIG d   1       1.007  85.427 110.606  0.00  0.00     0.028 C 
ATOM     10  C   LIG d   1       0.131  85.929 109.446  0.00  0.00     0.006 C 
ENDBRANCH   8   9
BRANCH   8  11
ATOM     11  C   LIG d   1       2.812  83.828 110.209  0.00  0.00     0.028 C 
ATOM     12  C   LIG d   1       2.454  83.152 108.876  0.00  0.00     0.006 C 
ENDBRANCH   8  11
ENDBRANCH   7   8
ENDBRANCH   1   7
BRANCH   6  13
ATOM     13  N   LIG d   1       2.347  84.380 113.596  0.00  0.00    -0.311 N 
ATOM     14  C   LIG d   1       2.966  83.288 114.041  0.00  0.00     0.210 C 
ATOM     15  C   LIG d   1       2.179  81.984 113.871  0.00  0.00     0.109 C 
ATOM     16  O   LIG d   1       4.077  83.279 114.591  0.00  0.00    -0.276 OA
ATOM     17  H   LIG d   1       1.433  84.300 113.194  0.00  0.00     0.149 HD
ENDBRANCH   6  13
BRANCH   5  18
ATOM     18  N   LIG d   1       3.046  85.876 116.166  0.00  0.00     0.381 N 
ATOM     19  H   LIG d   1       3.498  85.011 115.945  0.00  0.00    -0.090 HD
ATOM     20  H   LIG d   1       2.268  85.680 116.770  0.00  0.00    -0.090 HD
ATOM     21  H   LIG d   1       3.687  86.486 116.625  0.00  0.00    -0.090 HD
ENDBRANCH   5  18
BRANCH   3  22
ATOM     22  C   LIG d   1       2.715  89.968 113.700  0.00  0.00     0.382 C 
ATOM     23  O   LIG d   1       2.727  90.574 114.798  0.00  0.00    -0.241 OA
ATOM     24  O   LIG d   1       2.555  90.612 112.645  0.00  0.00    -0.241 OA
ENDBRANCH   3  22
TORSDOF 7
ENDMDL
MODEL 8
REMARK VINA RESULT:      -5.5      2.521      3.685
REMARK  7 active torsions:
REMARK  status: ('A' for Active; 'I' for Inactive)
REMARK    1  A    between atoms: C_2  and  C_3 
REMARK    2  A    between atoms: C_3  and  O_6 
REMARK    3  A    between atoms: C_3  and  C_4 
REMARK    4  A    between atoms: C_7  and  O_6 
REMARK    5  A    between atoms: C_9  and  C_10 
REMARK    6  A    between atoms: N_15  and  C_14 
REMARK    7  A    between atoms: N_20  and  C_19 
REMARK       I    between atoms: C_22  and  N_20 
ROOT
ATOM      1  C   LIG d   1       3.851  85.315 112.199  0.00  0.00     0.161 C 
ATOM      2  C   LIG d   1       3.689  86.485 112.959  0.00  0.00     0.016 C 
ATOM      3  C   LIG d   1       2.738  87.486 112.654  0.00  0.00     0.038 C 
ATOM      4  C   LIG d   1       1.774  87.311 111.649  0.00  0.00     0.028 C 
ATOM      5  C   LIG d   1       2.224  86.371 110.535  0.00  0.00    -0.047 C 
ATOM      6  C   LIG d   1       2.735  85.055 111.165  0.00  0.00     0.091 C 
ENDROOT
BRANCH   1   7
ATOM      7  O   LIG d   1       3.996  84.180 113.075  0.00  0.00    -0.368 OA
BRANCH   7   8
ATOM      8  C   LIG d   1       2.767  83.603 113.580  0.00  0.00     0.119 C 
BRANCH   8   9
ATOM      9  C   LIG d   1       2.791  83.732 115.115  0.00  0.00     0.028 C 
ATOM     10  C   LIG d   1       1.869  84.853 115.624  0.00  0.00     0.006 C 
ENDBRANCH   8   9
BRANCH   8  11
ATOM     11  C   LIG d   1       2.702  82.098 113.301  0.00  0.00     0.028 C 
ATOM     12  C   LIG d   1       1.263  81.586 113.128  0.00  0.00     0.006 C 
ENDBRANCH   8  11
ENDBRANCH   7   8
ENDBRANCH   1   7
BRANCH   6  13
ATOM     13  N   LIG d   1       3.272  84.112 110.150  0.00  0.00    -0.311 N 
ATOM     14  C   LIG d   1       2.557  83.123 109.617  0.00  0.00     0.210 C 
ATOM     15  C   LIG d   1       3.309  82.255 108.603  0.00  0.00     0.109 C 
ATOM     16  O   LIG d   1       1.361  82.902 109.864  0.00  0.00    -0.276 OA
ATOM     17  H   LIG d   1       4.225  84.239 109.869  0.00  0.00     0.149 HD
ENDBRANCH   6  13
BRANCH   5  18
ATOM     18  N   LIG d   1       1.076  86.172 109.630  0.00  0.00     0.381 N 
ATOM     19  H   LIG d   1       1.225  86.677 108.779  0.00  0.00    -0.090 HD
ATOM     20  H   LIG d   1       0.248  86.533 110.071  0.00  0.00    -0.090 HD
ATOM     21  H   LIG d   1       0.961  85.202 109.434  0.00  0.00    -0.090 HD
ENDBRANCH   5  18
BRANCH   3  22
ATOM     22  C   LIG d   1       2.770  88.694 113.333  0.00  0.00     0.382 C 
ATOM     23  O   LIG d   1       2.367  88.758 114.519  0.00  0.00    -0.241 OA
ATOM     24  O   LIG d   1       3.155  89.731 112.759  0.00  0.00    -0.241 OA
ENDBRANCH   3  22
TORSDOF 7
ENDMDL
MODEL 9
REMARK VINA RESULT:      -5.4      2.527      6.165
REMARK  7 active torsions:
REMARK  status: ('A' for Active; 'I' for Inactive)
REMARK    1  A    between atoms: C_2  and  C_3 
REMARK    2  A    between atoms: C_3  and  O_6 
REMARK    3  A    between atoms: C_3  and  C_4 
REMARK    4  A    between atoms: C_7  and  O_6 
REMARK    5  A    between atoms: C_9  and  C_10 
REMARK    6  A    between atoms: N_15  and  C_14 
REMARK    7  A    between atoms: N_20  and  C_19 
REMARK       I    between atoms: C_22  and  N_20 
ROOT
ATOM      1  C   LIG d   1       1.031  83.117 110.042  0.00  0.00     0.161 C 
ATOM      2  C   LIG d   1       2.154  82.369 109.649  0.00  0.00     0.016 C 
ATOM      3  C   LIG d   1       3.475  82.873 109.683  0.00  0.00     0.038 C 
ATOM      4  C   LIG d   1       3.780  84.115 110.258  0.00  0.00     0.028 C 
ATOM      5  C   LIG d   1       2.624  85.108 110.204  0.00  0.00    -0.047 C 
ATOM      6  C   LIG d   1       1.357  84.434 110.777  0.00  0.00     0.091 C 
ENDROOT
BRANCH   1   7
ATOM      7  O   LIG d   1       0.156  82.299 110.844  0.00  0.00    -0.368 OA
BRANCH   7   8
ATOM      8  C   LIG d   1       0.746  81.108 111.419  0.00  0.00     0.119 C 
BRANCH   8   9
ATOM      9  C   LIG d   1      -0.259  79.955 111.229  0.00  0.00     0.028 C 
ATOM     10  C   LIG d   1      -0.033  79.191 109.914  0.00  0.00     0.006 C 
ENDBRANCH   8   9
BRANCH   8  11
ATOM     11  C   LIG d   1       0.921  81.248 112.934  0.00  0.00     0.028 C 
ATOM     12  C   LIG d   1       2.300  81.802 113.327  0.00  0.00     0.006 C 
ENDBRANCH   8  11
ENDBRANCH   7   8
ENDBRANCH   1   7
BRANCH   6  13
ATOM     13  N   LIG d   1       0.158  85.309 110.684  0.00  0.00    -0.311 N 
ATOM     14  C   LIG d   1      -0.192  86.175 111.633  0.00  0.00     0.210 C 
ATOM     15  C   LIG d   1      -1.474  86.964 111.346  0.00  0.00     0.109 C 
ATOM     16  O   LIG d   1       0.454  86.388 112.670  0.00  0.00    -0.276 OA
ATOM     17  H   LIG d   1      -0.406  85.223 109.861  0.00  0.00     0.149 HD
ENDBRANCH   6  13
BRANCH   5  18
ATOM     18  N   LIG d   1       3.032  86.308 110.958  0.00  0.00     0.381 N 
ATOM     19  H   LIG d   1       3.807  86.089 111.551  0.00  0.00    -0.090 HD
ATOM     20  H   LIG d   1       2.266  86.604 111.538  0.00  0.00    -0.090 HD
ATOM     21  H   LIG d   1       3.283  87.038 110.328  0.00  0.00    -0.090 HD
ENDBRANCH   5  18
BRANCH   3  22
ATOM     22  C   LIG d   1       4.502  82.146 109.100  0.00  0.00     0.382 C 
ATOM     23  O   LIG d   1       4.874  81.064 109.613  0.00  0.00    -0.241 OA
ATOM     24  O   LIG d   1       5.091  82.582 108.092  0.00  0.00    -0.241 OA
ENDBRANCH   3  22
TORSDOF 7
ENDMDL
