MODEL 1
REMARK VINA RESULT:      -6.7      0.000      0.000
REMARK  7 active torsions:
REMARK  status: ('A' for Active; 'I' for Inactive)
REMARK    1  A    between atoms: C_2  and  C_3 
REMARK    2  A    between atoms: C_3  and  O_6 
REMARK    3  A    between atoms: C_3  and  C_4 
REMARK    4  A    between atoms: C_7  and  O_6 
REMARK    5  A    between atoms: C_9  and  C_10 
REMARK    6  A    between atoms: N_15  and  C_14 
REMARK    7  A    between atoms: N_20  and  C_19 
REMARK       I    between atoms: C_22  and  N_20 
ROOT
ATOM      1  C   LIG d   1       0.935  83.943 109.624  0.00  0.00     0.161 C 
ATOM      2  C   LIG d   1       0.523  85.205 110.085  0.00  0.00     0.016 C 
ATOM      3  C   LIG d   1      -0.332  85.386 111.197  0.00  0.00     0.038 C 
ATOM      4  C   LIG d   1      -0.713  84.316 112.021  0.00  0.00     0.028 C 
ATOM      5  C   LIG d   1      -0.732  82.973 111.300  0.00  0.00    -0.047 C 
ATOM      6  C   LIG d   1       0.619  82.772 110.577  0.00  0.00     0.091 C 
ENDROOT
BRANCH   1   7
ATOM      7  O   LIG d   1       2.342  83.972 109.314  0.00  0.00    -0.368 OA
BRANCH   7   8
ATOM      8  C   LIG d   1       3.243  83.700 110.416  0.00  0.00     0.119 C 
BRANCH   8   9
ATOM      9  C   LIG d   1       3.893  85.036 110.824  0.00  0.00     0.028 C 
ATOM     10  C   LIG d   1       3.576  85.423 112.278  0.00  0.00     0.006 C 
ENDBRANCH   8   9
BRANCH   8  11
ATOM     11  C   LIG d   1       4.403  82.801 109.978  0.00  0.00     0.028 C 
ATOM     12  C   LIG d   1       4.181  82.175 108.592  0.00  0.00     0.006 C 
ENDBRANCH   8  11
ENDBRANCH   7   8
ENDBRANCH   1   7
BRANCH   6  13
ATOM     13  N   LIG d   1       0.653  81.520 109.777  0.00  0.00    -0.311 N 
ATOM     14  C   LIG d   1       1.391  80.460 110.104  0.00  0.00     0.210 C 
ATOM     15  C   LIG d   1       1.296  79.280 109.132  0.00  0.00     0.109 C 
ATOM     16  O   LIG d   1       2.091  80.374 111.125  0.00  0.00    -0.276 OA
ATOM     17  H   LIG d   1       0.091  81.492 108.949  0.00  0.00     0.149 HD
ENDBRANCH   6  13
BRANCH   5  18
ATOM     18  N   LIG d   1      -1.011  81.931 112.306  0.00  0.00     0.381 N 
ATOM     19  H   LIG d   1      -0.233  81.305 112.369  0.00  0.00    -0.090 HD
ATOM     20  H   LIG d   1      -1.816  81.405 112.014  0.00  0.00    -0.090 HD
ATOM     21  H   LIG d   1      -1.183  82.350 113.193  0.00  0.00    -0.090 HD
ENDBRANCH   5  18
BRANCH   3  22
ATOM     22  C   LIG d   1      -0.846  86.644 111.470  0.00  0.00     0.382 C 
ATOM     23  O   LIG d   1      -0.133  87.501 112.045  0.00  0.00    -0.241 OA
ATOM     24  O   LIG d   1      -2.028  86.918 111.190  0.00  0.00    -0.241 OA
ENDBRANCH   3  22
TORSDOF 7
ENDMDL
MODEL 2
REMARK VINA RESULT:      -6.4      2.423      4.726
REMARK  7 active torsions:
REMARK  status: ('A' for Active; 'I' for Inactive)
REMARK    1  A    between atoms: C_2  and  C_3 
REMARK    2  A    between atoms: C_3  and  O_6 
REMARK    3  A    between atoms: C_3  and  C_4 
REMARK    4  A    between atoms: C_7  and  O_6 
REMARK    5  A    between atoms: C_9  and  C_10 
REMARK    6  A    between atoms: N_15  and  C_14 
REMARK    7  A    between atoms: N_20  and  C_19 
REMARK       I    between atoms: C_22  and  N_20 
ROOT
ATOM      1  C   LIG d   1       1.124  81.809 112.114  0.00  0.00     0.161 C 
ATOM      2  C   LIG d   1       2.253  82.346 111.473  0.00  0.00     0.016 C 
ATOM      3  C   LIG d   1       2.509  82.193 110.091  0.00  0.00     0.038 C 
ATOM      4  C   LIG d   1       1.569  81.618 109.222  0.00  0.00     0.028 C 
ATOM      5  C   LIG d   1       0.646  80.616 109.906  0.00  0.00    -0.047 C 
ATOM      6  C   LIG d   1       0.033  81.275 111.163  0.00  0.00     0.091 C 
ENDROOT
BRANCH   1   7
ATOM      7  O   LIG d   1       0.566  82.783 113.018  0.00  0.00    -0.368 OA
BRANCH   7   8
ATOM      8  C   LIG d   1       0.736  84.172 112.642  0.00  0.00     0.119 C 
BRANCH   8   9
ATOM      9  C   LIG d   1       1.081  84.959 113.921  0.00  0.00     0.028 C 
ATOM     10  C   LIG d   1       1.434  86.427 113.630  0.00  0.00     0.006 C 
ENDBRANCH   8   9
BRANCH   8  11
ATOM     11  C   LIG d   1      -0.578  84.777 112.137  0.00  0.00     0.028 C 
ATOM     12  C   LIG d   1      -0.613  84.929 110.608  0.00  0.00     0.006 C 
ENDBRANCH   8  11
ENDBRANCH   7   8
ENDBRANCH   1   7
BRANCH   6  13
ATOM     13  N   LIG d   1      -0.818  80.334 111.937  0.00  0.00    -0.311 N 
ATOM     14  C   LIG d   1      -1.971  80.686 112.504  0.00  0.00     0.210 C 
ATOM     15  C   LIG d   1      -2.681  79.568 113.274  0.00  0.00     0.109 C 
ATOM     16  O   LIG d   1      -2.489  81.809 112.415  0.00  0.00    -0.276 OA
ATOM     17  H   LIG d   1      -0.489  79.394 112.033  0.00  0.00     0.149 HD
ENDBRANCH   6  13
BRANCH   5  18
ATOM     18  N   LIG d   1      -0.368  80.199 108.919  0.00  0.00     0.381 N 
ATOM     19  H   LIG d   1      -1.211  79.936 109.389  0.00  0.00    -0.090 HD
ATOM     20  H   LIG d   1      -0.024  79.398 108.418  0.00  0.00    -0.090 HD
ATOM     21  H   LIG d   1      -0.552  80.944 108.283  0.00  0.00    -0.090 HD
ENDBRANCH   5  18
BRANCH   3  22
ATOM     22  C   LIG d   1       3.734  82.583 109.572  0.00  0.00     0.382 C 
ATOM     23  O   LIG d   1       4.476  83.354 110.227  0.00  0.00    -0.241 OA
ATOM     24  O   LIG d   1       4.087  82.209 108.437  0.00  0.00    -0.241 OA
ENDBRANCH   3  22
TORSDOF 7
ENDMDL
MODEL 3
REMARK VINA RESULT:      -6.3      2.407      4.730
REMARK  7 active torsions:
REMARK  status: ('A' for Active; 'I' for Inactive)
REMARK    1  A    between atoms: C_2  and  C_3 
REMARK    2  A    between atoms: C_3  and  O_6 
REMARK    3  A    between atoms: C_3  and  C_4 
REMARK    4  A    between atoms: C_7  and  O_6 
REMARK    5  A    between atoms: C_9  and  C_10 
REMARK    6  A    between atoms: N_15  and  C_14 
REMARK    7  A    between atoms: N_20  and  C_19 
REMARK       I    between atoms: C_22  and  N_20 
ROOT
ATOM      1  C   LIG d   1       0.198  82.324 111.096  0.00  0.00     0.161 C 
ATOM      2  C   LIG d   1      -0.291  81.561 112.170  0.00  0.00     0.016 C 
ATOM      3  C   LIG d   1      -0.459  80.158 112.115  0.00  0.00     0.038 C 
ATOM      4  C   LIG d   1      -0.003  79.399 111.028  0.00  0.00     0.028 C 
ATOM      5  C   LIG d   1       0.034  80.178 109.718  0.00  0.00    -0.047 C 
ATOM      6  C   LIG d   1       0.805  81.500 109.942  0.00  0.00     0.091 C 
ENDROOT
BRANCH   1   7
ATOM      7  O   LIG d   1       1.153  83.290 111.578  0.00  0.00    -0.368 OA
BRANCH   7   8
ATOM      8  C   LIG d   1       0.766  84.681 111.464  0.00  0.00     0.119 C 
BRANCH   8   9
ATOM      9  C   LIG d   1      -0.624  84.721 110.799  0.00  0.00     0.028 C 
ATOM     10  C   LIG d   1      -0.698  85.747 109.656  0.00  0.00     0.006 C 
ENDBRANCH   8   9
BRANCH   8  11
ATOM     11  C   LIG d   1       1.694  85.441 110.511  0.00  0.00     0.028 C 
ATOM     12  C   LIG d   1       3.174  85.076 110.704  0.00  0.00     0.006 C 
ENDBRANCH   8  11
ENDBRANCH   7   8
ENDBRANCH   1   7
BRANCH   6  13
ATOM     13  N   LIG d   1       0.816  82.362 108.731  0.00  0.00    -0.311 N 
ATOM     14  C   LIG d   1       1.924  82.666 108.058  0.00  0.00     0.210 C 
ATOM     15  C   LIG d   1       1.715  83.586 106.851  0.00  0.00     0.109 C 
ATOM     16  O   LIG d   1       3.056  82.237 108.327  0.00  0.00    -0.276 OA
ATOM     17  H   LIG d   1      -0.064  82.728 108.424  0.00  0.00     0.149 HD
ENDBRANCH   6  13
BRANCH   5  18
ATOM     18  N   LIG d   1       0.657  79.311 108.700  0.00  0.00     0.381 N 
ATOM     19  H   LIG d   1       1.057  78.506 109.140  0.00  0.00    -0.090 HD
ATOM     20  H   LIG d   1       1.395  79.820 108.246  0.00  0.00    -0.090 HD
ATOM     21  H   LIG d   1      -0.023  79.029 108.030  0.00  0.00    -0.090 HD
ENDBRANCH   5  18
BRANCH   3  22
ATOM     22  C   LIG d   1      -1.126  79.506 113.141  0.00  0.00     0.382 C 
ATOM     23  O   LIG d   1      -1.773  78.459 112.901  0.00  0.00    -0.241 OA
ATOM     24  O   LIG d   1      -1.124  79.975 114.295  0.00  0.00    -0.241 OA
ENDBRANCH   3  22
TORSDOF 7
ENDMDL
MODEL 4
REMARK VINA RESULT:      -6.1      2.558      4.267
REMARK  7 active torsions:
REMARK  status: ('A' for Active; 'I' for Inactive)
REMARK    1  A    between atoms: C_2  and  C_3 
REMARK    2  A    between atoms: C_3  and  O_6 
REMARK    3  A    between atoms: C_3  and  C_4 
REMARK    4  A    between atoms: C_7  and  O_6 
REMARK    5  A    between atoms: C_9  and  C_10 
REMARK    6  A    between atoms: N_15  and  C_14 
REMARK    7  A    between atoms: N_20  and  C_19 
REMARK       I    between atoms: C_22  and  N_20 
ROOT
ATOM      1  C   LIG d   1      -0.024  82.614 111.305  0.00  0.00     0.161 C 
ATOM      2  C   LIG d   1      -1.155  82.320 112.085  0.00  0.00     0.016 C 
ATOM      3  C   LIG d   1      -1.602  81.004 112.341  0.00  0.00     0.038 C 
ATOM      4  C   LIG d   1      -0.857  79.879 111.958  0.00  0.00     0.028 C 
ATOM      5  C   LIG d   1       0.023  80.124 110.736  0.00  0.00    -0.047 C 
ATOM      6  C   LIG d   1       0.865  81.398 110.971  0.00  0.00     0.091 C 
ENDROOT
BRANCH   1   7
ATOM      7  O   LIG d   1       0.755  83.645 111.943  0.00  0.00    -0.368 OA
BRANCH   7   8
ATOM      8  C   LIG d   1       0.770  84.934 111.283  0.00  0.00     0.119 C 
BRANCH   8   9
ATOM      9  C   LIG d   1       0.056  85.937 112.211  0.00  0.00     0.028 C 
ATOM     10  C   LIG d   1      -1.168  86.585 111.542  0.00  0.00     0.006 C 
ENDBRANCH   8   9
BRANCH   8  11
ATOM     11  C   LIG d   1      -0.060  84.911 109.996  0.00  0.00     0.028 C 
ATOM     12  C   LIG d   1       0.791  85.129 108.735  0.00  0.00     0.006 C 
ENDBRANCH   8  11
ENDBRANCH   7   8
ENDBRANCH   1   7
BRANCH   6  13
ATOM     13  N   LIG d   1       1.692  81.757 109.789  0.00  0.00    -0.311 N 
ATOM     14  C   LIG d   1       3.006  81.967 109.850  0.00  0.00     0.210 C 
ATOM     15  C   LIG d   1       3.662  82.346 108.519  0.00  0.00     0.109 C 
ATOM     16  O   LIG d   1       3.695  81.844 110.874  0.00  0.00    -0.276 OA
ATOM     17  H   LIG d   1       1.218  81.847 108.911  0.00  0.00     0.149 HD
ENDBRANCH   6  13
BRANCH   5  18
ATOM     18  N   LIG d   1       0.845  78.917 110.530  0.00  0.00     0.381 N 
ATOM     19  H   LIG d   1       1.775  79.180 110.270  0.00  0.00    -0.090 HD
ATOM     20  H   LIG d   1       0.449  78.377 109.781  0.00  0.00    -0.090 HD
ATOM     21  H   LIG d   1       0.868  78.373 111.365  0.00  0.00    -0.090 HD
ENDBRANCH   5  18
BRANCH   3  22
ATOM     22  C   LIG d   1      -2.830  80.802 112.955  0.00  0.00     0.382 C 
ATOM     23  O   LIG d   1      -2.988  79.834 113.737  0.00  0.00    -0.241 OA
ATOM     24  O   LIG d   1      -3.793  81.550 112.701  0.00  0.00    -0.241 OA
ENDBRANCH   3  22
TORSDOF 7
ENDMDL
MODEL 5
REMARK VINA RESULT:      -6.0      2.362      3.365
REMARK  7 active torsions:
REMARK  status: ('A' for Active; 'I' for Inactive)
REMARK    1  A    between atoms: C_2  and  C_3 
REMARK    2  A    between atoms: C_3  and  O_6 
REMARK    3  A    between atoms: C_3  and  C_4 
REMARK    4  A    between atoms: C_7  and  O_6 
REMARK    5  A    between atoms: C_9  and  C_10 
REMARK    6  A    between atoms: N_15  and  C_14 
REMARK    7  A    between atoms: N_20  and  C_19 
REMARK       I    between atoms: C_22  and  N_20 
ROOT
ATOM      1  C   LIG d   1       1.802  84.862 111.400  0.00  0.00     0.161 C 
ATOM      2  C   LIG d   1       2.257  86.179 111.578  0.00  0.00     0.016 C 
ATOM      3  C   LIG d   1       2.431  86.777 112.847  0.00  0.00     0.038 C 
ATOM      4  C   LIG d   1       2.306  86.043 114.036  0.00  0.00     0.028 C 
ATOM      5  C   LIG d   1       1.359  84.853 113.916  0.00  0.00    -0.047 C 
ATOM      6  C   LIG d   1       1.766  84.010 112.686  0.00  0.00     0.091 C 
ENDROOT
BRANCH   1   7
ATOM      7  O   LIG d   1       2.589  84.206 110.386  0.00  0.00    -0.368 OA
BRANCH   7   8
ATOM      8  C   LIG d   1       1.859  83.373 109.451  0.00  0.00     0.119 C 
BRANCH   8   9
ATOM      9  C   LIG d   1       2.876  82.429 108.781  0.00  0.00     0.028 C 
ATOM     10  C   LIG d   1       4.298  82.606 109.339  0.00  0.00     0.006 C 
ENDBRANCH   8   9
BRANCH   8  11
ATOM     11  C   LIG d   1       1.265  84.205 108.311  0.00  0.00     0.028 C 
ATOM     12  C   LIG d   1       1.445  83.545 106.935  0.00  0.00     0.006 C 
ENDBRANCH   8  11
ENDBRANCH   7   8
ENDBRANCH   1   7
BRANCH   6  13
ATOM     13  N   LIG d   1       0.840  82.873 112.447  0.00  0.00    -0.311 N 
ATOM     14  C   LIG d   1       1.248  81.613 112.303  0.00  0.00     0.210 C 
ATOM     15  C   LIG d   1       0.130  80.597 112.044  0.00  0.00     0.109 C 
ATOM     16  O   LIG d   1       2.425  81.236 112.397  0.00  0.00    -0.276 OA
ATOM     17  H   LIG d   1      -0.137  83.085 112.388  0.00  0.00     0.149 HD
ENDBRANCH   6  13
BRANCH   5  18
ATOM     18  N   LIG d   1       1.429  84.099 115.182  0.00  0.00     0.381 N 
ATOM     19  H   LIG d   1       0.518  84.038 115.591  0.00  0.00    -0.090 HD
ATOM     20  H   LIG d   1       2.029  84.591 115.821  0.00  0.00    -0.090 HD
ATOM     21  H   LIG d   1       1.787  83.185 115.015  0.00  0.00    -0.090 HD
ENDBRANCH   5  18
BRANCH   3  22
ATOM     22  C   LIG d   1       2.697  88.135 112.936  0.00  0.00     0.382 C 
ATOM     23  O   LIG d   1       3.883  88.541 112.967  0.00  0.00    -0.241 OA
ATOM     24  O   LIG d   1       1.765  88.956 113.031  0.00  0.00    -0.241 OA
ENDBRANCH   3  22
TORSDOF 7
ENDMDL
MODEL 6
REMARK VINA RESULT:      -5.8      2.341      3.002
REMARK  7 active torsions:
REMARK  status: ('A' for Active; 'I' for Inactive)
REMARK    1  A    between atoms: C_2  and  C_3 
REMARK    2  A    between atoms: C_3  and  O_6 
REMARK    3  A    between atoms: C_3  and  C_4 
REMARK    4  A    between atoms: C_7  and  O_6 
REMARK    5  A    between atoms: C_9  and  C_10 
REMARK    6  A    between atoms: N_15  and  C_14 
REMARK    7  A    between atoms: N_20  and  C_19 
REMARK       I    between atoms: C_22  and  N_20 
ROOT
ATOM      1  C   LIG d   1       0.879  82.915 110.985  0.00  0.00     0.161 C 
ATOM      2  C   LIG d   1       1.095  84.297 110.860  0.00  0.00     0.016 C 
ATOM      3  C   LIG d   1       1.485  85.125 111.938  0.00  0.00     0.038 C 
ATOM      4  C   LIG d   1       1.833  84.596 113.190  0.00  0.00     0.028 C 
ATOM      5  C   LIG d   1       1.144  83.272 113.501  0.00  0.00    -0.047 C 
ATOM      6  C   LIG d   1       1.361  82.303 112.317  0.00  0.00     0.091 C 
ENDROOT
BRANCH   1   7
ATOM      7  O   LIG d   1       1.476  82.224 109.870  0.00  0.00    -0.368 OA
BRANCH   7   8
ATOM      8  C   LIG d   1       2.619  82.871 109.258  0.00  0.00     0.119 C 
BRANCH   8   9
ATOM      9  C   LIG d   1       2.499  82.676 107.734  0.00  0.00     0.028 C 
ATOM     10  C   LIG d   1       1.373  83.524 107.120  0.00  0.00     0.006 C 
ENDBRANCH   8   9
BRANCH   8  11
ATOM     11  C   LIG d   1       3.928  82.181 109.653  0.00  0.00     0.028 C 
ATOM     12  C   LIG d   1       3.761  80.669 109.876  0.00  0.00     0.006 C 
ENDBRANCH   8  11
ENDBRANCH   7   8
ENDBRANCH   1   7
BRANCH   6  13
ATOM     13  N   LIG d   1       0.649  81.012 112.502  0.00  0.00    -0.311 N 
ATOM     14  C   LIG d   1      -0.677  80.893 112.461  0.00  0.00     0.210 C 
ATOM     15  C   LIG d   1      -1.207  79.476 112.698  0.00  0.00     0.109 C 
ATOM     16  O   LIG d   1      -1.463  81.822 112.220  0.00  0.00    -0.276 OA
ATOM     17  H   LIG d   1       1.211  80.201 112.672  0.00  0.00     0.149 HD
ENDBRANCH   6  13
BRANCH   5  18
ATOM     18  N   LIG d   1       1.702  82.767 114.770  0.00  0.00     0.381 N 
ATOM     19  H   LIG d   1       2.249  83.481 115.208  0.00  0.00    -0.090 HD
ATOM     20  H   LIG d   1       2.302  81.986 114.574  0.00  0.00    -0.090 HD
ATOM     21  H   LIG d   1       0.964  82.484 115.378  0.00  0.00    -0.090 HD
ENDBRANCH   5  18
BRANCH   3  22
ATOM     22  C   LIG d   1       1.490  86.502 111.780  0.00  0.00     0.382 C 
ATOM     23  O   LIG d   1       2.426  87.058 111.157  0.00  0.00    -0.241 OA
ATOM     24  O   LIG d   1       0.594  87.200 112.291  0.00  0.00    -0.241 OA
ENDBRANCH   3  22
TORSDOF 7
ENDMDL
MODEL 7
REMARK VINA RESULT:      -5.7      2.651      3.873
REMARK  7 active torsions:
REMARK  status: ('A' for Active; 'I' for Inactive)
REMARK    1  A    between atoms: C_2  and  C_3 
REMARK    2  A    between atoms: C_3  and  O_6 
REMARK    3  A    between atoms: C_3  and  C_4 
REMARK    4  A    between atoms: C_7  and  O_6 
REMARK    5  A    between atoms: C_9  and  C_10 
REMARK    6  A    between atoms: N_15  and  C_14 
REMARK    7  A    between atoms: N_20  and  C_19 
REMARK       I    between atoms: C_22  and  N_20 
ROOT
ATOM      1  C   LIG d   1       1.526  85.269 112.168  0.00  0.00     0.161 C 
ATOM      2  C   LIG d   1       1.960  86.580 112.428  0.00  0.00     0.016 C 
ATOM      3  C   LIG d   1       2.342  87.033 113.711  0.00  0.00     0.038 C 
ATOM      4  C   LIG d   1       2.462  86.158 114.801  0.00  0.00     0.028 C 
ATOM      5  C   LIG d   1       1.551  84.938 114.702  0.00  0.00    -0.047 C 
ATOM      6  C   LIG d   1       1.756  84.271 113.322  0.00  0.00     0.091 C 
ENDROOT
BRANCH   1   7
ATOM      7  O   LIG d   1       2.138  84.783 110.957  0.00  0.00    -0.368 OA
BRANCH   7   8
ATOM      8  C   LIG d   1       1.277  84.708 109.794  0.00  0.00     0.119 C 
BRANCH   8   9
ATOM      9  C   LIG d   1      -0.180  84.686 110.297  0.00  0.00     0.028 C 
ATOM     10  C   LIG d   1      -1.019  85.835 109.713  0.00  0.00     0.006 C 
ENDBRANCH   8   9
BRANCH   8  11
ATOM     11  C   LIG d   1       1.467  83.386 109.044  0.00  0.00     0.028 C 
ATOM     12  C   LIG d   1       1.390  83.550 107.518  0.00  0.00     0.006 C 
ENDBRANCH   8  11
ENDBRANCH   7   8
ENDBRANCH   1   7
BRANCH   6  13
ATOM     13  N   LIG d   1       0.842  83.119 113.109  0.00  0.00    -0.311 N 
ATOM     14  C   LIG d   1       1.249  81.935 112.654  0.00  0.00     0.210 C 
ATOM     15  C   LIG d   1       0.140  80.890 112.488  0.00  0.00     0.109 C 
ATOM     16  O   LIG d   1       2.427  81.641 112.402  0.00  0.00    -0.276 OA
ATOM     17  H   LIG d   1      -0.127  83.260 113.318  0.00  0.00     0.149 HD
ENDBRANCH   6  13
BRANCH   5  18
ATOM     18  N   LIG d   1       1.877  84.046 115.830  0.00  0.00     0.381 N 
ATOM     19  H   LIG d   1       1.352  83.198 115.753  0.00  0.00    -0.090 HD
ATOM     20  H   LIG d   1       1.620  84.500 116.688  0.00  0.00    -0.090 HD
ATOM     21  H   LIG d   1       2.852  83.842 115.833  0.00  0.00    -0.090 HD
ENDBRANCH   5  18
BRANCH   3  22
ATOM     22  C   LIG d   1       2.572  88.384 113.923  0.00  0.00     0.382 C 
ATOM     23  O   LIG d   1       1.938  88.995 114.816  0.00  0.00    -0.241 OA
ATOM     24  O   LIG d   1       3.372  89.009 113.202  0.00  0.00    -0.241 OA
ENDBRANCH   3  22
TORSDOF 7
ENDMDL
MODEL 8
REMARK VINA RESULT:      -5.6      1.882      3.326
REMARK  7 active torsions:
REMARK  status: ('A' for Active; 'I' for Inactive)
REMARK    1  A    between atoms: C_2  and  C_3 
REMARK    2  A    between atoms: C_3  and  O_6 
REMARK    3  A    between atoms: C_3  and  C_4 
REMARK    4  A    between atoms: C_7  and  O_6 
REMARK    5  A    between atoms: C_9  and  C_10 
REMARK    6  A    between atoms: N_15  and  C_14 
REMARK    7  A    between atoms: N_20  and  C_19 
REMARK       I    between atoms: C_22  and  N_20 
ROOT
ATOM      1  C   LIG d   1       0.432  83.231 110.710  0.00  0.00     0.161 C 
ATOM      2  C   LIG d   1      -0.348  84.203 111.360  0.00  0.00     0.016 C 
ATOM      3  C   LIG d   1      -0.686  85.446 110.778  0.00  0.00     0.038 C 
ATOM      4  C   LIG d   1      -0.391  85.742 109.438  0.00  0.00     0.028 C 
ATOM      5  C   LIG d   1       0.829  84.998 108.908  0.00  0.00    -0.047 C 
ATOM      6  C   LIG d   1       0.668  83.490 109.208  0.00  0.00     0.091 C 
ENDROOT
BRANCH   1   7
ATOM      7  O   LIG d   1      -0.149  81.927 110.909  0.00  0.00    -0.368 OA
BRANCH   7   8
ATOM      8  C   LIG d   1       0.665  80.971 111.632  0.00  0.00     0.119 C 
BRANCH   8   9
ATOM      9  C   LIG d   1       1.819  81.750 112.291  0.00  0.00     0.028 C 
ATOM     10  C   LIG d   1       1.640  81.889 113.812  0.00  0.00     0.006 C 
ENDBRANCH   8   9
BRANCH   8  11
ATOM     11  C   LIG d   1       1.338  79.978 110.680  0.00  0.00     0.028 C 
ATOM     12  C   LIG d   1       0.375  79.428 109.615  0.00  0.00     0.006 C 
ENDBRANCH   8  11
ENDBRANCH   7   8
ENDBRANCH   1   7
BRANCH   6  13
ATOM     13  N   LIG d   1       1.857  82.700 108.796  0.00  0.00    -0.311 N 
ATOM     14  C   LIG d   1       3.097  82.982 109.192  0.00  0.00     0.210 C 
ATOM     15  C   LIG d   1       4.181  82.053 108.636  0.00  0.00     0.109 C 
ATOM     16  O   LIG d   1       3.399  83.894 109.976  0.00  0.00    -0.276 OA
ATOM     17  H   LIG d   1       1.699  81.923 108.185  0.00  0.00     0.149 HD
ENDBRANCH   6  13
BRANCH   5  18
ATOM     18  N   LIG d   1       0.939  85.293 107.467  0.00  0.00     0.381 N 
ATOM     19  H   LIG d   1       0.266  84.754 106.959  0.00  0.00    -0.090 HD
ATOM     20  H   LIG d   1       1.856  85.031 107.150  0.00  0.00    -0.090 HD
ATOM     21  H   LIG d   1       0.789  86.264 107.304  0.00  0.00    -0.090 HD
ENDBRANCH   5  18
BRANCH   3  22
ATOM     22  C   LIG d   1      -1.291  86.425 111.551  0.00  0.00     0.382 C 
ATOM     23  O   LIG d   1      -1.059  86.484 112.782  0.00  0.00    -0.241 OA
ATOM     24  O   LIG d   1      -2.100  87.223 111.040  0.00  0.00    -0.241 OA
ENDBRANCH   3  22
TORSDOF 7
ENDMDL
MODEL 9
REMARK VINA RESULT:      -5.5      3.071      4.257
REMARK  7 active torsions:
REMARK  status: ('A' for Active; 'I' for Inactive)
REMARK    1  A    between atoms: C_2  and  C_3 
REMARK    2  A    between atoms: C_3  and  O_6 
REMARK    3  A    between atoms: C_3  and  C_4 
REMARK    4  A    between atoms: C_7  and  O_6 
REMARK    5  A    between atoms: C_9  and  C_10 
REMARK    6  A    between atoms: N_15  and  C_14 
REMARK    7  A    between atoms: N_20  and  C_19 
REMARK       I    between atoms: C_22  and  N_20 
ROOT
ATOM      1  C   LIG d   1       3.223  85.179 112.107  0.00  0.00     0.161 C 
ATOM      2  C   LIG d   1       3.913  86.395 112.240  0.00  0.00     0.016 C 
ATOM      3  C   LIG d   1       3.857  87.199 113.401  0.00  0.00     0.038 C 
ATOM      4  C   LIG d   1       3.223  86.764 114.574  0.00  0.00     0.028 C 
ATOM      5  C   LIG d   1       2.092  85.774 114.320  0.00  0.00    -0.047 C 
ATOM      6  C   LIG d   1       2.616  84.634 113.417  0.00  0.00     0.091 C 
ENDROOT
BRANCH   1   7
ATOM      7  O   LIG d   1       4.084  84.191 111.505  0.00  0.00    -0.368 OA
BRANCH   7   8
ATOM      8  C   LIG d   1       3.699  83.730 110.187  0.00  0.00     0.119 C 
BRANCH   8   9
ATOM      9  C   LIG d   1       2.352  84.392 109.839  0.00  0.00     0.028 C 
ATOM     10  C   LIG d   1       1.558  83.592 108.793  0.00  0.00     0.006 C 
ENDBRANCH   8   9
BRANCH   8  11
ATOM     11  C   LIG d   1       3.424  82.223 110.182  0.00  0.00     0.028 C 
ATOM     12  C   LIG d   1       4.327  81.455 109.205  0.00  0.00     0.006 C 
ENDBRANCH   8  11
ENDBRANCH   7   8
ENDBRANCH   1   7
BRANCH   6  13
ATOM     13  N   LIG d   1       1.550  83.666 113.050  0.00  0.00    -0.311 N 
ATOM     14  C   LIG d   1       1.629  82.359 113.297  0.00  0.00     0.210 C 
ATOM     15  C   LIG d   1       0.429  81.536 112.818  0.00  0.00     0.109 C 
ATOM     16  O   LIG d   1       2.566  81.808 113.895  0.00  0.00    -0.276 OA
ATOM     17  H   LIG d   1       0.740  84.032 112.589  0.00  0.00     0.149 HD
ENDBRANCH   6  13
BRANCH   5  18
ATOM     18  N   LIG d   1       1.612  85.299 115.631  0.00  0.00     0.381 N 
ATOM     19  H   LIG d   1       2.296  85.495 116.334  0.00  0.00    -0.090 HD
ATOM     20  H   LIG d   1       1.480  84.304 115.588  0.00  0.00    -0.090 HD
ATOM     21  H   LIG d   1       0.751  85.745 115.861  0.00  0.00    -0.090 HD
ENDBRANCH   5  18
BRANCH   3  22
ATOM     22  C   LIG d   1       4.407  88.472 113.383  0.00  0.00     0.382 C 
ATOM     23  O   LIG d   1       5.643  88.619 113.229  0.00  0.00    -0.241 OA
ATOM     24  O   LIG d   1       3.688  89.473 113.563  0.00  0.00    -0.241 OA
ENDBRANCH   3  22
TORSDOF 7
ENDMDL
