MODEL 1
REMARK VINA RESULT:      -6.9      0.000      0.000
REMARK  7 active torsions:
REMARK  status: ('A' for Active; 'I' for Inactive)
REMARK    1  A    between atoms: C_2  and  C_3 
REMARK    2  A    between atoms: C_3  and  O_6 
REMARK    3  A    between atoms: C_3  and  C_4 
REMARK    4  A    between atoms: C_7  and  O_6 
REMARK    5  A    between atoms: C_9  and  C_10 
REMARK    6  A    between atoms: N_15  and  C_14 
REMARK    7  A    between atoms: N_20  and  C_19 
REMARK       I    between atoms: C_22  and  N_20 
ROOT
ATOM      1  C   LIG d   1       0.747  82.442 111.341  0.00  0.00     0.161 C 
ATOM      2  C   LIG d   1      -0.421  82.276 112.103  0.00  0.00     0.016 C 
ATOM      3  C   LIG d   1      -0.989  81.014 112.392  0.00  0.00     0.038 C 
ATOM      4  C   LIG d   1      -0.338  79.816 112.063  0.00  0.00     0.028 C 
ATOM      5  C   LIG d   1       0.584  79.939 110.855  0.00  0.00    -0.047 C 
ATOM      6  C   LIG d   1       1.532  81.142 111.068  0.00  0.00     0.091 C 
ENDROOT
BRANCH   1   7
ATOM      7  O   LIG d   1       1.602  83.421 111.964  0.00  0.00    -0.368 OA
BRANCH   7   8
ATOM      8  C   LIG d   1       1.695  84.704 111.296  0.00  0.00     0.119 C 
BRANCH   8   9
ATOM      9  C   LIG d   1       1.001  84.564 109.927  0.00  0.00     0.028 C 
ATOM     10  C   LIG d   1       0.488  85.910 109.389  0.00  0.00     0.006 C 
ENDBRANCH   8   9
BRANCH   8  11
ATOM     11  C   LIG d   1       3.149  85.063 110.978  0.00  0.00     0.028 C 
ATOM     12  C   LIG d   1       3.592  86.385 111.626  0.00  0.00     0.006 C 
ENDBRANCH   8  11
ENDBRANCH   7   8
ENDBRANCH   1   7
BRANCH   6  13
ATOM     13  N   LIG d   1       2.412  81.385 109.895  0.00  0.00    -0.311 N 
ATOM     14  C   LIG d   1       3.729  81.555 109.990  0.00  0.00     0.210 C 
ATOM     15  C   LIG d   1       4.445  81.813 108.660  0.00  0.00     0.109 C 
ATOM     16  O   LIG d   1       4.377  81.484 111.045  0.00  0.00    -0.276 OA
ATOM     17  H   LIG d   1       1.972  81.426 108.996  0.00  0.00     0.149 HD
ENDBRANCH   6  13
BRANCH   5  18
ATOM     18  N   LIG d   1       1.301  78.658 110.709  0.00  0.00     0.381 N 
ATOM     19  H   LIG d   1       0.876  77.964 111.291  0.00  0.00    -0.090 HD
ATOM     20  H   LIG d   1       2.252  78.781 111.008  0.00  0.00    -0.090 HD
ATOM     21  H   LIG d   1       1.280  78.362 109.758  0.00  0.00    -0.090 HD
ENDBRANCH   5  18
BRANCH   3  22
ATOM     22  C   LIG d   1      -2.242  80.943 112.982  0.00  0.00     0.382 C 
ATOM     23  O   LIG d   1      -3.166  81.691 112.583  0.00  0.00    -0.241 OA
ATOM     24  O   LIG d   1      -2.447  80.172 113.938  0.00  0.00    -0.241 OA
ENDBRANCH   3  22
TORSDOF 7
ENDMDL
MODEL 2
REMARK VINA RESULT:      -6.7      2.356      4.891
REMARK  7 active torsions:
REMARK  status: ('A' for Active; 'I' for Inactive)
REMARK    1  A    between atoms: C_2  and  C_3 
REMARK    2  A    between atoms: C_3  and  O_6 
REMARK    3  A    between atoms: C_3  and  C_4 
REMARK    4  A    between atoms: C_7  and  O_6 
REMARK    5  A    between atoms: C_9  and  C_10 
REMARK    6  A    between atoms: N_15  and  C_14 
REMARK    7  A    between atoms: N_20  and  C_19 
REMARK       I    between atoms: C_22  and  N_20 
ROOT
ATOM      1  C   LIG d   1       1.586  83.279 109.763  0.00  0.00     0.161 C 
ATOM      2  C   LIG d   1       1.710  84.653 110.030  0.00  0.00     0.016 C 
ATOM      3  C   LIG d   1       0.921  85.335 110.985  0.00  0.00     0.038 C 
ATOM      4  C   LIG d   1       0.053  84.654 111.851  0.00  0.00     0.028 C 
ATOM      5  C   LIG d   1      -0.473  83.343 111.276  0.00  0.00    -0.047 C 
ATOM      6  C   LIG d   1       0.722  82.499 110.777  0.00  0.00     0.091 C 
ENDROOT
BRANCH   1   7
ATOM      7  O   LIG d   1       2.894  82.683 109.656  0.00  0.00    -0.368 OA
BRANCH   7   8
ATOM      8  C   LIG d   1       3.407  82.051 110.854  0.00  0.00     0.119 C 
BRANCH   8   9
ATOM      9  C   LIG d   1       4.276  83.089 111.589  0.00  0.00     0.028 C 
ATOM     10  C   LIG d   1       3.635  83.568 112.903  0.00  0.00     0.006 C 
ENDBRANCH   8   9
BRANCH   8  11
ATOM     11  C   LIG d   1       4.354  80.897 110.514  0.00  0.00     0.028 C 
ATOM     12  C   LIG d   1       3.651  79.747 109.774  0.00  0.00     0.006 C 
ENDBRANCH   8  11
ENDBRANCH   7   8
ENDBRANCH   1   7
BRANCH   6  13
ATOM     13  N   LIG d   1       0.291  81.237 110.122  0.00  0.00    -0.311 N 
ATOM     14  C   LIG d   1       0.212  80.070 110.759  0.00  0.00     0.210 C 
ATOM     15  C   LIG d   1      -0.235  78.889 109.893  0.00  0.00     0.109 C 
ATOM     16  O   LIG d   1       0.440  79.907 111.968  0.00  0.00    -0.276 OA
ATOM     17  H   LIG d   1       0.057  81.284 109.150  0.00  0.00     0.149 HD
ENDBRANCH   6  13
BRANCH   5  18
ATOM     18  N   LIG d   1      -1.252  82.673 112.333  0.00  0.00     0.381 N 
ATOM     19  H   LIG d   1      -0.632  82.251 112.995  0.00  0.00    -0.090 HD
ATOM     20  H   LIG d   1      -1.810  81.948 111.916  0.00  0.00    -0.090 HD
ATOM     21  H   LIG d   1      -1.842  83.332 112.793  0.00  0.00    -0.090 HD
ENDBRANCH   5  18
BRANCH   3  22
ATOM     22  C   LIG d   1       0.967  86.719 111.053  0.00  0.00     0.382 C 
ATOM     23  O   LIG d   1       2.023  87.326 110.753  0.00  0.00    -0.241 OA
ATOM     24  O   LIG d   1      -0.020  87.365 111.452  0.00  0.00    -0.241 OA
ENDBRANCH   3  22
TORSDOF 7
ENDMDL
MODEL 3
REMARK VINA RESULT:      -6.4      2.905      4.063
REMARK  7 active torsions:
REMARK  status: ('A' for Active; 'I' for Inactive)
REMARK    1  A    between atoms: C_2  and  C_3 
REMARK    2  A    between atoms: C_3  and  O_6 
REMARK    3  A    between atoms: C_3  and  C_4 
REMARK    4  A    between atoms: C_7  and  O_6 
REMARK    5  A    between atoms: C_9  and  C_10 
REMARK    6  A    between atoms: N_15  and  C_14 
REMARK    7  A    between atoms: N_20  and  C_19 
REMARK       I    between atoms: C_22  and  N_20 
ROOT
ATOM      1  C   LIG d   1       2.342  85.296 110.763  0.00  0.00     0.161 C 
ATOM      2  C   LIG d   1       1.246  86.041 111.231  0.00  0.00     0.016 C 
ATOM      3  C   LIG d   1      -0.042  85.491 111.427  0.00  0.00     0.038 C 
ATOM      4  C   LIG d   1      -0.285  84.114 111.310  0.00  0.00     0.028 C 
ATOM      5  C   LIG d   1       0.669  83.409 110.353  0.00  0.00    -0.047 C 
ATOM      6  C   LIG d   1       2.122  83.769 110.737  0.00  0.00     0.091 C 
ENDROOT
BRANCH   1   7
ATOM      7  O   LIG d   1       3.517  85.621 111.532  0.00  0.00    -0.368 OA
BRANCH   7   8
ATOM      8  C   LIG d   1       3.298  86.406 112.730  0.00  0.00     0.119 C 
BRANCH   8   9
ATOM      9  C   LIG d   1       4.372  87.511 112.762  0.00  0.00     0.028 C 
ATOM     10  C   LIG d   1       4.502  88.163 114.149  0.00  0.00     0.006 C 
ENDBRANCH   8   9
BRANCH   8  11
ATOM     11  C   LIG d   1       3.535  85.574 113.993  0.00  0.00     0.028 C 
ATOM     12  C   LIG d   1       2.228  85.118 114.660  0.00  0.00     0.006 C 
ENDBRANCH   8  11
ENDBRANCH   7   8
ENDBRANCH   1   7
BRANCH   6  13
ATOM     13  N   LIG d   1       3.118  83.188 109.799  0.00  0.00    -0.311 N 
ATOM     14  C   LIG d   1       4.021  82.278 110.160  0.00  0.00     0.210 C 
ATOM     15  C   LIG d   1       4.965  81.825 109.042  0.00  0.00     0.109 C 
ATOM     16  O   LIG d   1       4.108  81.778 111.292  0.00  0.00    -0.276 OA
ATOM     17  H   LIG d   1       3.097  83.514 108.853  0.00  0.00     0.149 HD
ENDBRANCH   6  13
BRANCH   5  18
ATOM     18  N   LIG d   1       0.392  81.962 110.433  0.00  0.00     0.381 N 
ATOM     19  H   LIG d   1      -0.436  81.805 110.973  0.00  0.00    -0.090 HD
ATOM     20  H   LIG d   1       1.161  81.509 110.895  0.00  0.00    -0.090 HD
ATOM     21  H   LIG d   1       0.277  81.586 109.518  0.00  0.00    -0.090 HD
ENDBRANCH   5  18
BRANCH   3  22
ATOM     22  C   LIG d   1      -1.111  86.328 111.704  0.00  0.00     0.382 C 
ATOM     23  O   LIG d   1      -1.579  86.384 112.867  0.00  0.00    -0.241 OA
ATOM     24  O   LIG d   1      -1.644  86.995 110.796  0.00  0.00    -0.241 OA
ENDBRANCH   3  22
TORSDOF 7
ENDMDL
MODEL 4
REMARK VINA RESULT:      -6.4      2.569      4.226
REMARK  7 active torsions:
REMARK  status: ('A' for Active; 'I' for Inactive)
REMARK    1  A    between atoms: C_2  and  C_3 
REMARK    2  A    between atoms: C_3  and  O_6 
REMARK    3  A    between atoms: C_3  and  C_4 
REMARK    4  A    between atoms: C_7  and  O_6 
REMARK    5  A    between atoms: C_9  and  C_10 
REMARK    6  A    between atoms: N_15  and  C_14 
REMARK    7  A    between atoms: N_20  and  C_19 
REMARK       I    between atoms: C_22  and  N_20 
ROOT
ATOM      1  C   LIG d   1       1.272  81.202 110.840  0.00  0.00     0.161 C 
ATOM      2  C   LIG d   1       1.279  79.873 110.385  0.00  0.00     0.016 C 
ATOM      3  C   LIG d   1       0.267  78.938 110.700  0.00  0.00     0.038 C 
ATOM      4  C   LIG d   1      -0.907  79.312 111.371  0.00  0.00     0.028 C 
ATOM      5  C   LIG d   1      -0.723  80.520 112.284  0.00  0.00    -0.047 C 
ATOM      6  C   LIG d   1      -0.056  81.660 111.480  0.00  0.00     0.091 C 
ENDROOT
BRANCH   1   7
ATOM      7  O   LIG d   1       1.641  82.089 109.765  0.00  0.00    -0.368 OA
BRANCH   7   8
ATOM      8  C   LIG d   1       2.885  82.811 109.933  0.00  0.00     0.119 C 
BRANCH   8   9
ATOM      9  C   LIG d   1       3.861  82.310 108.851  0.00  0.00     0.028 C 
ATOM     10  C   LIG d   1       4.821  81.231 109.380  0.00  0.00     0.006 C 
ENDBRANCH   8   9
BRANCH   8  11
ATOM     11  C   LIG d   1       3.551  82.470 111.269  0.00  0.00     0.028 C 
ATOM     12  C   LIG d   1       3.769  83.705 112.158  0.00  0.00     0.006 C 
ENDBRANCH   8  11
ENDBRANCH   7   8
ENDBRANCH   1   7
BRANCH   6  13
ATOM     13  N   LIG d   1       0.237  82.850 112.321  0.00  0.00    -0.311 N 
ATOM     14  C   LIG d   1      -0.148  84.084 112.003  0.00  0.00     0.210 C 
ATOM     15  C   LIG d   1       0.275  85.170 112.997  0.00  0.00     0.109 C 
ATOM     16  O   LIG d   1      -0.828  84.379 111.008  0.00  0.00    -0.276 OA
ATOM     17  H   LIG d   1       0.757  82.697 113.162  0.00  0.00     0.149 HD
ENDBRANCH   6  13
BRANCH   5  18
ATOM     18  N   LIG d   1      -2.051  80.886 112.812  0.00  0.00     0.381 N 
ATOM     19  H   LIG d   1      -1.982  81.093 113.788  0.00  0.00    -0.090 HD
ATOM     20  H   LIG d   1      -2.672  80.104 112.698  0.00  0.00    -0.090 HD
ATOM     21  H   LIG d   1      -2.407  81.676 112.322  0.00  0.00    -0.090 HD
ENDBRANCH   5  18
BRANCH   3  22
ATOM     22  C   LIG d   1       0.442  77.601 110.376  0.00  0.00     0.382 C 
ATOM     23  O   LIG d   1      -0.426  76.757 110.706  0.00  0.00    -0.241 OA
ATOM     24  O   LIG d   1       1.478  77.221 109.798  0.00  0.00    -0.241 OA
ENDBRANCH   3  22
TORSDOF 7
ENDMDL
MODEL 5
REMARK VINA RESULT:      -6.3      2.716      5.620
REMARK  7 active torsions:
REMARK  status: ('A' for Active; 'I' for Inactive)
REMARK    1  A    between atoms: C_2  and  C_3 
REMARK    2  A    between atoms: C_3  and  O_6 
REMARK    3  A    between atoms: C_3  and  C_4 
REMARK    4  A    between atoms: C_7  and  O_6 
REMARK    5  A    between atoms: C_9  and  C_10 
REMARK    6  A    between atoms: N_15  and  C_14 
REMARK    7  A    between atoms: N_20  and  C_19 
REMARK       I    between atoms: C_22  and  N_20 
ROOT
ATOM      1  C   LIG d   1       2.124  83.549 111.353  0.00  0.00     0.161 C 
ATOM      2  C   LIG d   1       2.613  84.846 111.124  0.00  0.00     0.016 C 
ATOM      3  C   LIG d   1       2.836  85.787 112.156  0.00  0.00     0.038 C 
ATOM      4  C   LIG d   1       2.729  85.440 113.511  0.00  0.00     0.028 C 
ATOM      5  C   LIG d   1       1.754  84.296 113.768  0.00  0.00    -0.047 C 
ATOM      6  C   LIG d   1       2.107  83.116 112.834  0.00  0.00     0.091 C 
ENDROOT
BRANCH   1   7
ATOM      7  O   LIG d   1       2.868  82.601 110.562  0.00  0.00    -0.368 OA
BRANCH   7   8
ATOM      8  C   LIG d   1       2.255  82.191 109.315  0.00  0.00     0.119 C 
BRANCH   8   9
ATOM      9  C   LIG d   1       1.495  80.877 109.583  0.00  0.00     0.028 C 
ATOM     10  C   LIG d   1       2.431  79.734 110.008  0.00  0.00     0.006 C 
ENDBRANCH   8   9
BRANCH   8  11
ATOM     11  C   LIG d   1       3.312  81.841 108.263  0.00  0.00     0.028 C 
ATOM     12  C   LIG d   1       4.735  82.229 108.695  0.00  0.00     0.006 C 
ENDBRANCH   8  11
ENDBRANCH   7   8
ENDBRANCH   1   7
BRANCH   6  13
ATOM     13  N   LIG d   1       1.150  81.986 112.961  0.00  0.00    -0.311 N 
ATOM     14  C   LIG d   1       1.490  80.787 113.429  0.00  0.00     0.210 C 
ATOM     15  C   LIG d   1       0.355  79.758 113.458  0.00  0.00     0.109 C 
ATOM     16  O   LIG d   1       2.616  80.486 113.854  0.00  0.00    -0.276 OA
ATOM     17  H   LIG d   1       0.207  82.152 112.668  0.00  0.00     0.149 HD
ENDBRANCH   6  13
BRANCH   5  18
ATOM     18  N   LIG d   1       1.844  83.947 115.199  0.00  0.00     0.381 N 
ATOM     19  H   LIG d   1       1.596  84.740 115.757  0.00  0.00    -0.090 HD
ATOM     20  H   LIG d   1       2.792  83.694 115.413  0.00  0.00    -0.090 HD
ATOM     21  H   LIG d   1       1.235  83.185 115.403  0.00  0.00    -0.090 HD
ENDBRANCH   5  18
BRANCH   3  22
ATOM     22  C   LIG d   1       3.133  87.102 111.834  0.00  0.00     0.382 C 
ATOM     23  O   LIG d   1       4.317  87.512 111.902  0.00  0.00    -0.241 OA
ATOM     24  O   LIG d   1       2.226  87.896 111.520  0.00  0.00    -0.241 OA
ENDBRANCH   3  22
TORSDOF 7
ENDMDL
MODEL 6
REMARK VINA RESULT:      -6.0      1.950      2.435
REMARK  7 active torsions:
REMARK  status: ('A' for Active; 'I' for Inactive)
REMARK    1  A    between atoms: C_2  and  C_3 
REMARK    2  A    between atoms: C_3  and  O_6 
REMARK    3  A    between atoms: C_3  and  C_4 
REMARK    4  A    between atoms: C_7  and  O_6 
REMARK    5  A    between atoms: C_9  and  C_10 
REMARK    6  A    between atoms: N_15  and  C_14 
REMARK    7  A    between atoms: N_20  and  C_19 
REMARK       I    between atoms: C_22  and  N_20 
ROOT
ATOM      1  C   LIG d   1       1.055  81.017 111.213  0.00  0.00     0.161 C 
ATOM      2  C   LIG d   1      -0.082  80.384 111.744  0.00  0.00     0.016 C 
ATOM      3  C   LIG d   1      -0.668  79.231 111.173  0.00  0.00     0.038 C 
ATOM      4  C   LIG d   1      -0.064  78.539 110.113  0.00  0.00     0.028 C 
ATOM      5  C   LIG d   1       0.806  79.426 109.229  0.00  0.00    -0.047 C 
ATOM      6  C   LIG d   1       1.792  80.213 110.122  0.00  0.00     0.091 C 
ENDROOT
BRANCH   1   7
ATOM      7  O   LIG d   1       1.961  81.366 112.278  0.00  0.00    -0.368 OA
BRANCH   7   8
ATOM      8  C   LIG d   1       1.774  82.674 112.871  0.00  0.00     0.119 C 
BRANCH   8   9
ATOM      9  C   LIG d   1       1.849  83.713 111.736  0.00  0.00     0.028 C 
ATOM     10  C   LIG d   1       3.291  84.160 111.443  0.00  0.00     0.006 C 
ENDBRANCH   8   9
BRANCH   8  11
ATOM     11  C   LIG d   1       2.925  83.026 113.819  0.00  0.00     0.028 C 
ATOM     12  C   LIG d   1       2.461  83.822 115.049  0.00  0.00     0.006 C 
ENDBRANCH   8  11
ENDBRANCH   7   8
ENDBRANCH   1   7
BRANCH   6  13
ATOM     13  N   LIG d   1       2.624  81.167 109.344  0.00  0.00    -0.311 N 
ATOM     14  C   LIG d   1       3.954  81.115 109.301  0.00  0.00     0.210 C 
ATOM     15  C   LIG d   1       4.617  82.206 108.455  0.00  0.00     0.109 C 
ATOM     16  O   LIG d   1       4.646  80.248 109.856  0.00  0.00    -0.276 OA
ATOM     17  H   LIG d   1       2.142  81.885 108.838  0.00  0.00     0.149 HD
ENDBRANCH   6  13
BRANCH   5  18
ATOM     18  N   LIG d   1       1.482  78.554 108.250  0.00  0.00     0.381 N 
ATOM     19  H   LIG d   1       2.218  79.058 107.798  0.00  0.00    -0.090 HD
ATOM     20  H   LIG d   1       0.817  78.273 107.551  0.00  0.00    -0.090 HD
ATOM     21  H   LIG d   1       1.852  77.750 108.708  0.00  0.00    -0.090 HD
ENDBRANCH   5  18
BRANCH   3  22
ATOM     22  C   LIG d   1      -1.894  78.781 111.640  0.00  0.00     0.382 C 
ATOM     23  O   LIG d   1      -2.636  79.551 112.297  0.00  0.00    -0.241 OA
ATOM     24  O   LIG d   1      -2.249  77.603 111.449  0.00  0.00    -0.241 OA
ENDBRANCH   3  22
TORSDOF 7
ENDMDL
MODEL 7
REMARK VINA RESULT:      -5.9      2.320      5.622
REMARK  7 active torsions:
REMARK  status: ('A' for Active; 'I' for Inactive)
REMARK    1  A    between atoms: C_2  and  C_3 
REMARK    2  A    between atoms: C_3  and  O_6 
REMARK    3  A    between atoms: C_3  and  C_4 
REMARK    4  A    between atoms: C_7  and  O_6 
REMARK    5  A    between atoms: C_9  and  C_10 
REMARK    6  A    between atoms: N_15  and  C_14 
REMARK    7  A    between atoms: N_20  and  C_19 
REMARK       I    between atoms: C_22  and  N_20 
ROOT
ATOM      1  C   LIG d   1       1.782  83.048 110.791  0.00  0.00     0.161 C 
ATOM      2  C   LIG d   1       2.312  84.330 110.574  0.00  0.00     0.016 C 
ATOM      3  C   LIG d   1       2.663  85.215 111.620  0.00  0.00     0.038 C 
ATOM      4  C   LIG d   1       2.649  84.815 112.964  0.00  0.00     0.028 C 
ATOM      5  C   LIG d   1       1.644  83.706 113.256  0.00  0.00    -0.047 C 
ATOM      6  C   LIG d   1       1.863  82.553 112.250  0.00  0.00     0.091 C 
ENDROOT
BRANCH   1   7
ATOM      7  O   LIG d   1       2.412  82.102 109.905  0.00  0.00    -0.368 OA
BRANCH   7   8
ATOM      8  C   LIG d   1       3.519  81.349 110.460  0.00  0.00     0.119 C 
BRANCH   8   9
ATOM      9  C   LIG d   1       4.809  81.862 109.793  0.00  0.00     0.028 C 
ATOM     10  C   LIG d   1       4.617  82.159 108.296  0.00  0.00     0.006 C 
ENDBRANCH   8   9
BRANCH   8  11
ATOM     11  C   LIG d   1       3.428  79.867 110.084  0.00  0.00     0.028 C 
ATOM     12  C   LIG d   1       2.051  79.477 109.526  0.00  0.00     0.006 C 
ENDBRANCH   8  11
ENDBRANCH   7   8
ENDBRANCH   1   7
BRANCH   6  13
ATOM     13  N   LIG d   1       0.866  81.463 112.412  0.00  0.00    -0.311 N 
ATOM     14  C   LIG d   1      -0.434  81.617 112.170  0.00  0.00     0.210 C 
ATOM     15  C   LIG d   1      -1.290  80.371 112.419  0.00  0.00     0.109 C 
ATOM     16  O   LIG d   1      -0.956  82.657 111.741  0.00  0.00    -0.276 OA
ATOM     17  H   LIG d   1       1.208  80.575 112.726  0.00  0.00     0.149 HD
ENDBRANCH   6  13
BRANCH   5  18
ATOM     18  N   LIG d   1       1.832  83.293 114.660  0.00  0.00     0.381 N 
ATOM     19  H   LIG d   1       2.144  82.343 114.694  0.00  0.00    -0.090 HD
ATOM     20  H   LIG d   1       0.950  83.352 115.137  0.00  0.00    -0.090 HD
ATOM     21  H   LIG d   1       2.499  83.885 115.103  0.00  0.00    -0.090 HD
ENDBRANCH   5  18
BRANCH   3  22
ATOM     22  C   LIG d   1       2.996  86.528 111.326  0.00  0.00     0.382 C 
ATOM     23  O   LIG d   1       2.131  87.304 110.853  0.00  0.00    -0.241 OA
ATOM     24  O   LIG d   1       4.162  86.935 111.487  0.00  0.00    -0.241 OA
ENDBRANCH   3  22
TORSDOF 7
ENDMDL
MODEL 8
REMARK VINA RESULT:      -5.8      1.645      5.004
REMARK  7 active torsions:
REMARK  status: ('A' for Active; 'I' for Inactive)
REMARK    1  A    between atoms: C_2  and  C_3 
REMARK    2  A    between atoms: C_3  and  O_6 
REMARK    3  A    between atoms: C_3  and  C_4 
REMARK    4  A    between atoms: C_7  and  O_6 
REMARK    5  A    between atoms: C_9  and  C_10 
REMARK    6  A    between atoms: N_15  and  C_14 
REMARK    7  A    between atoms: N_20  and  C_19 
REMARK       I    between atoms: C_22  and  N_20 
ROOT
ATOM      1  C   LIG d   1       1.813  81.774 111.647  0.00  0.00     0.161 C 
ATOM      2  C   LIG d   1       3.012  81.909 110.928  0.00  0.00     0.016 C 
ATOM      3  C   LIG d   1       3.165  81.497 109.585  0.00  0.00     0.038 C 
ATOM      4  C   LIG d   1       2.078  81.056 108.816  0.00  0.00     0.028 C 
ATOM      5  C   LIG d   1       0.963  80.429 109.647  0.00  0.00    -0.047 C 
ATOM      6  C   LIG d   1       0.585  81.398 110.791  0.00  0.00     0.091 C 
ENDROOT
BRANCH   1   7
ATOM      7  O   LIG d   1       1.553  82.979 112.394  0.00  0.00    -0.368 OA
BRANCH   7   8
ATOM      8  C   LIG d   1       2.086  84.204 111.835  0.00  0.00     0.119 C 
BRANCH   8   9
ATOM      9  C   LIG d   1       2.692  85.017 112.995  0.00  0.00     0.028 C 
ATOM     10  C   LIG d   1       3.256  86.370 112.531  0.00  0.00     0.006 C 
ENDBRANCH   8   9
BRANCH   8  11
ATOM     11  C   LIG d   1       0.974  85.085 111.259  0.00  0.00     0.028 C 
ATOM     12  C   LIG d   1       0.882  85.004 109.727  0.00  0.00     0.006 C 
ENDBRANCH   8  11
ENDBRANCH   7   8
ENDBRANCH   1   7
BRANCH   6  13
ATOM     13  N   LIG d   1      -0.440  80.826 111.702  0.00  0.00    -0.311 N 
ATOM     14  C   LIG d   1      -1.422  81.545 112.244  0.00  0.00     0.210 C 
ATOM     15  C   LIG d   1      -2.359  80.764 113.171  0.00  0.00     0.109 C 
ATOM     16  O   LIG d   1      -1.624  82.748 112.021  0.00  0.00    -0.276 OA
ATOM     17  H   LIG d   1      -0.370  79.850 111.913  0.00  0.00     0.149 HD
ENDBRANCH   6  13
BRANCH   5  18
ATOM     18  N   LIG d   1      -0.162  80.141 108.738  0.00  0.00     0.381 N 
ATOM     19  H   LIG d   1      -0.836  79.567 109.205  0.00  0.00    -0.090 HD
ATOM     20  H   LIG d   1       0.184  79.637 107.941  0.00  0.00    -0.090 HD
ATOM     21  H   LIG d   1      -0.588  80.992 108.442  0.00  0.00    -0.090 HD
ENDBRANCH   5  18
BRANCH   3  22
ATOM     22  C   LIG d   1       4.427  81.485 109.009  0.00  0.00     0.382 C 
ATOM     23  O   LIG d   1       5.250  80.592 109.321  0.00  0.00    -0.241 OA
ATOM     24  O   LIG d   1       4.766  82.382 108.214  0.00  0.00    -0.241 OA
ENDBRANCH   3  22
TORSDOF 7
ENDMDL
MODEL 9
REMARK VINA RESULT:      -5.7      2.536      5.918
REMARK  7 active torsions:
REMARK  status: ('A' for Active; 'I' for Inactive)
REMARK    1  A    between atoms: C_2  and  C_3 
REMARK    2  A    between atoms: C_3  and  O_6 
REMARK    3  A    between atoms: C_3  and  C_4 
REMARK    4  A    between atoms: C_7  and  O_6 
REMARK    5  A    between atoms: C_9  and  C_10 
REMARK    6  A    between atoms: N_15  and  C_14 
REMARK    7  A    between atoms: N_20  and  C_19 
REMARK       I    between atoms: C_22  and  N_20 
ROOT
ATOM      1  C   LIG d   1       0.935  82.549 110.423  0.00  0.00     0.161 C 
ATOM      2  C   LIG d   1       1.988  81.712 110.020  0.00  0.00     0.016 C 
ATOM      3  C   LIG d   1       3.330  82.145 109.913  0.00  0.00     0.038 C 
ATOM      4  C   LIG d   1       3.736  83.414 110.350  0.00  0.00     0.028 C 
ATOM      5  C   LIG d   1       2.627  84.459 110.291  0.00  0.00    -0.047 C 
ATOM      6  C   LIG d   1       1.376  83.906 111.011  0.00  0.00     0.091 C 
ENDROOT
BRANCH   1   7
ATOM      7  O   LIG d   1       0.086  81.851 111.356  0.00  0.00    -0.368 OA
BRANCH   7   8
ATOM      8  C   LIG d   1       0.486  80.500 111.694  0.00  0.00     0.119 C 
BRANCH   8   9
ATOM      9  C   LIG d   1      -0.722  79.581 111.430  0.00  0.00     0.028 C 
ATOM     10  C   LIG d   1      -0.523  78.690 110.192  0.00  0.00     0.006 C 
ENDBRANCH   8   9
BRANCH   8  11
ATOM     11  C   LIG d   1       0.779  80.364 113.191  0.00  0.00     0.028 C 
ATOM     12  C   LIG d   1       2.190  80.844 113.567  0.00  0.00     0.006 C 
ENDBRANCH   8  11
ENDBRANCH   7   8
ENDBRANCH   1   7
BRANCH   6  13
ATOM     13  N   LIG d   1       0.217  84.831 110.926  0.00  0.00    -0.311 N 
ATOM     14  C   LIG d   1      -0.013  85.801 111.809  0.00  0.00     0.210 C 
ATOM     15  C   LIG d   1      -1.275  86.629 111.547  0.00  0.00     0.109 C 
ATOM     16  O   LIG d   1       0.726  86.076 112.767  0.00  0.00    -0.276 OA
ATOM     17  H   LIG d   1      -0.417  84.700 110.162  0.00  0.00     0.149 HD
ENDBRANCH   6  13
BRANCH   5  18
ATOM     18  N   LIG d   1       3.147  85.697 110.903  0.00  0.00     0.381 N 
ATOM     19  H   LIG d   1       4.021  85.511 111.352  0.00  0.00    -0.090 HD
ATOM     20  H   LIG d   1       2.496  86.013 111.600  0.00  0.00    -0.090 HD
ATOM     21  H   LIG d   1       3.265  86.398 110.206  0.00  0.00    -0.090 HD
ENDBRANCH   5  18
BRANCH   3  22
ATOM     22  C   LIG d   1       4.275  81.317 109.325  0.00  0.00     0.382 C 
ATOM     23  O   LIG d   1       4.518  80.192 109.823  0.00  0.00    -0.241 OA
ATOM     24  O   LIG d   1       4.918  81.700 108.330  0.00  0.00    -0.241 OA
ENDBRANCH   3  22
TORSDOF 7
ENDMDL
