@<TRIPOS>MOLECULE
ose_2HU4_charged.pdb
 20 20 0 0 0
SMALL
GASTEIGER

@<TRIPOS>ATOM
      1  C1        -3.0080   80.7430  112.7900 C.3   800  G39800      0.0755
      2  O1A       -3.5610   81.7630  113.2920 O.3   800  G39800     -0.2394
      3  O1B       -3.5300   79.5900  112.9380 O.co2 800  G39800     -0.8235
      4  C2        -1.7820   80.9260  112.0470 C.2   800  G39800     -0.0327
      5  C3        -0.9880   79.6770  111.3520 C.3   800  G39800      0.0436
      6  C4         0.1330   80.0520  110.2830 C.3   800  G39800      0.1185
      7  C5         0.9730   81.1960  110.8520 C.3   800  G39800      0.1442
      8  N5         2.0140   81.5050  109.7980 N.am  800  G39800     -0.2028
      9  C10        3.3250   81.5340  110.1100 C.2   800  G39800      0.2419
     10  O10        3.7950   81.3200  111.2660 O.2   800  G39800     -0.2733
     11  C11        4.2700   81.8400  109.0070 C.3   800  G39800      0.0964
     12  C6         0.0310   82.4540  111.1160 C.3   800  G39800      0.1577
     13  C7        -1.2360   82.2370  111.9010 C.2   800  G39800     -0.0028
     14  O7         0.8850   83.5360  111.7050 O.3   800  G39800     -0.3525
     15  C8         1.2540   84.8030  111.0190 C.3   800  G39800      0.1156
     16  C9         0.0980   85.7000  110.4960 C.3   800  G39800      0.0296
     17  C81        2.1400   85.5370  112.0070 C.3   800  G39800      0.0296
     18  C82        3.5080   84.9380  112.0790 C.3   800  G39800      0.0026
     19  C91       -0.9590   86.1320  111.5260 C.3   800  G39800      0.0026
     20  N4         0.9490   78.8650  110.0320 N.3   800  G39800     -0.1307
@<TRIPOS>BOND
     1     1     2    4
     2     1     3    4
     3     1     4    1
     4     4     5    1
     5     4    13    2
     6     5     6    1
     7     6     7    1
     8     6    20    1
     9     7     8    1
    10     7    12    1
    11     8     9   am
    12     9    10    2
    13     9    11    1
    14    12    13    1
    15    12    14    1
    16    14    15    1
    17    15    16    1
    18    15    17    1
    19    16    19    1
    20    17    18    1
