REMARK  7 active torsions:
REMARK  status: ('A' for Active; 'I' for Inactive)
REMARK    1  A    between atoms: C8_3  and  C81_2 
REMARK    2  A    between atoms: C8_3  and  C9_4 
REMARK    3  A    between atoms: C8_3  and  O7_6 
REMARK    4  A    between atoms: C6_7  and  O7_6 
REMARK    5  A    between atoms: C2_9  and  C1_10 
REMARK    6  A    between atoms: C4_14  and  N4_15 
REMARK    7  A    between atoms: C5_19  and  N5_20 
REMARK       I    between atoms: C10_22  and  N5_20 
ROOT
ATOM      1  C6  G39 d           0.010  82.620 111.260  0.00  0.00     0.160 C 
ATOM      2  C7  G39 d          -1.190  82.250 111.890  0.00  0.00     0.011 C 
ATOM      3  C2  G39 d          -1.620  80.910 112.020  0.00  0.00     0.060 C 
ATOM      4  C3  G39 d          -0.800  79.830 111.660  0.00  0.00     0.011 C 
ATOM      5  C4  G39 d           0.200  80.170 110.560  0.00  0.00     0.223 C 
ATOM      6  C5  G39 d           0.970  81.450 110.960  0.00  0.00     0.144 C 
ENDROOT
BRANCH   1   7
ATOM      7  O7  G39 d           0.680  83.630 112.040  0.00  0.00    -0.353 OA
BRANCH   7   8
ATOM      8  C8  G39 d           1.150  84.790 111.310  0.00  0.00     0.116 C 
BRANCH   8   9
ATOM      9  C81 G39 d           2.410  85.310 112.030  0.00  0.00     0.030 C 
ATOM     10  C82 G39 d           3.620  84.380 111.840  0.00  0.00     0.003 C 
ENDBRANCH   8   9
BRANCH   8  11
ATOM     11  C9  G39 d           0.140  85.940 111.380  0.00  0.00     0.030 C 
ATOM     12  C91 G39 d          -0.920  85.870 110.270  0.00  0.00     0.003 C 
ENDBRANCH   8  11
ENDBRANCH   7   8
ENDBRANCH   1   7
BRANCH   6  13
ATOM     13  N5  G39 d           1.910  81.900 109.900  0.00  0.00    -0.342 N 
ATOM     14  H52 G39 d           1.620  82.670 109.330  0.00  0.00     0.163 HD
ATOM     15  C10 G39 d           3.100  81.340 109.690  0.00  0.00     0.231 C 
ATOM     16  O10 G39 d           3.540  80.360 110.310  0.00  0.00    -0.273 OA
ATOM     17  C11 G39 d           3.920  81.970 108.560  0.00  0.00     0.097 C 
ENDBRANCH   6  13
BRANCH   3  18
ATOM     18  C1  G39 d          -2.900  80.640 112.480  0.00  0.00     0.210 C 
ATOM     19  O1B G39 d          -3.630  79.830 111.860  0.00  0.00    -0.644 OA
ATOM     20  O1A G39 d          -3.350  81.230 113.480  0.00  0.00    -0.644 OA
ENDBRANCH   3  18
BRANCH   5  21
ATOM     21  N4  G39 d           1.080  79.000 110.380  0.00  0.00    -0.060 N 
ATOM     22  H43 G39 d           1.740  79.180 109.650  0.00  0.00     0.275 HD
ATOM     23  H44 G39 d           0.520  78.210 110.110  0.00  0.00     0.275 HD
ATOM     24  H42 G39 d           1.560  78.800 111.230  0.00  0.00     0.275 HD
ENDBRANCH   5  21
TORSDOF 7
