#       
#       
#       This file was generated by PRODRG version AA081006.0504
#       PRODRG written/copyrighted by Daan van Aalten
#       and Alexander Schuettelkopf
#       
#       Questions/comments to dava@davapc1.bioch.dundee.ac.uk
#       
#       When using this software in a publication, cite:
#       A. W. Schuettelkopf and D. M. F. van Aalten (2004).
#       PRODRG - a tool for high-throughput crystallography
#       of protein-ligand complexes.
#       Acta Crystallogr. D60, 1355--1363.
#       
#       
@<TRIPOS>MOLECULE
G39  
   44   44    1
SMALL
USER_CHARGES

PRODRG MOLECULE
@<TRIPOS>ATOM
     1  C82         3.620    84.380   111.840   C.3       1 G39       0.070
     2  H82         3.386    83.394   112.241   H         1 G39      -0.011
     3  H94         4.481    84.791   112.367   H         1 G39      -0.012
     4  H95         3.787    84.346   110.763   H         1 G39      -0.011
     5  C81         2.410    85.310   112.030   C.3       1 G39       0.071
     6  H81         2.181    85.311   113.096   H         1 G39      -0.011
     7  H93         2.659    86.294   111.633   H         1 G39      -0.011
     8  C8          1.150    84.790   111.310   C.3       1 G39       0.140
     9  H8          1.380    84.547   110.272   H         1 G39      -0.011
    10  C9          0.140    85.940   111.380   C.3       1 G39       0.071
    11  H91         0.679    86.883   111.288   H         1 G39      -0.012
    12  H92        -0.392    85.830   112.325   H         1 G39      -0.012
    13  C91        -0.920    85.870   110.270   C.3       1 G39       0.069
    14  H97        -0.437    85.975   109.299   H         1 G39      -0.012
    15  H98        -1.642    86.676   110.406   H         1 G39      -0.011
    16  H96        -1.386    84.891   110.383   H         1 G39      -0.012
    17  O7          0.680    83.630   112.040   O.3       1 G39      -0.118
    18  C6          0.010    82.620   111.260   C.3       1 G39       0.140
    19  H6         -0.240    83.064   110.297   H         1 G39      -0.011
    20  C7         -1.190    82.250   111.890   C.2       1 G39       0.007
    21  H7         -1.822    83.038   112.300   H         1 G39      -0.011
    22  C2         -1.620    80.910   112.020   C.2       1 G39      -0.021
    23  C1         -2.900    80.640   112.480   C.2       1 G39       0.209
    24  O1B        -3.630    79.830   111.860   O.co2     1 G39      -0.463
    25  O1A        -3.350    81.230   113.480   O.co2     1 G39      -0.462
    26  C3         -0.800    79.830   111.660   C.3       1 G39       0.071
    27  H31        -1.435    79.016   111.310   H         1 G39      -0.011
    28  H32        -0.208    79.560   112.535   H         1 G39      -0.012
    29  C4          0.200    80.170   110.560   C.3       1 G39       0.088
    30  H41        -0.344    80.364   109.635   H         1 G39      -0.011
    31  N4          1.080    79.000   110.380   N.4       1 G39       0.379
    32  H43         1.740    79.180   109.650   H         1 G39      -0.008
    33  H44         0.520    78.210   110.110   H         1 G39      -0.008
    34  H42         1.560    78.800   111.230   H         1 G39      -0.008
    35  C5          0.970    81.450   110.960   C.3       1 G39       0.088
    36  H51         1.537    81.235   111.866   H         1 G39      -0.011
    37  N5          1.910    81.900   109.900   N.am      1 G39       0.070
    38  H52         1.620    82.670   109.330   H         1 G39      -0.008
    39  C10         3.100    81.340   109.690   C.2       1 G39       0.209
    40  O10         3.540    80.360   110.310   O.2       1 G39      -0.430
    41  C11         3.920    81.970   108.560   C.3       1 G39       0.070
    42  H5L         3.372    82.813   108.139   H         1 G39      -0.011
    43  H5M         4.097    81.227   107.782   H         1 G39      -0.011
    44  H11         4.851    82.290   109.028   H         1 G39      -0.011
@<TRIPOS>BOND
    1    1    2 1 
    2    1    3 1 
    3    1    4 1 
    4    5    1 1 
    5    5    6 1 
    6    5    7 1 
    7    8    5 1 
    8    8    9 1 
    9    8   10 1 
   10    8   17 1 
   11   10   11 1 
   12   10   12 1 
   13   10   13 1 
   14   13   14 1 
   15   13   15 1 
   16   13   16 1 
   17   18   17 1 
   18   18   19 1 
   19   18   20 1 
   20   18   35 1 
   21   20   21 1 
   22   22   20 2 
   23   22   23 1 
   24   22   26 1 
   25   23   24 2 
   26   23   25 2 
   27   26   27 1 
   28   26   28 1 
   29   29   26 1 
   30   29   30 1 
   31   29   31 1 
   32   29   35 1 
   33   31   32 1 
   34   31   33 1 
   35   31   34 1 
   36   35   36 1 
   37   35   37 1 
   38   37   38 1 
   39   39   37 am
   40   39   40 2 
   41   39   41 1 
   42   41   42 1 
   43   41   43 1 
   44   41   44 1 
@<TRIPOS>SUBSTRUCTURE
  1  G39    1  

