MODEL 1
REMARK VINA RESULT:      -5.4      0.000      0.000
REMARK  7 active torsions:
REMARK  status: ('A' for Active; 'I' for Inactive)
REMARK    1  A    between atoms: C_2  and  C_3 
REMARK    2  A    between atoms: C_3  and  O_6 
REMARK    3  A    between atoms: C_3  and  C_4 
REMARK    4  A    between atoms: C_7  and  O_6 
REMARK    5  A    between atoms: C_9  and  C_10 
REMARK    6  A    between atoms: N_15  and  C_14 
REMARK    7  A    between atoms: N_20  and  C_19 
REMARK       I    between atoms: C_22  and  N_20 
ROOT
ATOM      1  C   LIG d   1      -6.316  92.474 118.221  0.00  0.00     0.161 C 
ATOM      2  C   LIG d   1      -6.830  91.666 117.193  0.00  0.00     0.016 C 
ATOM      3  C   LIG d   1      -6.031  90.799 116.412  0.00  0.00     0.038 C 
ATOM      4  C   LIG d   1      -4.679  90.569 116.708  0.00  0.00     0.028 C 
ATOM      5  C   LIG d   1      -4.005  91.740 117.414  0.00  0.00    -0.047 C 
ATOM      6  C   LIG d   1      -4.864  92.153 118.631  0.00  0.00     0.091 C 
ENDROOT
BRANCH   1   7
ATOM      7  O   LIG d   1      -7.186  92.416 119.369  0.00  0.00    -0.368 OA
BRANCH   7   8
ATOM      8  C   LIG d   1      -8.310  93.330 119.364  0.00  0.00     0.119 C 
BRANCH   8   9
ATOM      9  C   LIG d   1      -7.743  94.760 119.264  0.00  0.00     0.028 C 
ATOM     10  C   LIG d   1      -8.268  95.514 118.030  0.00  0.00     0.006 C 
ENDBRANCH   8   9
BRANCH   8  11
ATOM     11  C   LIG d   1      -9.069  93.287 120.693  0.00  0.00     0.028 C 
ATOM     12  C   LIG d   1      -8.401  92.372 121.732  0.00  0.00     0.006 C 
ENDBRANCH   8  11
ENDBRANCH   7   8
ENDBRANCH   1   7
BRANCH   6  13
ATOM     13  N   LIG d   1      -4.320  93.347 119.330  0.00  0.00    -0.311 N 
ATOM     14  C   LIG d   1      -3.484  93.273 120.365  0.00  0.00     0.210 C 
ATOM     15  C   LIG d   1      -3.060  94.624 120.950  0.00  0.00     0.109 C 
ATOM     16  O   LIG d   1      -3.029  92.219 120.833  0.00  0.00    -0.276 OA
ATOM     17  H   LIG d   1      -4.612  94.244 118.995  0.00  0.00     0.149 HD
ENDBRANCH   6  13
BRANCH   5  18
ATOM     18  N   LIG d   1      -2.643  91.313 117.785  0.00  0.00     0.381 N 
ATOM     19  H   LIG d   1      -2.675  90.405 118.204  0.00  0.00    -0.090 HD
ATOM     20  H   LIG d   1      -2.272  91.959 118.460  0.00  0.00    -0.090 HD
ATOM     21  H   LIG d   1      -2.060  91.294 116.978  0.00  0.00    -0.090 HD
ENDBRANCH   5  18
BRANCH   3  22
ATOM     22  C   LIG d   1      -6.575  90.183 115.295  0.00  0.00     0.382 C 
ATOM     23  O   LIG d   1      -7.640  90.619 114.794  0.00  0.00    -0.241 OA
ATOM     24  O   LIG d   1      -6.039  89.169 114.809  0.00  0.00    -0.241 OA
ENDBRANCH   3  22
TORSDOF 7
ENDMDL
MODEL 2
REMARK VINA RESULT:      -5.4     15.566     17.911
REMARK  7 active torsions:
REMARK  status: ('A' for Active; 'I' for Inactive)
REMARK    1  A    between atoms: C_2  and  C_3 
REMARK    2  A    between atoms: C_3  and  O_6 
REMARK    3  A    between atoms: C_3  and  C_4 
REMARK    4  A    between atoms: C_7  and  O_6 
REMARK    5  A    between atoms: C_9  and  C_10 
REMARK    6  A    between atoms: N_15  and  C_14 
REMARK    7  A    between atoms: N_20  and  C_19 
REMARK       I    between atoms: C_22  and  N_20 
ROOT
ATOM      1  C   LIG d   1      -7.946  74.987 118.199  0.00  0.00     0.161 C 
ATOM      2  C   LIG d   1      -9.168  75.440 118.724  0.00  0.00     0.016 C 
ATOM      3  C   LIG d   1      -9.527  76.806 118.790  0.00  0.00     0.038 C 
ATOM      4  C   LIG d   1      -8.747  77.808 118.194  0.00  0.00     0.028 C 
ATOM      5  C   LIG d   1      -7.268  77.449 118.100  0.00  0.00    -0.047 C 
ATOM      6  C   LIG d   1      -7.131  76.057 117.443  0.00  0.00     0.091 C 
ENDROOT
BRANCH   1   7
ATOM      7  O   LIG d   1      -8.172  73.840 117.356  0.00  0.00    -0.368 OA
BRANCH   7   8
ATOM      8  C   LIG d   1      -7.637  72.582 117.835  0.00  0.00     0.119 C 
BRANCH   8   9
ATOM      9  C   LIG d   1      -7.333  71.709 116.602  0.00  0.00     0.028 C 
ATOM     10  C   LIG d   1      -6.051  72.146 115.874  0.00  0.00     0.006 C 
ENDBRANCH   8   9
BRANCH   8  11
ATOM     11  C   LIG d   1      -8.683  71.801 118.636  0.00  0.00     0.028 C 
ATOM     12  C   LIG d   1      -8.780  70.327 118.213  0.00  0.00     0.006 C 
ENDBRANCH   8  11
ENDBRANCH   7   8
ENDBRANCH   1   7
BRANCH   6  13
ATOM     13  N   LIG d   1      -5.720  75.592 117.389  0.00  0.00    -0.311 N 
ATOM     14  C   LIG d   1      -4.920  75.798 116.344  0.00  0.00     0.210 C 
ATOM     15  C   LIG d   1      -3.509  75.219 116.487  0.00  0.00     0.109 C 
ATOM     16  O   LIG d   1      -5.234  76.433 115.327  0.00  0.00    -0.276 OA
ATOM     17  H   LIG d   1      -5.373  75.095 118.186  0.00  0.00     0.149 HD
ENDBRANCH   6  13
BRANCH   5  18
ATOM     18  N   LIG d   1      -6.598  78.518 117.337  0.00  0.00     0.381 N 
ATOM     19  H   LIG d   1      -5.881  78.124 116.760  0.00  0.00    -0.090 HD
ATOM     20  H   LIG d   1      -6.168  79.158 117.981  0.00  0.00    -0.090 HD
ATOM     21  H   LIG d   1      -7.261  79.001 116.771  0.00  0.00    -0.090 HD
ENDBRANCH   5  18
BRANCH   3  22
ATOM     22  C   LIG d   1     -10.660  77.185 119.495  0.00  0.00     0.382 C 
ATOM     23  O   LIG d   1     -10.579  77.447 120.719  0.00  0.00    -0.241 OA
ATOM     24  O   LIG d   1     -11.770  77.225 118.932  0.00  0.00    -0.241 OA
ENDBRANCH   3  22
TORSDOF 7
ENDMDL
MODEL 3
REMARK VINA RESULT:      -5.4      2.220      4.466
REMARK  7 active torsions:
REMARK  status: ('A' for Active; 'I' for Inactive)
REMARK    1  A    between atoms: C_2  and  C_3 
REMARK    2  A    between atoms: C_3  and  O_6 
REMARK    3  A    between atoms: C_3  and  C_4 
REMARK    4  A    between atoms: C_7  and  O_6 
REMARK    5  A    between atoms: C_9  and  C_10 
REMARK    6  A    between atoms: N_15  and  C_14 
REMARK    7  A    between atoms: N_20  and  C_19 
REMARK       I    between atoms: C_22  and  N_20 
ROOT
ATOM      1  C   LIG d   1      -4.202  91.630 118.137  0.00  0.00     0.161 C 
ATOM      2  C   LIG d   1      -4.718  90.774 117.149  0.00  0.00     0.016 C 
ATOM      3  C   LIG d   1      -6.026  90.889 116.625  0.00  0.00     0.038 C 
ATOM      4  C   LIG d   1      -6.861  91.970 116.946  0.00  0.00     0.028 C 
ATOM      5  C   LIG d   1      -6.570  92.573 118.316  0.00  0.00    -0.047 C 
ATOM      6  C   LIG d   1      -5.059  92.882 118.418  0.00  0.00     0.091 C 
ENDROOT
BRANCH   1   7
ATOM      7  O   LIG d   1      -2.854  92.011 117.798  0.00  0.00    -0.368 OA
BRANCH   7   8
ATOM      8  C   LIG d   1      -1.802  91.398 118.582  0.00  0.00     0.119 C 
BRANCH   8   9
ATOM      9  C   LIG d   1      -1.144  90.314 117.707  0.00  0.00     0.028 C 
ATOM     10  C   LIG d   1      -1.614  88.897 118.075  0.00  0.00     0.006 C 
ENDBRANCH   8   9
BRANCH   8  11
ATOM     11  C   LIG d   1      -2.372  90.651 119.792  0.00  0.00     0.028 C 
ATOM     12  C   LIG d   1      -2.006  91.315 121.129  0.00  0.00     0.006 C 
ENDBRANCH   8  11
ENDBRANCH   7   8
ENDBRANCH   1   7
BRANCH   6  13
ATOM     13  N   LIG d   1      -4.676  93.397 119.759  0.00  0.00    -0.311 N 
ATOM     14  C   LIG d   1      -4.633  94.694 120.061  0.00  0.00     0.210 C 
ATOM     15  C   LIG d   1      -4.193  95.009 121.494  0.00  0.00     0.109 C 
ATOM     16  O   LIG d   1      -4.949  95.611 119.288  0.00  0.00    -0.276 OA
ATOM     17  H   LIG d   1      -4.434  92.720 120.456  0.00  0.00     0.149 HD
ENDBRANCH   6  13
BRANCH   5  18
ATOM     18  N   LIG d   1      -7.417  93.772 118.463  0.00  0.00     0.381 N 
ATOM     19  H   LIG d   1      -7.126  94.296 119.264  0.00  0.00    -0.090 HD
ATOM     20  H   LIG d   1      -8.369  93.483 118.604  0.00  0.00    -0.090 HD
ATOM     21  H   LIG d   1      -7.352  94.338 117.646  0.00  0.00    -0.090 HD
ENDBRANCH   5  18
BRANCH   3  22
ATOM     22  C   LIG d   1      -6.525  89.894 115.798  0.00  0.00     0.382 C 
ATOM     23  O   LIG d   1      -7.628  89.356 116.060  0.00  0.00    -0.241 OA
ATOM     24  O   LIG d   1      -5.865  89.496 114.819  0.00  0.00    -0.241 OA
ENDBRANCH   3  22
TORSDOF 7
ENDMDL
MODEL 4
REMARK VINA RESULT:      -5.2     16.309     17.942
REMARK  7 active torsions:
REMARK  status: ('A' for Active; 'I' for Inactive)
REMARK    1  A    between atoms: C_2  and  C_3 
REMARK    2  A    between atoms: C_3  and  O_6 
REMARK    3  A    between atoms: C_3  and  C_4 
REMARK    4  A    between atoms: C_7  and  O_6 
REMARK    5  A    between atoms: C_9  and  C_10 
REMARK    6  A    between atoms: N_15  and  C_14 
REMARK    7  A    between atoms: N_20  and  C_19 
REMARK       I    between atoms: C_22  and  N_20 
ROOT
ATOM      1  C   LIG d   1      -8.938  74.858 119.835  0.00  0.00     0.161 C 
ATOM      2  C   LIG d   1      -8.713  73.490 119.609  0.00  0.00     0.016 C 
ATOM      3  C   LIG d   1      -8.369  72.956 118.346  0.00  0.00     0.038 C 
ATOM      4  C   LIG d   1      -8.078  73.779 117.248  0.00  0.00     0.028 C 
ATOM      5  C   LIG d   1      -8.784  75.130 117.299  0.00  0.00    -0.047 C 
ATOM      6  C   LIG d   1      -8.517  75.783 118.675  0.00  0.00     0.091 C 
ENDROOT
BRANCH   1   7
ATOM      7  O   LIG d   1      -8.294  75.263 121.059  0.00  0.00    -0.368 OA
BRANCH   7   8
ATOM      8  C   LIG d   1      -9.166  75.754 122.107  0.00  0.00     0.119 C 
BRANCH   8   9
ATOM      9  C   LIG d   1      -8.750  75.062 123.419  0.00  0.00     0.028 C 
ATOM     10  C   LIG d   1      -7.848  73.839 123.176  0.00  0.00     0.006 C 
ENDBRANCH   8   9
BRANCH   8  11
ATOM     11  C   LIG d   1     -10.618  75.329 121.867  0.00  0.00     0.028 C 
ATOM     12  C   LIG d   1     -11.391  75.087 123.173  0.00  0.00     0.006 C 
ENDBRANCH   8  11
ENDBRANCH   7   8
ENDBRANCH   1   7
BRANCH   6  13
ATOM     13  N   LIG d   1      -9.240  77.071 118.841  0.00  0.00    -0.311 N 
ATOM     14  C   LIG d   1      -8.735  78.248 118.476  0.00  0.00     0.210 C 
ATOM     15  C   LIG d   1      -9.638  79.453 118.753  0.00  0.00     0.109 C 
ATOM     16  O   LIG d   1      -7.638  78.404 117.919  0.00  0.00    -0.276 OA
ATOM     17  H   LIG d   1     -10.151  77.032 119.256  0.00  0.00     0.149 HD
ENDBRANCH   6  13
BRANCH   5  18
ATOM     18  N   LIG d   1      -8.285  75.936 116.170  0.00  0.00     0.381 N 
ATOM     19  H   LIG d   1      -7.456  75.519 115.796  0.00  0.00    -0.090 HD
ATOM     20  H   LIG d   1      -8.053  76.855 116.504  0.00  0.00    -0.090 HD
ATOM     21  H   LIG d   1      -8.982  75.999 115.461  0.00  0.00    -0.090 HD
ENDBRANCH   5  18
BRANCH   3  22
ATOM     22  C   LIG d   1      -8.353  71.582 118.162  0.00  0.00     0.382 C 
ATOM     23  O   LIG d   1      -7.712  70.850 118.955  0.00  0.00    -0.241 OA
ATOM     24  O   LIG d   1      -8.935  71.068 117.188  0.00  0.00    -0.241 OA
ENDBRANCH   3  22
TORSDOF 7
ENDMDL
MODEL 5
REMARK VINA RESULT:      -5.2     14.712     17.373
REMARK  7 active torsions:
REMARK  status: ('A' for Active; 'I' for Inactive)
REMARK    1  A    between atoms: C_2  and  C_3 
REMARK    2  A    between atoms: C_3  and  O_6 
REMARK    3  A    between atoms: C_3  and  C_4 
REMARK    4  A    between atoms: C_7  and  O_6 
REMARK    5  A    between atoms: C_9  and  C_10 
REMARK    6  A    between atoms: N_15  and  C_14 
REMARK    7  A    between atoms: N_20  and  C_19 
REMARK       I    between atoms: C_22  and  N_20 
ROOT
ATOM      1  C   LIG d   1      -6.538  76.281 117.030  0.00  0.00     0.161 C 
ATOM      2  C   LIG d   1      -6.291  77.658 117.155  0.00  0.00     0.016 C 
ATOM      3  C   LIG d   1      -7.159  78.546 117.831  0.00  0.00     0.038 C 
ATOM      4  C   LIG d   1      -8.266  78.088 118.562  0.00  0.00     0.028 C 
ATOM      5  C   LIG d   1      -8.833  76.772 118.042  0.00  0.00    -0.047 C 
ATOM      6  C   LIG d   1      -7.683  75.746 117.915  0.00  0.00     0.091 C 
ENDROOT
BRANCH   1   7
ATOM      7  O   LIG d   1      -5.326  75.542 117.278  0.00  0.00    -0.368 OA
BRANCH   7   8
ATOM      8  C   LIG d   1      -4.476  75.306 116.128  0.00  0.00     0.119 C 
BRANCH   8   9
ATOM      9  C   LIG d   1      -5.309  74.531 115.088  0.00  0.00     0.028 C 
ATOM     10  C   LIG d   1      -5.474  73.047 115.458  0.00  0.00     0.006 C 
ENDBRANCH   8   9
BRANCH   8  11
ATOM     11  C   LIG d   1      -3.306  74.384 116.480  0.00  0.00     0.028 C 
ATOM     12  C   LIG d   1      -2.061  74.644 115.617  0.00  0.00     0.006 C 
ENDBRANCH   8  11
ENDBRANCH   7   8
ENDBRANCH   1   7
BRANCH   6  13
ATOM     13  N   LIG d   1      -8.136  74.456 117.333  0.00  0.00    -0.311 N 
ATOM     14  C   LIG d   1      -8.445  73.388 118.068  0.00  0.00     0.210 C 
ATOM     15  C   LIG d   1      -8.871  72.154 117.267  0.00  0.00     0.109 C 
ATOM     16  O   LIG d   1      -8.438  73.357 119.307  0.00  0.00    -0.276 OA
ATOM     17  H   LIG d   1      -8.201  74.403 116.335  0.00  0.00     0.149 HD
ENDBRANCH   6  13
BRANCH   5  18
ATOM     18  N   LIG d   1      -9.891  76.342 118.976  0.00  0.00     0.381 N 
ATOM     19  H   LIG d   1     -10.103  75.376 118.825  0.00  0.00    -0.090 HD
ATOM     20  H   LIG d   1     -10.721  76.879 118.796  0.00  0.00    -0.090 HD
ATOM     21  H   LIG d   1      -9.593  76.482 119.916  0.00  0.00    -0.090 HD
ENDBRANCH   5  18
BRANCH   3  22
ATOM     22  C   LIG d   1      -6.946  79.913 117.746  0.00  0.00     0.382 C 
ATOM     23  O   LIG d   1      -5.782  80.358 117.597  0.00  0.00    -0.241 OA
ATOM     24  O   LIG d   1      -7.897  80.710 117.862  0.00  0.00    -0.241 OA
ENDBRANCH   3  22
TORSDOF 7
ENDMDL
MODEL 6
REMARK VINA RESULT:      -5.0      2.307      4.770
REMARK  7 active torsions:
REMARK  status: ('A' for Active; 'I' for Inactive)
REMARK    1  A    between atoms: C_2  and  C_3 
REMARK    2  A    between atoms: C_3  and  O_6 
REMARK    3  A    between atoms: C_3  and  C_4 
REMARK    4  A    between atoms: C_7  and  O_6 
REMARK    5  A    between atoms: C_9  and  C_10 
REMARK    6  A    between atoms: N_15  and  C_14 
REMARK    7  A    between atoms: N_20  and  C_19 
REMARK       I    between atoms: C_22  and  N_20 
ROOT
ATOM      1  C   LIG d   1      -4.235  92.143 118.983  0.00  0.00     0.161 C 
ATOM      2  C   LIG d   1      -5.469  92.810 119.052  0.00  0.00     0.016 C 
ATOM      3  C   LIG d   1      -6.498  92.644 118.096  0.00  0.00     0.038 C 
ATOM      4  C   LIG d   1      -6.419  91.677 117.083  0.00  0.00     0.028 C 
ATOM      5  C   LIG d   1      -4.988  91.339 116.678  0.00  0.00    -0.047 C 
ATOM      6  C   LIG d   1      -4.174  91.001 117.947  0.00  0.00     0.091 C 
ENDROOT
BRANCH   1   7
ATOM      7  O   LIG d   1      -3.871  91.654 120.289  0.00  0.00    -0.368 OA
BRANCH   7   8
ATOM      8  C   LIG d   1      -2.966  92.490 121.053  0.00  0.00     0.119 C 
BRANCH   8   9
ATOM      9  C   LIG d   1      -2.008  93.167 120.055  0.00  0.00     0.028 C 
ATOM     10  C   LIG d   1      -1.072  94.181 120.736  0.00  0.00     0.006 C 
ENDBRANCH   8   9
BRANCH   8  11
ATOM     11  C   LIG d   1      -2.071  91.650 121.969  0.00  0.00     0.028 C 
ATOM     12  C   LIG d   1      -2.086  90.156 121.610  0.00  0.00     0.006 C 
ENDBRANCH   8  11
ENDBRANCH   7   8
ENDBRANCH   1   7
BRANCH   6  13
ATOM     13  N   LIG d   1      -2.741  90.740 117.649  0.00  0.00    -0.311 N 
ATOM     14  C   LIG d   1      -2.137  89.582 117.910  0.00  0.00     0.210 C 
ATOM     15  C   LIG d   1      -0.651  89.531 117.542  0.00  0.00     0.109 C 
ATOM     16  O   LIG d   1      -2.699  88.582 118.382  0.00  0.00    -0.276 OA
ATOM     17  H   LIG d   1      -2.218  91.487 117.236  0.00  0.00     0.149 HD
ENDBRANCH   6  13
BRANCH   5  18
ATOM     18  N   LIG d   1      -5.049  90.222 115.716  0.00  0.00     0.381 N 
ATOM     19  H   LIG d   1      -4.315  89.570 115.906  0.00  0.00    -0.090 HD
ATOM     20  H   LIG d   1      -4.917  90.585 114.788  0.00  0.00    -0.090 HD
ATOM     21  H   LIG d   1      -5.933  89.766 115.779  0.00  0.00    -0.090 HD
ENDBRANCH   5  18
BRANCH   3  22
ATOM     22  C   LIG d   1      -7.604  93.479 118.125  0.00  0.00     0.382 C 
ATOM     23  O   LIG d   1      -8.333  93.518 119.146  0.00  0.00    -0.241 OA
ATOM     24  O   LIG d   1      -7.908  94.160 117.128  0.00  0.00    -0.241 OA
ENDBRANCH   3  22
TORSDOF 7
ENDMDL
MODEL 7
REMARK VINA RESULT:      -5.0      2.600      5.125
REMARK  7 active torsions:
REMARK  status: ('A' for Active; 'I' for Inactive)
REMARK    1  A    between atoms: C_2  and  C_3 
REMARK    2  A    between atoms: C_3  and  O_6 
REMARK    3  A    between atoms: C_3  and  C_4 
REMARK    4  A    between atoms: C_7  and  O_6 
REMARK    5  A    between atoms: C_9  and  C_10 
REMARK    6  A    between atoms: N_15  and  C_14 
REMARK    7  A    between atoms: N_20  and  C_19 
REMARK       I    between atoms: C_22  and  N_20 
ROOT
ATOM      1  C   LIG d   1      -3.822  90.459 117.950  0.00  0.00     0.161 C 
ATOM      2  C   LIG d   1      -4.515  90.091 116.785  0.00  0.00     0.016 C 
ATOM      3  C   LIG d   1      -5.567  90.857 116.230  0.00  0.00     0.038 C 
ATOM      4  C   LIG d   1      -5.898  92.128 116.723  0.00  0.00     0.028 C 
ATOM      5  C   LIG d   1      -5.565  92.311 118.200  0.00  0.00    -0.047 C 
ATOM      6  C   LIG d   1      -4.094  91.897 118.438  0.00  0.00     0.091 C 
ENDROOT
BRANCH   1   7
ATOM      7  O   LIG d   1      -2.408  90.253 117.763  0.00  0.00    -0.368 OA
BRANCH   7   8
ATOM      8  C   LIG d   1      -1.920  88.913 118.020  0.00  0.00     0.119 C 
BRANCH   8   9
ATOM      9  C   LIG d   1      -2.525  88.448 119.358  0.00  0.00     0.028 C 
ATOM     10  C   LIG d   1      -1.868  87.162 119.885  0.00  0.00     0.006 C 
ENDBRANCH   8   9
BRANCH   8  11
ATOM     11  C   LIG d   1      -0.403  88.905 118.236  0.00  0.00     0.028 C 
ATOM     12  C   LIG d   1       0.108  90.182 118.921  0.00  0.00     0.006 C 
ENDBRANCH   8  11
ENDBRANCH   7   8
ENDBRANCH   1   7
BRANCH   6  13
ATOM     13  N   LIG d   1      -3.711  91.966 119.872  0.00  0.00    -0.311 N 
ATOM     14  C   LIG d   1      -2.586  92.532 120.304  0.00  0.00     0.210 C 
ATOM     15  C   LIG d   1      -2.374  92.476 121.820  0.00  0.00     0.109 C 
ATOM     16  O   LIG d   1      -1.757  93.103 119.578  0.00  0.00    -0.276 OA
ATOM     17  H   LIG d   1      -4.341  91.555 120.533  0.00  0.00     0.149 HD
ENDBRANCH   6  13
BRANCH   5  18
ATOM     18  N   LIG d   1      -5.832  93.720 118.546  0.00  0.00     0.381 N 
ATOM     19  H   LIG d   1      -6.628  94.048 118.036  0.00  0.00    -0.090 HD
ATOM     20  H   LIG d   1      -5.038  94.276 118.282  0.00  0.00    -0.090 HD
ATOM     21  H   LIG d   1      -5.997  93.805 119.525  0.00  0.00    -0.090 HD
ENDBRANCH   5  18
BRANCH   3  22
ATOM     22  C   LIG d   1      -6.326  90.333 115.195  0.00  0.00     0.382 C 
ATOM     23  O   LIG d   1      -5.982  89.259 114.646  0.00  0.00    -0.241 OA
ATOM     24  O   LIG d   1      -7.327  90.944 114.774  0.00  0.00    -0.241 OA
ENDBRANCH   3  22
TORSDOF 7
ENDMDL
MODEL 8
REMARK VINA RESULT:      -4.9     13.818     15.900
REMARK  7 active torsions:
REMARK  status: ('A' for Active; 'I' for Inactive)
REMARK    1  A    between atoms: C_2  and  C_3 
REMARK    2  A    between atoms: C_3  and  O_6 
REMARK    3  A    between atoms: C_3  and  C_4 
REMARK    4  A    between atoms: C_7  and  O_6 
REMARK    5  A    between atoms: C_9  and  C_10 
REMARK    6  A    between atoms: N_15  and  C_14 
REMARK    7  A    between atoms: N_20  and  C_19 
REMARK       I    between atoms: C_22  and  N_20 
ROOT
ATOM      1  C   LIG d   1      -9.367  77.792 118.790  0.00  0.00     0.161 C 
ATOM      2  C   LIG d   1      -8.567  78.751 118.146  0.00  0.00     0.016 C 
ATOM      3  C   LIG d   1      -8.642  80.136 118.417  0.00  0.00     0.038 C 
ATOM      4  C   LIG d   1      -9.421  80.645 119.467  0.00  0.00     0.028 C 
ATOM      5  C   LIG d   1     -10.624  79.771 119.807  0.00  0.00    -0.047 C 
ATOM      6  C   LIG d   1     -10.144  78.317 120.016  0.00  0.00     0.091 C 
ENDROOT
BRANCH   1   7
ATOM      7  O   LIG d   1      -8.565  76.652 119.155  0.00  0.00    -0.368 OA
BRANCH   7   8
ATOM      8  C   LIG d   1      -9.080  75.357 118.757  0.00  0.00     0.119 C 
BRANCH   8   9
ATOM      9  C   LIG d   1      -8.441  74.301 119.680  0.00  0.00     0.028 C 
ATOM     10  C   LIG d   1      -9.134  74.224 121.050  0.00  0.00     0.006 C 
ENDBRANCH   8   9
BRANCH   8  11
ATOM     11  C   LIG d   1      -8.624  74.988 117.342  0.00  0.00     0.028 C 
ATOM     12  C   LIG d   1      -7.568  73.871 117.328  0.00  0.00     0.006 C 
ENDBRANCH   8  11
ENDBRANCH   7   8
ENDBRANCH   1   7
BRANCH   6  13
ATOM     13  N   LIG d   1     -11.269  77.379 120.270  0.00  0.00    -0.311 N 
ATOM     14  C   LIG d   1     -11.647  77.001 121.490  0.00  0.00     0.210 C 
ATOM     15  C   LIG d   1     -12.817  76.013 121.527  0.00  0.00     0.109 C 
ATOM     16  O   LIG d   1     -11.145  77.416 122.546  0.00  0.00    -0.276 OA
ATOM     17  H   LIG d   1     -11.752  77.019 119.470  0.00  0.00     0.149 HD
ENDBRANCH   6  13
BRANCH   5  18
ATOM     18  N   LIG d   1     -11.267  80.345 121.004  0.00  0.00     0.381 N 
ATOM     19  H   LIG d   1     -10.934  81.277 121.153  0.00  0.00    -0.090 HD
ATOM     20  H   LIG d   1     -11.020  79.790 121.804  0.00  0.00    -0.090 HD
ATOM     21  H   LIG d   1     -12.257  80.352 120.889  0.00  0.00    -0.090 HD
ENDBRANCH   5  18
BRANCH   3  22
ATOM     22  C   LIG d   1      -7.961  81.033 117.607  0.00  0.00     0.382 C 
ATOM     23  O   LIG d   1      -6.711  80.978 117.524  0.00  0.00    -0.241 OA
ATOM     24  O   LIG d   1      -8.579  81.924 116.993  0.00  0.00    -0.241 OA
ENDBRANCH   3  22
TORSDOF 7
ENDMDL
MODEL 9
REMARK VINA RESULT:      -4.8     16.336     18.107
REMARK  7 active torsions:
REMARK  status: ('A' for Active; 'I' for Inactive)
REMARK    1  A    between atoms: C_2  and  C_3 
REMARK    2  A    between atoms: C_3  and  O_6 
REMARK    3  A    between atoms: C_3  and  C_4 
REMARK    4  A    between atoms: C_7  and  O_6 
REMARK    5  A    between atoms: C_9  and  C_10 
REMARK    6  A    between atoms: N_15  and  C_14 
REMARK    7  A    between atoms: N_20  and  C_19 
REMARK       I    between atoms: C_22  and  N_20 
ROOT
ATOM      1  C   LIG d   1      -8.044  74.315 118.348  0.00  0.00     0.161 C 
ATOM      2  C   LIG d   1      -8.608  73.037 118.498  0.00  0.00     0.016 C 
ATOM      3  C   LIG d   1      -8.114  71.886 117.841  0.00  0.00     0.038 C 
ATOM      4  C   LIG d   1      -6.921  71.908 117.103  0.00  0.00     0.028 C 
ATOM      5  C   LIG d   1      -6.600  73.277 116.513  0.00  0.00    -0.047 C 
ATOM      6  C   LIG d   1      -6.676  74.338 117.635  0.00  0.00     0.091 C 
ENDROOT
BRANCH   1   7
ATOM      7  O   LIG d   1      -7.950  74.961 119.633  0.00  0.00    -0.368 OA
BRANCH   7   8
ATOM      8  C   LIG d   1      -9.025  75.873 119.967  0.00  0.00     0.119 C 
BRANCH   8   9
ATOM      9  C   LIG d   1      -9.570  76.451 118.647  0.00  0.00     0.028 C 
ATOM     10  C   LIG d   1      -9.195  77.930 118.455  0.00  0.00     0.006 C 
ENDBRANCH   8   9
BRANCH   8  11
ATOM     11  C   LIG d   1      -8.508  77.079 120.756  0.00  0.00     0.028 C 
ATOM     12  C   LIG d   1      -7.219  76.773 121.536  0.00  0.00     0.006 C 
ENDBRANCH   8  11
ENDBRANCH   7   8
ENDBRANCH   1   7
BRANCH   6  13
ATOM     13  N   LIG d   1      -6.457  75.717 117.127  0.00  0.00    -0.311 N 
ATOM     14  C   LIG d   1      -5.592  76.571 117.672  0.00  0.00     0.210 C 
ATOM     15  C   LIG d   1      -5.537  77.949 117.006  0.00  0.00     0.109 C 
ATOM     16  O   LIG d   1      -4.843  76.307 118.624  0.00  0.00    -0.276 OA
ATOM     17  H   LIG d   1      -7.001  76.004 116.337  0.00  0.00     0.149 HD
ENDBRANCH   6  13
BRANCH   5  18
ATOM     18  N   LIG d   1      -5.266  73.191 115.888  0.00  0.00     0.381 N 
ATOM     19  H   LIG d   1      -4.734  72.464 116.323  0.00  0.00    -0.090 HD
ATOM     20  H   LIG d   1      -4.784  74.062 116.029  0.00  0.00    -0.090 HD
ATOM     21  H   LIG d   1      -5.357  73.008 114.913  0.00  0.00    -0.090 HD
ENDBRANCH   5  18
BRANCH   3  22
ATOM     22  C   LIG d   1      -8.838  70.704 117.887  0.00  0.00     0.382 C 
ATOM     23  O   LIG d   1      -8.804  69.988 118.916  0.00  0.00    -0.241 OA
ATOM     24  O   LIG d   1      -9.489  70.324 116.896  0.00  0.00    -0.241 OA
ENDBRANCH   3  22
TORSDOF 7
ENDMDL
