MODEL 1
REMARK VINA RESULT:      -4.7      0.000      0.000
REMARK  7 active torsions:
REMARK  status: ('A' for Active; 'I' for Inactive)
REMARK    1  A    between atoms: C_2  and  C_3 
REMARK    2  A    between atoms: C_3  and  O_6 
REMARK    3  A    between atoms: C_3  and  C_4 
REMARK    4  A    between atoms: C_7  and  O_6 
REMARK    5  A    between atoms: C_9  and  C_10 
REMARK    6  A    between atoms: N_15  and  C_14 
REMARK    7  A    between atoms: N_20  and  C_19 
REMARK       I    between atoms: C_22  and  N_20 
ROOT
ATOM      1  C   LIG d   1      -5.808  94.031 120.109  0.00  0.00     0.161 C 
ATOM      2  C   LIG d   1      -5.720  92.866 119.329  0.00  0.00     0.016 C 
ATOM      3  C   LIG d   1      -6.463  92.666 118.143  0.00  0.00     0.038 C 
ATOM      4  C   LIG d   1      -7.236  93.688 117.571  0.00  0.00     0.028 C 
ATOM      5  C   LIG d   1      -7.750  94.700 118.590  0.00  0.00    -0.047 C 
ATOM      6  C   LIG d   1      -6.562  95.200 119.443  0.00  0.00     0.091 C 
ENDROOT
BRANCH   1   7
ATOM      7  O   LIG d   1      -4.489  94.449 120.512  0.00  0.00    -0.368 OA
BRANCH   7   8
ATOM      8  C   LIG d   1      -3.703  95.136 119.507  0.00  0.00     0.119 C 
BRANCH   8   9
ATOM      9  C   LIG d   1      -2.360  94.392 119.381  0.00  0.00     0.028 C 
ATOM     10  C   LIG d   1      -2.266  93.565 118.088  0.00  0.00     0.006 C 
ENDBRANCH   8   9
BRANCH   8  11
ATOM     11  C   LIG d   1      -3.341  96.555 119.956  0.00  0.00     0.028 C 
ATOM     12  C   LIG d   1      -2.242  97.192 119.090  0.00  0.00     0.006 C 
ENDBRANCH   8  11
ENDBRANCH   7   8
ENDBRANCH   1   7
BRANCH   6  13
ATOM     13  N   LIG d   1      -6.990  96.131 120.520  0.00  0.00    -0.311 N 
ATOM     14  C   LIG d   1      -7.003  97.456 120.381  0.00  0.00     0.210 C 
ATOM     15  C   LIG d   1      -7.460  98.231 121.621  0.00  0.00     0.109 C 
ATOM     16  O   LIG d   1      -6.711  98.061 119.338  0.00  0.00    -0.276 OA
ATOM     17  H   LIG d   1      -7.273  95.724 121.389  0.00  0.00     0.149 HD
ENDBRANCH   6  13
BRANCH   5  18
ATOM     18  N   LIG d   1      -8.421  95.781 117.844  0.00  0.00     0.381 N 
ATOM     19  H   LIG d   1      -8.518  96.587 118.429  0.00  0.00    -0.090 HD
ATOM     20  H   LIG d   1      -9.340  95.472 117.579  0.00  0.00    -0.090 HD
ATOM     21  H   LIG d   1      -7.894  96.013 117.031  0.00  0.00    -0.090 HD
ENDBRANCH   5  18
BRANCH   3  22
ATOM     22  C   LIG d   1      -6.468  91.419 117.536  0.00  0.00     0.382 C 
ATOM     23  O   LIG d   1      -7.552  90.899 117.180  0.00  0.00    -0.241 OA
ATOM     24  O   LIG d   1      -5.405  90.788 117.381  0.00  0.00    -0.241 OA
ENDBRANCH   3  22
TORSDOF 7
ENDMDL
MODEL 2
REMARK VINA RESULT:      -4.6     34.730     36.535
REMARK  7 active torsions:
REMARK  status: ('A' for Active; 'I' for Inactive)
REMARK    1  A    between atoms: C_2  and  C_3 
REMARK    2  A    between atoms: C_3  and  O_6 
REMARK    3  A    between atoms: C_3  and  C_4 
REMARK    4  A    between atoms: C_7  and  O_6 
REMARK    5  A    between atoms: C_9  and  C_10 
REMARK    6  A    between atoms: N_15  and  C_14 
REMARK    7  A    between atoms: N_20  and  C_19 
REMARK       I    between atoms: C_22  and  N_20 
ROOT
ATOM      1  C   LIG d   1       0.850  59.579 118.550  0.00  0.00     0.161 C 
ATOM      2  C   LIG d   1       2.212  59.897 118.416  0.00  0.00     0.016 C 
ATOM      3  C   LIG d   1       2.978  60.490 119.445  0.00  0.00     0.038 C 
ATOM      4  C   LIG d   1       2.468  60.669 120.740  0.00  0.00     0.028 C 
ATOM      5  C   LIG d   1       0.952  60.829 120.777  0.00  0.00    -0.047 C 
ATOM      6  C   LIG d   1       0.305  59.665 119.991  0.00  0.00     0.091 C 
ENDROOT
BRANCH   1   7
ATOM      7  O   LIG d   1       0.595  58.274 117.995  0.00  0.00    -0.368 OA
BRANCH   7   8
ATOM      8  C   LIG d   1       0.846  57.148 118.872  0.00  0.00     0.119 C 
BRANCH   8   9
ATOM      9  C   LIG d   1       1.983  56.318 118.245  0.00  0.00     0.028 C 
ATOM     10  C   LIG d   1       3.266  56.346 119.093  0.00  0.00     0.006 C 
ENDBRANCH   8   9
BRANCH   8  11
ATOM     11  C   LIG d   1      -0.360  56.206 118.929  0.00  0.00     0.028 C 
ATOM     12  C   LIG d   1      -0.391  55.355 120.208  0.00  0.00     0.006 C 
ENDBRANCH   8  11
ENDBRANCH   7   8
ENDBRANCH   1   7
BRANCH   6  13
ATOM     13  N   LIG d   1      -1.173  59.791 119.906  0.00  0.00    -0.311 N 
ATOM     14  C   LIG d   1      -2.011  59.152 120.721  0.00  0.00     0.210 C 
ATOM     15  C   LIG d   1      -3.497  59.406 120.449  0.00  0.00     0.109 C 
ATOM     16  O   LIG d   1      -1.665  58.425 121.664  0.00  0.00    -0.276 OA
ATOM     17  H   LIG d   1      -1.540  60.386 119.190  0.00  0.00     0.149 HD
ENDBRANCH   6  13
BRANCH   5  18
ATOM     18  N   LIG d   1       0.542  60.868 122.193  0.00  0.00     0.381 N 
ATOM     19  H   LIG d   1       0.418  61.818 122.484  0.00  0.00    -0.090 HD
ATOM     20  H   LIG d   1       1.270  60.460 122.753  0.00  0.00    -0.090 HD
ATOM     21  H   LIG d   1      -0.307  60.362 122.317  0.00  0.00    -0.090 HD
ENDBRANCH   5  18
BRANCH   3  22
ATOM     22  C   LIG d   1       4.258  60.948 119.172  0.00  0.00     0.382 C 
ATOM     23  O   LIG d   1       4.547  61.353 118.021  0.00  0.00    -0.241 OA
ATOM     24  O   LIG d   1       5.140  60.920 120.052  0.00  0.00    -0.241 OA
ENDBRANCH   3  22
TORSDOF 7
ENDMDL
MODEL 3
REMARK VINA RESULT:      -4.6     11.803     15.052
REMARK  7 active torsions:
REMARK  status: ('A' for Active; 'I' for Inactive)
REMARK    1  A    between atoms: C_2  and  C_3 
REMARK    2  A    between atoms: C_3  and  O_6 
REMARK    3  A    between atoms: C_3  and  C_4 
REMARK    4  A    between atoms: C_7  and  O_6 
REMARK    5  A    between atoms: C_9  and  C_10 
REMARK    6  A    between atoms: N_15  and  C_14 
REMARK    7  A    between atoms: N_20  and  C_19 
REMARK       I    between atoms: C_22  and  N_20 
ROOT
ATOM      1  C   LIG d   1      -9.320  81.461 120.911  0.00  0.00     0.161 C 
ATOM      2  C   LIG d   1      -9.541  82.716 121.501  0.00  0.00     0.016 C 
ATOM      3  C   LIG d   1      -9.756  83.899 120.757  0.00  0.00     0.038 C 
ATOM      4  C   LIG d   1      -9.915  83.880 119.363  0.00  0.00     0.028 C 
ATOM      5  C   LIG d   1      -9.199  82.715 118.688  0.00  0.00    -0.047 C 
ATOM      6  C   LIG d   1      -9.601  81.401 119.394  0.00  0.00     0.091 C 
ENDROOT
BRANCH   1   7
ATOM      7  O   LIG d   1     -10.086  80.454 121.602  0.00  0.00    -0.368 OA
BRANCH   7   8
ATOM      8  C   LIG d   1      -9.430  79.815 122.725  0.00  0.00     0.119 C 
BRANCH   8   9
ATOM      9  C   LIG d   1      -8.187  79.086 122.181  0.00  0.00     0.028 C 
ATOM     10  C   LIG d   1      -8.444  77.590 121.933  0.00  0.00     0.006 C 
ENDBRANCH   8   9
BRANCH   8  11
ATOM     11  C   LIG d   1     -10.310  78.718 123.332  0.00  0.00     0.028 C 
ATOM     12  C   LIG d   1     -11.794  78.873 122.966  0.00  0.00     0.006 C 
ENDBRANCH   8  11
ENDBRANCH   7   8
ENDBRANCH   1   7
BRANCH   6  13
ATOM     13  N   LIG d   1      -8.880  80.221 118.850  0.00  0.00    -0.311 N 
ATOM     14  C   LIG d   1      -9.456  79.036 118.654  0.00  0.00     0.210 C 
ATOM     15  C   LIG d   1      -8.528  77.949 118.103  0.00  0.00     0.109 C 
ATOM     16  O   LIG d   1     -10.656  78.791 118.854  0.00  0.00    -0.276 OA
ATOM     17  H   LIG d   1      -7.911  80.340 118.631  0.00  0.00     0.149 HD
ENDBRANCH   6  13
BRANCH   5  18
ATOM     18  N   LIG d   1      -9.562  82.738 117.258  0.00  0.00     0.381 N 
ATOM     19  H   LIG d   1      -8.893  83.280 116.748  0.00  0.00    -0.090 HD
ATOM     20  H   LIG d   1     -10.462  83.172 117.158  0.00  0.00    -0.090 HD
ATOM     21  H   LIG d   1      -9.591  81.809 116.899  0.00  0.00    -0.090 HD
ENDBRANCH   5  18
BRANCH   3  22
ATOM     22  C   LIG d   1      -9.773  85.125 121.405  0.00  0.00     0.382 C 
ATOM     23  O   LIG d   1      -8.750  85.530 122.007  0.00  0.00    -0.241 OA
ATOM     24  O   LIG d   1     -10.812  85.811 121.432  0.00  0.00    -0.241 OA
ENDBRANCH   3  22
TORSDOF 7
ENDMDL
MODEL 4
REMARK VINA RESULT:      -4.5     12.327     15.171
REMARK  7 active torsions:
REMARK  status: ('A' for Active; 'I' for Inactive)
REMARK    1  A    between atoms: C_2  and  C_3 
REMARK    2  A    between atoms: C_3  and  O_6 
REMARK    3  A    between atoms: C_3  and  C_4 
REMARK    4  A    between atoms: C_7  and  O_6 
REMARK    5  A    between atoms: C_9  and  C_10 
REMARK    6  A    between atoms: N_15  and  C_14 
REMARK    7  A    between atoms: N_20  and  C_19 
REMARK       I    between atoms: C_22  and  N_20 
ROOT
ATOM      1  C   LIG d   1      -9.960  80.258 120.135  0.00  0.00     0.161 C 
ATOM      2  C   LIG d   1      -9.552  79.047 119.552  0.00  0.00     0.016 C 
ATOM      3  C   LIG d   1      -8.557  78.962 118.551  0.00  0.00     0.038 C 
ATOM      4  C   LIG d   1      -7.791  80.074 118.170  0.00  0.00     0.028 C 
ATOM      5  C   LIG d   1      -8.513  81.402 118.367  0.00  0.00    -0.047 C 
ATOM      6  C   LIG d   1      -9.058  81.468 119.812  0.00  0.00     0.091 C 
ENDROOT
BRANCH   1   7
ATOM      7  O   LIG d   1     -10.088  80.095 121.561  0.00  0.00    -0.368 OA
BRANCH   7   8
ATOM      8  C   LIG d   1     -11.367  79.607 122.035  0.00  0.00     0.119 C 
BRANCH   8   9
ATOM      9  C   LIG d   1     -12.126  80.805 122.636  0.00  0.00     0.028 C 
ATOM     10  C   LIG d   1     -11.189  81.799 123.342  0.00  0.00     0.006 C 
ENDBRANCH   8   9
BRANCH   8  11
ATOM     11  C   LIG d   1     -11.192  78.617 123.190  0.00  0.00     0.028 C 
ATOM     12  C   LIG d   1      -9.848  77.872 123.138  0.00  0.00     0.006 C 
ENDBRANCH   8  11
ENDBRANCH   7   8
ENDBRANCH   1   7
BRANCH   6  13
ATOM     13  N   LIG d   1      -9.851  82.700 120.063  0.00  0.00    -0.311 N 
ATOM     14  C   LIG d   1      -9.343  83.797 120.622  0.00  0.00     0.210 C 
ATOM     15  C   LIG d   1     -10.337  84.947 120.809  0.00  0.00     0.109 C 
ATOM     16  O   LIG d   1      -8.155  83.938 120.951  0.00  0.00    -0.276 OA
ATOM     17  H   LIG d   1     -10.816  82.683 119.798  0.00  0.00     0.149 HD
ENDBRANCH   6  13
BRANCH   5  18
ATOM     18  N   LIG d   1      -7.553  82.480 118.061  0.00  0.00     0.381 N 
ATOM     19  H   LIG d   1      -6.627  82.106 118.014  0.00  0.00    -0.090 HD
ATOM     20  H   LIG d   1      -7.581  83.159 118.801  0.00  0.00    -0.090 HD
ATOM     21  H   LIG d   1      -7.790  82.912 117.195  0.00  0.00    -0.090 HD
ENDBRANCH   5  18
BRANCH   3  22
ATOM     22  C   LIG d   1      -8.348  77.760 117.891  0.00  0.00     0.382 C 
ATOM     23  O   LIG d   1      -9.225  76.864 117.927  0.00  0.00    -0.241 OA
ATOM     24  O   LIG d   1      -7.274  77.545 117.296  0.00  0.00    -0.241 OA
ENDBRANCH   3  22
TORSDOF 7
ENDMDL
MODEL 5
REMARK VINA RESULT:      -4.4     11.021     14.206
REMARK  7 active torsions:
REMARK  status: ('A' for Active; 'I' for Inactive)
REMARK    1  A    between atoms: C_2  and  C_3 
REMARK    2  A    between atoms: C_3  and  O_6 
REMARK    3  A    between atoms: C_3  and  C_4 
REMARK    4  A    between atoms: C_7  and  O_6 
REMARK    5  A    between atoms: C_9  and  C_10 
REMARK    6  A    between atoms: N_15  and  C_14 
REMARK    7  A    between atoms: N_20  and  C_19 
REMARK       I    between atoms: C_22  and  N_20 
ROOT
ATOM      1  C   LIG d   1      -8.757  82.516 121.627  0.00  0.00     0.161 C 
ATOM      2  C   LIG d   1      -9.076  83.774 122.165  0.00  0.00     0.016 C 
ATOM      3  C   LIG d   1      -9.700  84.802 121.423  0.00  0.00     0.038 C 
ATOM      4  C   LIG d   1     -10.189  84.588 120.125  0.00  0.00     0.028 C 
ATOM      5  C   LIG d   1      -9.440  83.496 119.368  0.00  0.00    -0.047 C 
ATOM      6  C   LIG d   1      -9.383  82.226 120.247  0.00  0.00     0.091 C 
ENDROOT
BRANCH   1   7
ATOM      7  O   LIG d   1      -9.110  81.480 122.565  0.00  0.00    -0.368 OA
BRANCH   7   8
ATOM      8  C   LIG d   1     -10.470  80.984 122.486  0.00  0.00     0.119 C 
BRANCH   8   9
ATOM      9  C   LIG d   1     -11.173  81.347 123.808  0.00  0.00     0.028 C 
ATOM     10  C   LIG d   1     -10.194  81.422 124.992  0.00  0.00     0.006 C 
ENDBRANCH   8   9
BRANCH   8  11
ATOM     11  C   LIG d   1     -10.502  79.455 122.416  0.00  0.00     0.028 C 
ATOM     12  C   LIG d   1      -9.098  78.830 122.391  0.00  0.00     0.006 C 
ENDBRANCH   8  11
ENDBRANCH   7   8
ENDBRANCH   1   7
BRANCH   6  13
ATOM     13  N   LIG d   1      -8.594  81.135 119.616  0.00  0.00    -0.311 N 
ATOM     14  C   LIG d   1      -9.143  80.147 118.912  0.00  0.00     0.210 C 
ATOM     15  C   LIG d   1      -8.151  79.115 118.365  0.00  0.00     0.109 C 
ATOM     16  O   LIG d   1     -10.353  80.044 118.661  0.00  0.00    -0.276 OA
ATOM     17  H   LIG d   1      -7.601  81.158 119.743  0.00  0.00     0.149 HD
ENDBRANCH   6  13
BRANCH   5  18
ATOM     18  N   LIG d   1     -10.139  83.282 118.087  0.00  0.00     0.381 N 
ATOM     19  H   LIG d   1      -9.679  83.794 117.361  0.00  0.00    -0.090 HD
ATOM     20  H   LIG d   1     -11.079  83.627 118.168  0.00  0.00    -0.090 HD
ATOM     21  H   LIG d   1     -10.151  82.312 117.863  0.00  0.00    -0.090 HD
ENDBRANCH   5  18
BRANCH   3  22
ATOM     22  C   LIG d   1      -9.806  86.074 121.964  0.00  0.00     0.382 C 
ATOM     23  O   LIG d   1      -8.783  86.657 122.399  0.00  0.00    -0.241 OA
ATOM     24  O   LIG d   1     -10.917  86.628 122.064  0.00  0.00    -0.241 OA
ENDBRANCH   3  22
TORSDOF 7
ENDMDL
MODEL 6
REMARK VINA RESULT:      -4.4      5.521      8.187
REMARK  7 active torsions:
REMARK  status: ('A' for Active; 'I' for Inactive)
REMARK    1  A    between atoms: C_2  and  C_3 
REMARK    2  A    between atoms: C_3  and  O_6 
REMARK    3  A    between atoms: C_3  and  C_4 
REMARK    4  A    between atoms: C_7  and  O_6 
REMARK    5  A    between atoms: C_9  and  C_10 
REMARK    6  A    between atoms: N_15  and  C_14 
REMARK    7  A    between atoms: N_20  and  C_19 
REMARK       I    between atoms: C_22  and  N_20 
ROOT
ATOM      1  C   LIG d   1      -0.072  90.766 117.495  0.00  0.00     0.161 C 
ATOM      2  C   LIG d   1       1.319  90.748 117.693  0.00  0.00     0.016 C 
ATOM      3  C   LIG d   1       1.987  91.606 118.598  0.00  0.00     0.038 C 
ATOM      4  C   LIG d   1       1.287  92.440 119.482  0.00  0.00     0.028 C 
ATOM      5  C   LIG d   1      -0.086  92.856 118.964  0.00  0.00    -0.047 C 
ATOM      6  C   LIG d   1      -0.863  91.592 118.531  0.00  0.00     0.091 C 
ENDROOT
BRANCH   1   7
ATOM      7  O   LIG d   1      -0.575  89.416 117.441  0.00  0.00    -0.368 OA
BRANCH   7   8
ATOM      8  C   LIG d   1      -0.840  88.783 118.717  0.00  0.00     0.119 C 
BRANCH   8   9
ATOM      9  C   LIG d   1       0.087  87.557 118.828  0.00  0.00     0.028 C 
ATOM     10  C   LIG d   1       0.424  86.951 117.456  0.00  0.00     0.006 C 
ENDBRANCH   8   9
BRANCH   8  11
ATOM     11  C   LIG d   1      -2.264  88.222 118.776  0.00  0.00     0.028 C 
ATOM     12  C   LIG d   1      -2.559  87.482 120.090  0.00  0.00     0.006 C 
ENDBRANCH   8  11
ENDBRANCH   7   8
ENDBRANCH   1   7
BRANCH   6  13
ATOM     13  N   LIG d   1      -2.184  91.916 117.933  0.00  0.00    -0.311 N 
ATOM     14  C   LIG d   1      -3.328  91.869 118.615  0.00  0.00     0.210 C 
ATOM     15  C   LIG d   1      -4.579  92.222 117.803  0.00  0.00     0.109 C 
ATOM     16  O   LIG d   1      -3.421  91.602 119.822  0.00  0.00    -0.276 OA
ATOM     17  H   LIG d   1      -2.197  92.174 116.966  0.00  0.00     0.149 HD
ENDBRANCH   6  13
BRANCH   5  18
ATOM     18  N   LIG d   1      -0.759  93.607 120.040  0.00  0.00     0.381 N 
ATOM     19  H   LIG d   1      -1.185  94.431 119.664  0.00  0.00    -0.090 HD
ATOM     20  H   LIG d   1      -0.073  93.889 120.718  0.00  0.00    -0.090 HD
ATOM     21  H   LIG d   1      -1.450  93.036 120.474  0.00  0.00    -0.090 HD
ENDBRANCH   5  18
BRANCH   3  22
ATOM     22  C   LIG d   1       3.372  91.662 118.595  0.00  0.00     0.382 C 
ATOM     23  O   LIG d   1       3.998  91.746 119.680  0.00  0.00    -0.241 OA
ATOM     24  O   LIG d   1       4.002  91.675 117.521  0.00  0.00    -0.241 OA
ENDBRANCH   3  22
TORSDOF 7
ENDMDL
MODEL 7
REMARK VINA RESULT:      -4.3      1.967      2.489
REMARK  7 active torsions:
REMARK  status: ('A' for Active; 'I' for Inactive)
REMARK    1  A    between atoms: C_2  and  C_3 
REMARK    2  A    between atoms: C_3  and  O_6 
REMARK    3  A    between atoms: C_3  and  C_4 
REMARK    4  A    between atoms: C_7  and  O_6 
REMARK    5  A    between atoms: C_9  and  C_10 
REMARK    6  A    between atoms: N_15  and  C_14 
REMARK    7  A    between atoms: N_20  and  C_19 
REMARK       I    between atoms: C_22  and  N_20 
ROOT
ATOM      1  C   LIG d   1      -4.699  92.903 120.223  0.00  0.00     0.161 C 
ATOM      2  C   LIG d   1      -3.854  91.944 119.639  0.00  0.00     0.016 C 
ATOM      3  C   LIG d   1      -4.114  91.336 118.390  0.00  0.00     0.038 C 
ATOM      4  C   LIG d   1      -5.167  91.759 117.564  0.00  0.00     0.028 C 
ATOM      5  C   LIG d   1      -6.334  92.367 118.334  0.00  0.00    -0.047 C 
ATOM      6  C   LIG d   1      -5.792  93.458 119.287  0.00  0.00     0.091 C 
ENDROOT
BRANCH   1   7
ATOM      7  O   LIG d   1      -3.912  93.980 120.768  0.00  0.00    -0.368 OA
BRANCH   7   8
ATOM      8  C   LIG d   1      -3.590  95.059 119.856  0.00  0.00     0.119 C 
BRANCH   8   9
ATOM      9  C   LIG d   1      -2.057  95.088 119.697  0.00  0.00     0.028 C 
ATOM     10  C   LIG d   1      -1.596  94.517 118.346  0.00  0.00     0.006 C 
ENDBRANCH   8   9
BRANCH   8  11
ATOM     11  C   LIG d   1      -3.962  96.421 120.449  0.00  0.00     0.028 C 
ATOM     12  C   LIG d   1      -4.488  96.319 121.890  0.00  0.00     0.006 C 
ENDBRANCH   8  11
ENDBRANCH   7   8
ENDBRANCH   1   7
BRANCH   6  13
ATOM     13  N   LIG d   1      -6.859  94.046 120.139  0.00  0.00    -0.311 N 
ATOM     14  C   LIG d   1      -7.481  95.187 119.850  0.00  0.00     0.210 C 
ATOM     15  C   LIG d   1      -8.535  95.626 120.872  0.00  0.00     0.109 C 
ATOM     16  O   LIG d   1      -7.284  95.862 118.828  0.00  0.00    -0.276 OA
ATOM     17  H   LIG d   1      -7.103  93.548 120.972  0.00  0.00     0.149 HD
ENDBRANCH   6  13
BRANCH   5  18
ATOM     18  N   LIG d   1      -7.296  92.889 117.345  0.00  0.00     0.381 N 
ATOM     19  H   LIG d   1      -7.412  92.228 116.604  0.00  0.00    -0.090 HD
ATOM     20  H   LIG d   1      -6.931  93.740 116.954  0.00  0.00    -0.090 HD
ATOM     21  H   LIG d   1      -8.173  93.066 117.783  0.00  0.00    -0.090 HD
ENDBRANCH   5  18
BRANCH   3  22
ATOM     22  C   LIG d   1      -3.340  90.264 117.973  0.00  0.00     0.382 C 
ATOM     23  O   LIG d   1      -3.817  89.416 117.182  0.00  0.00    -0.241 OA
ATOM     24  O   LIG d   1      -2.185  90.110 118.413  0.00  0.00    -0.241 OA
ENDBRANCH   3  22
TORSDOF 7
ENDMDL
MODEL 8
REMARK VINA RESULT:      -4.3      4.526      6.796
REMARK  7 active torsions:
REMARK  status: ('A' for Active; 'I' for Inactive)
REMARK    1  A    between atoms: C_2  and  C_3 
REMARK    2  A    between atoms: C_3  and  O_6 
REMARK    3  A    between atoms: C_3  and  C_4 
REMARK    4  A    between atoms: C_7  and  O_6 
REMARK    5  A    between atoms: C_9  and  C_10 
REMARK    6  A    between atoms: N_15  and  C_14 
REMARK    7  A    between atoms: N_20  and  C_19 
REMARK       I    between atoms: C_22  and  N_20 
ROOT
ATOM      1  C   LIG d   1      -1.920  90.682 118.328  0.00  0.00     0.161 C 
ATOM      2  C   LIG d   1      -0.551  90.796 118.619  0.00  0.00     0.016 C 
ATOM      3  C   LIG d   1       0.105  92.035 118.805  0.00  0.00     0.038 C 
ATOM      4  C   LIG d   1      -0.601  93.246 118.864  0.00  0.00     0.028 C 
ATOM      5  C   LIG d   1      -1.906  93.225 118.076  0.00  0.00    -0.047 C 
ATOM      6  C   LIG d   1      -2.728  91.986 118.499  0.00  0.00     0.091 C 
ENDROOT
BRANCH   1   7
ATOM      7  O   LIG d   1      -2.501  89.626 119.119  0.00  0.00    -0.368 OA
BRANCH   7   8
ATOM      8  C   LIG d   1      -1.578  88.850 119.921  0.00  0.00     0.119 C 
BRANCH   8   9
ATOM      9  C   LIG d   1      -1.699  87.380 119.474  0.00  0.00     0.028 C 
ATOM     10  C   LIG d   1      -0.481  86.912 118.660  0.00  0.00     0.006 C 
ENDBRANCH   8   9
BRANCH   8  11
ATOM     11  C   LIG d   1      -1.982  88.858 121.399  0.00  0.00     0.028 C 
ATOM     12  C   LIG d   1      -2.255  90.273 121.934  0.00  0.00     0.006 C 
ENDBRANCH   8  11
ENDBRANCH   7   8
ENDBRANCH   1   7
BRANCH   6  13
ATOM     13  N   LIG d   1      -3.983  91.844 117.715  0.00  0.00    -0.311 N 
ATOM     14  C   LIG d   1      -5.164  92.294 118.133  0.00  0.00     0.210 C 
ATOM     15  C   LIG d   1      -6.333  92.026 117.180  0.00  0.00     0.109 C 
ATOM     16  O   LIG d   1      -5.349  92.919 119.188  0.00  0.00    -0.276 OA
ATOM     17  H   LIG d   1      -3.918  91.376 116.831  0.00  0.00     0.149 HD
ENDBRANCH   6  13
BRANCH   5  18
ATOM     18  N   LIG d   1      -2.604  94.498 118.336  0.00  0.00     0.381 N 
ATOM     19  H   LIG d   1      -3.558  94.318 118.577  0.00  0.00    -0.090 HD
ATOM     20  H   LIG d   1      -2.589  95.054 117.499  0.00  0.00    -0.090 HD
ATOM     21  H   LIG d   1      -2.154  94.989 119.077  0.00  0.00    -0.090 HD
ENDBRANCH   5  18
BRANCH   3  22
ATOM     22  C   LIG d   1       1.488  92.074 118.896  0.00  0.00     0.382 C 
ATOM     23  O   LIG d   1       2.036  92.568 119.911  0.00  0.00    -0.241 OA
ATOM     24  O   LIG d   1       2.195  91.661 117.957  0.00  0.00    -0.241 OA
ENDBRANCH   3  22
TORSDOF 7
ENDMDL
MODEL 9
REMARK VINA RESULT:      -4.3     10.906     13.109
REMARK  7 active torsions:
REMARK  status: ('A' for Active; 'I' for Inactive)
REMARK    1  A    between atoms: C_2  and  C_3 
REMARK    2  A    between atoms: C_3  and  O_6 
REMARK    3  A    between atoms: C_3  and  C_4 
REMARK    4  A    between atoms: C_7  and  O_6 
REMARK    5  A    between atoms: C_9  and  C_10 
REMARK    6  A    between atoms: N_15  and  C_14 
REMARK    7  A    between atoms: N_20  and  C_19 
REMARK       I    between atoms: C_22  and  N_20 
ROOT
ATOM      1  C   LIG d   1      -7.230  81.746 119.847  0.00  0.00     0.161 C 
ATOM      2  C   LIG d   1      -7.661  80.464 119.466  0.00  0.00     0.016 C 
ATOM      3  C   LIG d   1      -8.906  80.214 118.845  0.00  0.00     0.038 C 
ATOM      4  C   LIG d   1      -9.747  81.255 118.423  0.00  0.00     0.028 C 
ATOM      5  C   LIG d   1      -9.584  82.533 119.239  0.00  0.00    -0.047 C 
ATOM      6  C   LIG d   1      -8.085  82.906 119.294  0.00  0.00     0.091 C 
ENDROOT
BRANCH   1   7
ATOM      7  O   LIG d   1      -5.847  81.925 119.483  0.00  0.00    -0.368 OA
BRANCH   7   8
ATOM      8  C   LIG d   1      -4.882  81.766 120.551  0.00  0.00     0.119 C 
BRANCH   8   9
ATOM      9  C   LIG d   1      -4.378  83.172 120.933  0.00  0.00     0.028 C 
ATOM     10  C   LIG d   1      -2.966  83.456 120.392  0.00  0.00     0.006 C 
ENDBRANCH   8   9
BRANCH   8  11
ATOM     11  C   LIG d   1      -3.641  81.007 120.072  0.00  0.00     0.028 C 
ATOM     12  C   LIG d   1      -3.932  80.080 118.881  0.00  0.00     0.006 C 
ENDBRANCH   8  11
ENDBRANCH   7   8
ENDBRANCH   1   7
BRANCH   6  13
ATOM     13  N   LIG d   1      -7.829  84.098 120.144  0.00  0.00    -0.311 N 
ATOM     14  C   LIG d   1      -8.028  84.116 121.461  0.00  0.00     0.210 C 
ATOM     15  C   LIG d   1      -7.720  85.453 122.143  0.00  0.00     0.109 C 
ATOM     16  O   LIG d   1      -8.399  83.143 122.134  0.00  0.00    -0.276 OA
ATOM     17  H   LIG d   1      -7.496  84.923 119.684  0.00  0.00     0.149 HD
ENDBRANCH   6  13
BRANCH   5  18
ATOM     18  N   LIG d   1     -10.416  83.574 118.606  0.00  0.00     0.381 N 
ATOM     19  H   LIG d   1     -11.349  83.526 118.965  0.00  0.00    -0.090 HD
ATOM     20  H   LIG d   1     -10.450  83.406 117.616  0.00  0.00    -0.090 HD
ATOM     21  H   LIG d   1     -10.030  84.475 118.785  0.00  0.00    -0.090 HD
ENDBRANCH   5  18
BRANCH   3  22
ATOM     22  C   LIG d   1      -9.340  78.908 118.676  0.00  0.00     0.382 C 
ATOM     23  O   LIG d   1     -10.564  78.642 118.731  0.00  0.00    -0.241 OA
ATOM     24  O   LIG d   1      -8.518  77.985 118.515  0.00  0.00    -0.241 OA
ENDBRANCH   3  22
TORSDOF 7
ENDMDL
