MODEL 1
REMARK VINA RESULT:      -5.6      0.000      0.000
REMARK  7 active torsions:
REMARK  status: ('A' for Active; 'I' for Inactive)
REMARK    1  A    between atoms: C_2  and  C_3 
REMARK    2  A    between atoms: C_3  and  O_6 
REMARK    3  A    between atoms: C_3  and  C_4 
REMARK    4  A    between atoms: C_7  and  O_6 
REMARK    5  A    between atoms: C_9  and  C_10 
REMARK    6  A    between atoms: N_15  and  C_14 
REMARK    7  A    between atoms: N_20  and  C_19 
REMARK       I    between atoms: C_22  and  N_20 
ROOT
ATOM      1  C   LIG d   1      -5.329  92.522 117.881  0.00  0.00     0.161 C 
ATOM      2  C   LIG d   1      -5.399  91.678 116.760  0.00  0.00     0.016 C 
ATOM      3  C   LIG d   1      -6.373  91.812 115.744  0.00  0.00     0.038 C 
ATOM      4  C   LIG d   1      -7.257  92.900 115.704  0.00  0.00     0.028 C 
ATOM      5  C   LIG d   1      -7.552  93.492 117.077  0.00  0.00    -0.047 C 
ATOM      6  C   LIG d   1      -6.215  93.783 117.797  0.00  0.00     0.091 C 
ENDROOT
BRANCH   1   7
ATOM      7  O   LIG d   1      -3.958  92.890 118.131  0.00  0.00    -0.368 OA
BRANCH   7   8
ATOM      8  C   LIG d   1      -3.235  92.053 119.067  0.00  0.00     0.119 C 
BRANCH   8   9
ATOM      9  C   LIG d   1      -2.712  92.964 120.195  0.00  0.00     0.028 C 
ATOM     10  C   LIG d   1      -3.540  92.835 121.484  0.00  0.00     0.006 C 
ENDBRANCH   8   9
BRANCH   8  11
ATOM     11  C   LIG d   1      -1.984  91.448 118.422  0.00  0.00     0.028 C 
ATOM     12  C   LIG d   1      -2.234  90.051 117.832  0.00  0.00     0.006 C 
ENDBRANCH   8  11
ENDBRANCH   7   8
ENDBRANCH   1   7
BRANCH   6  13
ATOM     13  N   LIG d   1      -6.414  94.286 119.181  0.00  0.00    -0.311 N 
ATOM     14  C   LIG d   1      -5.716  95.294 119.702  0.00  0.00     0.210 C 
ATOM     15  C   LIG d   1      -6.065  95.641 121.152  0.00  0.00     0.109 C 
ATOM     16  O   LIG d   1      -4.864  95.955 119.089  0.00  0.00    -0.276 OA
ATOM     17  H   LIG d   1      -7.107  93.827 119.738  0.00  0.00     0.149 HD
ENDBRANCH   6  13
BRANCH   5  18
ATOM     18  N   LIG d   1      -8.374  94.701 116.875  0.00  0.00     0.381 N 
ATOM     19  H   LIG d   1      -9.322  94.512 117.131  0.00  0.00    -0.090 HD
ATOM     20  H   LIG d   1      -8.353  94.948 115.901  0.00  0.00    -0.090 HD
ATOM     21  H   LIG d   1      -8.017  95.452 117.424  0.00  0.00    -0.090 HD
ENDBRANCH   5  18
BRANCH   3  22
ATOM     22  C   LIG d   1      -6.496  90.827 114.776  0.00  0.00     0.382 C 
ATOM     23  O   LIG d   1      -7.340  90.954 113.856  0.00  0.00    -0.241 OA
ATOM     24  O   LIG d   1      -5.804  89.793 114.835  0.00  0.00    -0.241 OA
ENDBRANCH   3  22
TORSDOF 7
ENDMDL
MODEL 2
REMARK VINA RESULT:      -5.6     15.245     17.214
REMARK  7 active torsions:
REMARK  status: ('A' for Active; 'I' for Inactive)
REMARK    1  A    between atoms: C_2  and  C_3 
REMARK    2  A    between atoms: C_3  and  O_6 
REMARK    3  A    between atoms: C_3  and  C_4 
REMARK    4  A    between atoms: C_7  and  O_6 
REMARK    5  A    between atoms: C_9  and  C_10 
REMARK    6  A    between atoms: N_15  and  C_14 
REMARK    7  A    between atoms: N_20  and  C_19 
REMARK       I    between atoms: C_22  and  N_20 
ROOT
ATOM      1  C   LIG d   1      -7.313  76.263 116.892  0.00  0.00     0.161 C 
ATOM      2  C   LIG d   1      -6.610  75.751 115.788  0.00  0.00     0.016 C 
ATOM      3  C   LIG d   1      -5.374  76.273 115.343  0.00  0.00     0.038 C 
ATOM      4  C   LIG d   1      -4.677  77.250 116.069  0.00  0.00     0.028 C 
ATOM      5  C   LIG d   1      -5.585  78.145 116.905  0.00  0.00    -0.047 C 
ATOM      6  C   LIG d   1      -6.515  77.256 117.762  0.00  0.00     0.091 C 
ENDROOT
BRANCH   1   7
ATOM      7  O   LIG d   1      -7.811  75.177 117.699  0.00  0.00    -0.368 OA
BRANCH   7   8
ATOM      8  C   LIG d   1      -8.139  73.956 116.993  0.00  0.00     0.119 C 
BRANCH   8   9
ATOM      9  C   LIG d   1      -9.621  73.641 117.276  0.00  0.00     0.028 C 
ATOM     10  C   LIG d   1      -9.894  72.130 117.361  0.00  0.00     0.006 C 
ENDBRANCH   8   9
BRANCH   8  11
ATOM     11  C   LIG d   1      -7.357  72.763 117.550  0.00  0.00     0.028 C 
ATOM     12  C   LIG d   1      -6.486  72.073 116.488  0.00  0.00     0.006 C 
ENDBRANCH   8  11
ENDBRANCH   7   8
ENDBRANCH   1   7
BRANCH   6  13
ATOM     13  N   LIG d   1      -7.493  78.052 118.549  0.00  0.00    -0.311 N 
ATOM     14  C   LIG d   1      -7.269  78.464 119.795  0.00  0.00     0.210 C 
ATOM     15  C   LIG d   1      -8.418  79.254 120.431  0.00  0.00     0.109 C 
ATOM     16  O   LIG d   1      -6.216  78.279 120.423  0.00  0.00    -0.276 OA
ATOM     17  H   LIG d   1      -8.363  78.274 118.105  0.00  0.00     0.149 HD
ENDBRANCH   6  13
BRANCH   5  18
ATOM     18  N   LIG d   1      -4.721  79.026 117.714  0.00  0.00     0.381 N 
ATOM     19  H   LIG d   1      -3.763  78.765 117.591  0.00  0.00    -0.090 HD
ATOM     20  H   LIG d   1      -4.957  78.912 118.684  0.00  0.00    -0.090 HD
ATOM     21  H   LIG d   1      -4.852  79.975 117.442  0.00  0.00    -0.090 HD
ENDBRANCH   5  18
BRANCH   3  22
ATOM     22  C   LIG d   1      -4.841  75.843 114.137  0.00  0.00     0.382 C 
ATOM     23  O   LIG d   1      -5.009  76.526 113.099  0.00  0.00    -0.241 OA
ATOM     24  O   LIG d   1      -4.232  74.758 114.067  0.00  0.00    -0.241 OA
ENDBRANCH   3  22
TORSDOF 7
ENDMDL
MODEL 3
REMARK VINA RESULT:      -5.5     33.269     35.839
REMARK  7 active torsions:
REMARK  status: ('A' for Active; 'I' for Inactive)
REMARK    1  A    between atoms: C_2  and  C_3 
REMARK    2  A    between atoms: C_3  and  O_6 
REMARK    3  A    between atoms: C_3  and  C_4 
REMARK    4  A    between atoms: C_7  and  O_6 
REMARK    5  A    between atoms: C_9  and  C_10 
REMARK    6  A    between atoms: N_15  and  C_14 
REMARK    7  A    between atoms: N_20  and  C_19 
REMARK       I    between atoms: C_22  and  N_20 
ROOT
ATOM      1  C   LIG d   1       0.365  57.763 119.341  0.00  0.00     0.161 C 
ATOM      2  C   LIG d   1       0.202  58.741 118.346  0.00  0.00     0.016 C 
ATOM      3  C   LIG d   1      -0.096  58.438 116.997  0.00  0.00     0.038 C 
ATOM      4  C   LIG d   1      -0.402  57.133 116.581  0.00  0.00     0.028 C 
ATOM      5  C   LIG d   1       0.244  56.055 117.444  0.00  0.00    -0.047 C 
ATOM      6  C   LIG d   1      -0.075  56.343 118.929  0.00  0.00     0.091 C 
ENDROOT
BRANCH   1   7
ATOM      7  O   LIG d   1      -0.318  58.171 120.543  0.00  0.00    -0.368 OA
BRANCH   7   8
ATOM      8  C   LIG d   1      -1.439  59.071 120.365  0.00  0.00     0.119 C 
BRANCH   8   9
ATOM      9  C   LIG d   1      -1.465  60.023 121.577  0.00  0.00     0.028 C 
ATOM     10  C   LIG d   1      -0.294  61.020 121.564  0.00  0.00     0.006 C 
ENDBRANCH   8   9
BRANCH   8  11
ATOM     11  C   LIG d   1      -2.771  58.317 120.413  0.00  0.00     0.028 C 
ATOM     12  C   LIG d   1      -3.369  58.073 119.019  0.00  0.00     0.006 C 
ENDBRANCH   8  11
ENDBRANCH   7   8
ENDBRANCH   1   7
BRANCH   6  13
ATOM     13  N   LIG d   1       0.590  55.382 119.848  0.00  0.00    -0.311 N 
ATOM     14  C   LIG d   1      -0.047  54.744 120.828  0.00  0.00     0.210 C 
ATOM     15  C   LIG d   1       0.830  53.814 121.672  0.00  0.00     0.109 C 
ATOM     16  O   LIG d   1      -1.262  54.836 121.059  0.00  0.00    -0.276 OA
ATOM     17  H   LIG d   1       1.570  55.224 119.712  0.00  0.00     0.149 HD
ENDBRANCH   6  13
BRANCH   5  18
ATOM     18  N   LIG d   1      -0.268  54.750 116.985  0.00  0.00     0.381 N 
ATOM     19  H   LIG d   1       0.463  54.068 117.019  0.00  0.00    -0.090 HD
ATOM     20  H   LIG d   1      -0.574  54.838 116.032  0.00  0.00    -0.090 HD
ATOM     21  H   LIG d   1      -1.029  54.461 117.560  0.00  0.00    -0.090 HD
ENDBRANCH   5  18
BRANCH   3  22
ATOM     22  C   LIG d   1      -0.051  59.441 116.041  0.00  0.00     0.382 C 
ATOM     23  O   LIG d   1      -0.816  59.395 115.048  0.00  0.00    -0.241 OA
ATOM     24  O   LIG d   1       0.777  60.366 116.135  0.00  0.00    -0.241 OA
ENDBRANCH   3  22
TORSDOF 7
ENDMDL
MODEL 4
REMARK VINA RESULT:      -5.4      2.123      4.414
REMARK  7 active torsions:
REMARK  status: ('A' for Active; 'I' for Inactive)
REMARK    1  A    between atoms: C_2  and  C_3 
REMARK    2  A    between atoms: C_3  and  O_6 
REMARK    3  A    between atoms: C_3  and  C_4 
REMARK    4  A    between atoms: C_7  and  O_6 
REMARK    5  A    between atoms: C_9  and  C_10 
REMARK    6  A    between atoms: N_15  and  C_14 
REMARK    7  A    between atoms: N_20  and  C_19 
REMARK       I    between atoms: C_22  and  N_20 
ROOT
ATOM      1  C   LIG d   1      -6.903  93.942 117.830  0.00  0.00     0.161 C 
ATOM      2  C   LIG d   1      -7.303  92.886 116.995  0.00  0.00     0.016 C 
ATOM      3  C   LIG d   1      -6.431  91.856 116.572  0.00  0.00     0.038 C 
ATOM      4  C   LIG d   1      -5.130  91.730 117.081  0.00  0.00     0.028 C 
ATOM      5  C   LIG d   1      -4.525  93.055 117.533  0.00  0.00    -0.047 C 
ATOM      6  C   LIG d   1      -5.518  93.760 118.485  0.00  0.00     0.091 C 
ENDROOT
BRANCH   1   7
ATOM      7  O   LIG d   1      -7.907  94.175 118.838  0.00  0.00    -0.368 OA
BRANCH   7   8
ATOM      8  C   LIG d   1      -8.648  95.415 118.725  0.00  0.00     0.119 C 
BRANCH   8   9
ATOM      9  C   LIG d   1      -8.142  96.143 117.464  0.00  0.00     0.028 C 
ATOM     10  C   LIG d   1      -7.765  97.608 117.744  0.00  0.00     0.006 C 
ENDBRANCH   8   9
BRANCH   8  11
ATOM     11  C   LIG d   1      -8.336  96.359 119.891  0.00  0.00     0.028 C 
ATOM     12  C   LIG d   1      -7.866  95.615 121.150  0.00  0.00     0.006 C 
ENDBRANCH   8  11
ENDBRANCH   7   8
ENDBRANCH   1   7
BRANCH   6  13
ATOM     13  N   LIG d   1      -5.040  95.103 118.908  0.00  0.00    -0.311 N 
ATOM     14  C   LIG d   1      -4.349  95.316 120.026  0.00  0.00     0.210 C 
ATOM     15  C   LIG d   1      -3.971  96.778 120.284  0.00  0.00     0.109 C 
ATOM     16  O   LIG d   1      -3.985  94.429 120.813  0.00  0.00    -0.276 OA
ATOM     17  H   LIG d   1      -5.264  95.875 118.312  0.00  0.00     0.149 HD
ENDBRANCH   6  13
BRANCH   5  18
ATOM     18  N   LIG d   1      -3.227  92.758 118.167  0.00  0.00     0.381 N 
ATOM     19  H   LIG d   1      -2.625  93.554 118.094  0.00  0.00    -0.090 HD
ATOM     20  H   LIG d   1      -2.796  91.991 117.681  0.00  0.00    -0.090 HD
ATOM     21  H   LIG d   1      -3.361  92.521 119.125  0.00  0.00    -0.090 HD
ENDBRANCH   5  18
BRANCH   3  22
ATOM     22  C   LIG d   1      -6.847  90.961 115.598  0.00  0.00     0.382 C 
ATOM     23  O   LIG d   1      -6.081  90.041 115.223  0.00  0.00    -0.241 OA
ATOM     24  O   LIG d   1      -7.962  91.089 115.057  0.00  0.00    -0.241 OA
ENDBRANCH   3  22
TORSDOF 7
ENDMDL
MODEL 5
REMARK VINA RESULT:      -5.4     13.718     15.974
REMARK  7 active torsions:
REMARK  status: ('A' for Active; 'I' for Inactive)
REMARK    1  A    between atoms: C_2  and  C_3 
REMARK    2  A    between atoms: C_3  and  O_6 
REMARK    3  A    between atoms: C_3  and  C_4 
REMARK    4  A    between atoms: C_7  and  O_6 
REMARK    5  A    between atoms: C_9  and  C_10 
REMARK    6  A    between atoms: N_15  and  C_14 
REMARK    7  A    between atoms: N_20  and  C_19 
REMARK       I    between atoms: C_22  and  N_20 
ROOT
ATOM      1  C   LIG d   1      -7.181  77.523 117.963  0.00  0.00     0.161 C 
ATOM      2  C   LIG d   1      -8.351  78.208 118.330  0.00  0.00     0.016 C 
ATOM      3  C   LIG d   1      -8.413  79.612 118.487  0.00  0.00     0.038 C 
ATOM      4  C   LIG d   1      -7.340  80.446 118.137  0.00  0.00     0.028 C 
ATOM      5  C   LIG d   1      -5.982  79.761 118.244  0.00  0.00    -0.047 C 
ATOM      6  C   LIG d   1      -6.030  78.425 117.470  0.00  0.00     0.091 C 
ENDROOT
BRANCH   1   7
ATOM      7  O   LIG d   1      -7.492  76.521 116.974  0.00  0.00    -0.368 OA
BRANCH   7   8
ATOM      8  C   LIG d   1      -8.090  75.299 117.471  0.00  0.00     0.119 C 
BRANCH   8   9
ATOM      9  C   LIG d   1      -7.227  74.124 116.971  0.00  0.00     0.028 C 
ATOM     10  C   LIG d   1      -6.078  74.587 116.059  0.00  0.00     0.006 C 
ENDBRANCH   8   9
BRANCH   8  11
ATOM     11  C   LIG d   1      -9.477  75.070 116.864  0.00  0.00     0.028 C 
ATOM     12  C   LIG d   1      -9.976  73.628 117.043  0.00  0.00     0.006 C 
ENDBRANCH   8  11
ENDBRANCH   7   8
ENDBRANCH   1   7
BRANCH   6  13
ATOM     13  N   LIG d   1      -4.767  77.651 117.594  0.00  0.00    -0.311 N 
ATOM     14  C   LIG d   1      -3.785  77.702 116.696  0.00  0.00     0.210 C 
ATOM     15  C   LIG d   1      -2.578  76.811 117.006  0.00  0.00     0.109 C 
ATOM     16  O   LIG d   1      -3.785  78.425 115.688  0.00  0.00    -0.276 OA
ATOM     17  H   LIG d   1      -4.670  77.062 118.397  0.00  0.00     0.149 HD
ENDBRANCH   6  13
BRANCH   5  18
ATOM     18  N   LIG d   1      -4.969  80.697 117.720  0.00  0.00     0.381 N 
ATOM     19  H   LIG d   1      -4.832  80.535 116.743  0.00  0.00    -0.090 HD
ATOM     20  H   LIG d   1      -4.098  80.531 118.193  0.00  0.00    -0.090 HD
ATOM     21  H   LIG d   1      -5.263  81.637 117.870  0.00  0.00    -0.090 HD
ENDBRANCH   5  18
BRANCH   3  22
ATOM     22  C   LIG d   1      -9.546  80.193 119.036  0.00  0.00     0.382 C 
ATOM     23  O   LIG d   1     -10.550  79.486 119.294  0.00  0.00    -0.241 OA
ATOM     24  O   LIG d   1      -9.593  81.421 119.236  0.00  0.00    -0.241 OA
ENDBRANCH   3  22
TORSDOF 7
ENDMDL
MODEL 6
REMARK VINA RESULT:      -5.3     33.813     35.565
REMARK  7 active torsions:
REMARK  status: ('A' for Active; 'I' for Inactive)
REMARK    1  A    between atoms: C_2  and  C_3 
REMARK    2  A    between atoms: C_3  and  O_6 
REMARK    3  A    between atoms: C_3  and  C_4 
REMARK    4  A    between atoms: C_7  and  O_6 
REMARK    5  A    between atoms: C_9  and  C_10 
REMARK    6  A    between atoms: N_15  and  C_14 
REMARK    7  A    between atoms: N_20  and  C_19 
REMARK       I    between atoms: C_22  and  N_20 
ROOT
ATOM      1  C   LIG d   1       0.214  58.469 119.555  0.00  0.00     0.161 C 
ATOM      2  C   LIG d   1      -1.154  58.198 119.378  0.00  0.00     0.016 C 
ATOM      3  C   LIG d   1      -1.842  58.428 118.165  0.00  0.00     0.038 C 
ATOM      4  C   LIG d   1      -1.172  58.805 116.992  0.00  0.00     0.028 C 
ATOM      5  C   LIG d   1       0.119  59.574 117.253  0.00  0.00    -0.047 C 
ATOM      6  C   LIG d   1       0.985  58.776 118.254  0.00  0.00     0.091 C 
ENDROOT
BRANCH   1   7
ATOM      7  O   LIG d   1       0.839  57.381 120.264  0.00  0.00    -0.368 OA
BRANCH   7   8
ATOM      8  C   LIG d   1       0.291  56.062 120.021  0.00  0.00     0.119 C 
BRANCH   8   9
ATOM      9  C   LIG d   1       0.260  55.318 121.370  0.00  0.00     0.028 C 
ATOM     10  C   LIG d   1      -1.174  55.050 121.859  0.00  0.00     0.006 C 
ENDBRANCH   8   9
BRANCH   8  11
ATOM     11  C   LIG d   1       1.212  55.233 119.121  0.00  0.00     0.028 C 
ATOM     12  C   LIG d   1       0.733  55.183 117.662  0.00  0.00     0.006 C 
ENDBRANCH   8  11
ENDBRANCH   7   8
ENDBRANCH   1   7
BRANCH   6  13
ATOM     13  N   LIG d   1       2.229  59.497 118.629  0.00  0.00    -0.311 N 
ATOM     14  C   LIG d   1       3.420  58.908 118.720  0.00  0.00     0.210 C 
ATOM     15  C   LIG d   1       4.568  59.830 119.140  0.00  0.00     0.109 C 
ATOM     16  O   LIG d   1       3.640  57.715 118.461  0.00  0.00    -0.276 OA
ATOM     17  H   LIG d   1       2.147  60.476 118.826  0.00  0.00     0.149 HD
ENDBRANCH   6  13
BRANCH   5  18
ATOM     18  N   LIG d   1       0.784  59.783 115.952  0.00  0.00     0.381 N 
ATOM     19  H   LIG d   1       0.694  58.961 115.390  0.00  0.00    -0.090 HD
ATOM     20  H   LIG d   1       1.762  59.951 116.111  0.00  0.00    -0.090 HD
ATOM     21  H   LIG d   1       0.377  60.562 115.483  0.00  0.00    -0.090 HD
ENDBRANCH   5  18
BRANCH   3  22
ATOM     22  C   LIG d   1      -3.224  58.319 118.128  0.00  0.00     0.382 C 
ATOM     23  O   LIG d   1      -3.785  57.300 118.598  0.00  0.00    -0.241 OA
ATOM     24  O   LIG d   1      -3.913  59.206 117.590  0.00  0.00    -0.241 OA
ENDBRANCH   3  22
TORSDOF 7
ENDMDL
MODEL 7
REMARK VINA RESULT:      -5.3     14.497     16.979
REMARK  7 active torsions:
REMARK  status: ('A' for Active; 'I' for Inactive)
REMARK    1  A    between atoms: C_2  and  C_3 
REMARK    2  A    between atoms: C_3  and  O_6 
REMARK    3  A    between atoms: C_3  and  C_4 
REMARK    4  A    between atoms: C_7  and  O_6 
REMARK    5  A    between atoms: C_9  and  C_10 
REMARK    6  A    between atoms: N_15  and  C_14 
REMARK    7  A    between atoms: N_20  and  C_19 
REMARK       I    between atoms: C_22  and  N_20 
ROOT
ATOM      1  C   LIG d   1      -2.989  77.474 116.926  0.00  0.00     0.161 C 
ATOM      2  C   LIG d   1      -3.204  78.428 115.918  0.00  0.00     0.016 C 
ATOM      3  C   LIG d   1      -2.315  78.635 114.839  0.00  0.00     0.038 C 
ATOM      4  C   LIG d   1      -1.217  77.791 114.611  0.00  0.00     0.028 C 
ATOM      5  C   LIG d   1      -0.682  77.137 115.880  0.00  0.00    -0.047 C 
ATOM      6  C   LIG d   1      -1.855  76.469 116.634  0.00  0.00     0.091 C 
ENDROOT
BRANCH   1   7
ATOM      7  O   LIG d   1      -4.218  76.775 117.207  0.00  0.00    -0.368 OA
BRANCH   7   8
ATOM      8  C   LIG d   1      -5.194  76.746 116.137  0.00  0.00     0.119 C 
BRANCH   8   9
ATOM      9  C   LIG d   1      -6.573  77.039 116.761  0.00  0.00     0.028 C 
ATOM     10  C   LIG d   1      -7.488  75.803 116.767  0.00  0.00     0.006 C 
ENDBRANCH   8   9
BRANCH   8  11
ATOM     11  C   LIG d   1      -5.313  75.346 115.529  0.00  0.00     0.028 C 
ATOM     12  C   LIG d   1      -4.522  75.196 114.220  0.00  0.00     0.006 C 
ENDBRANCH   8  11
ENDBRANCH   7   8
ENDBRANCH   1   7
BRANCH   6  13
ATOM     13  N   LIG d   1      -1.433  75.878 117.930  0.00  0.00    -0.311 N 
ATOM     14  C   LIG d   1      -1.002  74.624 118.058  0.00  0.00     0.210 C 
ATOM     15  C   LIG d   1      -0.636  74.209 119.487  0.00  0.00     0.109 C 
ATOM     16  O   LIG d   1      -0.858  73.826 117.120  0.00  0.00    -0.276 OA
ATOM     17  H   LIG d   1      -1.488  76.466 118.739  0.00  0.00     0.149 HD
ENDBRANCH   6  13
BRANCH   5  18
ATOM     18  N   LIG d   1       0.368  76.181 115.481  0.00  0.00     0.381 N 
ATOM     19  H   LIG d   1       1.270  76.567 115.674  0.00  0.00    -0.090 HD
ATOM     20  H   LIG d   1       0.300  76.018 114.491  0.00  0.00    -0.090 HD
ATOM     21  H   LIG d   1       0.253  75.323 115.974  0.00  0.00    -0.090 HD
ENDBRANCH   5  18
BRANCH   3  22
ATOM     22  C   LIG d   1      -2.497  79.720 113.996  0.00  0.00     0.382 C 
ATOM     23  O   LIG d   1      -2.039  79.691 112.828  0.00  0.00    -0.241 OA
ATOM     24  O   LIG d   1      -3.074  80.746 114.403  0.00  0.00    -0.241 OA
ENDBRANCH   3  22
TORSDOF 7
ENDMDL
MODEL 8
REMARK VINA RESULT:      -5.3     13.196     15.723
REMARK  7 active torsions:
REMARK  status: ('A' for Active; 'I' for Inactive)
REMARK    1  A    between atoms: C_2  and  C_3 
REMARK    2  A    between atoms: C_3  and  O_6 
REMARK    3  A    between atoms: C_3  and  C_4 
REMARK    4  A    between atoms: C_7  and  O_6 
REMARK    5  A    between atoms: C_9  and  C_10 
REMARK    6  A    between atoms: N_15  and  C_14 
REMARK    7  A    between atoms: N_20  and  C_19 
REMARK       I    between atoms: C_22  and  N_20 
ROOT
ATOM      1  C   LIG d   1      -1.914  78.727 115.239  0.00  0.00     0.161 C 
ATOM      2  C   LIG d   1      -2.405  79.586 114.242  0.00  0.00     0.016 C 
ATOM      3  C   LIG d   1      -1.659  80.660 113.704  0.00  0.00     0.038 C 
ATOM      4  C   LIG d   1      -0.307  80.857 114.023  0.00  0.00     0.028 C 
ATOM      5  C   LIG d   1       0.075  80.323 115.399  0.00  0.00    -0.047 C 
ATOM      6  C   LIG d   1      -0.402  78.858 115.519  0.00  0.00     0.091 C 
ENDROOT
BRANCH   1   7
ATOM      7  O   LIG d   1      -2.248  77.362 114.916  0.00  0.00    -0.368 OA
BRANCH   7   8
ATOM      8  C   LIG d   1      -3.525  76.886 115.407  0.00  0.00     0.119 C 
BRANCH   8   9
ATOM      9  C   LIG d   1      -3.258  76.097 116.703  0.00  0.00     0.028 C 
ATOM     10  C   LIG d   1      -2.365  74.867 116.469  0.00  0.00     0.006 C 
ENDBRANCH   8   9
BRANCH   8  11
ATOM     11  C   LIG d   1      -4.151  75.876 114.440  0.00  0.00     0.028 C 
ATOM     12  C   LIG d   1      -5.574  76.267 114.010  0.00  0.00     0.006 C 
ENDBRANCH   8  11
ENDBRANCH   7   8
ENDBRANCH   1   7
BRANCH   6  13
ATOM     13  N   LIG d   1      -0.143  78.285 116.866  0.00  0.00    -0.311 N 
ATOM     14  C   LIG d   1       0.385  77.078 117.061  0.00  0.00     0.210 C 
ATOM     15  C   LIG d   1       0.550  76.674 118.529  0.00  0.00     0.109 C 
ATOM     16  O   LIG d   1       0.763  76.318 116.157  0.00  0.00    -0.276 OA
ATOM     17  H   LIG d   1      -0.391  78.848 117.656  0.00  0.00     0.149 HD
ENDBRANCH   6  13
BRANCH   5  18
ATOM     18  N   LIG d   1       1.536  80.469 115.544  0.00  0.00     0.381 N 
ATOM     19  H   LIG d   1       1.840  80.013 116.382  0.00  0.00    -0.090 HD
ATOM     20  H   LIG d   1       1.759  81.446 115.618  0.00  0.00    -0.090 HD
ATOM     21  H   LIG d   1       1.998  80.073 114.755  0.00  0.00    -0.090 HD
ENDBRANCH   5  18
BRANCH   3  22
ATOM     22  C   LIG d   1      -2.278  81.576 112.867  0.00  0.00     0.382 C 
ATOM     23  O   LIG d   1      -1.594  82.443 112.271  0.00  0.00    -0.241 OA
ATOM     24  O   LIG d   1      -3.517  81.574 112.735  0.00  0.00    -0.241 OA
ENDBRANCH   3  22
TORSDOF 7
ENDMDL
MODEL 9
REMARK VINA RESULT:      -5.3     15.329     17.931
REMARK  7 active torsions:
REMARK  status: ('A' for Active; 'I' for Inactive)
REMARK    1  A    between atoms: C_2  and  C_3 
REMARK    2  A    between atoms: C_3  and  O_6 
REMARK    3  A    between atoms: C_3  and  C_4 
REMARK    4  A    between atoms: C_7  and  O_6 
REMARK    5  A    between atoms: C_9  and  C_10 
REMARK    6  A    between atoms: N_15  and  C_14 
REMARK    7  A    between atoms: N_20  and  C_19 
REMARK       I    between atoms: C_22  and  N_20 
ROOT
ATOM      1  C   LIG d   1      -2.365  75.716 115.914  0.00  0.00     0.161 C 
ATOM      2  C   LIG d   1      -2.028  74.901 117.007  0.00  0.00     0.016 C 
ATOM      3  C   LIG d   1      -0.922  75.151 117.852  0.00  0.00     0.038 C 
ATOM      4  C   LIG d   1      -0.162  76.325 117.751  0.00  0.00     0.028 C 
ATOM      5  C   LIG d   1      -0.155  76.924 116.349  0.00  0.00    -0.047 C 
ATOM      6  C   LIG d   1      -1.614  77.063 115.856  0.00  0.00     0.091 C 
ENDROOT
BRANCH   1   7
ATOM      7  O   LIG d   1      -3.789  75.936 115.889  0.00  0.00    -0.368 OA
BRANCH   7   8
ATOM      8  C   LIG d   1      -4.566  74.993 115.110  0.00  0.00     0.119 C 
BRANCH   8   9
ATOM      9  C   LIG d   1      -5.091  75.740 113.869  0.00  0.00     0.028 C 
ATOM     10  C   LIG d   1      -6.336  76.588 114.177  0.00  0.00     0.006 C 
ENDBRANCH   8   9
BRANCH   8  11
ATOM     11  C   LIG d   1      -5.817  74.540 115.869  0.00  0.00     0.028 C 
ATOM     12  C   LIG d   1      -5.894  73.014 116.033  0.00  0.00     0.006 C 
ENDBRANCH   8  11
ENDBRANCH   7   8
ENDBRANCH   1   7
BRANCH   6  13
ATOM     13  N   LIG d   1      -1.695  77.563 114.458  0.00  0.00    -0.311 N 
ATOM     14  C   LIG d   1      -2.570  78.484 114.059  0.00  0.00     0.210 C 
ATOM     15  C   LIG d   1      -2.497  78.842 112.571  0.00  0.00     0.109 C 
ATOM     16  O   LIG d   1      -3.378  79.061 114.801  0.00  0.00    -0.276 OA
ATOM     17  H   LIG d   1      -1.054  77.170 113.796  0.00  0.00     0.149 HD
ENDBRANCH   6  13
BRANCH   5  18
ATOM     18  N   LIG d   1       0.557  78.213 116.418  0.00  0.00     0.381 N 
ATOM     19  H   LIG d   1      -0.085  78.964 116.259  0.00  0.00    -0.090 HD
ATOM     20  H   LIG d   1       1.256  78.238 115.696  0.00  0.00    -0.090 HD
ATOM     21  H   LIG d   1       0.987  78.318 117.310  0.00  0.00    -0.090 HD
ENDBRANCH   5  18
BRANCH   3  22
ATOM     22  C   LIG d   1      -0.542  74.199 118.786  0.00  0.00     0.382 C 
ATOM     23  O   LIG d   1      -0.135  73.075 118.406  0.00  0.00    -0.241 OA
ATOM     24  O   LIG d   1      -0.645  74.434 120.005  0.00  0.00    -0.241 OA
ENDBRANCH   3  22
TORSDOF 7
ENDMDL
