MODEL 1
REMARK VINA RESULT:      -5.5      0.000      0.000
REMARK  7 active torsions:
REMARK  status: ('A' for Active; 'I' for Inactive)
REMARK    1  A    between atoms: C_2  and  C_3 
REMARK    2  A    between atoms: C_3  and  O_6 
REMARK    3  A    between atoms: C_3  and  C_4 
REMARK    4  A    between atoms: C_7  and  O_6 
REMARK    5  A    between atoms: C_9  and  C_10 
REMARK    6  A    between atoms: N_15  and  C_14 
REMARK    7  A    between atoms: N_20  and  C_19 
REMARK       I    between atoms: C_22  and  N_20 
ROOT
ATOM      1  C   LIG d   1      -5.097  92.225 118.245  0.00  0.00     0.161 C 
ATOM      2  C   LIG d   1      -5.173  91.385 117.121  0.00  0.00     0.016 C 
ATOM      3  C   LIG d   1      -6.212  91.459 116.165  0.00  0.00     0.038 C 
ATOM      4  C   LIG d   1      -7.169  92.484 116.187  0.00  0.00     0.028 C 
ATOM      5  C   LIG d   1      -7.424  93.045 117.582  0.00  0.00    -0.047 C 
ATOM      6  C   LIG d   1      -6.071  93.421 118.226  0.00  0.00     0.091 C 
ENDROOT
BRANCH   1   7
ATOM      7  O   LIG d   1      -3.742  92.684 118.421  0.00  0.00    -0.368 OA
BRANCH   7   8
ATOM      8  C   LIG d   1      -2.702  91.700 118.200  0.00  0.00     0.119 C 
BRANCH   8   9
ATOM      9  C   LIG d   1      -2.607  90.833 119.470  0.00  0.00     0.028 C 
ATOM     10  C   LIG d   1      -2.802  89.336 119.175  0.00  0.00     0.006 C 
ENDBRANCH   8   9
BRANCH   8  11
ATOM     11  C   LIG d   1      -1.329  92.363 118.058  0.00  0.00     0.028 C 
ATOM     12  C   LIG d   1      -1.419  93.833 117.619  0.00  0.00     0.006 C 
ENDBRANCH   8  11
ENDBRANCH   7   8
ENDBRANCH   1   7
BRANCH   6  13
ATOM     13  N   LIG d   1      -6.223  93.900 119.625  0.00  0.00    -0.311 N 
ATOM     14  C   LIG d   1      -6.263  95.188 119.959  0.00  0.00     0.210 C 
ATOM     15  C   LIG d   1      -6.405  95.464 121.459  0.00  0.00     0.109 C 
ATOM     16  O   LIG d   1      -6.227  96.130 119.152  0.00  0.00    -0.276 OA
ATOM     17  H   LIG d   1      -6.291  93.203 120.341  0.00  0.00     0.149 HD
ENDBRANCH   6  13
BRANCH   5  18
ATOM     18  N   LIG d   1      -8.337  94.194 117.440  0.00  0.00     0.381 N 
ATOM     19  H   LIG d   1      -9.285  93.889 117.540  0.00  0.00    -0.090 HD
ATOM     20  H   LIG d   1      -8.228  94.585 116.520  0.00  0.00    -0.090 HD
ATOM     21  H   LIG d   1      -8.127  94.883 118.128  0.00  0.00    -0.090 HD
ENDBRANCH   5  18
BRANCH   3  22
ATOM     22  C   LIG d   1      -6.323  90.475 115.194  0.00  0.00     0.382 C 
ATOM     23  O   LIG d   1      -7.403  90.325 114.574  0.00  0.00    -0.241 OA
ATOM     24  O   LIG d   1      -5.370  89.706 114.962  0.00  0.00    -0.241 OA
ENDBRANCH   3  22
TORSDOF 7
ENDMDL
MODEL 2
REMARK VINA RESULT:      -5.5      2.171      4.374
REMARK  7 active torsions:
REMARK  status: ('A' for Active; 'I' for Inactive)
REMARK    1  A    between atoms: C_2  and  C_3 
REMARK    2  A    between atoms: C_3  and  O_6 
REMARK    3  A    between atoms: C_3  and  C_4 
REMARK    4  A    between atoms: C_7  and  O_6 
REMARK    5  A    between atoms: C_9  and  C_10 
REMARK    6  A    between atoms: N_15  and  C_14 
REMARK    7  A    between atoms: N_20  and  C_19 
REMARK       I    between atoms: C_22  and  N_20 
ROOT
ATOM      1  C   LIG d   1      -5.959  92.980 118.166  0.00  0.00     0.161 C 
ATOM      2  C   LIG d   1      -6.832  92.403 117.229  0.00  0.00     0.016 C 
ATOM      3  C   LIG d   1      -6.424  91.446 116.271  0.00  0.00     0.038 C 
ATOM      4  C   LIG d   1      -5.138  90.886 116.284  0.00  0.00     0.028 C 
ATOM      5  C   LIG d   1      -4.083  91.806 116.889  0.00  0.00    -0.047 C 
ATOM      6  C   LIG d   1      -4.578  92.299 118.268  0.00  0.00     0.091 C 
ENDROOT
BRANCH   1   7
ATOM      7  O   LIG d   1      -6.592  93.025 119.460  0.00  0.00    -0.368 OA
BRANCH   7   8
ATOM      8  C   LIG d   1      -7.020  94.332 119.915  0.00  0.00     0.119 C 
BRANCH   8   9
ATOM      9  C   LIG d   1      -8.556  94.385 119.792  0.00  0.00     0.028 C 
ATOM     10  C   LIG d   1      -9.017  95.137 118.531  0.00  0.00     0.006 C 
ENDBRANCH   8   9
BRANCH   8  11
ATOM     11  C   LIG d   1      -6.501  95.440 118.995  0.00  0.00     0.028 C 
ATOM     12  C   LIG d   1      -5.459  96.342 119.676  0.00  0.00     0.006 C 
ENDBRANCH   8  11
ENDBRANCH   7   8
ENDBRANCH   1   7
BRANCH   6  13
ATOM     13  N   LIG d   1      -3.643  93.271 118.892  0.00  0.00    -0.311 N 
ATOM     14  C   LIG d   1      -2.705  92.924 119.772  0.00  0.00     0.210 C 
ATOM     15  C   LIG d   1      -1.860  94.085 120.308  0.00  0.00     0.109 C 
ATOM     16  O   LIG d   1      -2.470  91.762 120.134  0.00  0.00    -0.276 OA
ATOM     17  H   LIG d   1      -3.742  94.232 118.630  0.00  0.00     0.149 HD
ENDBRANCH   6  13
BRANCH   5  18
ATOM     18  N   LIG d   1      -2.821  91.046 116.966  0.00  0.00     0.381 N 
ATOM     19  H   LIG d   1      -2.121  91.597 117.422  0.00  0.00    -0.090 HD
ATOM     20  H   LIG d   1      -2.505  90.845 116.034  0.00  0.00    -0.090 HD
ATOM     21  H   LIG d   1      -2.964  90.197 117.467  0.00  0.00    -0.090 HD
ENDBRANCH   5  18
BRANCH   3  22
ATOM     22  C   LIG d   1      -7.296  91.070 115.261  0.00  0.00     0.382 C 
ATOM     23  O   LIG d   1      -8.359  91.712 115.079  0.00  0.00    -0.241 OA
ATOM     24  O   LIG d   1      -7.055  90.070 114.558  0.00  0.00    -0.241 OA
ENDBRANCH   3  22
TORSDOF 7
ENDMDL
MODEL 3
REMARK VINA RESULT:      -5.2      0.765      1.887
REMARK  7 active torsions:
REMARK  status: ('A' for Active; 'I' for Inactive)
REMARK    1  A    between atoms: C_2  and  C_3 
REMARK    2  A    between atoms: C_3  and  O_6 
REMARK    3  A    between atoms: C_3  and  C_4 
REMARK    4  A    between atoms: C_7  and  O_6 
REMARK    5  A    between atoms: C_9  and  C_10 
REMARK    6  A    between atoms: N_15  and  C_14 
REMARK    7  A    between atoms: N_20  and  C_19 
REMARK       I    between atoms: C_22  and  N_20 
ROOT
ATOM      1  C   LIG d   1      -5.032  92.244 118.142  0.00  0.00     0.161 C 
ATOM      2  C   LIG d   1      -5.183  91.371 117.051  0.00  0.00     0.016 C 
ATOM      3  C   LIG d   1      -6.270  91.434 116.149  0.00  0.00     0.038 C 
ATOM      4  C   LIG d   1      -7.207  92.477 116.188  0.00  0.00     0.028 C 
ATOM      5  C   LIG d   1      -7.377  93.086 117.576  0.00  0.00    -0.047 C 
ATOM      6  C   LIG d   1      -5.985  93.458 118.135  0.00  0.00     0.091 C 
ENDROOT
BRANCH   1   7
ATOM      7  O   LIG d   1      -3.662  92.683 118.230  0.00  0.00    -0.368 OA
BRANCH   7   8
ATOM      8  C   LIG d   1      -2.897  92.163 119.346  0.00  0.00     0.119 C 
BRANCH   8   9
ATOM      9  C   LIG d   1      -1.944  93.280 119.813  0.00  0.00     0.028 C 
ATOM     10  C   LIG d   1      -2.369  94.667 119.302  0.00  0.00     0.006 C 
ENDBRANCH   8   9
BRANCH   8  11
ATOM     11  C   LIG d   1      -1.988  91.011 118.909  0.00  0.00     0.028 C 
ATOM     12  C   LIG d   1      -2.564  89.631 119.264  0.00  0.00     0.006 C 
ENDBRANCH   8  11
ENDBRANCH   7   8
ENDBRANCH   1   7
BRANCH   6  13
ATOM     13  N   LIG d   1      -6.053  93.983 119.524  0.00  0.00    -0.311 N 
ATOM     14  C   LIG d   1      -6.039  95.282 119.818  0.00  0.00     0.210 C 
ATOM     15  C   LIG d   1      -6.098  95.607 121.313  0.00  0.00     0.109 C 
ATOM     16  O   LIG d   1      -6.015  96.197 118.980  0.00  0.00    -0.276 OA
ATOM     17  H   LIG d   1      -6.106  93.311 120.264  0.00  0.00     0.149 HD
ENDBRANCH   6  13
BRANCH   5  18
ATOM     18  N   LIG d   1      -8.276  94.248 117.445  0.00  0.00     0.381 N 
ATOM     19  H   LIG d   1      -8.013  94.792 116.648  0.00  0.00    -0.090 HD
ATOM     20  H   LIG d   1      -8.185  94.824 118.263  0.00  0.00    -0.090 HD
ATOM     21  H   LIG d   1      -9.219  93.941 117.350  0.00  0.00    -0.090 HD
ENDBRANCH   5  18
BRANCH   3  22
ATOM     22  C   LIG d   1      -6.450  90.422 115.218  0.00  0.00     0.382 C 
ATOM     23  O   LIG d   1      -5.481  89.697 114.886  0.00  0.00    -0.241 OA
ATOM     24  O   LIG d   1      -7.557  90.253 114.674  0.00  0.00    -0.241 OA
ENDBRANCH   3  22
TORSDOF 7
ENDMDL
MODEL 4
REMARK VINA RESULT:      -5.2     10.710     12.755
REMARK  7 active torsions:
REMARK  status: ('A' for Active; 'I' for Inactive)
REMARK    1  A    between atoms: C_2  and  C_3 
REMARK    2  A    between atoms: C_3  and  O_6 
REMARK    3  A    between atoms: C_3  and  C_4 
REMARK    4  A    between atoms: C_7  and  O_6 
REMARK    5  A    between atoms: C_9  and  C_10 
REMARK    6  A    between atoms: N_15  and  C_14 
REMARK    7  A    between atoms: N_20  and  C_19 
REMARK       I    between atoms: C_22  and  N_20 
ROOT
ATOM      1  C   LIG d   1      -9.210  81.909 120.302  0.00  0.00     0.161 C 
ATOM      2  C   LIG d   1      -9.753  83.076 120.864  0.00  0.00     0.016 C 
ATOM      3  C   LIG d   1     -10.429  84.062 120.109  0.00  0.00     0.038 C 
ATOM      4  C   LIG d   1     -10.741  83.873 118.755  0.00  0.00     0.028 C 
ATOM      5  C   LIG d   1      -9.773  82.942 118.034  0.00  0.00    -0.047 C 
ATOM      6  C   LIG d   1      -9.638  81.633 118.845  0.00  0.00     0.091 C 
ENDROOT
BRANCH   1   7
ATOM      7  O   LIG d   1      -9.516  80.775 121.138  0.00  0.00    -0.368 OA
BRANCH   7   8
ATOM      8  C   LIG d   1      -8.401  80.193 121.857  0.00  0.00     0.119 C 
BRANCH   8   9
ATOM      9  C   LIG d   1      -8.513  78.662 121.724  0.00  0.00     0.028 C 
ATOM     10  C   LIG d   1      -7.234  78.028 121.153  0.00  0.00     0.006 C 
ENDBRANCH   8   9
BRANCH   8  11
ATOM     11  C   LIG d   1      -8.497  80.478 123.359  0.00  0.00     0.028 C 
ATOM     12  C   LIG d   1      -7.445  81.489 123.842  0.00  0.00     0.006 C 
ENDBRANCH   8  11
ENDBRANCH   7   8
ENDBRANCH   1   7
BRANCH   6  13
ATOM     13  N   LIG d   1      -8.644  80.699 118.254  0.00  0.00    -0.311 N 
ATOM     14  C   LIG d   1      -8.884  79.405 118.053  0.00  0.00     0.210 C 
ATOM     15  C   LIG d   1      -7.717  78.617 117.450  0.00  0.00     0.109 C 
ATOM     16  O   LIG d   1      -9.963  78.841 118.287  0.00  0.00    -0.276 OA
ATOM     17  H   LIG d   1      -7.752  81.080 118.006  0.00  0.00     0.149 HD
ENDBRANCH   6  13
BRANCH   5  18
ATOM     18  N   LIG d   1     -10.295  82.725 116.671  0.00  0.00     0.381 N 
ATOM     19  H   LIG d   1     -10.454  83.607 116.225  0.00  0.00    -0.090 HD
ATOM     20  H   LIG d   1     -11.172  82.240 116.732  0.00  0.00    -0.090 HD
ATOM     21  H   LIG d   1      -9.646  82.188 116.139  0.00  0.00    -0.090 HD
ENDBRANCH   5  18
BRANCH   3  22
ATOM     22  C   LIG d   1     -10.765  85.270 120.701  0.00  0.00     0.382 C 
ATOM     23  O   LIG d   1      -9.868  86.105 120.974  0.00  0.00    -0.241 OA
ATOM     24  O   LIG d   1     -11.947  85.518 121.005  0.00  0.00    -0.241 OA
ENDBRANCH   3  22
TORSDOF 7
ENDMDL
MODEL 5
REMARK VINA RESULT:      -5.2      1.871      2.221
REMARK  7 active torsions:
REMARK  status: ('A' for Active; 'I' for Inactive)
REMARK    1  A    between atoms: C_2  and  C_3 
REMARK    2  A    between atoms: C_3  and  O_6 
REMARK    3  A    between atoms: C_3  and  C_4 
REMARK    4  A    between atoms: C_7  and  O_6 
REMARK    5  A    between atoms: C_9  and  C_10 
REMARK    6  A    between atoms: N_15  and  C_14 
REMARK    7  A    between atoms: N_20  and  C_19 
REMARK       I    between atoms: C_22  and  N_20 
ROOT
ATOM      1  C   LIG d   1      -4.246  91.723 117.856  0.00  0.00     0.161 C 
ATOM      2  C   LIG d   1      -5.144  91.215 116.903  0.00  0.00     0.016 C 
ATOM      3  C   LIG d   1      -6.408  91.791 116.640  0.00  0.00     0.038 C 
ATOM      4  C   LIG d   1      -6.800  93.011 117.210  0.00  0.00     0.028 C 
ATOM      5  C   LIG d   1      -6.138  93.292 118.555  0.00  0.00    -0.047 C 
ATOM      6  C   LIG d   1      -4.609  93.118 118.408  0.00  0.00     0.091 C 
ENDROOT
BRANCH   1   7
ATOM      7  O   LIG d   1      -2.911  91.731 117.314  0.00  0.00    -0.368 OA
BRANCH   7   8
ATOM      8  C   LIG d   1      -2.079  90.594 117.653  0.00  0.00     0.119 C 
BRANCH   8   9
ATOM      9  C   LIG d   1      -2.418  90.186 119.100  0.00  0.00     0.028 C 
ATOM     10  C   LIG d   1      -2.659  88.674 119.242  0.00  0.00     0.006 C 
ENDBRANCH   8   9
BRANCH   8  11
ATOM     11  C   LIG d   1      -0.596  90.976 117.677  0.00  0.00     0.028 C 
ATOM     12  C   LIG d   1      -0.127  91.458 119.059  0.00  0.00     0.006 C 
ENDBRANCH   8  11
ENDBRANCH   7   8
ENDBRANCH   1   7
BRANCH   6  13
ATOM     13  N   LIG d   1      -3.892  93.292 119.698  0.00  0.00    -0.311 N 
ATOM     14  C   LIG d   1      -2.764  93.988 119.822  0.00  0.00     0.210 C 
ATOM     15  C   LIG d   1      -2.179  94.025 121.237  0.00  0.00     0.109 C 
ATOM     16  O   LIG d   1      -2.209  94.606 118.900  0.00  0.00    -0.276 OA
ATOM     17  H   LIG d   1      -4.290  92.850 120.504  0.00  0.00     0.149 HD
ENDBRANCH   6  13
BRANCH   5  18
ATOM     18  N   LIG d   1      -6.528  94.653 118.967  0.00  0.00     0.381 N 
ATOM     19  H   LIG d   1      -5.841  95.028 119.591  0.00  0.00    -0.090 HD
ATOM     20  H   LIG d   1      -7.405  94.606 119.456  0.00  0.00    -0.090 HD
ATOM     21  H   LIG d   1      -6.616  95.240 118.167  0.00  0.00    -0.090 HD
ENDBRANCH   5  18
BRANCH   3  22
ATOM     22  C   LIG d   1      -7.312  91.123 115.828  0.00  0.00     0.382 C 
ATOM     23  O   LIG d   1      -8.246  91.754 115.278  0.00  0.00    -0.241 OA
ATOM     24  O   LIG d   1      -7.232  89.889 115.675  0.00  0.00    -0.241 OA
ENDBRANCH   3  22
TORSDOF 7
ENDMDL
MODEL 6
REMARK VINA RESULT:      -5.1      1.695      2.404
REMARK  7 active torsions:
REMARK  status: ('A' for Active; 'I' for Inactive)
REMARK    1  A    between atoms: C_2  and  C_3 
REMARK    2  A    between atoms: C_3  and  O_6 
REMARK    3  A    between atoms: C_3  and  C_4 
REMARK    4  A    between atoms: C_7  and  O_6 
REMARK    5  A    between atoms: C_9  and  C_10 
REMARK    6  A    between atoms: N_15  and  C_14 
REMARK    7  A    between atoms: N_20  and  C_19 
REMARK       I    between atoms: C_22  and  N_20 
ROOT
ATOM      1  C   LIG d   1      -4.470  91.987 118.127  0.00  0.00     0.161 C 
ATOM      2  C   LIG d   1      -5.252  91.394 117.122  0.00  0.00     0.016 C 
ATOM      3  C   LIG d   1      -6.513  91.891 116.722  0.00  0.00     0.038 C 
ATOM      4  C   LIG d   1      -7.014  93.112 117.199  0.00  0.00     0.028 C 
ATOM      5  C   LIG d   1      -6.492  93.482 118.583  0.00  0.00    -0.047 C 
ATOM      6  C   LIG d   1      -4.949  93.382 118.580  0.00  0.00     0.091 C 
ENDROOT
BRANCH   1   7
ATOM      7  O   LIG d   1      -3.093  92.043 117.705  0.00  0.00    -0.368 OA
BRANCH   7   8
ATOM      8  C   LIG d   1      -2.147  91.308 118.519  0.00  0.00     0.119 C 
BRANCH   8   9
ATOM      9  C   LIG d   1      -0.920  92.214 118.736  0.00  0.00     0.028 C 
ATOM     10  C   LIG d   1      -0.078  91.783 119.949  0.00  0.00     0.006 C 
ENDBRANCH   8   9
BRANCH   8  11
ATOM     11  C   LIG d   1      -1.615  90.076 117.780  0.00  0.00     0.028 C 
ATOM     12  C   LIG d   1      -2.095  88.755 118.403  0.00  0.00     0.006 C 
ENDBRANCH   8  11
ENDBRANCH   7   8
ENDBRANCH   1   7
BRANCH   6  13
ATOM     13  N   LIG d   1      -4.362  93.646 119.919  0.00  0.00    -0.311 N 
ATOM     14  C   LIG d   1      -3.418  94.560 120.139  0.00  0.00     0.210 C 
ATOM     15  C   LIG d   1      -2.937  94.657 121.590  0.00  0.00     0.109 C 
ATOM     16  O   LIG d   1      -2.958  95.322 119.276  0.00  0.00    -0.276 OA
ATOM     17  H   LIG d   1      -4.700  93.094 120.683  0.00  0.00     0.149 HD
ENDBRANCH   6  13
BRANCH   5  18
ATOM     18  N   LIG d   1      -6.983  94.836 118.898  0.00  0.00     0.381 N 
ATOM     19  H   LIG d   1      -6.270  95.354 119.372  0.00  0.00    -0.090 HD
ATOM     20  H   LIG d   1      -7.777  94.761 119.509  0.00  0.00    -0.090 HD
ATOM     21  H   LIG d   1      -7.244  95.308 118.060  0.00  0.00    -0.090 HD
ENDBRANCH   5  18
BRANCH   3  22
ATOM     22  C   LIG d   1      -7.307  91.144 115.864  0.00  0.00     0.382 C 
ATOM     23  O   LIG d   1      -7.052  89.930 115.673  0.00  0.00    -0.241 OA
ATOM     24  O   LIG d   1      -8.246  91.679 115.245  0.00  0.00    -0.241 OA
ENDBRANCH   3  22
TORSDOF 7
ENDMDL
MODEL 7
REMARK VINA RESULT:      -4.8     26.587     28.550
REMARK  7 active torsions:
REMARK  status: ('A' for Active; 'I' for Inactive)
REMARK    1  A    between atoms: C_2  and  C_3 
REMARK    2  A    between atoms: C_3  and  O_6 
REMARK    3  A    between atoms: C_3  and  C_4 
REMARK    4  A    between atoms: C_7  and  O_6 
REMARK    5  A    between atoms: C_9  and  C_10 
REMARK    6  A    between atoms: N_15  and  C_14 
REMARK    7  A    between atoms: N_20  and  C_19 
REMARK       I    between atoms: C_22  and  N_20 
ROOT
ATOM      1  C   LIG d   1     -13.723  66.475 118.364  0.00  0.00     0.161 C 
ATOM      2  C   LIG d   1     -14.426  66.259 117.167  0.00  0.00     0.016 C 
ATOM      3  C   LIG d   1     -14.897  64.990 116.760  0.00  0.00     0.038 C 
ATOM      4  C   LIG d   1     -14.829  63.869 117.601  0.00  0.00     0.028 C 
ATOM      5  C   LIG d   1     -13.681  63.932 118.602  0.00  0.00    -0.047 C 
ATOM      6  C   LIG d   1     -13.737  65.285 119.346  0.00  0.00     0.091 C 
ENDROOT
BRANCH   1   7
ATOM      7  O   LIG d   1     -14.216  67.665 119.011  0.00  0.00    -0.368 OA
BRANCH   7   8
ATOM      8  C   LIG d   1     -15.642  67.710 119.263  0.00  0.00     0.119 C 
BRANCH   8   9
ATOM      9  C   LIG d   1     -16.215  68.903 118.474  0.00  0.00     0.028 C 
ATOM     10  C   LIG d   1     -17.294  68.476 117.465  0.00  0.00     0.006 C 
ENDBRANCH   8   9
BRANCH   8  11
ATOM     11  C   LIG d   1     -15.939  68.016 120.734  0.00  0.00     0.028 C 
ATOM     12  C   LIG d   1     -14.665  68.206 121.572  0.00  0.00     0.006 C 
ENDBRANCH   8  11
ENDBRANCH   7   8
ENDBRANCH   1   7
BRANCH   6  13
ATOM     13  N   LIG d   1     -12.599  65.464 120.284  0.00  0.00    -0.311 N 
ATOM     14  C   LIG d   1     -12.655  65.140 121.575  0.00  0.00     0.210 C 
ATOM     15  C   LIG d   1     -11.376  65.424 122.370  0.00  0.00     0.109 C 
ATOM     16  O   LIG d   1     -13.632  64.615 122.131  0.00  0.00    -0.276 OA
ATOM     17  H   LIG d   1     -11.756  65.855 119.911  0.00  0.00     0.149 HD
ENDBRANCH   6  13
BRANCH   5  18
ATOM     18  N   LIG d   1     -13.811  62.771 119.502  0.00  0.00     0.381 N 
ATOM     19  H   LIG d   1     -12.922  62.324 119.609  0.00  0.00    -0.090 HD
ATOM     20  H   LIG d   1     -14.448  62.111 119.093  0.00  0.00    -0.090 HD
ATOM     21  H   LIG d   1     -14.152  63.065 120.391  0.00  0.00    -0.090 HD
ENDBRANCH   5  18
BRANCH   3  22
ATOM     22  C   LIG d   1     -15.409  64.824 115.482  0.00  0.00     0.382 C 
ATOM     23  O   LIG d   1     -15.105  65.636 114.575  0.00  0.00    -0.241 OA
ATOM     24  O   LIG d   1     -16.206  63.899 115.235  0.00  0.00    -0.241 OA
ENDBRANCH   3  22
TORSDOF 7
ENDMDL
MODEL 8
REMARK VINA RESULT:      -4.8     14.741     17.088
REMARK  7 active torsions:
REMARK  status: ('A' for Active; 'I' for Inactive)
REMARK    1  A    between atoms: C_2  and  C_3 
REMARK    2  A    between atoms: C_3  and  O_6 
REMARK    3  A    between atoms: C_3  and  C_4 
REMARK    4  A    between atoms: C_7  and  O_6 
REMARK    5  A    between atoms: C_9  and  C_10 
REMARK    6  A    between atoms: N_15  and  C_14 
REMARK    7  A    between atoms: N_20  and  C_19 
REMARK       I    between atoms: C_22  and  N_20 
ROOT
ATOM      1  C   LIG d   1      -3.483  75.121 116.111  0.00  0.00     0.161 C 
ATOM      2  C   LIG d   1      -4.372  74.061 115.865  0.00  0.00     0.016 C 
ATOM      3  C   LIG d   1      -5.768  74.152 116.072  0.00  0.00     0.038 C 
ATOM      4  C   LIG d   1      -6.391  75.366 116.399  0.00  0.00     0.028 C 
ATOM      5  C   LIG d   1      -5.480  76.333 117.146  0.00  0.00    -0.047 C 
ATOM      6  C   LIG d   1      -4.158  76.486 116.361  0.00  0.00     0.091 C 
ENDROOT
BRANCH   1   7
ATOM      7  O   LIG d   1      -2.533  75.222 115.032  0.00  0.00    -0.368 OA
BRANCH   7   8
ATOM      8  C   LIG d   1      -1.192  74.755 115.318  0.00  0.00     0.119 C 
BRANCH   8   9
ATOM      9  C   LIG d   1      -1.170  74.280 116.784  0.00  0.00     0.028 C 
ATOM     10  C   LIG d   1       0.008  74.872 117.575  0.00  0.00     0.006 C 
ENDBRANCH   8   9
BRANCH   8  11
ATOM     11  C   LIG d   1      -0.176  75.899 115.247  0.00  0.00     0.028 C 
ATOM     12  C   LIG d   1      -0.736  77.151 114.555  0.00  0.00     0.006 C 
ENDBRANCH   8  11
ENDBRANCH   7   8
ENDBRANCH   1   7
BRANCH   6  13
ATOM     13  N   LIG d   1      -3.176  77.351 117.066  0.00  0.00    -0.311 N 
ATOM     14  C   LIG d   1      -3.057  78.658 116.842  0.00  0.00     0.210 C 
ATOM     15  C   LIG d   1      -1.969  79.358 117.662  0.00  0.00     0.109 C 
ATOM     16  O   LIG d   1      -3.770  79.311 116.065  0.00  0.00    -0.276 OA
ATOM     17  H   LIG d   1      -2.578  76.909 117.736  0.00  0.00     0.149 HD
ENDBRANCH   6  13
BRANCH   5  18
ATOM     18  N   LIG d   1      -6.212  77.605 117.301  0.00  0.00     0.381 N 
ATOM     19  H   LIG d   1      -6.895  77.693 116.575  0.00  0.00    -0.090 HD
ATOM     20  H   LIG d   1      -5.561  78.366 117.217  0.00  0.00    -0.090 HD
ATOM     21  H   LIG d   1      -6.657  77.636 118.192  0.00  0.00    -0.090 HD
ENDBRANCH   5  18
BRANCH   3  22
ATOM     22  C   LIG d   1      -6.550  73.010 115.993  0.00  0.00     0.382 C 
ATOM     23  O   LIG d   1      -7.578  72.903 116.704  0.00  0.00    -0.241 OA
ATOM     24  O   LIG d   1      -6.217  72.067 115.250  0.00  0.00    -0.241 OA
ENDBRANCH   3  22
TORSDOF 7
ENDMDL
MODEL 9
REMARK VINA RESULT:      -4.8      2.487      4.980
REMARK  7 active torsions:
REMARK  status: ('A' for Active; 'I' for Inactive)
REMARK    1  A    between atoms: C_2  and  C_3 
REMARK    2  A    between atoms: C_3  and  O_6 
REMARK    3  A    between atoms: C_3  and  C_4 
REMARK    4  A    between atoms: C_7  and  O_6 
REMARK    5  A    between atoms: C_9  and  C_10 
REMARK    6  A    between atoms: N_15  and  C_14 
REMARK    7  A    between atoms: N_20  and  C_19 
REMARK       I    between atoms: C_22  and  N_20 
ROOT
ATOM      1  C   LIG d   1      -6.786  93.980 118.668  0.00  0.00     0.161 C 
ATOM      2  C   LIG d   1      -7.184  93.489 117.414  0.00  0.00     0.016 C 
ATOM      3  C   LIG d   1      -6.538  92.416 116.758  0.00  0.00     0.038 C 
ATOM      4  C   LIG d   1      -5.538  91.658 117.385  0.00  0.00     0.028 C 
ATOM      5  C   LIG d   1      -4.764  92.434 118.445  0.00  0.00    -0.047 C 
ATOM      6  C   LIG d   1      -5.768  93.094 119.417  0.00  0.00     0.091 C 
ENDROOT
BRANCH   1   7
ATOM      7  O   LIG d   1      -7.946  94.215 119.491  0.00  0.00    -0.368 OA
BRANCH   7   8
ATOM      8  C   LIG d   1      -8.509  95.549 119.433  0.00  0.00     0.119 C 
BRANCH   8   9
ATOM      9  C   LIG d   1      -7.575  96.480 120.230  0.00  0.00     0.028 C 
ATOM     10  C   LIG d   1      -7.874  96.460 121.738  0.00  0.00     0.006 C 
ENDBRANCH   8   9
BRANCH   8  11
ATOM     11  C   LIG d   1      -9.859  95.616 120.152  0.00  0.00     0.028 C 
ATOM     12  C   LIG d   1     -10.471  94.228 120.401  0.00  0.00     0.006 C 
ENDBRANCH   8  11
ENDBRANCH   7   8
ENDBRANCH   1   7
BRANCH   6  13
ATOM     13  N   LIG d   1      -5.097  93.943 120.436  0.00  0.00    -0.311 N 
ATOM     14  C   LIG d   1      -5.272  93.790 121.747  0.00  0.00     0.210 C 
ATOM     15  C   LIG d   1      -4.501  94.784 122.622  0.00  0.00     0.109 C 
ATOM     16  O   LIG d   1      -5.966  92.905 122.270  0.00  0.00    -0.276 OA
ATOM     17  H   LIG d   1      -4.491  94.666 120.100  0.00  0.00     0.149 HD
ENDBRANCH   6  13
BRANCH   5  18
ATOM     18  N   LIG d   1      -3.850  91.488 119.112  0.00  0.00     0.381 N 
ATOM     19  H   LIG d   1      -3.314  91.968 119.808  0.00  0.00    -0.090 HD
ATOM     20  H   LIG d   1      -3.215  91.113 118.429  0.00  0.00    -0.090 HD
ATOM     21  H   LIG d   1      -4.370  90.751 119.533  0.00  0.00    -0.090 HD
ENDBRANCH   5  18
BRANCH   3  22
ATOM     22  C   LIG d   1      -6.864  92.117 115.444  0.00  0.00     0.382 C 
ATOM     23  O   LIG d   1      -8.038  91.785 115.149  0.00  0.00    -0.241 OA
ATOM     24  O   LIG d   1      -5.990  92.131 114.557  0.00  0.00    -0.241 OA
ENDBRANCH   3  22
TORSDOF 7
ENDMDL
