MODEL 1
REMARK VINA RESULT:      -5.7      0.000      0.000
REMARK  7 active torsions:
REMARK  status: ('A' for Active; 'I' for Inactive)
REMARK    1  A    between atoms: C_2  and  C_3 
REMARK    2  A    between atoms: C_3  and  O_6 
REMARK    3  A    between atoms: C_3  and  C_4 
REMARK    4  A    between atoms: C_7  and  O_6 
REMARK    5  A    between atoms: C_9  and  C_10 
REMARK    6  A    between atoms: N_15  and  C_14 
REMARK    7  A    between atoms: N_20  and  C_19 
REMARK       I    between atoms: C_22  and  N_20 
ROOT
ATOM      1  C   LIG d   1      -4.471  91.769 118.069  0.00  0.00     0.161 C 
ATOM      2  C   LIG d   1      -5.004  90.868 117.131  0.00  0.00     0.016 C 
ATOM      3  C   LIG d   1      -6.138  91.154 116.336  0.00  0.00     0.038 C 
ATOM      4  C   LIG d   1      -6.728  92.426 116.317  0.00  0.00     0.028 C 
ATOM      5  C   LIG d   1      -6.536  93.203 117.615  0.00  0.00    -0.047 C 
ATOM      6  C   LIG d   1      -5.034  93.202 117.982  0.00  0.00     0.091 C 
ENDROOT
BRANCH   1   7
ATOM      7  O   LIG d   1      -3.033  91.788 117.965  0.00  0.00    -0.368 OA
BRANCH   7   8
ATOM      8  C   LIG d   1      -2.307  91.176 119.058  0.00  0.00     0.119 C 
BRANCH   8   9
ATOM      9  C   LIG d   1      -1.056  92.036 119.322  0.00  0.00     0.028 C 
ATOM     10  C   LIG d   1      -0.413  92.551 118.024  0.00  0.00     0.006 C 
ENDBRANCH   8   9
BRANCH   8  11
ATOM     11  C   LIG d   1      -1.773  89.794 118.668  0.00  0.00     0.028 C 
ATOM     12  C   LIG d   1      -2.678  88.648 119.149  0.00  0.00     0.006 C 
ENDBRANCH   8  11
ENDBRANCH   7   8
ENDBRANCH   1   7
BRANCH   6  13
ATOM     13  N   LIG d   1      -4.769  93.870 119.283  0.00  0.00    -0.311 N 
ATOM     14  C   LIG d   1      -3.735  94.683 119.493  0.00  0.00     0.210 C 
ATOM     15  C   LIG d   1      -3.635  95.249 120.912  0.00  0.00     0.109 C 
ATOM     16  O   LIG d   1      -2.909  95.013 118.629  0.00  0.00    -0.276 OA
ATOM     17  H   LIG d   1      -5.407  93.681 120.031  0.00  0.00     0.149 HD
ENDBRANCH   6  13
BRANCH   5  18
ATOM     18  N   LIG d   1      -7.080  94.559 117.408  0.00  0.00     0.381 N 
ATOM     19  H   LIG d   1      -6.593  95.008 116.658  0.00  0.00    -0.090 HD
ATOM     20  H   LIG d   1      -6.938  95.097 118.244  0.00  0.00    -0.090 HD
ATOM     21  H   LIG d   1      -8.052  94.507 117.198  0.00  0.00    -0.090 HD
ENDBRANCH   5  18
BRANCH   3  22
ATOM     22  C   LIG d   1      -6.716  90.147 115.578  0.00  0.00     0.382 C 
ATOM     23  O   LIG d   1      -7.898  89.793 115.805  0.00  0.00    -0.241 OA
ATOM     24  O   LIG d   1      -6.057  89.559 114.700  0.00  0.00    -0.241 OA
ENDBRANCH   3  22
TORSDOF 7
ENDMDL
MODEL 2
REMARK VINA RESULT:      -5.6      1.409      2.249
REMARK  7 active torsions:
REMARK  status: ('A' for Active; 'I' for Inactive)
REMARK    1  A    between atoms: C_2  and  C_3 
REMARK    2  A    between atoms: C_3  and  O_6 
REMARK    3  A    between atoms: C_3  and  C_4 
REMARK    4  A    between atoms: C_7  and  O_6 
REMARK    5  A    between atoms: C_9  and  C_10 
REMARK    6  A    between atoms: N_15  and  C_14 
REMARK    7  A    between atoms: N_20  and  C_19 
REMARK       I    between atoms: C_22  and  N_20 
ROOT
ATOM      1  C   LIG d   1      -5.411  92.157 118.876  0.00  0.00     0.161 C 
ATOM      2  C   LIG d   1      -5.713  91.335 117.778  0.00  0.00     0.016 C 
ATOM      3  C   LIG d   1      -6.533  91.744 116.701  0.00  0.00     0.038 C 
ATOM      4  C   LIG d   1      -6.987  93.065 116.576  0.00  0.00     0.028 C 
ATOM      5  C   LIG d   1      -7.127  93.787 117.912  0.00  0.00    -0.047 C 
ATOM      6  C   LIG d   1      -5.807  93.639 118.703  0.00  0.00     0.091 C 
ENDROOT
BRANCH   1   7
ATOM      7  O   LIG d   1      -4.011  92.048 119.199  0.00  0.00    -0.368 OA
BRANCH   7   8
ATOM      8  C   LIG d   1      -3.084  92.330 118.122  0.00  0.00     0.119 C 
BRANCH   8   9
ATOM      9  C   LIG d   1      -1.913  91.337 118.247  0.00  0.00     0.028 C 
ATOM     10  C   LIG d   1      -2.385  89.874 118.284  0.00  0.00     0.006 C 
ENDBRANCH   8   9
BRANCH   8  11
ATOM     11  C   LIG d   1      -2.457  93.719 118.276  0.00  0.00     0.028 C 
ATOM     12  C   LIG d   1      -1.077  93.827 117.608  0.00  0.00     0.006 C 
ENDBRANCH   8  11
ENDBRANCH   7   8
ENDBRANCH   1   7
BRANCH   6  13
ATOM     13  N   LIG d   1      -5.887  94.245 120.057  0.00  0.00    -0.311 N 
ATOM     14  C   LIG d   1      -5.462  95.476 120.336  0.00  0.00     0.210 C 
ATOM     15  C   LIG d   1      -5.618  95.898 121.800  0.00  0.00     0.109 C 
ATOM     16  O   LIG d   1      -4.999  96.270 119.503  0.00  0.00    -0.276 OA
ATOM     17  H   LIG d   1      -6.277  93.681 120.787  0.00  0.00     0.149 HD
ENDBRANCH   6  13
BRANCH   5  18
ATOM     18  N   LIG d   1      -7.474  95.192 117.625  0.00  0.00     0.381 N 
ATOM     19  H   LIG d   1      -8.355  95.415 118.044  0.00  0.00    -0.090 HD
ATOM     20  H   LIG d   1      -7.560  95.309 116.631  0.00  0.00    -0.090 HD
ATOM     21  H   LIG d   1      -6.767  95.797 117.978  0.00  0.00    -0.090 HD
ENDBRANCH   5  18
BRANCH   3  22
ATOM     22  C   LIG d   1      -6.939  90.814 115.756  0.00  0.00     0.382 C 
ATOM     23  O   LIG d   1      -6.625  90.968 114.551  0.00  0.00    -0.241 OA
ATOM     24  O   LIG d   1      -7.653  89.849 116.085  0.00  0.00    -0.241 OA
ENDBRANCH   3  22
TORSDOF 7
ENDMDL
MODEL 3
REMARK VINA RESULT:      -5.5     26.284     28.301
REMARK  7 active torsions:
REMARK  status: ('A' for Active; 'I' for Inactive)
REMARK    1  A    between atoms: C_2  and  C_3 
REMARK    2  A    between atoms: C_3  and  O_6 
REMARK    3  A    between atoms: C_3  and  C_4 
REMARK    4  A    between atoms: C_7  and  O_6 
REMARK    5  A    between atoms: C_9  and  C_10 
REMARK    6  A    between atoms: N_15  and  C_14 
REMARK    7  A    between atoms: N_20  and  C_19 
REMARK       I    between atoms: C_22  and  N_20 
ROOT
ATOM      1  C   LIG d   1     -15.376  66.853 116.213  0.00  0.00     0.161 C 
ATOM      2  C   LIG d   1     -14.988  67.881 115.339  0.00  0.00     0.016 C 
ATOM      3  C   LIG d   1     -15.015  67.757 113.931  0.00  0.00     0.038 C 
ATOM      4  C   LIG d   1     -15.579  66.640 113.296  0.00  0.00     0.028 C 
ATOM      5  C   LIG d   1     -15.519  65.370 114.137  0.00  0.00    -0.047 C 
ATOM      6  C   LIG d   1     -16.099  65.668 115.539  0.00  0.00     0.091 C 
ENDROOT
BRANCH   1   7
ATOM      7  O   LIG d   1     -16.186  67.395 117.276  0.00  0.00    -0.368 OA
BRANCH   7   8
ATOM      8  C   LIG d   1     -15.469  67.903 118.428  0.00  0.00     0.119 C 
BRANCH   8   9
ATOM      9  C   LIG d   1     -14.412  66.851 118.816  0.00  0.00     0.028 C 
ATOM     10  C   LIG d   1     -13.529  67.311 119.989  0.00  0.00     0.006 C 
ENDBRANCH   8   9
BRANCH   8  11
ATOM     11  C   LIG d   1     -16.388  68.024 119.647  0.00  0.00     0.028 C 
ATOM     12  C   LIG d   1     -17.224  66.758 119.891  0.00  0.00     0.006 C 
ENDBRANCH   8  11
ENDBRANCH   7   8
ENDBRANCH   1   7
BRANCH   6  13
ATOM     13  N   LIG d   1     -16.001  64.501 116.453  0.00  0.00    -0.311 N 
ATOM     14  C   LIG d   1     -17.034  64.022 117.144  0.00  0.00     0.210 C 
ATOM     15  C   LIG d   1     -16.711  62.825 118.044  0.00  0.00     0.109 C 
ATOM     16  O   LIG d   1     -18.194  64.455 117.073  0.00  0.00    -0.276 OA
ATOM     17  H   LIG d   1     -15.102  64.070 116.547  0.00  0.00     0.149 HD
ENDBRANCH   6  13
BRANCH   5  18
ATOM     18  N   LIG d   1     -16.263  64.321 113.415  0.00  0.00     0.381 N 
ATOM     19  H   LIG d   1     -16.914  63.880 114.034  0.00  0.00    -0.090 HD
ATOM     20  H   LIG d   1     -15.614  63.625 113.093  0.00  0.00    -0.090 HD
ATOM     21  H   LIG d   1     -16.747  64.718 112.640  0.00  0.00    -0.090 HD
ENDBRANCH   5  18
BRANCH   3  22
ATOM     22  C   LIG d   1     -14.436  68.740 113.143  0.00  0.00     0.382 C 
ATOM     23  O   LIG d   1     -13.664  69.583 113.659  0.00  0.00    -0.241 OA
ATOM     24  O   LIG d   1     -14.712  68.821 111.931  0.00  0.00    -0.241 OA
ENDBRANCH   3  22
TORSDOF 7
ENDMDL
MODEL 4
REMARK VINA RESULT:      -5.5      2.412      4.557
REMARK  7 active torsions:
REMARK  status: ('A' for Active; 'I' for Inactive)
REMARK    1  A    between atoms: C_2  and  C_3 
REMARK    2  A    between atoms: C_3  and  O_6 
REMARK    3  A    between atoms: C_3  and  C_4 
REMARK    4  A    between atoms: C_7  and  O_6 
REMARK    5  A    between atoms: C_9  and  C_10 
REMARK    6  A    between atoms: N_15  and  C_14 
REMARK    7  A    between atoms: N_20  and  C_19 
REMARK       I    between atoms: C_22  and  N_20 
ROOT
ATOM      1  C   LIG d   1      -6.496  93.215 117.973  0.00  0.00     0.161 C 
ATOM      2  C   LIG d   1      -7.171  92.249 117.208  0.00  0.00     0.016 C 
ATOM      3  C   LIG d   1      -6.526  91.147 116.602  0.00  0.00     0.038 C 
ATOM      4  C   LIG d   1      -5.177  90.850 116.848  0.00  0.00     0.028 C 
ATOM      5  C   LIG d   1      -4.342  92.075 117.204  0.00  0.00    -0.047 C 
ATOM      6  C   LIG d   1      -5.044  92.847 118.345  0.00  0.00     0.091 C 
ENDROOT
BRANCH   1   7
ATOM      7  O   LIG d   1      -7.256  93.515 119.161  0.00  0.00    -0.368 OA
BRANCH   7   8
ATOM      8  C   LIG d   1      -8.227  94.584 119.042  0.00  0.00     0.119 C 
BRANCH   8   9
ATOM      9  C   LIG d   1      -7.535  95.761 118.327  0.00  0.00     0.028 C 
ATOM     10  C   LIG d   1      -6.852  96.726 119.310  0.00  0.00     0.006 C 
ENDBRANCH   8   9
BRANCH   8  11
ATOM     11  C   LIG d   1      -8.629  95.126 120.417  0.00  0.00     0.028 C 
ATOM     12  C   LIG d   1      -9.849  94.402 121.009  0.00  0.00     0.006 C 
ENDBRANCH   8  11
ENDBRANCH   7   8
ENDBRANCH   1   7
BRANCH   6  13
ATOM     13  N   LIG d   1      -4.337  94.105 118.697  0.00  0.00    -0.311 N 
ATOM     14  C   LIG d   1      -3.889  94.376 119.922  0.00  0.00     0.210 C 
ATOM     15  C   LIG d   1      -3.206  95.739 120.073  0.00  0.00     0.109 C 
ATOM     16  O   LIG d   1      -3.963  93.604 120.889  0.00  0.00    -0.276 OA
ATOM     17  H   LIG d   1      -4.206  94.775 117.965  0.00  0.00     0.149 HD
ENDBRANCH   6  13
BRANCH   5  18
ATOM     18  N   LIG d   1      -2.993  91.605 117.569  0.00  0.00     0.381 N 
ATOM     19  H   LIG d   1      -2.385  92.388 117.699  0.00  0.00    -0.090 HD
ATOM     20  H   LIG d   1      -2.629  91.045 116.817  0.00  0.00    -0.090 HD
ATOM     21  H   LIG d   1      -3.035  91.064 118.405  0.00  0.00    -0.090 HD
ENDBRANCH   5  18
BRANCH   3  22
ATOM     22  C   LIG d   1      -7.223  90.350 115.706  0.00  0.00     0.382 C 
ATOM     23  O   LIG d   1      -8.050  89.506 116.130  0.00  0.00    -0.241 OA
ATOM     24  O   LIG d   1      -7.004  90.433 114.483  0.00  0.00    -0.241 OA
ENDBRANCH   3  22
TORSDOF 7
ENDMDL
MODEL 5
REMARK VINA RESULT:      -5.4     12.741     14.998
REMARK  7 active torsions:
REMARK  status: ('A' for Active; 'I' for Inactive)
REMARK    1  A    between atoms: C_2  and  C_3 
REMARK    2  A    between atoms: C_3  and  O_6 
REMARK    3  A    between atoms: C_3  and  C_4 
REMARK    4  A    between atoms: C_7  and  O_6 
REMARK    5  A    between atoms: C_9  and  C_10 
REMARK    6  A    between atoms: N_15  and  C_14 
REMARK    7  A    between atoms: N_20  and  C_19 
REMARK       I    between atoms: C_22  and  N_20 
ROOT
ATOM      1  C   LIG d   1      -6.167  77.384 116.912  0.00  0.00     0.161 C 
ATOM      2  C   LIG d   1      -7.490  76.928 117.037  0.00  0.00     0.016 C 
ATOM      3  C   LIG d   1      -8.454  77.551 117.862  0.00  0.00     0.038 C 
ATOM      4  C   LIG d   1      -8.200  78.771 118.506  0.00  0.00     0.028 C 
ATOM      5  C   LIG d   1      -6.724  79.000 118.812  0.00  0.00    -0.047 C 
ATOM      6  C   LIG d   1      -5.904  78.778 117.520  0.00  0.00     0.091 C 
ENDROOT
BRANCH   1   7
ATOM      7  O   LIG d   1      -5.770  77.359 115.526  0.00  0.00    -0.368 OA
BRANCH   7   8
ATOM      8  C   LIG d   1      -4.786  76.361 115.163  0.00  0.00     0.119 C 
BRANCH   8   9
ATOM      9  C   LIG d   1      -5.501  75.294 114.312  0.00  0.00     0.028 C 
ATOM     10  C   LIG d   1      -6.072  74.148 115.164  0.00  0.00     0.006 C 
ENDBRANCH   8   9
BRANCH   8  11
ATOM     11  C   LIG d   1      -4.268  75.615 116.396  0.00  0.00     0.028 C 
ATOM     12  C   LIG d   1      -2.742  75.713 116.555  0.00  0.00     0.006 C 
ENDBRANCH   8  11
ENDBRANCH   7   8
ENDBRANCH   1   7
BRANCH   6  13
ATOM     13  N   LIG d   1      -4.441  78.899 117.750  0.00  0.00    -0.311 N 
ATOM     14  C   LIG d   1      -3.616  79.525 116.912  0.00  0.00     0.210 C 
ATOM     15  C   LIG d   1      -2.142  79.517 117.329  0.00  0.00     0.109 C 
ATOM     16  O   LIG d   1      -3.971  80.115 115.881  0.00  0.00    -0.276 OA
ATOM     17  H   LIG d   1      -4.073  78.476 118.580  0.00  0.00     0.149 HD
ENDBRANCH   6  13
BRANCH   5  18
ATOM     18  N   LIG d   1      -6.587  80.364 119.356  0.00  0.00     0.381 N 
ATOM     19  H   LIG d   1      -6.122  80.330 120.241  0.00  0.00    -0.090 HD
ATOM     20  H   LIG d   1      -7.504  80.751 119.496  0.00  0.00    -0.090 HD
ATOM     21  H   LIG d   1      -6.071  80.934 118.722  0.00  0.00    -0.090 HD
ENDBRANCH   5  18
BRANCH   3  22
ATOM     22  C   LIG d   1      -9.675  76.932 118.081  0.00  0.00     0.382 C 
ATOM     23  O   LIG d   1      -9.906  75.806 117.578  0.00  0.00    -0.241 OA
ATOM     24  O   LIG d   1     -10.565  77.505 118.737  0.00  0.00    -0.241 OA
ENDBRANCH   3  22
TORSDOF 7
ENDMDL
MODEL 6
REMARK VINA RESULT:      -5.3     26.646     28.636
REMARK  7 active torsions:
REMARK  status: ('A' for Active; 'I' for Inactive)
REMARK    1  A    between atoms: C_2  and  C_3 
REMARK    2  A    between atoms: C_3  and  O_6 
REMARK    3  A    between atoms: C_3  and  C_4 
REMARK    4  A    between atoms: C_7  and  O_6 
REMARK    5  A    between atoms: C_9  and  C_10 
REMARK    6  A    between atoms: N_15  and  C_14 
REMARK    7  A    between atoms: N_20  and  C_19 
REMARK       I    between atoms: C_22  and  N_20 
ROOT
ATOM      1  C   LIG d   1     -14.406  66.263 116.995  0.00  0.00     0.161 C 
ATOM      2  C   LIG d   1     -14.336  67.301 116.051  0.00  0.00     0.016 C 
ATOM      3  C   LIG d   1     -14.996  67.262 114.801  0.00  0.00     0.038 C 
ATOM      4  C   LIG d   1     -15.898  66.240 114.471  0.00  0.00     0.028 C 
ATOM      5  C   LIG d   1     -15.609  64.923 115.182  0.00  0.00    -0.047 C 
ATOM      6  C   LIG d   1     -15.476  65.190 116.699  0.00  0.00     0.091 C 
ENDROOT
BRANCH   1   7
ATOM      7  O   LIG d   1     -14.601  66.813 118.313  0.00  0.00    -0.368 OA
BRANCH   7   8
ATOM      8  C   LIG d   1     -15.975  66.957 118.747  0.00  0.00     0.119 C 
BRANCH   8   9
ATOM      9  C   LIG d   1     -16.255  68.463 118.908  0.00  0.00     0.028 C 
ATOM     10  C   LIG d   1     -16.787  68.816 120.307  0.00  0.00     0.006 C 
ENDBRANCH   8   9
BRANCH   8  11
ATOM     11  C   LIG d   1     -16.185  66.355 120.140  0.00  0.00     0.028 C 
ATOM     12  C   LIG d   1     -14.936  65.637 120.674  0.00  0.00     0.006 C 
ENDBRANCH   8  11
ENDBRANCH   7   8
ENDBRANCH   1   7
BRANCH   6  13
ATOM     13  N   LIG d   1     -15.109  63.967 117.460  0.00  0.00    -0.311 N 
ATOM     14  C   LIG d   1     -16.004  63.171 118.043  0.00  0.00     0.210 C 
ATOM     15  C   LIG d   1     -15.412  61.974 118.794  0.00  0.00     0.109 C 
ATOM     16  O   LIG d   1     -17.233  63.324 117.982  0.00  0.00    -0.276 OA
ATOM     17  H   LIG d   1     -14.134  63.751 117.533  0.00  0.00     0.149 HD
ENDBRANCH   6  13
BRANCH   5  18
ATOM     18  N   LIG d   1     -16.703  63.989 114.854  0.00  0.00     0.381 N 
ATOM     19  H   LIG d   1     -17.077  63.596 115.695  0.00  0.00    -0.090 HD
ATOM     20  H   LIG d   1     -16.335  63.242 114.292  0.00  0.00    -0.090 HD
ATOM     21  H   LIG d   1     -17.421  64.467 114.355  0.00  0.00    -0.090 HD
ENDBRANCH   5  18
BRANCH   3  22
ATOM     22  C   LIG d   1     -14.723  68.233 113.850  0.00  0.00     0.382 C 
ATOM     23  O   LIG d   1     -15.033  68.040 112.650  0.00  0.00    -0.241 OA
ATOM     24  O   LIG d   1     -14.130  69.281 114.169  0.00  0.00    -0.241 OA
ENDBRANCH   3  22
TORSDOF 7
ENDMDL
MODEL 7
REMARK VINA RESULT:      -5.2     11.960     14.424
REMARK  7 active torsions:
REMARK  status: ('A' for Active; 'I' for Inactive)
REMARK    1  A    between atoms: C_2  and  C_3 
REMARK    2  A    between atoms: C_3  and  O_6 
REMARK    3  A    between atoms: C_3  and  C_4 
REMARK    4  A    between atoms: C_7  and  O_6 
REMARK    5  A    between atoms: C_9  and  C_10 
REMARK    6  A    between atoms: N_15  and  C_14 
REMARK    7  A    between atoms: N_20  and  C_19 
REMARK       I    between atoms: C_22  and  N_20 
ROOT
ATOM      1  C   LIG d   1      -7.168  79.192 118.070  0.00  0.00     0.161 C 
ATOM      2  C   LIG d   1      -6.160  78.819 117.166  0.00  0.00     0.016 C 
ATOM      3  C   LIG d   1      -6.055  77.525 116.607  0.00  0.00     0.038 C 
ATOM      4  C   LIG d   1      -7.047  76.552 116.800  0.00  0.00     0.028 C 
ATOM      5  C   LIG d   1      -7.815  76.721 118.107  0.00  0.00    -0.047 C 
ATOM      6  C   LIG d   1      -8.322  78.178 118.206  0.00  0.00     0.091 C 
ENDROOT
BRANCH   1   7
ATOM      7  O   LIG d   1      -7.682  80.493 117.720  0.00  0.00    -0.368 OA
BRANCH   7   8
ATOM      8  C   LIG d   1      -7.617  81.504 118.755  0.00  0.00     0.119 C 
BRANCH   8   9
ATOM      9  C   LIG d   1      -8.876  82.382 118.623  0.00  0.00     0.028 C 
ATOM     10  C   LIG d   1     -10.038  81.644 117.936  0.00  0.00     0.006 C 
ENDBRANCH   8   9
BRANCH   8  11
ATOM     11  C   LIG d   1      -6.436  82.453 118.534  0.00  0.00     0.028 C 
ATOM     12  C   LIG d   1      -5.331  82.285 119.590  0.00  0.00     0.006 C 
ENDBRANCH   8  11
ENDBRANCH   7   8
ENDBRANCH   1   7
BRANCH   6  13
ATOM     13  N   LIG d   1      -9.012  78.452 119.494  0.00  0.00    -0.311 N 
ATOM     14  C   LIG d   1     -10.295  78.168 119.713  0.00  0.00     0.210 C 
ATOM     15  C   LIG d   1     -10.813  78.550 121.103  0.00  0.00     0.109 C 
ATOM     16  O   LIG d   1     -11.044  77.606 118.900  0.00  0.00    -0.276 OA
ATOM     17  H   LIG d   1      -8.470  78.878 120.220  0.00  0.00     0.149 HD
ENDBRANCH   6  13
BRANCH   5  18
ATOM     18  N   LIG d   1      -8.906  75.728 118.115  0.00  0.00     0.381 N 
ATOM     19  H   LIG d   1      -9.224  75.582 119.052  0.00  0.00    -0.090 HD
ATOM     20  H   LIG d   1      -8.553  74.855 117.762  0.00  0.00    -0.090 HD
ATOM     21  H   LIG d   1      -9.660  76.044 117.546  0.00  0.00    -0.090 HD
ENDBRANCH   5  18
BRANCH   3  22
ATOM     22  C   LIG d   1      -4.928  77.180 115.878  0.00  0.00     0.382 C 
ATOM     23  O   LIG d   1      -5.023  76.951 114.648  0.00  0.00    -0.241 OA
ATOM     24  O   LIG d   1      -3.825  77.051 116.442  0.00  0.00    -0.241 OA
ENDBRANCH   3  22
TORSDOF 7
ENDMDL
MODEL 8
REMARK VINA RESULT:      -5.2     12.521     14.814
REMARK  7 active torsions:
REMARK  status: ('A' for Active; 'I' for Inactive)
REMARK    1  A    between atoms: C_2  and  C_3 
REMARK    2  A    between atoms: C_3  and  O_6 
REMARK    3  A    between atoms: C_3  and  C_4 
REMARK    4  A    between atoms: C_7  and  O_6 
REMARK    5  A    between atoms: C_9  and  C_10 
REMARK    6  A    between atoms: N_15  and  C_14 
REMARK    7  A    between atoms: N_20  and  C_19 
REMARK       I    between atoms: C_22  and  N_20 
ROOT
ATOM      1  C   LIG d   1      -5.911  77.324 117.063  0.00  0.00     0.161 C 
ATOM      2  C   LIG d   1      -7.182  76.729 117.129  0.00  0.00     0.016 C 
ATOM      3  C   LIG d   1      -8.309  77.364 117.700  0.00  0.00     0.038 C 
ATOM      4  C   LIG d   1      -8.276  78.705 118.111  0.00  0.00     0.028 C 
ATOM      5  C   LIG d   1      -6.887  79.177 118.527  0.00  0.00    -0.047 C 
ATOM      6  C   LIG d   1      -5.882  78.828 117.405  0.00  0.00     0.091 C 
ENDROOT
BRANCH   1   7
ATOM      7  O   LIG d   1      -5.332  77.095 115.763  0.00  0.00    -0.368 OA
BRANCH   7   8
ATOM      8  C   LIG d   1      -4.948  75.729 115.468  0.00  0.00     0.119 C 
BRANCH   8   9
ATOM      9  C   LIG d   1      -3.408  75.676 115.442  0.00  0.00     0.028 C 
ATOM     10  C   LIG d   1      -2.787  76.942 114.829  0.00  0.00     0.006 C 
ENDBRANCH   8   9
BRANCH   8  11
ATOM     11  C   LIG d   1      -5.391  75.317 114.061  0.00  0.00     0.028 C 
ATOM     12  C   LIG d   1      -6.082  76.458 113.296  0.00  0.00     0.006 C 
ENDBRANCH   8  11
ENDBRANCH   7   8
ENDBRANCH   1   7
BRANCH   6  13
ATOM     13  N   LIG d   1      -4.484  79.180 117.767  0.00  0.00    -0.311 N 
ATOM     14  C   LIG d   1      -3.638  79.777 116.929  0.00  0.00     0.210 C 
ATOM     15  C   LIG d   1      -2.238  80.032 117.496  0.00  0.00     0.109 C 
ATOM     16  O   LIG d   1      -3.924  80.148 115.781  0.00  0.00    -0.276 OA
ATOM     17  H   LIG d   1      -4.178  78.943 118.690  0.00  0.00     0.149 HD
ENDBRANCH   6  13
BRANCH   5  18
ATOM     18  N   LIG d   1      -6.971  80.624 118.799  0.00  0.00     0.381 N 
ATOM     19  H   LIG d   1      -7.927  80.890 118.926  0.00  0.00    -0.090 HD
ATOM     20  H   LIG d   1      -6.606  81.125 118.008  0.00  0.00    -0.090 HD
ATOM     21  H   LIG d   1      -6.445  80.849 119.615  0.00  0.00    -0.090 HD
ENDBRANCH   5  18
BRANCH   3  22
ATOM     22  C   LIG d   1      -9.476  76.642 117.902  0.00  0.00     0.382 C 
ATOM     23  O   LIG d   1     -10.484  77.204 118.393  0.00  0.00    -0.241 OA
ATOM     24  O   LIG d   1      -9.518  75.425 117.640  0.00  0.00    -0.241 OA
ENDBRANCH   3  22
TORSDOF 7
ENDMDL
MODEL 9
REMARK VINA RESULT:      -5.1     27.959     30.663
REMARK  7 active torsions:
REMARK  status: ('A' for Active; 'I' for Inactive)
REMARK    1  A    between atoms: C_2  and  C_3 
REMARK    2  A    between atoms: C_3  and  O_6 
REMARK    3  A    between atoms: C_3  and  C_4 
REMARK    4  A    between atoms: C_7  and  O_6 
REMARK    5  A    between atoms: C_9  and  C_10 
REMARK    6  A    between atoms: N_15  and  C_14 
REMARK    7  A    between atoms: N_20  and  C_19 
REMARK       I    between atoms: C_22  and  N_20 
ROOT
ATOM      1  C   LIG d   1     -16.064  64.490 115.984  0.00  0.00     0.161 C 
ATOM      2  C   LIG d   1     -15.397  65.676 116.333  0.00  0.00     0.016 C 
ATOM      3  C   LIG d   1     -15.171  66.737 115.426  0.00  0.00     0.038 C 
ATOM      4  C   LIG d   1     -15.732  66.746 114.140  0.00  0.00     0.028 C 
ATOM      5  C   LIG d   1     -15.984  65.350 113.579  0.00  0.00    -0.047 C 
ATOM      6  C   LIG d   1     -16.781  64.529 114.618  0.00  0.00     0.091 C 
ENDROOT
BRANCH   1   7
ATOM      7  O   LIG d   1     -16.991  64.126 117.026  0.00  0.00    -0.368 OA
BRANCH   7   8
ATOM      8  C   LIG d   1     -16.874  62.777 117.541  0.00  0.00     0.119 C 
BRANCH   8   9
ATOM      9  C   LIG d   1     -18.300  62.211 117.686  0.00  0.00     0.028 C 
ATOM     10  C   LIG d   1     -19.377  63.305 117.593  0.00  0.00     0.006 C 
ENDBRANCH   8   9
BRANCH   8  11
ATOM     11  C   LIG d   1     -16.289  62.770 118.957  0.00  0.00     0.028 C 
ATOM     12  C   LIG d   1     -15.734  61.396 119.365  0.00  0.00     0.006 C 
ENDBRANCH   8  11
ENDBRANCH   7   8
ENDBRANCH   1   7
BRANCH   6  13
ATOM     13  N   LIG d   1     -16.998  63.124 114.184  0.00  0.00    -0.311 N 
ATOM     14  C   LIG d   1     -18.204  62.600 113.972  0.00  0.00     0.210 C 
ATOM     15  C   LIG d   1     -18.203  61.127 113.548  0.00  0.00     0.109 C 
ATOM     16  O   LIG d   1     -19.272  63.223 114.063  0.00  0.00    -0.276 OA
ATOM     17  H   LIG d   1     -16.183  62.555 114.056  0.00  0.00     0.149 HD
ENDBRANCH   6  13
BRANCH   5  18
ATOM     18  N   LIG d   1     -16.696  65.507 112.297  0.00  0.00     0.381 N 
ATOM     19  H   LIG d   1     -17.289  64.717 112.140  0.00  0.00    -0.090 HD
ATOM     20  H   LIG d   1     -16.022  65.548 111.554  0.00  0.00    -0.090 HD
ATOM     21  H   LIG d   1     -17.240  66.342 112.309  0.00  0.00    -0.090 HD
ENDBRANCH   5  18
BRANCH   3  22
ATOM     22  C   LIG d   1     -14.340  67.786 115.789  0.00  0.00     0.382 C 
ATOM     23  O   LIG d   1     -13.589  67.674 116.787  0.00  0.00    -0.241 OA
ATOM     24  O   LIG d   1     -14.366  68.860 115.158  0.00  0.00    -0.241 OA
ENDBRANCH   3  22
TORSDOF 7
ENDMDL
