MODEL 1
REMARK VINA RESULT:      -5.5      0.000      0.000
REMARK  7 active torsions:
REMARK  status: ('A' for Active; 'I' for Inactive)
REMARK    1  A    between atoms: C_2  and  C_3 
REMARK    2  A    between atoms: C_3  and  O_6 
REMARK    3  A    between atoms: C_3  and  C_4 
REMARK    4  A    between atoms: C_7  and  O_6 
REMARK    5  A    between atoms: C_9  and  C_10 
REMARK    6  A    between atoms: N_15  and  C_14 
REMARK    7  A    between atoms: N_20  and  C_19 
REMARK       I    between atoms: C_22  and  N_20 
ROOT
ATOM      1  C   LIG d   1      -3.488  90.902 117.974  0.00  0.00     0.161 C 
ATOM      2  C   LIG d   1      -4.290  90.266 117.011  0.00  0.00     0.016 C 
ATOM      3  C   LIG d   1      -5.590  90.705 116.669  0.00  0.00     0.038 C 
ATOM      4  C   LIG d   1      -6.120  91.908 117.160  0.00  0.00     0.028 C 
ATOM      5  C   LIG d   1      -5.549  92.312 118.515  0.00  0.00    -0.047 C 
ATOM      6  C   LIG d   1      -4.005  92.279 118.439  0.00  0.00     0.091 C 
ENDROOT
BRANCH   1   7
ATOM      7  O   LIG d   1      -2.136  91.013 117.486  0.00  0.00    -0.368 OA
BRANCH   7   8
ATOM      8  C   LIG d   1      -1.154  90.168 118.135  0.00  0.00     0.119 C 
BRANCH   8   9
ATOM      9  C   LIG d   1      -1.869  89.417 119.274  0.00  0.00     0.028 C 
ATOM     10  C   LIG d   1      -1.162  89.595 120.629  0.00  0.00     0.006 C 
ENDBRANCH   8   9
BRANCH   8  11
ATOM     11  C   LIG d   1      -0.066  91.002 118.818  0.00  0.00     0.028 C 
ATOM     12  C   LIG d   1       0.255  92.300 118.060  0.00  0.00     0.006 C 
ENDBRANCH   8  11
ENDBRANCH   7   8
ENDBRANCH   1   7
BRANCH   6  13
ATOM     13  N   LIG d   1      -3.367  92.580 119.747  0.00  0.00    -0.311 N 
ATOM     14  C   LIG d   1      -2.584  93.637 119.954  0.00  0.00     0.210 C 
ATOM     15  C   LIG d   1      -2.011  93.750 121.371  0.00  0.00     0.109 C 
ATOM     16  O   LIG d   1      -2.335  94.510 119.109  0.00  0.00    -0.276 OA
ATOM     17  H   LIG d   1      -3.541  91.941 120.498  0.00  0.00     0.149 HD
ENDBRANCH   6  13
BRANCH   5  18
ATOM     18  N   LIG d   1      -6.083  93.647 118.843  0.00  0.00     0.381 N 
ATOM     19  H   LIG d   1      -6.086  94.222 118.024  0.00  0.00    -0.090 HD
ATOM     20  H   LIG d   1      -5.486  94.077 119.527  0.00  0.00    -0.090 HD
ATOM     21  H   LIG d   1      -7.008  93.565 119.204  0.00  0.00    -0.090 HD
ENDBRANCH   5  18
BRANCH   3  22
ATOM     22  C   LIG d   1      -6.390  89.917 115.856  0.00  0.00     0.382 C 
ATOM     23  O   LIG d   1      -7.546  89.604 116.227  0.00  0.00    -0.241 OA
ATOM     24  O   LIG d   1      -5.953  89.477 114.775  0.00  0.00    -0.241 OA
ENDBRANCH   3  22
TORSDOF 7
ENDMDL
MODEL 2
REMARK VINA RESULT:      -5.5     13.512     15.490
REMARK  7 active torsions:
REMARK  status: ('A' for Active; 'I' for Inactive)
REMARK    1  A    between atoms: C_2  and  C_3 
REMARK    2  A    between atoms: C_3  and  O_6 
REMARK    3  A    between atoms: C_3  and  C_4 
REMARK    4  A    between atoms: C_7  and  O_6 
REMARK    5  A    between atoms: C_9  and  C_10 
REMARK    6  A    between atoms: N_15  and  C_14 
REMARK    7  A    between atoms: N_20  and  C_19 
REMARK       I    between atoms: C_22  and  N_20 
ROOT
ATOM      1  C   LIG d   1      -7.482  76.829 118.104  0.00  0.00     0.161 C 
ATOM      2  C   LIG d   1      -8.697  77.458 118.421  0.00  0.00     0.016 C 
ATOM      3  C   LIG d   1      -8.833  78.857 118.571  0.00  0.00     0.038 C 
ATOM      4  C   LIG d   1      -7.788  79.741 118.263  0.00  0.00     0.028 C 
ATOM      5  C   LIG d   1      -6.403  79.123 118.427  0.00  0.00    -0.047 C 
ATOM      6  C   LIG d   1      -6.357  77.784 117.654  0.00  0.00     0.091 C 
ENDROOT
BRANCH   1   7
ATOM      7  O   LIG d   1      -7.704  75.812 117.106  0.00  0.00    -0.368 OA
BRANCH   7   8
ATOM      8  C   LIG d   1      -7.913  74.467 117.602  0.00  0.00     0.119 C 
BRANCH   8   9
ATOM      9  C   LIG d   1      -6.918  73.545 116.871  0.00  0.00     0.028 C 
ATOM     10  C   LIG d   1      -6.044  74.307 115.861  0.00  0.00     0.006 C 
ENDBRANCH   8   9
BRANCH   8  11
ATOM     11  C   LIG d   1      -9.302  73.944 117.226  0.00  0.00     0.028 C 
ATOM     12  C   LIG d   1      -9.330  72.422 117.017  0.00  0.00     0.006 C 
ENDBRANCH   8  11
ENDBRANCH   7   8
ENDBRANCH   1   7
BRANCH   6  13
ATOM     13  N   LIG d   1      -5.064  77.072 117.832  0.00  0.00    -0.311 N 
ATOM     14  C   LIG d   1      -4.046  77.178 116.980  0.00  0.00     0.210 C 
ATOM     15  C   LIG d   1      -2.812  76.344 117.340  0.00  0.00     0.109 C 
ATOM     16  O   LIG d   1      -4.035  77.909 115.978  0.00  0.00    -0.276 OA
ATOM     17  H   LIG d   1      -4.975  76.482 118.636  0.00  0.00     0.149 HD
ENDBRANCH   6  13
BRANCH   5  18
ATOM     18  N   LIG d   1      -5.416  80.105 117.941  0.00  0.00     0.381 N 
ATOM     19  H   LIG d   1      -4.842  80.412 118.701  0.00  0.00    -0.090 HD
ATOM     20  H   LIG d   1      -5.904  80.902 117.573  0.00  0.00    -0.090 HD
ATOM     21  H   LIG d   1      -4.849  79.696 117.232  0.00  0.00    -0.090 HD
ENDBRANCH   5  18
BRANCH   3  22
ATOM     22  C   LIG d   1     -10.014  79.383 119.073  0.00  0.00     0.382 C 
ATOM     23  O   LIG d   1     -10.592  80.317 118.465  0.00  0.00    -0.241 OA
ATOM     24  O   LIG d   1     -10.484  78.967 120.148  0.00  0.00    -0.241 OA
ENDBRANCH   3  22
TORSDOF 7
ENDMDL
MODEL 3
REMARK VINA RESULT:      -5.4     30.131     32.036
REMARK  7 active torsions:
REMARK  status: ('A' for Active; 'I' for Inactive)
REMARK    1  A    between atoms: C_2  and  C_3 
REMARK    2  A    between atoms: C_3  and  O_6 
REMARK    3  A    between atoms: C_3  and  C_4 
REMARK    4  A    between atoms: C_7  and  O_6 
REMARK    5  A    between atoms: C_9  and  C_10 
REMARK    6  A    between atoms: N_15  and  C_14 
REMARK    7  A    between atoms: N_20  and  C_19 
REMARK       I    between atoms: C_22  and  N_20 
ROOT
ATOM      1  C   LIG d   1       0.300  59.850 120.120  0.00  0.00     0.161 C 
ATOM      2  C   LIG d   1       1.666  60.154 120.247  0.00  0.00     0.016 C 
ATOM      3  C   LIG d   1       2.547  60.254 119.145  0.00  0.00     0.038 C 
ATOM      4  C   LIG d   1       2.086  60.206 117.821  0.00  0.00     0.028 C 
ATOM      5  C   LIG d   1       0.803  59.399 117.655  0.00  0.00    -0.047 C 
ATOM      6  C   LIG d   1      -0.242  59.904 118.677  0.00  0.00     0.091 C 
ENDROOT
BRANCH   1   7
ATOM      7  O   LIG d   1      -0.473  60.711 120.979  0.00  0.00    -0.368 OA
BRANCH   7   8
ATOM      8  C   LIG d   1      -0.841  60.162 122.268  0.00  0.00     0.119 C 
BRANCH   8   9
ATOM      9  C   LIG d   1      -2.206  59.464 122.102  0.00  0.00     0.028 C 
ATOM     10  C   LIG d   1      -3.268  60.392 121.489  0.00  0.00     0.006 C 
ENDBRANCH   8   9
BRANCH   8  11
ATOM     11  C   LIG d   1      -1.075  61.269 123.300  0.00  0.00     0.028 C 
ATOM     12  C   LIG d   1      -0.465  62.615 122.877  0.00  0.00     0.006 C 
ENDBRANCH   8  11
ENDBRANCH   7   8
ENDBRANCH   1   7
BRANCH   6  13
ATOM     13  N   LIG d   1      -1.500  59.112 118.639  0.00  0.00    -0.311 N 
ATOM     14  C   LIG d   1      -2.578  59.482 117.951  0.00  0.00     0.210 C 
ATOM     15  C   LIG d   1      -3.775  58.532 118.064  0.00  0.00     0.109 C 
ATOM     16  O   LIG d   1      -2.647  60.490 117.231  0.00  0.00    -0.276 OA
ATOM     17  H   LIG d   1      -1.520  58.264 119.170  0.00  0.00     0.149 HD
ENDBRANCH   6  13
BRANCH   5  18
ATOM     18  N   LIG d   1       0.361  59.547 116.256  0.00  0.00     0.381 N 
ATOM     19  H   LIG d   1       1.058  59.178 115.640  0.00  0.00    -0.090 HD
ATOM     20  H   LIG d   1       0.246  60.524 116.052  0.00  0.00    -0.090 HD
ATOM     21  H   LIG d   1      -0.501  59.068 116.118  0.00  0.00    -0.090 HD
ENDBRANCH   5  18
BRANCH   3  22
ATOM     22  C   LIG d   1       3.911  60.365 119.364  0.00  0.00     0.382 C 
ATOM     23  O   LIG d   1       4.676  60.666 118.417  0.00  0.00    -0.241 OA
ATOM     24  O   LIG d   1       4.393  60.124 120.488  0.00  0.00    -0.241 OA
ENDBRANCH   3  22
TORSDOF 7
ENDMDL
MODEL 4
REMARK VINA RESULT:      -5.3     14.897     16.671
REMARK  7 active torsions:
REMARK  status: ('A' for Active; 'I' for Inactive)
REMARK    1  A    between atoms: C_2  and  C_3 
REMARK    2  A    between atoms: C_3  and  O_6 
REMARK    3  A    between atoms: C_3  and  C_4 
REMARK    4  A    between atoms: C_7  and  O_6 
REMARK    5  A    between atoms: C_9  and  C_10 
REMARK    6  A    between atoms: N_15  and  C_14 
REMARK    7  A    between atoms: N_20  and  C_19 
REMARK       I    between atoms: C_22  and  N_20 
ROOT
ATOM      1  C   LIG d   1      -4.400  75.144 116.075  0.00  0.00     0.161 C 
ATOM      2  C   LIG d   1      -3.853  76.432 116.208  0.00  0.00     0.016 C 
ATOM      3  C   LIG d   1      -4.560  77.524 116.761  0.00  0.00     0.038 C 
ATOM      4  C   LIG d   1      -5.818  77.365 117.362  0.00  0.00     0.028 C 
ATOM      5  C   LIG d   1      -6.615  76.193 116.798  0.00  0.00    -0.047 C 
ATOM      6  C   LIG d   1      -5.730  74.926 116.825  0.00  0.00     0.091 C 
ENDROOT
BRANCH   1   7
ATOM      7  O   LIG d   1      -3.430  74.157 116.477  0.00  0.00    -0.368 OA
BRANCH   7   8
ATOM      8  C   LIG d   1      -2.115  74.659 116.821  0.00  0.00     0.119 C 
BRANCH   8   9
ATOM      9  C   LIG d   1      -1.143  74.207 115.714  0.00  0.00     0.028 C 
ATOM     10  C   LIG d   1      -0.536  75.393 114.945  0.00  0.00     0.006 C 
ENDBRANCH   8   9
BRANCH   8  11
ATOM     11  C   LIG d   1      -1.591  74.016 118.108  0.00  0.00     0.028 C 
ATOM     12  C   LIG d   1      -0.308  74.682 118.629  0.00  0.00     0.006 C 
ENDBRANCH   8  11
ENDBRANCH   7   8
ENDBRANCH   1   7
BRANCH   6  13
ATOM     13  N   LIG d   1      -6.404  73.751 116.214  0.00  0.00    -0.311 N 
ATOM     14  C   LIG d   1      -7.221  72.942 116.886  0.00  0.00     0.210 C 
ATOM     15  C   LIG d   1      -7.795  71.779 116.071  0.00  0.00     0.109 C 
ATOM     16  O   LIG d   1      -7.551  73.097 118.071  0.00  0.00    -0.276 OA
ATOM     17  H   LIG d   1      -6.217  73.570 115.247  0.00  0.00     0.149 HD
ENDBRANCH   6  13
BRANCH   5  18
ATOM     18  N   LIG d   1      -7.842  76.059 117.606  0.00  0.00     0.381 N 
ATOM     19  H   LIG d   1      -7.778  75.248 118.187  0.00  0.00    -0.090 HD
ATOM     20  H   LIG d   1      -8.626  75.945 116.988  0.00  0.00    -0.090 HD
ATOM     21  H   LIG d   1      -7.970  76.871 118.169  0.00  0.00    -0.090 HD
ENDBRANCH   5  18
BRANCH   3  22
ATOM     22  C   LIG d   1      -4.025  78.800 116.682  0.00  0.00     0.382 C 
ATOM     23  O   LIG d   1      -2.780  78.959 116.684  0.00  0.00    -0.241 OA
ATOM     24  O   LIG d   1      -4.770  79.798 116.652  0.00  0.00    -0.241 OA
ENDBRANCH   3  22
TORSDOF 7
ENDMDL
MODEL 5
REMARK VINA RESULT:      -5.2     14.895     16.302
REMARK  7 active torsions:
REMARK  status: ('A' for Active; 'I' for Inactive)
REMARK    1  A    between atoms: C_2  and  C_3 
REMARK    2  A    between atoms: C_3  and  O_6 
REMARK    3  A    between atoms: C_3  and  C_4 
REMARK    4  A    between atoms: C_7  and  O_6 
REMARK    5  A    between atoms: C_9  and  C_10 
REMARK    6  A    between atoms: N_15  and  C_14 
REMARK    7  A    between atoms: N_20  and  C_19 
REMARK       I    between atoms: C_22  and  N_20 
ROOT
ATOM      1  C   LIG d   1      -5.503  75.006 116.781  0.00  0.00     0.161 C 
ATOM      2  C   LIG d   1      -6.299  73.886 116.490  0.00  0.00     0.016 C 
ATOM      3  C   LIG d   1      -7.644  73.757 116.907  0.00  0.00     0.038 C 
ATOM      4  C   LIG d   1      -8.334  74.813 117.520  0.00  0.00     0.028 C 
ATOM      5  C   LIG d   1      -7.425  75.771 118.281  0.00  0.00    -0.047 C 
ATOM      6  C   LIG d   1      -6.273  76.216 117.351  0.00  0.00     0.091 C 
ENDROOT
BRANCH   1   7
ATOM      7  O   LIG d   1      -4.758  75.394 115.609  0.00  0.00    -0.368 OA
BRANCH   7   8
ATOM      8  C   LIG d   1      -3.406  74.883 115.516  0.00  0.00     0.119 C 
BRANCH   8   9
ATOM      9  C   LIG d   1      -2.872  74.721 116.953  0.00  0.00     0.028 C 
ATOM     10  C   LIG d   1      -1.352  74.487 116.991  0.00  0.00     0.006 C 
ENDBRANCH   8   9
BRANCH   8  11
ATOM     11  C   LIG d   1      -2.472  75.896 114.848  0.00  0.00     0.028 C 
ATOM     12  C   LIG d   1      -3.050  77.320 114.833  0.00  0.00     0.006 C 
ENDBRANCH   8  11
ENDBRANCH   7   8
ENDBRANCH   1   7
BRANCH   6  13
ATOM     13  N   LIG d   1      -5.290  77.089 118.044  0.00  0.00    -0.311 N 
ATOM     14  C   LIG d   1      -5.063  78.355 117.700  0.00  0.00     0.210 C 
ATOM     15  C   LIG d   1      -3.994  79.070 118.532  0.00  0.00     0.109 C 
ATOM     16  O   LIG d   1      -5.669  78.964 116.805  0.00  0.00    -0.276 OA
ATOM     17  H   LIG d   1      -4.776  76.684 118.803  0.00  0.00     0.149 HD
ENDBRANCH   6  13
BRANCH   5  18
ATOM     18  N   LIG d   1      -8.255  76.896 118.751  0.00  0.00     0.381 N 
ATOM     19  H   LIG d   1      -9.020  76.548 119.295  0.00  0.00    -0.090 HD
ATOM     20  H   LIG d   1      -8.629  77.379 117.954  0.00  0.00    -0.090 HD
ATOM     21  H   LIG d   1      -7.706  77.520 119.300  0.00  0.00    -0.090 HD
ENDBRANCH   5  18
BRANCH   3  22
ATOM     22  C   LIG d   1      -8.299  72.545 116.749  0.00  0.00     0.382 C 
ATOM     23  O   LIG d   1      -9.410  72.357 117.301  0.00  0.00    -0.241 OA
ATOM     24  O   LIG d   1      -7.773  71.623 116.098  0.00  0.00    -0.241 OA
ENDBRANCH   3  22
TORSDOF 7
ENDMDL
MODEL 6
REMARK VINA RESULT:      -5.1     14.645     16.438
REMARK  7 active torsions:
REMARK  status: ('A' for Active; 'I' for Inactive)
REMARK    1  A    between atoms: C_2  and  C_3 
REMARK    2  A    between atoms: C_3  and  O_6 
REMARK    3  A    between atoms: C_3  and  C_4 
REMARK    4  A    between atoms: C_7  and  O_6 
REMARK    5  A    between atoms: C_9  and  C_10 
REMARK    6  A    between atoms: N_15  and  C_14 
REMARK    7  A    between atoms: N_20  and  C_19 
REMARK       I    between atoms: C_22  and  N_20 
ROOT
ATOM      1  C   LIG d   1      -7.697  75.910 117.528  0.00  0.00     0.161 C 
ATOM      2  C   LIG d   1      -8.384  74.686 117.459  0.00  0.00     0.016 C 
ATOM      3  C   LIG d   1      -7.797  73.490 116.984  0.00  0.00     0.038 C 
ATOM      4  C   LIG d   1      -6.429  73.403 116.687  0.00  0.00     0.028 C 
ATOM      5  C   LIG d   1      -5.815  74.733 116.262  0.00  0.00    -0.047 C 
ATOM      6  C   LIG d   1      -6.173  75.809 117.313  0.00  0.00     0.091 C 
ENDROOT
BRANCH   1   7
ATOM      7  O   LIG d   1      -7.984  76.560 118.782  0.00  0.00    -0.368 OA
BRANCH   7   8
ATOM      8  C   LIG d   1      -8.299  77.973 118.709  0.00  0.00     0.119 C 
BRANCH   8   9
ATOM      9  C   LIG d   1      -7.789  78.628 120.007  0.00  0.00     0.028 C 
ATOM     10  C   LIG d   1      -6.551  79.509 119.772  0.00  0.00     0.006 C 
ENDBRANCH   8   9
BRANCH   8  11
ATOM     11  C   LIG d   1      -9.812  78.207 118.704  0.00  0.00     0.028 C 
ATOM     12  C   LIG d   1     -10.231  79.416 119.556  0.00  0.00     0.006 C 
ENDBRANCH   8  11
ENDBRANCH   7   8
ENDBRANCH   1   7
BRANCH   6  13
ATOM     13  N   LIG d   1      -5.682  77.159 116.931  0.00  0.00    -0.311 N 
ATOM     14  C   LIG d   1      -4.511  77.653 117.329  0.00  0.00     0.210 C 
ATOM     15  C   LIG d   1      -4.207  79.072 116.838  0.00  0.00     0.109 C 
ATOM     16  O   LIG d   1      -3.680  77.038 118.015  0.00  0.00    -0.276 OA
ATOM     17  H   LIG d   1      -6.280  77.714 116.350  0.00  0.00     0.149 HD
ENDBRANCH   6  13
BRANCH   5  18
ATOM     18  N   LIG d   1      -4.362  74.527 116.117  0.00  0.00     0.381 N 
ATOM     19  H   LIG d   1      -3.884  74.922 116.902  0.00  0.00    -0.090 HD
ATOM     20  H   LIG d   1      -4.048  74.998 115.287  0.00  0.00    -0.090 HD
ATOM     21  H   LIG d   1      -4.160  73.553 116.051  0.00  0.00    -0.090 HD
ENDBRANCH   5  18
BRANCH   3  22
ATOM     22  C   LIG d   1      -8.591  72.375 116.765  0.00  0.00     0.382 C 
ATOM     23  O   LIG d   1      -8.284  71.553 115.868  0.00  0.00    -0.241 OA
ATOM     24  O   LIG d   1      -9.634  72.202 117.424  0.00  0.00    -0.241 OA
ENDBRANCH   3  22
TORSDOF 7
ENDMDL
MODEL 7
REMARK VINA RESULT:      -5.1     13.972     15.852
REMARK  7 active torsions:
REMARK  status: ('A' for Active; 'I' for Inactive)
REMARK    1  A    between atoms: C_2  and  C_3 
REMARK    2  A    between atoms: C_3  and  O_6 
REMARK    3  A    between atoms: C_3  and  C_4 
REMARK    4  A    between atoms: C_7  and  O_6 
REMARK    5  A    between atoms: C_9  and  C_10 
REMARK    6  A    between atoms: N_15  and  C_14 
REMARK    7  A    between atoms: N_20  and  C_19 
REMARK       I    between atoms: C_22  and  N_20 
ROOT
ATOM      1  C   LIG d   1      -5.281  76.609 116.098  0.00  0.00     0.161 C 
ATOM      2  C   LIG d   1      -4.379  75.554 115.884  0.00  0.00     0.016 C 
ATOM      3  C   LIG d   1      -3.195  75.378 116.637  0.00  0.00     0.038 C 
ATOM      4  C   LIG d   1      -2.908  76.165 117.762  0.00  0.00     0.028 C 
ATOM      5  C   LIG d   1      -3.534  77.554 117.705  0.00  0.00    -0.047 C 
ATOM      6  C   LIG d   1      -5.042  77.413 117.393  0.00  0.00     0.091 C 
ENDROOT
BRANCH   1   7
ATOM      7  O   LIG d   1      -6.633  76.111 116.060  0.00  0.00    -0.368 OA
BRANCH   7   8
ATOM      8  C   LIG d   1      -7.077  75.384 117.232  0.00  0.00     0.119 C 
BRANCH   8   9
ATOM      9  C   LIG d   1      -6.947  73.880 116.921  0.00  0.00     0.028 C 
ATOM     10  C   LIG d   1      -8.029  73.040 117.620  0.00  0.00     0.006 C 
ENDBRANCH   8   9
BRANCH   8  11
ATOM     11  C   LIG d   1      -8.567  75.615 117.500  0.00  0.00     0.028 C 
ATOM     12  C   LIG d   1      -8.843  76.935 118.237  0.00  0.00     0.006 C 
ENDBRANCH   8  11
ENDBRANCH   7   8
ENDBRANCH   1   7
BRANCH   6  13
ATOM     13  N   LIG d   1      -5.714  78.729 117.236  0.00  0.00    -0.311 N 
ATOM     14  C   LIG d   1      -6.262  79.397 118.249  0.00  0.00     0.210 C 
ATOM     15  C   LIG d   1      -6.922  80.725 117.866  0.00  0.00     0.109 C 
ATOM     16  O   LIG d   1      -6.237  79.031 119.434  0.00  0.00    -0.276 OA
ATOM     17  H   LIG d   1      -5.753  79.114 116.313  0.00  0.00     0.149 HD
ENDBRANCH   6  13
BRANCH   5  18
ATOM     18  N   LIG d   1      -3.271  78.215 118.997  0.00  0.00     0.381 N 
ATOM     19  H   LIG d   1      -2.313  78.087 119.254  0.00  0.00    -0.090 HD
ATOM     20  H   LIG d   1      -3.847  77.791 119.703  0.00  0.00    -0.090 HD
ATOM     21  H   LIG d   1      -3.477  79.188 118.931  0.00  0.00    -0.090 HD
ENDBRANCH   5  18
BRANCH   3  22
ATOM     22  C   LIG d   1      -2.263  74.430 116.241  0.00  0.00     0.382 C 
ATOM     23  O   LIG d   1      -1.549  73.857 117.098  0.00  0.00    -0.241 OA
ATOM     24  O   LIG d   1      -2.097  74.174 115.033  0.00  0.00    -0.241 OA
ENDBRANCH   3  22
TORSDOF 7
ENDMDL
MODEL 8
REMARK VINA RESULT:      -4.9     14.251     15.932
REMARK  7 active torsions:
REMARK  status: ('A' for Active; 'I' for Inactive)
REMARK    1  A    between atoms: C_2  and  C_3 
REMARK    2  A    between atoms: C_3  and  O_6 
REMARK    3  A    between atoms: C_3  and  C_4 
REMARK    4  A    between atoms: C_7  and  O_6 
REMARK    5  A    between atoms: C_9  and  C_10 
REMARK    6  A    between atoms: N_15  and  C_14 
REMARK    7  A    between atoms: N_20  and  C_19 
REMARK       I    between atoms: C_22  and  N_20 
ROOT
ATOM      1  C   LIG d   1      -6.963  76.259 117.900  0.00  0.00     0.161 C 
ATOM      2  C   LIG d   1      -7.615  75.015 117.867  0.00  0.00     0.016 C 
ATOM      3  C   LIG d   1      -7.245  73.966 116.995  0.00  0.00     0.038 C 
ATOM      4  C   LIG d   1      -6.094  74.036 116.197  0.00  0.00     0.028 C 
ATOM      5  C   LIG d   1      -5.699  75.462 115.827  0.00  0.00    -0.047 C 
ATOM      6  C   LIG d   1      -5.636  76.314 117.115  0.00  0.00     0.091 C 
ENDROOT
BRANCH   1   7
ATOM      7  O   LIG d   1      -6.755  76.666 119.267  0.00  0.00    -0.368 OA
BRANCH   7   8
ATOM      8  C   LIG d   1      -7.722  77.598 119.809  0.00  0.00     0.119 C 
BRANCH   8   9
ATOM      9  C   LIG d   1      -8.373  78.333 118.622  0.00  0.00     0.028 C 
ATOM     10  C   LIG d   1      -9.842  78.699 118.892  0.00  0.00     0.006 C 
ENDBRANCH   8   9
BRANCH   8  11
ATOM     11  C   LIG d   1      -7.040  78.690 120.638  0.00  0.00     0.028 C 
ATOM     12  C   LIG d   1      -6.257  79.692 119.774  0.00  0.00     0.006 C 
ENDBRANCH   8  11
ENDBRANCH   7   8
ENDBRANCH   1   7
BRANCH   6  13
ATOM     13  N   LIG d   1      -5.338  77.743 116.834  0.00  0.00    -0.311 N 
ATOM     14  C   LIG d   1      -4.115  78.265 116.906  0.00  0.00     0.210 C 
ATOM     15  C   LIG d   1      -4.032  79.763 116.598  0.00  0.00     0.109 C 
ATOM     16  O   LIG d   1      -3.086  77.623 117.165  0.00  0.00    -0.276 OA
ATOM     17  H   LIG d   1      -6.111  78.330 116.586  0.00  0.00     0.149 HD
ENDBRANCH   6  13
BRANCH   5  18
ATOM     18  N   LIG d   1      -4.410  75.396 115.113  0.00  0.00     0.381 N 
ATOM     19  H   LIG d   1      -3.756  76.024 115.536  0.00  0.00    -0.090 HD
ATOM     20  H   LIG d   1      -4.551  75.682 114.161  0.00  0.00    -0.090 HD
ATOM     21  H   LIG d   1      -4.053  74.466 115.139  0.00  0.00    -0.090 HD
ENDBRANCH   5  18
BRANCH   3  22
ATOM     22  C   LIG d   1      -8.055  72.845 116.887  0.00  0.00     0.382 C 
ATOM     23  O   LIG d   1      -7.603  71.793 116.372  0.00  0.00    -0.241 OA
ATOM     24  O   LIG d   1      -9.243  72.886 117.256  0.00  0.00    -0.241 OA
ENDBRANCH   3  22
TORSDOF 7
ENDMDL
MODEL 9
REMARK VINA RESULT:      -4.9      2.285      4.307
REMARK  7 active torsions:
REMARK  status: ('A' for Active; 'I' for Inactive)
REMARK    1  A    between atoms: C_2  and  C_3 
REMARK    2  A    between atoms: C_3  and  O_6 
REMARK    3  A    between atoms: C_3  and  C_4 
REMARK    4  A    between atoms: C_7  and  O_6 
REMARK    5  A    between atoms: C_9  and  C_10 
REMARK    6  A    between atoms: N_15  and  C_14 
REMARK    7  A    between atoms: N_20  and  C_19 
REMARK       I    between atoms: C_22  and  N_20 
ROOT
ATOM      1  C   LIG d   1      -5.063  92.417 118.686  0.00  0.00     0.161 C 
ATOM      2  C   LIG d   1      -5.930  92.022 117.654  0.00  0.00     0.016 C 
ATOM      3  C   LIG d   1      -5.546  91.157 116.604  0.00  0.00     0.038 C 
ATOM      4  C   LIG d   1      -4.304  90.503 116.598  0.00  0.00     0.028 C 
ATOM      5  C   LIG d   1      -3.217  91.263 117.349  0.00  0.00    -0.047 C 
ATOM      6  C   LIG d   1      -3.740  91.627 118.758  0.00  0.00     0.091 C 
ENDROOT
BRANCH   1   7
ATOM      7  O   LIG d   1      -5.751  92.357 119.951  0.00  0.00    -0.368 OA
BRANCH   7   8
ATOM      8  C   LIG d   1      -6.192  93.625 120.498  0.00  0.00     0.119 C 
BRANCH   8   9
ATOM      9  C   LIG d   1      -7.549  93.962 119.850  0.00  0.00     0.028 C 
ATOM     10  C   LIG d   1      -8.277  95.106 120.575  0.00  0.00     0.006 C 
ENDBRANCH   8   9
BRANCH   8  11
ATOM     11  C   LIG d   1      -5.253  94.764 120.089  0.00  0.00     0.028 C 
ATOM     12  C   LIG d   1      -4.348  95.232 121.239  0.00  0.00     0.006 C 
ENDBRANCH   8  11
ENDBRANCH   7   8
ENDBRANCH   1   7
BRANCH   6  13
ATOM     13  N   LIG d   1      -2.769  92.445 119.529  0.00  0.00    -0.311 N 
ATOM     14  C   LIG d   1      -1.896  91.927 120.392  0.00  0.00     0.210 C 
ATOM     15  C   LIG d   1      -0.998  92.949 121.097  0.00  0.00     0.109 C 
ATOM     16  O   LIG d   1      -1.757  90.715 120.616  0.00  0.00    -0.276 OA
ATOM     17  H   LIG d   1      -2.790  93.436 119.385  0.00  0.00     0.149 HD
ENDBRANCH   6  13
BRANCH   5  18
ATOM     18  N   LIG d   1      -2.016  90.407 117.382  0.00  0.00     0.381 N 
ATOM     19  H   LIG d   1      -1.894  90.029 118.300  0.00  0.00    -0.090 HD
ATOM     20  H   LIG d   1      -1.211  90.966 117.162  0.00  0.00    -0.090 HD
ATOM     21  H   LIG d   1      -2.106  89.667 116.720  0.00  0.00    -0.090 HD
ENDBRANCH   5  18
BRANCH   3  22
ATOM     22  C   LIG d   1      -6.394  90.969 115.523  0.00  0.00     0.382 C 
ATOM     23  O   LIG d   1      -6.365  91.768 114.556  0.00  0.00    -0.241 OA
ATOM     24  O   LIG d   1      -7.219  90.035 115.522  0.00  0.00    -0.241 OA
ENDBRANCH   3  22
TORSDOF 7
ENDMDL
