MODEL 1
REMARK VINA RESULT:      -5.2      0.000      0.000
REMARK  7 active torsions:
REMARK  status: ('A' for Active; 'I' for Inactive)
REMARK    1  A    between atoms: C_2  and  C_3 
REMARK    2  A    between atoms: C_3  and  O_6 
REMARK    3  A    between atoms: C_3  and  C_4 
REMARK    4  A    between atoms: C_7  and  O_6 
REMARK    5  A    between atoms: C_9  and  C_10 
REMARK    6  A    between atoms: N_15  and  C_14 
REMARK    7  A    between atoms: N_20  and  C_19 
REMARK       I    between atoms: C_22  and  N_20 
ROOT
ATOM      1  C   LIG d   1      -6.182  93.386 118.208  0.00  0.00     0.161 C 
ATOM      2  C   LIG d   1      -6.765  92.388 117.410  0.00  0.00     0.016 C 
ATOM      3  C   LIG d   1      -6.027  91.341 116.810  0.00  0.00     0.038 C 
ATOM      4  C   LIG d   1      -4.669  91.134 117.094  0.00  0.00     0.028 C 
ATOM      5  C   LIG d   1      -3.933  92.409 117.492  0.00  0.00    -0.047 C 
ATOM      6  C   LIG d   1      -4.721  93.113 118.620  0.00  0.00     0.091 C 
ENDROOT
BRANCH   1   7
ATOM      7  O   LIG d   1      -6.997  93.616 119.375  0.00  0.00    -0.368 OA
BRANCH   7   8
ATOM      8  C   LIG d   1      -7.691  94.886 119.428  0.00  0.00     0.119 C 
BRANCH   8   9
ATOM      9  C   LIG d   1      -9.174  94.617 119.106  0.00  0.00     0.028 C 
ATOM     10  C   LIG d   1     -10.080  94.778 120.339  0.00  0.00     0.006 C 
ENDBRANCH   8   9
BRANCH   8  11
ATOM     11  C   LIG d   1      -7.203  95.833 118.327  0.00  0.00     0.028 C 
ATOM     12  C   LIG d   1      -6.724  97.187 118.876  0.00  0.00     0.006 C 
ENDBRANCH   8  11
ENDBRANCH   7   8
ENDBRANCH   1   7
BRANCH   6  13
ATOM     13  N   LIG d   1      -4.113  94.412 119.011  0.00  0.00    -0.311 N 
ATOM     14  C   LIG d   1      -3.922  94.781 120.276  0.00  0.00     0.210 C 
ATOM     15  C   LIG d   1      -3.299  96.169 120.458  0.00  0.00     0.109 C 
ATOM     16  O   LIG d   1      -4.179  94.077 121.264  0.00  0.00    -0.276 OA
ATOM     17  H   LIG d   1      -3.846  95.031 118.271  0.00  0.00     0.149 HD
ENDBRANCH   6  13
BRANCH   5  18
ATOM     18  N   LIG d   1      -2.566  92.027 117.893  0.00  0.00     0.381 N 
ATOM     19  H   LIG d   1      -2.542  91.833 118.874  0.00  0.00    -0.090 HD
ATOM     20  H   LIG d   1      -1.946  92.795 117.708  0.00  0.00    -0.090 HD
ATOM     21  H   LIG d   1      -2.272  91.223 117.382  0.00  0.00    -0.090 HD
ENDBRANCH   5  18
BRANCH   3  22
ATOM     22  C   LIG d   1      -6.640  90.511 115.884  0.00  0.00     0.382 C 
ATOM     23  O   LIG d   1      -7.892  90.488 115.794  0.00  0.00    -0.241 OA
ATOM     24  O   LIG d   1      -5.960  89.754 115.167  0.00  0.00    -0.241 OA
ENDBRANCH   3  22
TORSDOF 7
ENDMDL
MODEL 2
REMARK VINA RESULT:      -5.2     14.821     17.732
REMARK  7 active torsions:
REMARK  status: ('A' for Active; 'I' for Inactive)
REMARK    1  A    between atoms: C_2  and  C_3 
REMARK    2  A    between atoms: C_3  and  O_6 
REMARK    3  A    between atoms: C_3  and  C_4 
REMARK    4  A    between atoms: C_7  and  O_6 
REMARK    5  A    between atoms: C_9  and  C_10 
REMARK    6  A    between atoms: N_15  and  C_14 
REMARK    7  A    between atoms: N_20  and  C_19 
REMARK       I    between atoms: C_22  and  N_20 
ROOT
ATOM      1  C   LIG d   1      -4.424  76.520 115.756  0.00  0.00     0.161 C 
ATOM      2  C   LIG d   1      -3.468  75.518 115.521  0.00  0.00     0.016 C 
ATOM      3  C   LIG d   1      -2.362  75.282 116.371  0.00  0.00     0.038 C 
ATOM      4  C   LIG d   1      -2.221  75.939 117.602  0.00  0.00     0.028 C 
ATOM      5  C   LIG d   1      -2.886  77.311 117.637  0.00  0.00    -0.047 C 
ATOM      6  C   LIG d   1      -4.347  77.172 117.153  0.00  0.00     0.091 C 
ENDROOT
BRANCH   1   7
ATOM      7  O   LIG d   1      -5.747  75.999 115.519  0.00  0.00    -0.368 OA
BRANCH   7   8
ATOM      8  C   LIG d   1      -6.173  74.922 116.389  0.00  0.00     0.119 C 
BRANCH   8   9
ATOM      9  C   LIG d   1      -6.282  73.648 115.530  0.00  0.00     0.028 C 
ATOM     10  C   LIG d   1      -6.866  72.460 116.313  0.00  0.00     0.006 C 
ENDBRANCH   8   9
BRANCH   8  11
ATOM     11  C   LIG d   1      -7.585  75.169 116.929  0.00  0.00     0.028 C 
ATOM     12  C   LIG d   1      -8.086  76.596 116.660  0.00  0.00     0.006 C 
ENDBRANCH   8  11
ENDBRANCH   7   8
ENDBRANCH   1   7
BRANCH   6  13
ATOM     13  N   LIG d   1      -5.045  78.482 117.076  0.00  0.00    -0.311 N 
ATOM     14  C   LIG d   1      -5.763  78.990 118.077  0.00  0.00     0.210 C 
ATOM     15  C   LIG d   1      -6.416  80.344 117.782  0.00  0.00     0.109 C 
ATOM     16  O   LIG d   1      -5.893  78.463 119.192  0.00  0.00    -0.276 OA
ATOM     17  H   LIG d   1      -4.966  78.992 116.218  0.00  0.00     0.149 HD
ENDBRANCH   6  13
BRANCH   5  18
ATOM     18  N   LIG d   1      -2.780  77.822 119.017  0.00  0.00     0.381 N 
ATOM     19  H   LIG d   1      -3.649  78.235 119.292  0.00  0.00    -0.090 HD
ATOM     20  H   LIG d   1      -2.070  78.531 119.048  0.00  0.00    -0.090 HD
ATOM     21  H   LIG d   1      -2.546  77.080 119.639  0.00  0.00    -0.090 HD
ENDBRANCH   5  18
BRANCH   3  22
ATOM     22  C   LIG d   1      -1.363  74.409 115.971  0.00  0.00     0.382 C 
ATOM     23  O   LIG d   1      -0.874  73.597 116.793  0.00  0.00    -0.241 OA
ATOM     24  O   LIG d   1      -0.912  74.453 114.811  0.00  0.00    -0.241 OA
ENDBRANCH   3  22
TORSDOF 7
ENDMDL
MODEL 3
REMARK VINA RESULT:      -4.9     15.389     18.363
REMARK  7 active torsions:
REMARK  status: ('A' for Active; 'I' for Inactive)
REMARK    1  A    between atoms: C_2  and  C_3 
REMARK    2  A    between atoms: C_3  and  O_6 
REMARK    3  A    between atoms: C_3  and  C_4 
REMARK    4  A    between atoms: C_7  and  O_6 
REMARK    5  A    between atoms: C_9  and  C_10 
REMARK    6  A    between atoms: N_15  and  C_14 
REMARK    7  A    between atoms: N_20  and  C_19 
REMARK       I    between atoms: C_22  and  N_20 
ROOT
ATOM      1  C   LIG d   1      -4.270  75.191 116.511  0.00  0.00     0.161 C 
ATOM      2  C   LIG d   1      -5.038  74.069 116.159  0.00  0.00     0.016 C 
ATOM      3  C   LIG d   1      -6.447  74.024 116.271  0.00  0.00     0.038 C 
ATOM      4  C   LIG d   1      -7.201  75.160 116.601  0.00  0.00     0.028 C 
ATOM      5  C   LIG d   1      -6.436  76.169 117.451  0.00  0.00    -0.047 C 
ATOM      6  C   LIG d   1      -5.084  76.477 116.768  0.00  0.00     0.091 C 
ENDROOT
BRANCH   1   7
ATOM      7  O   LIG d   1      -3.263  75.428 115.508  0.00  0.00    -0.368 OA
BRANCH   7   8
ATOM      8  C   LIG d   1      -1.944  74.900 115.792  0.00  0.00     0.119 C 
BRANCH   8   9
ATOM      9  C   LIG d   1      -1.768  74.893 117.323  0.00  0.00     0.028 C 
ATOM     10  C   LIG d   1      -0.804  73.793 117.798  0.00  0.00     0.006 C 
ENDBRANCH   8   9
BRANCH   8  11
ATOM     11  C   LIG d   1      -0.846  75.828 115.262  0.00  0.00     0.028 C 
ATOM     12  C   LIG d   1      -1.027  77.285 115.716  0.00  0.00     0.006 C 
ENDBRANCH   8  11
ENDBRANCH   7   8
ENDBRANCH   1   7
BRANCH   6  13
ATOM     13  N   LIG d   1      -4.236  77.391 117.577  0.00  0.00    -0.311 N 
ATOM     14  C   LIG d   1      -4.190  78.709 117.386  0.00  0.00     0.210 C 
ATOM     15  C   LIG d   1      -3.235  79.464 118.316  0.00  0.00     0.109 C 
ATOM     16  O   LIG d   1      -4.873  79.327 116.556  0.00  0.00    -0.276 OA
ATOM     17  H   LIG d   1      -3.673  76.977 118.293  0.00  0.00     0.149 HD
ENDBRANCH   6  13
BRANCH   5  18
ATOM     18  N   LIG d   1      -7.291  77.361 117.605  0.00  0.00     0.381 N 
ATOM     19  H   LIG d   1      -8.024  77.169 118.259  0.00  0.00    -0.090 HD
ATOM     20  H   LIG d   1      -7.708  77.579 116.718  0.00  0.00    -0.090 HD
ATOM     21  H   LIG d   1      -6.746  78.132 117.923  0.00  0.00    -0.090 HD
ENDBRANCH   5  18
BRANCH   3  22
ATOM     22  C   LIG d   1      -7.113  72.822 116.088  0.00  0.00     0.382 C 
ATOM     23  O   LIG d   1      -6.520  71.850 115.561  0.00  0.00    -0.241 OA
ATOM     24  O   LIG d   1      -8.312  72.709 116.404  0.00  0.00    -0.241 OA
ENDBRANCH   3  22
TORSDOF 7
ENDMDL
MODEL 4
REMARK VINA RESULT:      -4.8      2.350      4.923
REMARK  7 active torsions:
REMARK  status: ('A' for Active; 'I' for Inactive)
REMARK    1  A    between atoms: C_2  and  C_3 
REMARK    2  A    between atoms: C_3  and  O_6 
REMARK    3  A    between atoms: C_3  and  C_4 
REMARK    4  A    between atoms: C_7  and  O_6 
REMARK    5  A    between atoms: C_9  and  C_10 
REMARK    6  A    between atoms: N_15  and  C_14 
REMARK    7  A    between atoms: N_20  and  C_19 
REMARK       I    between atoms: C_22  and  N_20 
ROOT
ATOM      1  C   LIG d   1      -4.156  91.663 118.148  0.00  0.00     0.161 C 
ATOM      2  C   LIG d   1      -4.751  90.943 117.098  0.00  0.00     0.016 C 
ATOM      3  C   LIG d   1      -5.923  91.366 116.430  0.00  0.00     0.038 C 
ATOM      4  C   LIG d   1      -6.499  92.623 116.668  0.00  0.00     0.028 C 
ATOM      5  C   LIG d   1      -6.226  93.160 118.069  0.00  0.00    -0.047 C 
ATOM      6  C   LIG d   1      -4.706  93.091 118.346  0.00  0.00     0.091 C 
ENDROOT
BRANCH   1   7
ATOM      7  O   LIG d   1      -2.727  91.697 117.968  0.00  0.00    -0.368 OA
BRANCH   7   8
ATOM      8  C   LIG d   1      -1.942  91.002 118.968  0.00  0.00     0.119 C 
BRANCH   8   9
ATOM      9  C   LIG d   1      -0.587  91.727 119.079  0.00  0.00     0.028 C 
ATOM     10  C   LIG d   1      -0.369  92.740 117.943  0.00  0.00     0.006 C 
ENDBRANCH   8   9
BRANCH   8  11
ATOM     11  C   LIG d   1      -1.603  89.577 118.519  0.00  0.00     0.028 C 
ATOM     12  C   LIG d   1      -2.474  88.513 119.206  0.00  0.00     0.006 C 
ENDBRANCH   8  11
ENDBRANCH   7   8
ENDBRANCH   1   7
BRANCH   6  13
ATOM     13  N   LIG d   1      -4.362  93.518 119.727  0.00  0.00    -0.311 N 
ATOM     14  C   LIG d   1      -3.426  94.425 120.001  0.00  0.00     0.210 C 
ATOM     15  C   LIG d   1      -3.215  94.706 121.492  0.00  0.00     0.109 C 
ATOM     16  O   LIG d   1      -2.773  95.048 119.150  0.00  0.00    -0.276 OA
ATOM     17  H   LIG d   1      -4.865  93.086 120.477  0.00  0.00     0.149 HD
ENDBRANCH   6  13
BRANCH   5  18
ATOM     18  N   LIG d   1      -6.764  94.532 118.134  0.00  0.00     0.381 N 
ATOM     19  H   LIG d   1      -6.458  95.053 117.337  0.00  0.00    -0.090 HD
ATOM     20  H   LIG d   1      -6.409  94.981 118.960  0.00  0.00    -0.090 HD
ATOM     21  H   LIG d   1      -7.759  94.507 118.162  0.00  0.00    -0.090 HD
ENDBRANCH   5  18
BRANCH   3  22
ATOM     22  C   LIG d   1      -6.555  90.510 115.541  0.00  0.00     0.382 C 
ATOM     23  O   LIG d   1      -7.780  90.645 115.303  0.00  0.00    -0.241 OA
ATOM     24  O   LIG d   1      -5.926  89.577 115.008  0.00  0.00    -0.241 OA
ENDBRANCH   3  22
TORSDOF 7
ENDMDL
MODEL 5
REMARK VINA RESULT:      -4.6      2.204      4.236
REMARK  7 active torsions:
REMARK  status: ('A' for Active; 'I' for Inactive)
REMARK    1  A    between atoms: C_2  and  C_3 
REMARK    2  A    between atoms: C_3  and  O_6 
REMARK    3  A    between atoms: C_3  and  C_4 
REMARK    4  A    between atoms: C_7  and  O_6 
REMARK    5  A    between atoms: C_9  and  C_10 
REMARK    6  A    between atoms: N_15  and  C_14 
REMARK    7  A    between atoms: N_20  and  C_19 
REMARK       I    between atoms: C_22  and  N_20 
ROOT
ATOM      1  C   LIG d   1      -4.611  92.347 118.304  0.00  0.00     0.161 C 
ATOM      2  C   LIG d   1      -4.827  91.534 117.179  0.00  0.00     0.016 C 
ATOM      3  C   LIG d   1      -6.004  91.584 116.397  0.00  0.00     0.038 C 
ATOM      4  C   LIG d   1      -6.987  92.564 116.600  0.00  0.00     0.028 C 
ATOM      5  C   LIG d   1      -7.045  93.077 118.035  0.00  0.00    -0.047 C 
ATOM      6  C   LIG d   1      -5.624  93.498 118.474  0.00  0.00     0.091 C 
ENDROOT
BRANCH   1   7
ATOM      7  O   LIG d   1      -3.265  92.863 118.283  0.00  0.00    -0.368 OA
BRANCH   7   8
ATOM      8  C   LIG d   1      -2.216  91.920 118.614  0.00  0.00     0.119 C 
BRANCH   8   9
ATOM      9  C   LIG d   1      -2.343  91.594 120.115  0.00  0.00     0.028 C 
ATOM     10  C   LIG d   1      -2.115  92.827 121.005  0.00  0.00     0.006 C 
ENDBRANCH   8   9
BRANCH   8  11
ATOM     11  C   LIG d   1      -0.830  92.549 118.452  0.00  0.00     0.028 C 
ATOM     12  C   LIG d   1      -0.865  93.877 117.678  0.00  0.00     0.006 C 
ENDBRANCH   8  11
ENDBRANCH   7   8
ENDBRANCH   1   7
BRANCH   6  13
ATOM     13  N   LIG d   1      -5.576  93.934 119.894  0.00  0.00    -0.311 N 
ATOM     14  C   LIG d   1      -5.067  95.100 120.287  0.00  0.00     0.210 C 
ATOM     15  C   LIG d   1      -5.098  95.343 121.799  0.00  0.00     0.109 C 
ATOM     16  O   LIG d   1      -4.622  95.970 119.523  0.00  0.00    -0.276 OA
ATOM     17  H   LIG d   1      -5.944  93.301 120.578  0.00  0.00     0.149 HD
ENDBRANCH   6  13
BRANCH   5  18
ATOM     18  N   LIG d   1      -8.015  94.188 118.072  0.00  0.00     0.381 N 
ATOM     19  H   LIG d   1      -8.943  93.830 117.963  0.00  0.00    -0.090 HD
ATOM     20  H   LIG d   1      -7.825  94.811 117.308  0.00  0.00    -0.090 HD
ATOM     21  H   LIG d   1      -7.939  94.677 118.937  0.00  0.00    -0.090 HD
ENDBRANCH   5  18
BRANCH   3  22
ATOM     22  C   LIG d   1      -6.224  90.621 115.424  0.00  0.00     0.382 C 
ATOM     23  O   LIG d   1      -7.266  90.662 114.726  0.00  0.00    -0.241 OA
ATOM     24  O   LIG d   1      -5.416  89.687 115.265  0.00  0.00    -0.241 OA
ENDBRANCH   3  22
TORSDOF 7
ENDMDL
MODEL 6
REMARK VINA RESULT:      -4.6     33.481     35.448
REMARK  7 active torsions:
REMARK  status: ('A' for Active; 'I' for Inactive)
REMARK    1  A    between atoms: C_2  and  C_3 
REMARK    2  A    between atoms: C_3  and  O_6 
REMARK    3  A    between atoms: C_3  and  C_4 
REMARK    4  A    between atoms: C_7  and  O_6 
REMARK    5  A    between atoms: C_9  and  C_10 
REMARK    6  A    between atoms: N_15  and  C_14 
REMARK    7  A    between atoms: N_20  and  C_19 
REMARK       I    between atoms: C_22  and  N_20 
ROOT
ATOM      1  C   LIG d   1       0.492  58.400 121.229  0.00  0.00     0.161 C 
ATOM      2  C   LIG d   1       0.675  59.548 122.019  0.00  0.00     0.016 C 
ATOM      3  C   LIG d   1       1.943  60.110 122.293  0.00  0.00     0.038 C 
ATOM      4  C   LIG d   1       3.110  59.647 121.668  0.00  0.00     0.028 C 
ATOM      5  C   LIG d   1       3.037  58.179 121.260  0.00  0.00    -0.047 C 
ATOM      6  C   LIG d   1       1.743  57.947 120.448  0.00  0.00     0.091 C 
ENDROOT
BRANCH   1   7
ATOM      7  O   LIG d   1      -0.616  58.598 120.329  0.00  0.00    -0.368 OA
BRANCH   7   8
ATOM      8  C   LIG d   1      -1.293  59.876 120.422  0.00  0.00     0.119 C 
BRANCH   8   9
ATOM      9  C   LIG d   1      -2.799  59.592 120.580  0.00  0.00     0.028 C 
ATOM     10  C   LIG d   1      -3.428  60.390 121.734  0.00  0.00     0.006 C 
ENDBRANCH   8   9
BRANCH   8  11
ATOM     11  C   LIG d   1      -1.164  60.670 119.118  0.00  0.00     0.028 C 
ATOM     12  C   LIG d   1      -0.165  60.043 118.134  0.00  0.00     0.006 C 
ENDBRANCH   8  11
ENDBRANCH   7   8
ENDBRANCH   1   7
BRANCH   6  13
ATOM     13  N   LIG d   1       1.552  56.520 120.081  0.00  0.00    -0.311 N 
ATOM     14  C   LIG d   1       1.310  56.108 118.838  0.00  0.00     0.210 C 
ATOM     15  C   LIG d   1       1.125  54.595 118.682  0.00  0.00     0.109 C 
ATOM     16  O   LIG d   1       1.264  56.848 117.844  0.00  0.00    -0.276 OA
ATOM     17  H   LIG d   1       1.605  55.848 120.822  0.00  0.00     0.149 HD
ENDBRANCH   6  13
BRANCH   5  18
ATOM     18  N   LIG d   1       4.262  57.867 120.499  0.00  0.00     0.381 N 
ATOM     19  H   LIG d   1       5.049  58.314 120.925  0.00  0.00    -0.090 HD
ATOM     20  H   LIG d   1       4.164  58.224 119.565  0.00  0.00    -0.090 HD
ATOM     21  H   LIG d   1       4.405  56.881 120.473  0.00  0.00    -0.090 HD
ENDBRANCH   5  18
BRANCH   3  22
ATOM     22  C   LIG d   1       2.057  61.122 123.234  0.00  0.00     0.382 C 
ATOM     23  O   LIG d   1       1.112  61.930 123.402  0.00  0.00    -0.241 OA
ATOM     24  O   LIG d   1       3.109  61.265 123.884  0.00  0.00    -0.241 OA
ENDBRANCH   3  22
TORSDOF 7
ENDMDL
MODEL 7
REMARK VINA RESULT:      -4.6     27.460     30.355
REMARK  7 active torsions:
REMARK  status: ('A' for Active; 'I' for Inactive)
REMARK    1  A    between atoms: C_2  and  C_3 
REMARK    2  A    between atoms: C_3  and  O_6 
REMARK    3  A    between atoms: C_3  and  C_4 
REMARK    4  A    between atoms: C_7  and  O_6 
REMARK    5  A    between atoms: C_9  and  C_10 
REMARK    6  A    between atoms: N_15  and  C_14 
REMARK    7  A    between atoms: N_20  and  C_19 
REMARK       I    between atoms: C_22  and  N_20 
ROOT
ATOM      1  C   LIG d   1     -15.671  64.989 118.545  0.00  0.00     0.161 C 
ATOM      2  C   LIG d   1     -14.899  65.602 119.545  0.00  0.00     0.016 C 
ATOM      3  C   LIG d   1     -14.556  66.974 119.532  0.00  0.00     0.038 C 
ATOM      4  C   LIG d   1     -15.092  67.863 118.588  0.00  0.00     0.028 C 
ATOM      5  C   LIG d   1     -15.468  67.194 117.271  0.00  0.00    -0.047 C 
ATOM      6  C   LIG d   1     -16.358  65.965 117.568  0.00  0.00     0.091 C 
ENDROOT
BRANCH   1   7
ATOM      7  O   LIG d   1     -16.646  64.115 119.148  0.00  0.00    -0.368 OA
BRANCH   7   8
ATOM      8  C   LIG d   1     -16.637  62.739 118.694  0.00  0.00     0.119 C 
BRANCH   8   9
ATOM      9  C   LIG d   1     -18.081  62.370 118.304  0.00  0.00     0.028 C 
ATOM     10  C   LIG d   1     -19.117  63.331 118.912  0.00  0.00     0.006 C 
ENDBRANCH   8   9
BRANCH   8  11
ATOM     11  C   LIG d   1     -16.266  61.780 119.829  0.00  0.00     0.028 C 
ATOM     12  C   LIG d   1     -14.747  61.611 119.994  0.00  0.00     0.006 C 
ENDBRANCH   8  11
ENDBRANCH   7   8
ENDBRANCH   1   7
BRANCH   6  13
ATOM     13  N   LIG d   1     -16.702  65.204 116.338  0.00  0.00    -0.311 N 
ATOM     14  C   LIG d   1     -17.932  65.146 115.832  0.00  0.00     0.210 C 
ATOM     15  C   LIG d   1     -18.072  64.289 114.570  0.00  0.00     0.109 C 
ATOM     16  O   LIG d   1     -18.914  65.750 116.289  0.00  0.00    -0.276 OA
ATOM     17  H   LIG d   1     -15.958  64.710 115.885  0.00  0.00     0.149 HD
ENDBRANCH   6  13
BRANCH   5  18
ATOM     18  N   LIG d   1     -16.140  68.205 116.433  0.00  0.00     0.381 N 
ATOM     19  H   LIG d   1     -16.661  68.833 117.012  0.00  0.00    -0.090 HD
ATOM     20  H   LIG d   1     -16.781  67.741 115.814  0.00  0.00    -0.090 HD
ATOM     21  H   LIG d   1     -15.465  68.713 115.904  0.00  0.00    -0.090 HD
ENDBRANCH   5  18
BRANCH   3  22
ATOM     22  C   LIG d   1     -13.634  67.461 120.446  0.00  0.00     0.382 C 
ATOM     23  O   LIG d   1     -13.031  68.536 120.216  0.00  0.00    -0.241 OA
ATOM     24  O   LIG d   1     -13.367  66.816 121.478  0.00  0.00    -0.241 OA
ENDBRANCH   3  22
TORSDOF 7
ENDMDL
MODEL 8
REMARK VINA RESULT:      -4.5     15.013     17.975
REMARK  7 active torsions:
REMARK  status: ('A' for Active; 'I' for Inactive)
REMARK    1  A    between atoms: C_2  and  C_3 
REMARK    2  A    between atoms: C_3  and  O_6 
REMARK    3  A    between atoms: C_3  and  C_4 
REMARK    4  A    between atoms: C_7  and  O_6 
REMARK    5  A    between atoms: C_9  and  C_10 
REMARK    6  A    between atoms: N_15  and  C_14 
REMARK    7  A    between atoms: N_20  and  C_19 
REMARK       I    between atoms: C_22  and  N_20 
ROOT
ATOM      1  C   LIG d   1      -4.286  76.008 117.329  0.00  0.00     0.161 C 
ATOM      2  C   LIG d   1      -3.156  75.210 117.085  0.00  0.00     0.016 C 
ATOM      3  C   LIG d   1      -1.947  75.331 117.808  0.00  0.00     0.038 C 
ATOM      4  C   LIG d   1      -1.836  76.161 118.934  0.00  0.00     0.028 C 
ATOM      5  C   LIG d   1      -2.789  77.351 118.904  0.00  0.00    -0.047 C 
ATOM      6  C   LIG d   1      -4.221  76.842 118.625  0.00  0.00     0.091 C 
ENDROOT
BRANCH   1   7
ATOM      7  O   LIG d   1      -5.473  75.191 117.317  0.00  0.00    -0.368 OA
BRANCH   7   8
ATOM      8  C   LIG d   1      -5.731  74.459 116.094  0.00  0.00     0.119 C 
BRANCH   8   9
ATOM      9  C   LIG d   1      -6.088  75.490 115.005  0.00  0.00     0.028 C 
ATOM     10  C   LIG d   1      -7.241  76.416 115.429  0.00  0.00     0.006 C 
ENDBRANCH   8   9
BRANCH   8  11
ATOM     11  C   LIG d   1      -6.969  73.567 116.229  0.00  0.00     0.028 C 
ATOM     12  C   LIG d   1      -6.681  72.095 115.894  0.00  0.00     0.006 C 
ENDBRANCH   8  11
ENDBRANCH   7   8
ENDBRANCH   1   7
BRANCH   6  13
ATOM     13  N   LIG d   1      -5.202  77.951 118.497  0.00  0.00    -0.311 N 
ATOM     14  C   LIG d   1      -5.227  78.791 117.464  0.00  0.00     0.210 C 
ATOM     15  C   LIG d   1      -6.307  79.875 117.538  0.00  0.00     0.109 C 
ATOM     16  O   LIG d   1      -4.478  78.722 116.478  0.00  0.00    -0.276 OA
ATOM     17  H   LIG d   1      -5.867  78.060 119.237  0.00  0.00     0.149 HD
ENDBRANCH   6  13
BRANCH   5  18
ATOM     18  N   LIG d   1      -2.666  78.052 120.196  0.00  0.00     0.381 N 
ATOM     19  H   LIG d   1      -1.738  78.413 120.299  0.00  0.00    -0.090 HD
ATOM     20  H   LIG d   1      -2.833  77.397 120.939  0.00  0.00    -0.090 HD
ATOM     21  H   LIG d   1      -3.326  78.797 120.245  0.00  0.00    -0.090 HD
ENDBRANCH   5  18
BRANCH   3  22
ATOM     22  C   LIG d   1      -0.820  74.645 117.382  0.00  0.00     0.382 C 
ATOM     23  O   LIG d   1       0.317  74.998 117.780  0.00  0.00    -0.241 OA
ATOM     24  O   LIG d   1      -0.921  73.705 116.571  0.00  0.00    -0.241 OA
ENDBRANCH   3  22
TORSDOF 7
ENDMDL
MODEL 9
REMARK VINA RESULT:      -4.5     12.957     15.985
REMARK  7 active torsions:
REMARK  status: ('A' for Active; 'I' for Inactive)
REMARK    1  A    between atoms: C_2  and  C_3 
REMARK    2  A    between atoms: C_3  and  O_6 
REMARK    3  A    between atoms: C_3  and  C_4 
REMARK    4  A    between atoms: C_7  and  O_6 
REMARK    5  A    between atoms: C_9  and  C_10 
REMARK    6  A    between atoms: N_15  and  C_14 
REMARK    7  A    between atoms: N_20  and  C_19 
REMARK       I    between atoms: C_22  and  N_20 
ROOT
ATOM      1  C   LIG d   1     -21.037  96.232 118.875  0.00  0.00     0.161 C 
ATOM      2  C   LIG d   1     -20.335  95.095 119.309  0.00  0.00     0.016 C 
ATOM      3  C   LIG d   1     -20.845  93.780 119.211  0.00  0.00     0.038 C 
ATOM      4  C   LIG d   1     -22.037  93.497 118.528  0.00  0.00     0.028 C 
ATOM      5  C   LIG d   1     -23.021  94.661 118.519  0.00  0.00    -0.047 C 
ATOM      6  C   LIG d   1     -22.291  95.932 118.027  0.00  0.00     0.091 C 
ENDROOT
BRANCH   1   7
ATOM      7  O   LIG d   1     -20.148  97.112 118.160  0.00  0.00    -0.368 OA
BRANCH   7   8
ATOM      8  C   LIG d   1     -19.012  96.485 117.516  0.00  0.00     0.119 C 
BRANCH   8   9
ATOM      9  C   LIG d   1     -17.799  97.417 117.705  0.00  0.00     0.028 C 
ATOM     10  C   LIG d   1     -16.616  96.709 118.386  0.00  0.00     0.006 C 
ENDBRANCH   8   9
BRANCH   8  11
ATOM     11  C   LIG d   1     -19.215  96.387 116.001  0.00  0.00     0.028 C 
ATOM     12  C   LIG d   1     -19.248  97.761 115.314  0.00  0.00     0.006 C 
ENDBRANCH   8  11
ENDBRANCH   7   8
ENDBRANCH   1   7
BRANCH   6  13
ATOM     13  N   LIG d   1     -23.160  97.137 118.067  0.00  0.00    -0.311 N 
ATOM     14  C   LIG d   1     -23.314  97.964 117.035  0.00  0.00     0.210 C 
ATOM     15  C   LIG d   1     -24.240  99.157 117.295  0.00  0.00     0.109 C 
ATOM     16  O   LIG d   1     -22.798  97.806 115.919  0.00  0.00    -0.276 OA
ATOM     17  H   LIG d   1     -23.641  97.323 118.925  0.00  0.00     0.149 HD
ENDBRANCH   6  13
BRANCH   5  18
ATOM     18  N   LIG d   1     -24.157  94.278 117.660  0.00  0.00     0.381 N 
ATOM     19  H   LIG d   1     -24.952  94.846 117.876  0.00  0.00    -0.090 HD
ATOM     20  H   LIG d   1     -24.395  93.319 117.843  0.00  0.00    -0.090 HD
ATOM     21  H   LIG d   1     -23.912  94.389 116.700  0.00  0.00    -0.090 HD
ENDBRANCH   5  18
BRANCH   3  22
ATOM     22  C   LIG d   1     -20.179  92.736 119.835  0.00  0.00     0.382 C 
ATOM     23  O   LIG d   1     -19.010  92.903 120.259  0.00  0.00    -0.241 OA
ATOM     24  O   LIG d   1     -20.715  91.617 119.939  0.00  0.00    -0.241 OA
ENDBRANCH   3  22
TORSDOF 7
ENDMDL
