MODEL 1
REMARK VINA RESULT:      -5.6      0.000      0.000
REMARK  7 active torsions:
REMARK  status: ('A' for Active; 'I' for Inactive)
REMARK    1  A    between atoms: C_2  and  C_3 
REMARK    2  A    between atoms: C_3  and  O_6 
REMARK    3  A    between atoms: C_3  and  C_4 
REMARK    4  A    between atoms: C_7  and  O_6 
REMARK    5  A    between atoms: C_9  and  C_10 
REMARK    6  A    between atoms: N_15  and  C_14 
REMARK    7  A    between atoms: N_20  and  C_19 
REMARK       I    between atoms: C_22  and  N_20 
ROOT
ATOM      1  C   LIG d   1      -6.491  91.978 118.351  0.00  0.00     0.161 C 
ATOM      2  C   LIG d   1      -6.545  91.244 117.155  0.00  0.00     0.016 C 
ATOM      3  C   LIG d   1      -6.826  91.825 115.897  0.00  0.00     0.038 C 
ATOM      4  C   LIG d   1      -6.924  93.215 115.728  0.00  0.00     0.028 C 
ATOM      5  C   LIG d   1      -7.376  93.948 116.986  0.00  0.00    -0.047 C 
ATOM      6  C   LIG d   1      -6.484  93.510 118.170  0.00  0.00     0.091 C 
ENDROOT
BRANCH   1   7
ATOM      7  O   LIG d   1      -5.352  91.561 119.129  0.00  0.00    -0.368 OA
BRANCH   7   8
ATOM      8  C   LIG d   1      -4.135  91.299 118.388  0.00  0.00     0.119 C 
BRANCH   8   9
ATOM      9  C   LIG d   1      -3.487  90.037 118.990  0.00  0.00     0.028 C 
ATOM     10  C   LIG d   1      -2.732  89.206 117.940  0.00  0.00     0.006 C 
ENDBRANCH   8   9
BRANCH   8  11
ATOM     11  C   LIG d   1      -3.108  92.417 118.589  0.00  0.00     0.028 C 
ATOM     12  C   LIG d   1      -3.204  93.071 119.977  0.00  0.00     0.006 C 
ENDBRANCH   8  11
ENDBRANCH   7   8
ENDBRANCH   1   7
BRANCH   6  13
ATOM     13  N   LIG d   1      -6.913  94.117 119.457  0.00  0.00    -0.311 N 
ATOM     14  C   LIG d   1      -6.380  95.231 119.957  0.00  0.00     0.210 C 
ATOM     15  C   LIG d   1      -6.953  95.674 121.306  0.00  0.00     0.109 C 
ATOM     16  O   LIG d   1      -5.508  95.911 119.394  0.00  0.00    -0.276 OA
ATOM     17  H   LIG d   1      -7.637  93.647 119.964  0.00  0.00     0.149 HD
ENDBRANCH   6  13
BRANCH   5  18
ATOM     18  N   LIG d   1      -7.301  95.395 116.710  0.00  0.00     0.381 N 
ATOM     19  H   LIG d   1      -8.170  95.831 116.948  0.00  0.00    -0.090 HD
ATOM     20  H   LIG d   1      -7.139  95.530 115.727  0.00  0.00    -0.090 HD
ATOM     21  H   LIG d   1      -6.561  95.805 117.235  0.00  0.00    -0.090 HD
ENDBRANCH   5  18
BRANCH   3  22
ATOM     22  C   LIG d   1      -7.053  91.011 114.798  0.00  0.00     0.382 C 
ATOM     23  O   LIG d   1      -7.745  91.429 113.839  0.00  0.00    -0.241 OA
ATOM     24  O   LIG d   1      -6.611  89.846 114.774  0.00  0.00    -0.241 OA
ENDBRANCH   3  22
TORSDOF 7
ENDMDL
MODEL 2
REMARK VINA RESULT:      -5.6      0.910      1.748
REMARK  7 active torsions:
REMARK  status: ('A' for Active; 'I' for Inactive)
REMARK    1  A    between atoms: C_2  and  C_3 
REMARK    2  A    between atoms: C_3  and  O_6 
REMARK    3  A    between atoms: C_3  and  C_4 
REMARK    4  A    between atoms: C_7  and  O_6 
REMARK    5  A    between atoms: C_9  and  C_10 
REMARK    6  A    between atoms: N_15  and  C_14 
REMARK    7  A    between atoms: N_20  and  C_19 
REMARK       I    between atoms: C_22  and  N_20 
ROOT
ATOM      1  C   LIG d   1      -5.546  92.036 117.882  0.00  0.00     0.161 C 
ATOM      2  C   LIG d   1      -5.914  91.295 116.747  0.00  0.00     0.016 C 
ATOM      3  C   LIG d   1      -6.649  91.839 115.668  0.00  0.00     0.038 C 
ATOM      4  C   LIG d   1      -6.938  93.209 115.583  0.00  0.00     0.028 C 
ATOM      5  C   LIG d   1      -7.026  93.895 116.942  0.00  0.00    -0.047 C 
ATOM      6  C   LIG d   1      -5.756  93.560 117.757  0.00  0.00     0.091 C 
ENDROOT
BRANCH   1   7
ATOM      7  O   LIG d   1      -4.179  91.746 118.233  0.00  0.00    -0.368 OA
BRANCH   7   8
ATOM      8  C   LIG d   1      -3.973  91.087 119.507  0.00  0.00     0.119 C 
BRANCH   8   9
ATOM      9  C   LIG d   1      -3.053  91.990 120.352  0.00  0.00     0.028 C 
ATOM     10  C   LIG d   1      -2.265  92.993 119.492  0.00  0.00     0.006 C 
ENDBRANCH   8   9
BRANCH   8  11
ATOM     11  C   LIG d   1      -3.207  89.772 119.337  0.00  0.00     0.028 C 
ATOM     12  C   LIG d   1      -2.847  89.477 117.873  0.00  0.00     0.006 C 
ENDBRANCH   8  11
ENDBRANCH   7   8
ENDBRANCH   1   7
BRANCH   6  13
ATOM     13  N   LIG d   1      -5.800  94.122 119.132  0.00  0.00    -0.311 N 
ATOM     14  C   LIG d   1      -5.211  95.267 119.474  0.00  0.00     0.210 C 
ATOM     15  C   LIG d   1      -5.361  95.655 120.949  0.00  0.00     0.109 C 
ATOM     16  O   LIG d   1      -4.606  96.013 118.690  0.00  0.00    -0.276 OA
ATOM     17  H   LIG d   1      -6.296  93.597 119.824  0.00  0.00     0.149 HD
ENDBRANCH   6  13
BRANCH   5  18
ATOM     18  N   LIG d   1      -7.195  95.340 116.702  0.00  0.00     0.381 N 
ATOM     19  H   LIG d   1      -7.338  95.814 117.572  0.00  0.00    -0.090 HD
ATOM     20  H   LIG d   1      -8.007  95.482 116.128  0.00  0.00    -0.090 HD
ATOM     21  H   LIG d   1      -6.388  95.706 116.245  0.00  0.00    -0.090 HD
ENDBRANCH   5  18
BRANCH   3  22
ATOM     22  C   LIG d   1      -7.139  91.000 114.678  0.00  0.00     0.382 C 
ATOM     23  O   LIG d   1      -7.899  91.455 113.790  0.00  0.00    -0.241 OA
ATOM     24  O   LIG d   1      -6.864  89.785 114.687  0.00  0.00    -0.241 OA
ENDBRANCH   3  22
TORSDOF 7
ENDMDL
MODEL 3
REMARK VINA RESULT:      -5.4     13.491     15.817
REMARK  7 active torsions:
REMARK  status: ('A' for Active; 'I' for Inactive)
REMARK    1  A    between atoms: C_2  and  C_3 
REMARK    2  A    between atoms: C_3  and  O_6 
REMARK    3  A    between atoms: C_3  and  C_4 
REMARK    4  A    between atoms: C_7  and  O_6 
REMARK    5  A    between atoms: C_9  and  C_10 
REMARK    6  A    between atoms: N_15  and  C_14 
REMARK    7  A    between atoms: N_20  and  C_19 
REMARK       I    between atoms: C_22  and  N_20 
ROOT
ATOM      1  C   LIG d   1      -2.782  78.326 115.352  0.00  0.00     0.161 C 
ATOM      2  C   LIG d   1      -2.956  79.484 114.576  0.00  0.00     0.016 C 
ATOM      3  C   LIG d   1      -2.216  79.752 113.401  0.00  0.00     0.038 C 
ATOM      4  C   LIG d   1      -1.351  78.802 112.837  0.00  0.00     0.028 C 
ATOM      5  C   LIG d   1      -0.769  77.831 113.858  0.00  0.00    -0.047 C 
ATOM      6  C   LIG d   1      -1.923  77.228 114.691  0.00  0.00     0.091 C 
ENDROOT
BRANCH   1   7
ATOM      7  O   LIG d   1      -4.067  77.796 115.733  0.00  0.00    -0.368 OA
BRANCH   7   8
ATOM      8  C   LIG d   1      -4.457  78.001 117.113  0.00  0.00     0.119 C 
BRANCH   8   9
ATOM      9  C   LIG d   1      -5.611  79.023 117.121  0.00  0.00     0.028 C 
ATOM     10  C   LIG d   1      -6.992  78.348 117.161  0.00  0.00     0.006 C 
ENDBRANCH   8   9
BRANCH   8  11
ATOM     11  C   LIG d   1      -3.331  78.655 117.920  0.00  0.00     0.028 C 
ATOM     12  C   LIG d   1      -3.724  80.028 118.488  0.00  0.00     0.006 C 
ENDBRANCH   8  11
ENDBRANCH   7   8
ENDBRANCH   1   7
BRANCH   6  13
ATOM     13  N   LIG d   1      -1.434  76.330 115.770  0.00  0.00    -0.311 N 
ATOM     14  C   LIG d   1      -1.228  75.025 115.600  0.00  0.00     0.210 C 
ATOM     15  C   LIG d   1      -0.742  74.279 116.847  0.00  0.00     0.109 C 
ATOM     16  O   LIG d   1      -1.371  74.420 114.527  0.00  0.00    -0.276 OA
ATOM     17  H   LIG d   1      -1.262  76.744 116.665  0.00  0.00     0.149 HD
ENDBRANCH   6  13
BRANCH   5  18
ATOM     18  N   LIG d   1       0.001  76.814 113.117  0.00  0.00     0.381 N 
ATOM     19  H   LIG d   1      -0.624  76.158 112.693  0.00  0.00    -0.090 HD
ATOM     20  H   LIG d   1       0.589  76.317 113.763  0.00  0.00    -0.090 HD
ATOM     21  H   LIG d   1       0.560  77.252 112.418  0.00  0.00    -0.090 HD
ENDBRANCH   5  18
BRANCH   3  22
ATOM     22  C   LIG d   1      -2.307  80.999 112.801  0.00  0.00     0.382 C 
ATOM     23  O   LIG d   1      -1.270  81.578 112.397  0.00  0.00    -0.241 OA
ATOM     24  O   LIG d   1      -3.408  81.571 112.698  0.00  0.00    -0.241 OA
ENDBRANCH   3  22
TORSDOF 7
ENDMDL
MODEL 4
REMARK VINA RESULT:      -5.2     32.515     34.184
REMARK  7 active torsions:
REMARK  status: ('A' for Active; 'I' for Inactive)
REMARK    1  A    between atoms: C_2  and  C_3 
REMARK    2  A    between atoms: C_3  and  O_6 
REMARK    3  A    between atoms: C_3  and  C_4 
REMARK    4  A    between atoms: C_7  and  O_6 
REMARK    5  A    between atoms: C_9  and  C_10 
REMARK    6  A    between atoms: N_15  and  C_14 
REMARK    7  A    between atoms: N_20  and  C_19 
REMARK       I    between atoms: C_22  and  N_20 
ROOT
ATOM      1  C   LIG d   1      -0.805  59.563 117.971  0.00  0.00     0.161 C 
ATOM      2  C   LIG d   1       0.582  59.463 117.776  0.00  0.00     0.016 C 
ATOM      3  C   LIG d   1       1.534  59.882 118.734  0.00  0.00     0.038 C 
ATOM      4  C   LIG d   1       1.159  60.293 120.022  0.00  0.00     0.028 C 
ATOM      5  C   LIG d   1      -0.244  60.887 120.083  0.00  0.00    -0.047 C 
ATOM      6  C   LIG d   1      -1.233  59.906 119.413  0.00  0.00     0.091 C 
ENDROOT
BRANCH   1   7
ATOM      7  O   LIG d   1      -1.449  58.350 117.532  0.00  0.00    -0.368 OA
BRANCH   7   8
ATOM      8  C   LIG d   1      -1.237  57.181 118.360  0.00  0.00     0.119 C 
BRANCH   8   9
ATOM      9  C   LIG d   1      -0.419  56.170 117.533  0.00  0.00     0.028 C 
ATOM     10  C   LIG d   1       0.855  55.709 118.261  0.00  0.00     0.006 C 
ENDBRANCH   8   9
BRANCH   8  11
ATOM     11  C   LIG d   1      -2.558  56.473 118.674  0.00  0.00     0.028 C 
ATOM     12  C   LIG d   1      -3.740  57.034 117.868  0.00  0.00     0.006 C 
ENDBRANCH   8  11
ENDBRANCH   7   8
ENDBRANCH   1   7
BRANCH   6  13
ATOM     13  N   LIG d   1      -2.616  60.447 119.355  0.00  0.00    -0.311 N 
ATOM     14  C   LIG d   1      -3.622  59.968 120.085  0.00  0.00     0.210 C 
ATOM     15  C   LIG d   1      -4.971  60.657 119.858  0.00  0.00     0.109 C 
ATOM     16  O   LIG d   1      -3.518  59.058 120.922  0.00  0.00    -0.276 OA
ATOM     17  H   LIG d   1      -2.783  61.207 118.725  0.00  0.00     0.149 HD
ENDBRANCH   6  13
BRANCH   5  18
ATOM     18  N   LIG d   1      -0.557  61.145 121.501  0.00  0.00     0.381 N 
ATOM     19  H   LIG d   1      -0.026  60.528 122.083  0.00  0.00    -0.090 HD
ATOM     20  H   LIG d   1      -1.533  60.963 121.657  0.00  0.00    -0.090 HD
ATOM     21  H   LIG d   1      -0.347  62.091 121.730  0.00  0.00    -0.090 HD
ENDBRANCH   5  18
BRANCH   3  22
ATOM     22  C   LIG d   1       2.877  59.930 118.392  0.00  0.00     0.382 C 
ATOM     23  O   LIG d   1       3.755  59.785 119.277  0.00  0.00    -0.241 OA
ATOM     24  O   LIG d   1       3.223  60.161 117.218  0.00  0.00    -0.241 OA
ENDBRANCH   3  22
TORSDOF 7
ENDMDL
MODEL 5
REMARK VINA RESULT:      -5.2     12.437     14.852
REMARK  7 active torsions:
REMARK  status: ('A' for Active; 'I' for Inactive)
REMARK    1  A    between atoms: C_2  and  C_3 
REMARK    2  A    between atoms: C_3  and  O_6 
REMARK    3  A    between atoms: C_3  and  C_4 
REMARK    4  A    between atoms: C_7  and  O_6 
REMARK    5  A    between atoms: C_9  and  C_10 
REMARK    6  A    between atoms: N_15  and  C_14 
REMARK    7  A    between atoms: N_20  and  C_19 
REMARK       I    between atoms: C_22  and  N_20 
ROOT
ATOM      1  C   LIG d   1      -6.028  78.136 117.128  0.00  0.00     0.161 C 
ATOM      2  C   LIG d   1      -7.399  78.441 117.142  0.00  0.00     0.016 C 
ATOM      3  C   LIG d   1      -7.931  79.609 117.734  0.00  0.00     0.038 C 
ATOM      4  C   LIG d   1      -7.106  80.633 118.225  0.00  0.00     0.028 C 
ATOM      5  C   LIG d   1      -5.739  80.140 118.687  0.00  0.00    -0.047 C 
ATOM      6  C   LIG d   1      -5.104  79.293 117.560  0.00  0.00     0.091 C 
ENDROOT
BRANCH   1   7
ATOM      7  O   LIG d   1      -5.648  77.651 115.825  0.00  0.00    -0.368 OA
BRANCH   7   8
ATOM      8  C   LIG d   1      -5.385  76.229 115.726  0.00  0.00     0.119 C 
BRANCH   8   9
ATOM      9  C   LIG d   1      -4.000  76.060 115.071  0.00  0.00     0.028 C 
ATOM     10  C   LIG d   1      -3.072  75.145 115.888  0.00  0.00     0.006 C 
ENDBRANCH   8   9
BRANCH   8  11
ATOM     11  C   LIG d   1      -6.370  75.545 114.774  0.00  0.00     0.028 C 
ATOM     12  C   LIG d   1      -7.802  75.501 115.330  0.00  0.00     0.006 C 
ENDBRANCH   8  11
ENDBRANCH   7   8
ENDBRANCH   1   7
BRANCH   6  13
ATOM     13  N   LIG d   1      -3.800  78.702 117.961  0.00  0.00    -0.311 N 
ATOM     14  C   LIG d   1      -2.699  78.782 117.216  0.00  0.00     0.210 C 
ATOM     15  C   LIG d   1      -1.468  78.087 117.806  0.00  0.00     0.109 C 
ATOM     16  O   LIG d   1      -2.617  79.389 116.138  0.00  0.00    -0.276 OA
ATOM     17  H   LIG d   1      -3.769  78.217 118.837  0.00  0.00     0.149 HD
ENDBRANCH   6  13
BRANCH   5  18
ATOM     18  N   LIG d   1      -4.935  81.324 119.043  0.00  0.00     0.381 N 
ATOM     19  H   LIG d   1      -4.234  81.480 118.347  0.00  0.00    -0.090 HD
ATOM     20  H   LIG d   1      -4.475  81.153 119.920  0.00  0.00    -0.090 HD
ATOM     21  H   LIG d   1      -5.523  82.125 119.119  0.00  0.00    -0.090 HD
ENDBRANCH   5  18
BRANCH   3  22
ATOM     22  C   LIG d   1      -9.303  79.744 117.877  0.00  0.00     0.382 C 
ATOM     23  O   LIG d   1     -10.009  78.739 118.130  0.00  0.00    -0.241 OA
ATOM     24  O   LIG d   1      -9.850  80.852 117.712  0.00  0.00    -0.241 OA
ENDBRANCH   3  22
TORSDOF 7
ENDMDL
MODEL 6
REMARK VINA RESULT:      -5.0     33.188     35.899
REMARK  7 active torsions:
REMARK  status: ('A' for Active; 'I' for Inactive)
REMARK    1  A    between atoms: C_2  and  C_3 
REMARK    2  A    between atoms: C_3  and  O_6 
REMARK    3  A    between atoms: C_3  and  C_4 
REMARK    4  A    between atoms: C_7  and  O_6 
REMARK    5  A    between atoms: C_9  and  C_10 
REMARK    6  A    between atoms: N_15  and  C_14 
REMARK    7  A    between atoms: N_20  and  C_19 
REMARK       I    between atoms: C_22  and  N_20 
ROOT
ATOM      1  C   LIG d   1      -0.508  57.409 117.548  0.00  0.00     0.161 C 
ATOM      2  C   LIG d   1      -1.863  57.771 117.623  0.00  0.00     0.016 C 
ATOM      3  C   LIG d   1      -2.784  57.161 118.505  0.00  0.00     0.038 C 
ATOM      4  C   LIG d   1      -2.375  56.245 119.486  0.00  0.00     0.028 C 
ATOM      5  C   LIG d   1      -1.111  55.480 119.111  0.00  0.00    -0.047 C 
ATOM      6  C   LIG d   1      -0.020  56.490 118.687  0.00  0.00     0.091 C 
ENDROOT
BRANCH   1   7
ATOM      7  O   LIG d   1       0.311  58.593 117.474  0.00  0.00    -0.368 OA
BRANCH   7   8
ATOM      8  C   LIG d   1       0.626  59.230 118.737  0.00  0.00     0.119 C 
BRANCH   8   9
ATOM      9  C   LIG d   1       0.164  60.697 118.643  0.00  0.00     0.028 C 
ATOM     10  C   LIG d   1      -1.130  60.956 119.433  0.00  0.00     0.006 C 
ENDBRANCH   8   9
BRANCH   8  11
ATOM     11  C   LIG d   1       2.139  59.295 118.966  0.00  0.00     0.028 C 
ATOM     12  C   LIG d   1       2.872  60.098 117.880  0.00  0.00     0.006 C 
ENDBRANCH   8  11
ENDBRANCH   7   8
ENDBRANCH   1   7
BRANCH   6  13
ATOM     13  N   LIG d   1       1.223  55.820 118.224  0.00  0.00    -0.311 N 
ATOM     14  C   LIG d   1       2.251  55.546 119.026  0.00  0.00     0.210 C 
ATOM     15  C   LIG d   1       3.443  54.870 118.341  0.00  0.00     0.109 C 
ATOM     16  O   LIG d   1       2.275  55.769 120.246  0.00  0.00    -0.276 OA
ATOM     17  H   LIG d   1       1.276  55.576 117.254  0.00  0.00     0.149 HD
ENDBRANCH   6  13
BRANCH   5  18
ATOM     18  N   LIG d   1      -0.721  54.663 120.276  0.00  0.00     0.381 N 
ATOM     19  H   LIG d   1      -0.126  53.915 119.982  0.00  0.00    -0.090 HD
ATOM     20  H   LIG d   1      -1.549  54.266 120.686  0.00  0.00    -0.090 HD
ATOM     21  H   LIG d   1      -0.249  55.229 120.947  0.00  0.00    -0.090 HD
ENDBRANCH   5  18
BRANCH   3  22
ATOM     22  C   LIG d   1      -4.137  57.437 118.385  0.00  0.00     0.382 C 
ATOM     23  O   LIG d   1      -4.520  58.608 118.150  0.00  0.00    -0.241 OA
ATOM     24  O   LIG d   1      -4.983  56.537 118.551  0.00  0.00    -0.241 OA
ENDBRANCH   3  22
TORSDOF 7
ENDMDL
MODEL 7
REMARK VINA RESULT:      -5.0     26.404     28.294
REMARK  7 active torsions:
REMARK  status: ('A' for Active; 'I' for Inactive)
REMARK    1  A    between atoms: C_2  and  C_3 
REMARK    2  A    between atoms: C_3  and  O_6 
REMARK    3  A    between atoms: C_3  and  C_4 
REMARK    4  A    between atoms: C_7  and  O_6 
REMARK    5  A    between atoms: C_9  and  C_10 
REMARK    6  A    between atoms: N_15  and  C_14 
REMARK    7  A    between atoms: N_20  and  C_19 
REMARK       I    between atoms: C_22  and  N_20 
ROOT
ATOM      1  C   LIG d   1     -14.265  66.520 116.797  0.00  0.00     0.161 C 
ATOM      2  C   LIG d   1     -14.533  67.216 115.607  0.00  0.00     0.016 C 
ATOM      3  C   LIG d   1     -15.428  66.750 114.617  0.00  0.00     0.038 C 
ATOM      4  C   LIG d   1     -16.237  65.622 114.821  0.00  0.00     0.028 C 
ATOM      5  C   LIG d   1     -15.633  64.611 115.791  0.00  0.00    -0.047 C 
ATOM      6  C   LIG d   1     -15.221  65.344 117.088  0.00  0.00     0.091 C 
ENDROOT
BRANCH   1   7
ATOM      7  O   LIG d   1     -14.250  67.439 117.908  0.00  0.00    -0.368 OA
BRANCH   7   8
ATOM      8  C   LIG d   1     -15.471  67.521 118.684  0.00  0.00     0.119 C 
BRANCH   8   9
ATOM      9  C   LIG d   1     -16.070  68.922 118.457  0.00  0.00     0.028 C 
ATOM     10  C   LIG d   1     -16.440  69.623 119.775  0.00  0.00     0.006 C 
ENDBRANCH   8   9
BRANCH   8  11
ATOM     11  C   LIG d   1     -15.182  67.442 120.186  0.00  0.00     0.028 C 
ATOM     12  C   LIG d   1     -13.725  67.061 120.493  0.00  0.00     0.006 C 
ENDBRANCH   8  11
ENDBRANCH   7   8
ENDBRANCH   1   7
BRANCH   6  13
ATOM     13  N   LIG d   1     -14.545  64.444 118.057  0.00  0.00    -0.311 N 
ATOM     14  C   LIG d   1     -15.180  63.831 119.054  0.00  0.00     0.210 C 
ATOM     15  C   LIG d   1     -14.291  62.962 119.950  0.00  0.00     0.109 C 
ATOM     16  O   LIG d   1     -16.401  63.898 119.263  0.00  0.00    -0.276 OA
ATOM     17  H   LIG d   1     -13.560  64.308 117.943  0.00  0.00     0.149 HD
ENDBRANCH   6  13
BRANCH   5  18
ATOM     18  N   LIG d   1     -16.639  63.556 116.017  0.00  0.00     0.381 N 
ATOM     19  H   LIG d   1     -16.984  63.613 116.955  0.00  0.00    -0.090 HD
ATOM     20  H   LIG d   1     -16.202  62.659 115.896  0.00  0.00    -0.090 HD
ATOM     21  H   LIG d   1     -17.391  63.657 115.372  0.00  0.00    -0.090 HD
ENDBRANCH   5  18
BRANCH   3  22
ATOM     22  C   LIG d   1     -15.492  67.393 113.390  0.00  0.00     0.382 C 
ATOM     23  O   LIG d   1     -15.318  68.633 113.322  0.00  0.00    -0.241 OA
ATOM     24  O   LIG d   1     -15.766  66.754 112.356  0.00  0.00    -0.241 OA
ENDBRANCH   3  22
TORSDOF 7
ENDMDL
MODEL 8
REMARK VINA RESULT:      -5.0      1.836      2.336
REMARK  7 active torsions:
REMARK  status: ('A' for Active; 'I' for Inactive)
REMARK    1  A    between atoms: C_2  and  C_3 
REMARK    2  A    between atoms: C_3  and  O_6 
REMARK    3  A    between atoms: C_3  and  C_4 
REMARK    4  A    between atoms: C_7  and  O_6 
REMARK    5  A    between atoms: C_9  and  C_10 
REMARK    6  A    between atoms: N_15  and  C_14 
REMARK    7  A    between atoms: N_20  and  C_19 
REMARK       I    between atoms: C_22  and  N_20 
ROOT
ATOM      1  C   LIG d   1      -6.454  92.943 119.351  0.00  0.00     0.161 C 
ATOM      2  C   LIG d   1      -6.033  91.842 118.587  0.00  0.00     0.016 C 
ATOM      3  C   LIG d   1      -6.375  91.662 117.227  0.00  0.00     0.038 C 
ATOM      4  C   LIG d   1      -7.040  92.655 116.492  0.00  0.00     0.028 C 
ATOM      5  C   LIG d   1      -7.921  93.555 117.350  0.00  0.00    -0.047 C 
ATOM      6  C   LIG d   1      -7.087  94.091 118.536  0.00  0.00     0.091 C 
ENDROOT
BRANCH   1   7
ATOM      7  O   LIG d   1      -5.355  93.437 120.142  0.00  0.00    -0.368 OA
BRANCH   7   8
ATOM      8  C   LIG d   1      -4.235  93.986 119.406  0.00  0.00     0.119 C 
BRANCH   8   9
ATOM      9  C   LIG d   1      -2.994  93.143 119.755  0.00  0.00     0.028 C 
ATOM     10  C   LIG d   1      -2.312  92.558 118.506  0.00  0.00     0.006 C 
ENDBRANCH   8   9
BRANCH   8  11
ATOM     11  C   LIG d   1      -3.905  95.407 119.872  0.00  0.00     0.028 C 
ATOM     12  C   LIG d   1      -4.209  96.470 118.805  0.00  0.00     0.006 C 
ENDBRANCH   8  11
ENDBRANCH   7   8
ENDBRANCH   1   7
BRANCH   6  13
ATOM     13  N   LIG d   1      -7.896  94.913 119.473  0.00  0.00    -0.311 N 
ATOM     14  C   LIG d   1      -8.107  96.218 119.308  0.00  0.00     0.210 C 
ATOM     15  C   LIG d   1      -8.953  96.879 120.401  0.00  0.00     0.109 C 
ATOM     16  O   LIG d   1      -7.700  96.884 118.344  0.00  0.00    -0.276 OA
ATOM     17  H   LIG d   1      -8.290  94.447 120.267  0.00  0.00     0.149 HD
ENDBRANCH   6  13
BRANCH   5  18
ATOM     18  N   LIG d   1      -8.445  94.626 116.481  0.00  0.00     0.381 N 
ATOM     19  H   LIG d   1      -8.191  95.519 116.854  0.00  0.00    -0.090 HD
ATOM     20  H   LIG d   1      -9.447  94.567 116.460  0.00  0.00    -0.090 HD
ATOM     21  H   LIG d   1      -8.079  94.527 115.560  0.00  0.00    -0.090 HD
ENDBRANCH   5  18
BRANCH   3  22
ATOM     22  C   LIG d   1      -6.085  90.460 116.598  0.00  0.00     0.382 C 
ATOM     23  O   LIG d   1      -7.010  89.769 116.109  0.00  0.00    -0.241 OA
ATOM     24  O   LIG d   1      -4.914  90.038 116.553  0.00  0.00    -0.241 OA
ENDBRANCH   3  22
TORSDOF 7
ENDMDL
MODEL 9
REMARK VINA RESULT:      -4.9     32.345     34.721
REMARK  7 active torsions:
REMARK  status: ('A' for Active; 'I' for Inactive)
REMARK    1  A    between atoms: C_2  and  C_3 
REMARK    2  A    between atoms: C_3  and  O_6 
REMARK    3  A    between atoms: C_3  and  C_4 
REMARK    4  A    between atoms: C_7  and  O_6 
REMARK    5  A    between atoms: C_9  and  C_10 
REMARK    6  A    between atoms: N_15  and  C_14 
REMARK    7  A    between atoms: N_20  and  C_19 
REMARK       I    between atoms: C_22  and  N_20 
ROOT
ATOM      1  C   LIG d   1      -1.048  58.118 119.713  0.00  0.00     0.161 C 
ATOM      2  C   LIG d   1      -0.751  59.156 120.612  0.00  0.00     0.016 C 
ATOM      3  C   LIG d   1       0.071  60.258 120.284  0.00  0.00     0.038 C 
ATOM      4  C   LIG d   1       0.531  60.477 118.977  0.00  0.00     0.028 C 
ATOM      5  C   LIG d   1       0.674  59.195 118.163  0.00  0.00    -0.047 C 
ATOM      6  C   LIG d   1      -0.646  58.396 118.249  0.00  0.00     0.091 C 
ENDROOT
BRANCH   1   7
ATOM      7  O   LIG d   1      -2.449  57.788 119.793  0.00  0.00    -0.368 OA
BRANCH   7   8
ATOM      8  C   LIG d   1      -3.369  58.788 119.292  0.00  0.00     0.119 C 
BRANCH   8   9
ATOM      9  C   LIG d   1      -4.266  59.223 120.467  0.00  0.00     0.028 C 
ATOM     10  C   LIG d   1      -5.168  60.415 120.107  0.00  0.00     0.006 C 
ENDBRANCH   8   9
BRANCH   8  11
ATOM     11  C   LIG d   1      -4.324  58.195 118.251  0.00  0.00     0.028 C 
ATOM     12  C   LIG d   1      -4.120  56.685 118.048  0.00  0.00     0.006 C 
ENDBRANCH   8  11
ENDBRANCH   7   8
ENDBRANCH   1   7
BRANCH   6  13
ATOM     13  N   LIG d   1      -0.563  57.087 117.549  0.00  0.00    -0.311 N 
ATOM     14  C   LIG d   1       0.326  56.145 117.859  0.00  0.00     0.210 C 
ATOM     15  C   LIG d   1       0.253  54.879 117.000  0.00  0.00     0.109 C 
ATOM     16  O   LIG d   1       1.148  56.225 118.785  0.00  0.00    -0.276 OA
ATOM     17  H   LIG d   1      -1.213  56.926 116.805  0.00  0.00     0.149 HD
ENDBRANCH   6  13
BRANCH   5  18
ATOM     18  N   LIG d   1       1.028  59.581 116.784  0.00  0.00     0.381 N 
ATOM     19  H   LIG d   1       2.008  59.448 116.636  0.00  0.00    -0.090 HD
ATOM     20  H   LIG d   1       0.819  60.555 116.654  0.00  0.00    -0.090 HD
ATOM     21  H   LIG d   1       0.509  59.033 116.133  0.00  0.00    -0.090 HD
ENDBRANCH   5  18
BRANCH   3  22
ATOM     22  C   LIG d   1       0.473  61.136 121.279  0.00  0.00     0.382 C 
ATOM     23  O   LIG d   1      -0.331  61.991 121.724  0.00  0.00    -0.241 OA
ATOM     24  O   LIG d   1       1.642  61.114 121.706  0.00  0.00    -0.241 OA
ENDBRANCH   3  22
TORSDOF 7
ENDMDL
