MODEL 1
REMARK VINA RESULT:      -5.4      0.000      0.000
REMARK  7 active torsions:
REMARK  status: ('A' for Active; 'I' for Inactive)
REMARK    1  A    between atoms: C_2  and  C_3 
REMARK    2  A    between atoms: C_3  and  O_6 
REMARK    3  A    between atoms: C_3  and  C_4 
REMARK    4  A    between atoms: C_7  and  O_6 
REMARK    5  A    between atoms: C_9  and  C_10 
REMARK    6  A    between atoms: N_15  and  C_14 
REMARK    7  A    between atoms: N_20  and  C_19 
REMARK       I    between atoms: C_22  and  N_20 
ROOT
ATOM      1  C   LIG d   1      -4.633  91.756 118.447  0.00  0.00     0.161 C 
ATOM      2  C   LIG d   1      -5.919  92.319 118.512  0.00  0.00     0.016 C 
ATOM      3  C   LIG d   1      -6.919  92.088 117.540  0.00  0.00     0.038 C 
ATOM      4  C   LIG d   1      -6.750  91.150 116.511  0.00  0.00     0.028 C 
ATOM      5  C   LIG d   1      -5.292  90.938 116.118  0.00  0.00    -0.047 C 
ATOM      6  C   LIG d   1      -4.467  90.643 117.392  0.00  0.00     0.091 C 
ENDROOT
BRANCH   1   7
ATOM      7  O   LIG d   1      -4.246  91.274 119.749  0.00  0.00    -0.368 OA
BRANCH   7   8
ATOM      8  C   LIG d   1      -3.192  92.013 120.414  0.00  0.00     0.119 C 
BRANCH   8   9
ATOM      9  C   LIG d   1      -3.835  92.787 121.581  0.00  0.00     0.028 C 
ATOM     10  C   LIG d   1      -4.053  94.273 121.249  0.00  0.00     0.006 C 
ENDBRANCH   8   9
BRANCH   8  11
ATOM     11  C   LIG d   1      -2.596  93.084 119.496  0.00  0.00     0.028 C 
ATOM     12  C   LIG d   1      -1.111  92.843 119.184  0.00  0.00     0.006 C 
ENDBRANCH   8  11
ENDBRANCH   7   8
ENDBRANCH   1   7
BRANCH   6  13
ATOM     13  N   LIG d   1      -3.015  90.506 117.107  0.00  0.00    -0.311 N 
ATOM     14  C   LIG d   1      -2.258  89.533 117.611  0.00  0.00     0.210 C 
ATOM     15  C   LIG d   1      -0.781  89.588 117.208  0.00  0.00     0.109 C 
ATOM     16  O   LIG d   1      -2.676  88.611 118.329  0.00  0.00    -0.276 OA
ATOM     17  H   LIG d   1      -2.601  91.193 116.509  0.00  0.00     0.149 HD
ENDBRANCH   6  13
BRANCH   5  18
ATOM     18  N   LIG d   1      -5.251  89.839 115.135  0.00  0.00     0.381 N 
ATOM     19  H   LIG d   1      -5.613  89.002 115.547  0.00  0.00    -0.090 HD
ATOM     20  H   LIG d   1      -4.295  89.673 114.873  0.00  0.00    -0.090 HD
ATOM     21  H   LIG d   1      -5.786  90.080 114.331  0.00  0.00    -0.090 HD
ENDBRANCH   5  18
BRANCH   3  22
ATOM     22  C   LIG d   1      -8.091  92.829 117.570  0.00  0.00     0.382 C 
ATOM     23  O   LIG d   1      -8.519  93.281 118.659  0.00  0.00    -0.241 OA
ATOM     24  O   LIG d   1      -8.749  93.012 116.529  0.00  0.00    -0.241 OA
ENDBRANCH   3  22
TORSDOF 7
ENDMDL
MODEL 2
REMARK VINA RESULT:      -5.4      0.796      1.783
REMARK  7 active torsions:
REMARK  status: ('A' for Active; 'I' for Inactive)
REMARK    1  A    between atoms: C_2  and  C_3 
REMARK    2  A    between atoms: C_3  and  O_6 
REMARK    3  A    between atoms: C_3  and  C_4 
REMARK    4  A    between atoms: C_7  and  O_6 
REMARK    5  A    between atoms: C_9  and  C_10 
REMARK    6  A    between atoms: N_15  and  C_14 
REMARK    7  A    between atoms: N_20  and  C_19 
REMARK       I    between atoms: C_22  and  N_20 
ROOT
ATOM      1  C   LIG d   1      -4.632  91.799 118.523  0.00  0.00     0.161 C 
ATOM      2  C   LIG d   1      -5.924  92.347 118.572  0.00  0.00     0.016 C 
ATOM      3  C   LIG d   1      -6.910  92.105 117.588  0.00  0.00     0.038 C 
ATOM      4  C   LIG d   1      -6.718  91.169 116.560  0.00  0.00     0.028 C 
ATOM      5  C   LIG d   1      -5.253  90.974 116.185  0.00  0.00    -0.047 C 
ATOM      6  C   LIG d   1      -4.440  90.688 117.469  0.00  0.00     0.091 C 
ENDROOT
BRANCH   1   7
ATOM      7  O   LIG d   1      -4.254  91.320 119.829  0.00  0.00    -0.368 OA
BRANCH   7   8
ATOM      8  C   LIG d   1      -3.489  92.239 120.648  0.00  0.00     0.119 C 
BRANCH   8   9
ATOM      9  C   LIG d   1      -2.022  91.768 120.625  0.00  0.00     0.028 C 
ATOM     10  C   LIG d   1      -1.845  90.371 121.244  0.00  0.00     0.006 C 
ENDBRANCH   8   9
BRANCH   8  11
ATOM     11  C   LIG d   1      -3.916  92.164 122.117  0.00  0.00     0.028 C 
ATOM     12  C   LIG d   1      -5.416  92.436 122.316  0.00  0.00     0.006 C 
ENDBRANCH   8  11
ENDBRANCH   7   8
ENDBRANCH   1   7
BRANCH   6  13
ATOM     13  N   LIG d   1      -2.983  90.567 117.202  0.00  0.00    -0.311 N 
ATOM     14  C   LIG d   1      -2.240  89.550 117.634  0.00  0.00     0.210 C 
ATOM     15  C   LIG d   1      -0.756  89.630 117.266  0.00  0.00     0.109 C 
ATOM     16  O   LIG d   1      -2.676  88.572 118.260  0.00  0.00    -0.276 OA
ATOM     17  H   LIG d   1      -2.554  91.302 116.674  0.00  0.00     0.149 HD
ENDBRANCH   6  13
BRANCH   5  18
ATOM     18  N   LIG d   1      -5.187  89.876 115.203  0.00  0.00     0.381 N 
ATOM     19  H   LIG d   1      -4.679  89.105 115.589  0.00  0.00    -0.090 HD
ATOM     20  H   LIG d   1      -4.697  90.199 114.387  0.00  0.00    -0.090 HD
ATOM     21  H   LIG d   1      -6.107  89.586 114.953  0.00  0.00    -0.090 HD
ENDBRANCH   5  18
BRANCH   3  22
ATOM     22  C   LIG d   1      -8.090  92.832 117.604  0.00  0.00     0.382 C 
ATOM     23  O   LIG d   1      -8.536  93.281 118.688  0.00  0.00    -0.241 OA
ATOM     24  O   LIG d   1      -8.738  93.008 116.555  0.00  0.00    -0.241 OA
ENDBRANCH   3  22
TORSDOF 7
ENDMDL
MODEL 3
REMARK VINA RESULT:      -4.9     15.838     17.991
REMARK  7 active torsions:
REMARK  status: ('A' for Active; 'I' for Inactive)
REMARK    1  A    between atoms: C_2  and  C_3 
REMARK    2  A    between atoms: C_3  and  O_6 
REMARK    3  A    between atoms: C_3  and  C_4 
REMARK    4  A    between atoms: C_7  and  O_6 
REMARK    5  A    between atoms: C_9  and  C_10 
REMARK    6  A    between atoms: N_15  and  C_14 
REMARK    7  A    between atoms: N_20  and  C_19 
REMARK       I    between atoms: C_22  and  N_20 
ROOT
ATOM      1  C   LIG d   1      -6.433  74.449 118.287  0.00  0.00     0.161 C 
ATOM      2  C   LIG d   1      -6.597  73.056 118.218  0.00  0.00     0.016 C 
ATOM      3  C   LIG d   1      -7.714  72.432 117.617  0.00  0.00     0.038 C 
ATOM      4  C   LIG d   1      -8.677  73.163 116.905  0.00  0.00     0.028 C 
ATOM      5  C   LIG d   1      -8.817  74.604 117.381  0.00  0.00    -0.047 C 
ATOM      6  C   LIG d   1      -7.418  75.259 117.418  0.00  0.00     0.091 C 
ENDROOT
BRANCH   1   7
ATOM      7  O   LIG d   1      -5.073  74.798 117.961  0.00  0.00    -0.368 OA
BRANCH   7   8
ATOM      8  C   LIG d   1      -4.395  73.918 117.031  0.00  0.00     0.119 C 
BRANCH   8   9
ATOM      9  C   LIG d   1      -2.979  73.664 117.584  0.00  0.00     0.028 C 
ATOM     10  C   LIG d   1      -1.918  74.549 116.909  0.00  0.00     0.006 C 
ENDBRANCH   8   9
BRANCH   8  11
ATOM     11  C   LIG d   1      -4.184  74.596 115.674  0.00  0.00     0.028 C 
ATOM     12  C   LIG d   1      -5.199  74.137 114.615  0.00  0.00     0.006 C 
ENDBRANCH   8  11
ENDBRANCH   7   8
ENDBRANCH   1   7
BRANCH   6  13
ATOM     13  N   LIG d   1      -7.454  76.645 117.953  0.00  0.00    -0.311 N 
ATOM     14  C   LIG d   1      -6.787  77.660 117.407  0.00  0.00     0.210 C 
ATOM     15  C   LIG d   1      -6.947  79.002 118.128  0.00  0.00     0.109 C 
ATOM     16  O   LIG d   1      -6.104  77.584 116.374  0.00  0.00    -0.276 OA
ATOM     17  H   LIG d   1      -8.009  76.804 118.771  0.00  0.00     0.149 HD
ENDBRANCH   6  13
BRANCH   5  18
ATOM     18  N   LIG d   1      -9.751  75.287 116.466  0.00  0.00     0.381 N 
ATOM     19  H   LIG d   1      -9.247  75.674 115.694  0.00  0.00    -0.090 HD
ATOM     20  H   LIG d   1     -10.198  76.040 116.959  0.00  0.00    -0.090 HD
ATOM     21  H   LIG d   1     -10.436  74.644 116.135  0.00  0.00    -0.090 HD
ENDBRANCH   5  18
BRANCH   3  22
ATOM     22  C   LIG d   1      -7.897  71.065 117.759  0.00  0.00     0.382 C 
ATOM     23  O   LIG d   1      -7.558  70.495 118.824  0.00  0.00    -0.241 OA
ATOM     24  O   LIG d   1      -8.356  70.388 116.820  0.00  0.00    -0.241 OA
ENDBRANCH   3  22
TORSDOF 7
ENDMDL
MODEL 4
REMARK VINA RESULT:      -4.8     15.633     18.262
REMARK  7 active torsions:
REMARK  status: ('A' for Active; 'I' for Inactive)
REMARK    1  A    between atoms: C_2  and  C_3 
REMARK    2  A    between atoms: C_3  and  O_6 
REMARK    3  A    between atoms: C_3  and  C_4 
REMARK    4  A    between atoms: C_7  and  O_6 
REMARK    5  A    between atoms: C_9  and  C_10 
REMARK    6  A    between atoms: N_15  and  C_14 
REMARK    7  A    between atoms: N_20  and  C_19 
REMARK       I    between atoms: C_22  and  N_20 
ROOT
ATOM      1  C   LIG d   1      -5.469  74.707 116.672  0.00  0.00     0.161 C 
ATOM      2  C   LIG d   1      -4.272  73.974 116.599  0.00  0.00     0.016 C 
ATOM      3  C   LIG d   1      -3.235  74.083 117.553  0.00  0.00     0.038 C 
ATOM      4  C   LIG d   1      -3.388  74.826 118.734  0.00  0.00     0.028 C 
ATOM      5  C   LIG d   1      -4.378  75.978 118.601  0.00  0.00    -0.047 C 
ATOM      6  C   LIG d   1      -5.700  75.437 118.011  0.00  0.00     0.091 C 
ENDROOT
BRANCH   1   7
ATOM      7  O   LIG d   1      -6.587  73.848 116.370  0.00  0.00    -0.368 OA
BRANCH   7   8
ATOM      8  C   LIG d   1      -6.907  72.845 117.366  0.00  0.00     0.119 C 
BRANCH   8   9
ATOM      9  C   LIG d   1      -6.854  71.470 116.673  0.00  0.00     0.028 C 
ATOM     10  C   LIG d   1      -7.828  70.459 117.300  0.00  0.00     0.006 C 
ENDBRANCH   8   9
BRANCH   8  11
ATOM     11  C   LIG d   1      -8.348  72.994 117.863  0.00  0.00     0.028 C 
ATOM     12  C   LIG d   1      -9.191  73.924 116.976  0.00  0.00     0.006 C 
ENDBRANCH   8  11
ENDBRANCH   7   8
ENDBRANCH   1   7
BRANCH   6  13
ATOM     13  N   LIG d   1      -6.695  76.515 117.769  0.00  0.00    -0.311 N 
ATOM     14  C   LIG d   1      -7.631  76.859 118.652  0.00  0.00     0.210 C 
ATOM     15  C   LIG d   1      -8.568  77.982 118.196  0.00  0.00     0.109 C 
ATOM     16  O   LIG d   1      -7.754  76.365 119.783  0.00  0.00    -0.276 OA
ATOM     17  H   LIG d   1      -6.648  76.990 116.890  0.00  0.00     0.149 HD
ENDBRANCH   6  13
BRANCH   5  18
ATOM     18  N   LIG d   1      -4.544  76.579 119.938  0.00  0.00     0.381 N 
ATOM     19  H   LIG d   1      -5.077  77.422 119.866  0.00  0.00    -0.090 HD
ATOM     20  H   LIG d   1      -3.638  76.809 120.305  0.00  0.00    -0.090 HD
ATOM     21  H   LIG d   1      -5.004  75.937 120.545  0.00  0.00    -0.090 HD
ENDBRANCH   5  18
BRANCH   3  22
ATOM     22  C   LIG d   1      -2.011  73.477 117.310  0.00  0.00     0.382 C 
ATOM     23  O   LIG d   1      -1.611  72.552 118.058  0.00  0.00    -0.241 OA
ATOM     24  O   LIG d   1      -1.284  73.873 116.380  0.00  0.00    -0.241 OA
ENDBRANCH   3  22
TORSDOF 7
ENDMDL
MODEL 5
REMARK VINA RESULT:      -4.8      2.380      4.060
REMARK  7 active torsions:
REMARK  status: ('A' for Active; 'I' for Inactive)
REMARK    1  A    between atoms: C_2  and  C_3 
REMARK    2  A    between atoms: C_3  and  O_6 
REMARK    3  A    between atoms: C_3  and  C_4 
REMARK    4  A    between atoms: C_7  and  O_6 
REMARK    5  A    between atoms: C_9  and  C_10 
REMARK    6  A    between atoms: N_15  and  C_14 
REMARK    7  A    between atoms: N_20  and  C_19 
REMARK       I    between atoms: C_22  and  N_20 
ROOT
ATOM      1  C   LIG d   1      -4.815  92.307 119.104  0.00  0.00     0.161 C 
ATOM      2  C   LIG d   1      -4.918  93.154 120.220  0.00  0.00     0.016 C 
ATOM      3  C   LIG d   1      -6.054  93.951 120.490  0.00  0.00     0.038 C 
ATOM      4  C   LIG d   1      -7.234  93.839 119.739  0.00  0.00     0.028 C 
ATOM      5  C   LIG d   1      -6.998  93.370 118.307  0.00  0.00    -0.047 C 
ATOM      6  C   LIG d   1      -6.135  92.088 118.335  0.00  0.00     0.091 C 
ENDROOT
BRANCH   1   7
ATOM      7  O   LIG d   1      -4.252  91.041 119.502  0.00  0.00    -0.368 OA
BRANCH   7   8
ATOM      8  C   LIG d   1      -2.833  90.871 119.260  0.00  0.00     0.119 C 
BRANCH   8   9
ATOM      9  C   LIG d   1      -2.428  91.872 118.161  0.00  0.00     0.028 C 
ATOM     10  C   LIG d   1      -1.186  92.694 118.545  0.00  0.00     0.006 C 
ENDBRANCH   8   9
BRANCH   8  11
ATOM     11  C   LIG d   1      -2.529  89.486 118.680  0.00  0.00     0.028 C 
ATOM     12  C   LIG d   1      -2.706  89.428 117.154  0.00  0.00     0.006 C 
ENDBRANCH   8  11
ENDBRANCH   7   8
ENDBRANCH   1   7
BRANCH   6  13
ATOM     13  N   LIG d   1      -5.787  91.609 116.972  0.00  0.00    -0.311 N 
ATOM     14  C   LIG d   1      -6.475  90.669 116.327  0.00  0.00     0.210 C 
ATOM     15  C   LIG d   1      -5.934  90.309 114.939  0.00  0.00     0.109 C 
ATOM     16  O   LIG d   1      -7.500  90.121 116.759  0.00  0.00    -0.276 OA
ATOM     17  H   LIG d   1      -4.987  92.022 116.534  0.00  0.00     0.149 HD
ENDBRANCH   6  13
BRANCH   5  18
ATOM     18  N   LIG d   1      -8.318  93.165 117.682  0.00  0.00     0.381 N 
ATOM     19  H   LIG d   1      -8.233  92.534 116.911  0.00  0.00    -0.090 HD
ATOM     20  H   LIG d   1      -8.653  94.046 117.334  0.00  0.00    -0.090 HD
ATOM     21  H   LIG d   1      -8.959  92.799 118.351  0.00  0.00    -0.090 HD
ENDBRANCH   5  18
BRANCH   3  22
ATOM     22  C   LIG d   1      -6.003  94.901 121.499  0.00  0.00     0.382 C 
ATOM     23  O   LIG d   1      -4.910  95.170 122.052  0.00  0.00    -0.241 OA
ATOM     24  O   LIG d   1      -7.044  95.460 121.893  0.00  0.00    -0.241 OA
ENDBRANCH   3  22
TORSDOF 7
ENDMDL
MODEL 6
REMARK VINA RESULT:      -4.7     13.575     15.299
REMARK  7 active torsions:
REMARK  status: ('A' for Active; 'I' for Inactive)
REMARK    1  A    between atoms: C_2  and  C_3 
REMARK    2  A    between atoms: C_3  and  O_6 
REMARK    3  A    between atoms: C_3  and  C_4 
REMARK    4  A    between atoms: C_7  and  O_6 
REMARK    5  A    between atoms: C_9  and  C_10 
REMARK    6  A    between atoms: N_15  and  C_14 
REMARK    7  A    between atoms: N_20  and  C_19 
REMARK       I    between atoms: C_22  and  N_20 
ROOT
ATOM      1  C   LIG d   1      -7.714  77.200 117.837  0.00  0.00     0.161 C 
ATOM      2  C   LIG d   1      -8.666  78.135 118.276  0.00  0.00     0.016 C 
ATOM      3  C   LIG d   1      -8.406  79.521 118.381  0.00  0.00     0.038 C 
ATOM      4  C   LIG d   1      -7.214  80.089 117.906  0.00  0.00     0.028 C 
ATOM      5  C   LIG d   1      -6.034  79.124 117.923  0.00  0.00    -0.047 C 
ATOM      6  C   LIG d   1      -6.445  77.816 117.209  0.00  0.00     0.091 C 
ENDROOT
BRANCH   1   7
ATOM      7  O   LIG d   1      -8.327  76.273 116.919  0.00  0.00    -0.368 OA
BRANCH   7   8
ATOM      8  C   LIG d   1      -8.772  75.016 117.486  0.00  0.00     0.119 C 
BRANCH   8   9
ATOM      9  C   LIG d   1      -7.814  73.918 116.986  0.00  0.00     0.028 C 
ATOM     10  C   LIG d   1      -8.385  72.504 117.186  0.00  0.00     0.006 C 
ENDBRANCH   8   9
BRANCH   8  11
ATOM     11  C   LIG d   1     -10.153  74.623 116.954  0.00  0.00     0.028 C 
ATOM     12  C   LIG d   1     -11.272  74.834 117.987  0.00  0.00     0.006 C 
ENDBRANCH   8  11
ENDBRANCH   7   8
ENDBRANCH   1   7
BRANCH   6  13
ATOM     13  N   LIG d   1      -5.376  76.785 117.254  0.00  0.00    -0.311 N 
ATOM     14  C   LIG d   1      -4.765  76.314 116.168  0.00  0.00     0.210 C 
ATOM     15  C   LIG d   1      -3.705  75.241 116.436  0.00  0.00     0.109 C 
ATOM     16  O   LIG d   1      -4.977  76.708 115.011  0.00  0.00    -0.276 OA
ATOM     17  H   LIG d   1      -5.119  76.433 118.156  0.00  0.00     0.149 HD
ENDBRANCH   6  13
BRANCH   5  18
ATOM     18  N   LIG d   1      -4.895  79.802 117.276  0.00  0.00     0.381 N 
ATOM     19  H   LIG d   1      -5.230  80.518 116.664  0.00  0.00    -0.090 HD
ATOM     20  H   LIG d   1      -4.386  79.131 116.727  0.00  0.00    -0.090 HD
ATOM     21  H   LIG d   1      -4.296  80.198 117.967  0.00  0.00    -0.090 HD
ENDBRANCH   5  18
BRANCH   3  22
ATOM     22  C   LIG d   1      -9.328  80.348 119.003  0.00  0.00     0.382 C 
ATOM     23  O   LIG d   1     -10.302  80.800 118.355  0.00  0.00    -0.241 OA
ATOM     24  O   LIG d   1      -9.174  80.684 120.193  0.00  0.00    -0.241 OA
ENDBRANCH   3  22
TORSDOF 7
ENDMDL
MODEL 7
REMARK VINA RESULT:      -4.7     15.005     16.689
REMARK  7 active torsions:
REMARK  status: ('A' for Active; 'I' for Inactive)
REMARK    1  A    between atoms: C_2  and  C_3 
REMARK    2  A    between atoms: C_3  and  O_6 
REMARK    3  A    between atoms: C_3  and  C_4 
REMARK    4  A    between atoms: C_7  and  O_6 
REMARK    5  A    between atoms: C_9  and  C_10 
REMARK    6  A    between atoms: N_15  and  C_14 
REMARK    7  A    between atoms: N_20  and  C_19 
REMARK       I    between atoms: C_22  and  N_20 
ROOT
ATOM      1  C   LIG d   1      -7.366  75.993 117.530  0.00  0.00     0.161 C 
ATOM      2  C   LIG d   1      -7.593  77.340 117.858  0.00  0.00     0.016 C 
ATOM      3  C   LIG d   1      -8.868  77.857 118.187  0.00  0.00     0.038 C 
ATOM      4  C   LIG d   1      -9.984  77.024 118.357  0.00  0.00     0.028 C 
ATOM      5  C   LIG d   1      -9.908  75.736 117.545  0.00  0.00    -0.047 C 
ATOM      6  C   LIG d   1      -8.551  75.048 117.819  0.00  0.00     0.091 C 
ENDROOT
BRANCH   1   7
ATOM      7  O   LIG d   1      -6.177  75.522 118.194  0.00  0.00    -0.368 OA
BRANCH   7   8
ATOM      8  C   LIG d   1      -5.000  75.371 117.362  0.00  0.00     0.119 C 
BRANCH   8   9
ATOM      9  C   LIG d   1      -5.446  75.530 115.896  0.00  0.00     0.028 C 
ATOM     10  C   LIG d   1      -5.160  74.274 115.056  0.00  0.00     0.006 C 
ENDBRANCH   8   9
BRANCH   8  11
ATOM     11  C   LIG d   1      -4.427  73.954 117.460  0.00  0.00     0.028 C 
ATOM     12  C   LIG d   1      -2.921  73.941 117.769  0.00  0.00     0.006 C 
ENDBRANCH   8  11
ENDBRANCH   7   8
ENDBRANCH   1   7
BRANCH   6  13
ATOM     13  N   LIG d   1      -8.361  73.823 116.999  0.00  0.00    -0.311 N 
ATOM     14  C   LIG d   1      -7.961  72.658 117.505  0.00  0.00     0.210 C 
ATOM     15  C   LIG d   1      -7.809  71.527 116.482  0.00  0.00     0.109 C 
ATOM     16  O   LIG d   1      -7.750  72.444 118.708  0.00  0.00    -0.276 OA
ATOM     17  H   LIG d   1      -8.540  73.899 116.017  0.00  0.00     0.149 HD
ENDBRANCH   6  13
BRANCH   5  18
ATOM     18  N   LIG d   1     -11.066  74.902 117.922  0.00  0.00     0.381 N 
ATOM     19  H   LIG d   1     -11.023  74.026 117.441  0.00  0.00    -0.090 HD
ATOM     20  H   LIG d   1     -11.909  75.373 117.646  0.00  0.00    -0.090 HD
ATOM     21  H   LIG d   1     -11.069  74.750 118.907  0.00  0.00    -0.090 HD
ENDBRANCH   5  18
BRANCH   3  22
ATOM     22  C   LIG d   1      -9.043  79.227 118.309  0.00  0.00     0.382 C 
ATOM     23  O   LIG d   1      -8.076  80.002 118.114  0.00  0.00    -0.241 OA
ATOM     24  O   LIG d   1     -10.145  79.694 118.655  0.00  0.00    -0.241 OA
ENDBRANCH   3  22
TORSDOF 7
ENDMDL
MODEL 8
REMARK VINA RESULT:      -4.7     13.646     15.439
REMARK  7 active torsions:
REMARK  status: ('A' for Active; 'I' for Inactive)
REMARK    1  A    between atoms: C_2  and  C_3 
REMARK    2  A    between atoms: C_3  and  O_6 
REMARK    3  A    between atoms: C_3  and  C_4 
REMARK    4  A    between atoms: C_7  and  O_6 
REMARK    5  A    between atoms: C_9  and  C_10 
REMARK    6  A    between atoms: N_15  and  C_14 
REMARK    7  A    between atoms: N_20  and  C_19 
REMARK       I    between atoms: C_22  and  N_20 
ROOT
ATOM      1  C   LIG d   1      -9.028  77.787 118.374  0.00  0.00     0.161 C 
ATOM      2  C   LIG d   1      -7.997  78.686 118.056  0.00  0.00     0.016 C 
ATOM      3  C   LIG d   1      -7.932  80.006 118.561  0.00  0.00     0.038 C 
ATOM      4  C   LIG d   1      -8.820  80.467 119.544  0.00  0.00     0.028 C 
ATOM      5  C   LIG d   1     -10.173  79.764 119.518  0.00  0.00    -0.047 C 
ATOM      6  C   LIG d   1      -9.944  78.235 119.532  0.00  0.00     0.091 C 
ENDROOT
BRANCH   1   7
ATOM      7  O   LIG d   1      -8.473  76.485 118.650  0.00  0.00    -0.368 OA
BRANCH   7   8
ATOM      8  C   LIG d   1      -8.008  75.734 117.502  0.00  0.00     0.119 C 
BRANCH   8   9
ATOM      9  C   LIG d   1      -9.244  75.365 116.659  0.00  0.00     0.028 C 
ATOM     10  C   LIG d   1     -10.222  74.453 117.419  0.00  0.00     0.006 C 
ENDBRANCH   8   9
BRANCH   8  11
ATOM     11  C   LIG d   1      -7.391  74.397 117.923  0.00  0.00     0.028 C 
ATOM     12  C   LIG d   1      -6.358  74.547 119.051  0.00  0.00     0.006 C 
ENDBRANCH   8  11
ENDBRANCH   7   8
ENDBRANCH   1   7
BRANCH   6  13
ATOM     13  N   LIG d   1     -11.214  77.471 119.423  0.00  0.00    -0.311 N 
ATOM     14  C   LIG d   1     -11.695  76.705 120.401  0.00  0.00     0.210 C 
ATOM     15  C   LIG d   1     -13.009  75.988 120.074  0.00  0.00     0.109 C 
ATOM     16  O   LIG d   1     -11.175  76.577 121.519  0.00  0.00    -0.276 OA
ATOM     17  H   LIG d   1     -11.717  77.543 118.560  0.00  0.00     0.149 HD
ENDBRANCH   6  13
BRANCH   5  18
ATOM     18  N   LIG d   1     -10.947  80.243 120.678  0.00  0.00     0.381 N 
ATOM     19  H   LIG d   1     -10.381  80.851 121.236  0.00  0.00    -0.090 HD
ATOM     20  H   LIG d   1     -11.211  79.454 121.241  0.00  0.00    -0.090 HD
ATOM     21  H   LIG d   1     -11.761  80.727 120.369  0.00  0.00    -0.090 HD
ENDBRANCH   5  18
BRANCH   3  22
ATOM     22  C   LIG d   1      -6.995  80.891 118.052  0.00  0.00     0.382 C 
ATOM     23  O   LIG d   1      -7.004  82.092 118.415  0.00  0.00    -0.241 OA
ATOM     24  O   LIG d   1      -6.169  80.515 117.199  0.00  0.00    -0.241 OA
ENDBRANCH   3  22
TORSDOF 7
ENDMDL
MODEL 9
REMARK VINA RESULT:      -4.6     26.283     27.917
REMARK  7 active torsions:
REMARK  status: ('A' for Active; 'I' for Inactive)
REMARK    1  A    between atoms: C_2  and  C_3 
REMARK    2  A    between atoms: C_3  and  O_6 
REMARK    3  A    between atoms: C_3  and  C_4 
REMARK    4  A    between atoms: C_7  and  O_6 
REMARK    5  A    between atoms: C_9  and  C_10 
REMARK    6  A    between atoms: N_15  and  C_14 
REMARK    7  A    between atoms: N_20  and  C_19 
REMARK       I    between atoms: C_22  and  N_20 
ROOT
ATOM      1  C   LIG d   1     -14.155  66.213 119.063  0.00  0.00     0.161 C 
ATOM      2  C   LIG d   1     -13.328  67.153 119.700  0.00  0.00     0.016 C 
ATOM      3  C   LIG d   1     -12.538  66.853 120.834  0.00  0.00     0.038 C 
ATOM      4  C   LIG d   1     -12.404  65.543 121.318  0.00  0.00     0.028 C 
ATOM      5  C   LIG d   1     -13.610  64.660 121.017  0.00  0.00    -0.047 C 
ATOM      6  C   LIG d   1     -13.936  64.752 119.509  0.00  0.00     0.091 C 
ENDROOT
BRANCH   1   7
ATOM      7  O   LIG d   1     -14.011  66.326 117.633  0.00  0.00    -0.368 OA
BRANCH   7   8
ATOM      8  C   LIG d   1     -15.162  66.836 116.916  0.00  0.00     0.119 C 
BRANCH   8   9
ATOM      9  C   LIG d   1     -14.851  68.292 116.515  0.00  0.00     0.028 C 
ATOM     10  C   LIG d   1     -13.992  68.379 115.242  0.00  0.00     0.006 C 
ENDBRANCH   8   9
BRANCH   8  11
ATOM     11  C   LIG d   1     -16.393  66.920 117.824  0.00  0.00     0.028 C 
ATOM     12  C   LIG d   1     -17.569  66.074 117.313  0.00  0.00     0.006 C 
ENDBRANCH   8  11
ENDBRANCH   7   8
ENDBRANCH   1   7
BRANCH   6  13
ATOM     13  N   LIG d   1     -15.155  63.983 119.145  0.00  0.00    -0.311 N 
ATOM     14  C   LIG d   1     -15.143  62.941 118.316  0.00  0.00     0.210 C 
ATOM     15  C   LIG d   1     -16.513  62.304 118.059  0.00  0.00     0.109 C 
ATOM     16  O   LIG d   1     -14.125  62.463 117.794  0.00  0.00    -0.276 OA
ATOM     17  H   LIG d   1     -16.021  64.283 119.547  0.00  0.00     0.149 HD
ENDBRANCH   6  13
BRANCH   5  18
ATOM     18  N   LIG d   1     -13.280  63.290 121.455  0.00  0.00     0.381 N 
ATOM     19  H   LIG d   1     -12.825  63.320 122.345  0.00  0.00    -0.090 HD
ATOM     20  H   LIG d   1     -12.647  62.881 120.791  0.00  0.00    -0.090 HD
ATOM     21  H   LIG d   1     -14.110  62.742 121.516  0.00  0.00    -0.090 HD
ENDBRANCH   5  18
BRANCH   3  22
ATOM     22  C   LIG d   1     -11.902  67.877 121.519  0.00  0.00     0.382 C 
ATOM     23  O   LIG d   1     -11.809  67.831 122.769  0.00  0.00    -0.241 OA
ATOM     24  O   LIG d   1     -11.461  68.868 120.907  0.00  0.00    -0.241 OA
ENDBRANCH   3  22
TORSDOF 7
ENDMDL
