MODEL 1
REMARK VINA RESULT:      -5.4      0.000      0.000
REMARK  7 active torsions:
REMARK  status: ('A' for Active; 'I' for Inactive)
REMARK    1  A    between atoms: C_2  and  C_3 
REMARK    2  A    between atoms: C_3  and  O_6 
REMARK    3  A    between atoms: C_3  and  C_4 
REMARK    4  A    between atoms: C_7  and  O_6 
REMARK    5  A    between atoms: C_9  and  C_10 
REMARK    6  A    between atoms: N_15  and  C_14 
REMARK    7  A    between atoms: N_20  and  C_19 
REMARK       I    between atoms: C_22  and  N_20 
ROOT
ATOM      1  C   LIG d   1      -6.143  92.880 117.258  0.00  0.00     0.161 C 
ATOM      2  C   LIG d   1      -7.137  92.002 116.794  0.00  0.00     0.016 C 
ATOM      3  C   LIG d   1      -6.869  90.683 116.359  0.00  0.00     0.038 C 
ATOM      4  C   LIG d   1      -5.602  90.098 116.502  0.00  0.00     0.028 C 
ATOM      5  C   LIG d   1      -4.463  91.112 116.495  0.00  0.00    -0.047 C 
ATOM      6  C   LIG d   1      -4.773  92.222 117.525  0.00  0.00     0.091 C 
ENDROOT
BRANCH   1   7
ATOM      7  O   LIG d   1      -6.608  93.565 118.438  0.00  0.00    -0.368 OA
BRANCH   7   8
ATOM      8  C   LIG d   1      -6.928  94.969 118.275  0.00  0.00     0.119 C 
BRANCH   8   9
ATOM      9  C   LIG d   1      -6.075  95.758 119.287  0.00  0.00     0.028 C 
ATOM     10  C   LIG d   1      -5.495  94.860 120.393  0.00  0.00     0.006 C 
ENDBRANCH   8   9
BRANCH   8  11
ATOM     11  C   LIG d   1      -8.382  95.257 118.658  0.00  0.00     0.028 C 
ATOM     12  C   LIG d   1      -9.080  94.048 119.301  0.00  0.00     0.006 C 
ENDBRANCH   8  11
ENDBRANCH   7   8
ENDBRANCH   1   7
BRANCH   6  13
ATOM     13  N   LIG d   1      -3.749  93.299 117.523  0.00  0.00    -0.311 N 
ATOM     14  C   LIG d   1      -2.708  93.323 118.353  0.00  0.00     0.210 C 
ATOM     15  C   LIG d   1      -1.783  94.534 118.197  0.00  0.00     0.109 C 
ATOM     16  O   LIG d   1      -2.444  92.439 119.183  0.00  0.00    -0.276 OA
ATOM     17  H   LIG d   1      -3.868  94.041 116.861  0.00  0.00     0.149 HD
ENDBRANCH   6  13
BRANCH   5  18
ATOM     18  N   LIG d   1      -3.215  90.382 116.789  0.00  0.00     0.381 N 
ATOM     19  H   LIG d   1      -2.626  90.378 115.981  0.00  0.00    -0.090 HD
ATOM     20  H   LIG d   1      -3.442  89.431 117.019  0.00  0.00    -0.090 HD
ATOM     21  H   LIG d   1      -2.741  90.812 117.553  0.00  0.00    -0.090 HD
ENDBRANCH   5  18
BRANCH   3  22
ATOM     22  C   LIG d   1      -7.867  89.949 115.737  0.00  0.00     0.382 C 
ATOM     23  O   LIG d   1      -8.564  89.147 116.405  0.00  0.00    -0.241 OA
ATOM     24  O   LIG d   1      -8.051  90.046 114.509  0.00  0.00    -0.241 OA
ENDBRANCH   3  22
TORSDOF 7
ENDMDL
MODEL 2
REMARK VINA RESULT:      -5.3     16.174     18.216
REMARK  7 active torsions:
REMARK  status: ('A' for Active; 'I' for Inactive)
REMARK    1  A    between atoms: C_2  and  C_3 
REMARK    2  A    between atoms: C_3  and  O_6 
REMARK    3  A    between atoms: C_3  and  C_4 
REMARK    4  A    between atoms: C_7  and  O_6 
REMARK    5  A    between atoms: C_9  and  C_10 
REMARK    6  A    between atoms: N_15  and  C_14 
REMARK    7  A    between atoms: N_20  and  C_19 
REMARK       I    between atoms: C_22  and  N_20 
ROOT
ATOM      1  C   LIG d   1      -3.238  75.179 116.342  0.00  0.00     0.161 C 
ATOM      2  C   LIG d   1      -3.738  75.940 115.272  0.00  0.00     0.016 C 
ATOM      3  C   LIG d   1      -2.915  76.534 114.287  0.00  0.00     0.038 C 
ATOM      4  C   LIG d   1      -1.537  76.279 114.221  0.00  0.00     0.028 C 
ATOM      5  C   LIG d   1      -0.920  75.929 115.570  0.00  0.00    -0.047 C 
ATOM      6  C   LIG d   1      -1.747  74.797 116.223  0.00  0.00     0.091 C 
ENDROOT
BRANCH   1   7
ATOM      7  O   LIG d   1      -4.044  73.998 116.521  0.00  0.00    -0.368 OA
BRANCH   7   8
ATOM      8  C   LIG d   1      -5.455  74.138 116.222  0.00  0.00     0.119 C 
BRANCH   8   9
ATOM      9  C   LIG d   1      -6.177  74.465 117.544  0.00  0.00     0.028 C 
ATOM     10  C   LIG d   1      -6.781  75.880 117.548  0.00  0.00     0.006 C 
ENDBRANCH   8   9
BRANCH   8  11
ATOM     11  C   LIG d   1      -6.059  72.814 115.747  0.00  0.00     0.028 C 
ATOM     12  C   LIG d   1      -6.776  72.049 116.871  0.00  0.00     0.006 C 
ENDBRANCH   8  11
ENDBRANCH   7   8
ENDBRANCH   1   7
BRANCH   6  13
ATOM     13  N   LIG d   1      -1.261  74.452 117.584  0.00  0.00    -0.311 N 
ATOM     14  C   LIG d   1      -0.477  73.406 117.839  0.00  0.00     0.210 C 
ATOM     15  C   LIG d   1      -0.108  73.219 119.314  0.00  0.00     0.109 C 
ATOM     16  O   LIG d   1      -0.027  72.634 116.980  0.00  0.00    -0.276 OA
ATOM     17  H   LIG d   1      -1.554  75.044 118.336  0.00  0.00     0.149 HD
ENDBRANCH   6  13
BRANCH   5  18
ATOM     18  N   LIG d   1       0.487  75.553 115.333  0.00  0.00     0.381 N 
ATOM     19  H   LIG d   1       0.675  75.548 114.351  0.00  0.00    -0.090 HD
ATOM     20  H   LIG d   1       0.640  74.625 115.688  0.00  0.00    -0.090 HD
ATOM     21  H   LIG d   1       1.094  76.196 115.792  0.00  0.00    -0.090 HD
ENDBRANCH   5  18
BRANCH   3  22
ATOM     22  C   LIG d   1      -3.465  77.425 113.379  0.00  0.00     0.382 C 
ATOM     23  O   LIG d   1      -3.164  78.642 113.435  0.00  0.00    -0.241 OA
ATOM     24  O   LIG d   1      -4.292  77.036 112.533  0.00  0.00    -0.241 OA
ENDBRANCH   3  22
TORSDOF 7
ENDMDL
MODEL 3
REMARK VINA RESULT:      -5.3      1.969      4.233
REMARK  7 active torsions:
REMARK  status: ('A' for Active; 'I' for Inactive)
REMARK    1  A    between atoms: C_2  and  C_3 
REMARK    2  A    between atoms: C_3  and  O_6 
REMARK    3  A    between atoms: C_3  and  C_4 
REMARK    4  A    between atoms: C_7  and  O_6 
REMARK    5  A    between atoms: C_9  and  C_10 
REMARK    6  A    between atoms: N_15  and  C_14 
REMARK    7  A    between atoms: N_20  and  C_19 
REMARK       I    between atoms: C_22  and  N_20 
ROOT
ATOM      1  C   LIG d   1      -4.844  92.529 117.675  0.00  0.00     0.161 C 
ATOM      2  C   LIG d   1      -4.915  91.521 116.699  0.00  0.00     0.016 C 
ATOM      3  C   LIG d   1      -6.093  91.217 115.979  0.00  0.00     0.038 C 
ATOM      4  C   LIG d   1      -7.248  92.007 116.079  0.00  0.00     0.028 C 
ATOM      5  C   LIG d   1      -7.379  92.721 117.420  0.00  0.00    -0.047 C 
ATOM      6  C   LIG d   1      -6.063  93.475 117.718  0.00  0.00     0.091 C 
ENDROOT
BRANCH   1   7
ATOM      7  O   LIG d   1      -3.629  93.286 117.508  0.00  0.00    -0.368 OA
BRANCH   7   8
ATOM      8  C   LIG d   1      -2.659  93.178 118.579  0.00  0.00     0.119 C 
BRANCH   8   9
ATOM      9  C   LIG d   1      -1.882  94.507 118.636  0.00  0.00     0.028 C 
ATOM     10  C   LIG d   1      -2.715  95.648 119.244  0.00  0.00     0.006 C 
ENDBRANCH   8   9
BRANCH   8  11
ATOM     11  C   LIG d   1      -1.608  92.107 118.272  0.00  0.00     0.028 C 
ATOM     12  C   LIG d   1      -1.775  90.844 119.132  0.00  0.00     0.006 C 
ENDBRANCH   8  11
ENDBRANCH   7   8
ENDBRANCH   1   7
BRANCH   6  13
ATOM     13  N   LIG d   1      -6.076  94.132 119.051  0.00  0.00    -0.311 N 
ATOM     14  C   LIG d   1      -6.458  95.393 119.243  0.00  0.00     0.210 C 
ATOM     15  C   LIG d   1      -6.376  95.880 120.693  0.00  0.00     0.109 C 
ATOM     16  O   LIG d   1      -6.887  96.145 118.355  0.00  0.00    -0.276 OA
ATOM     17  H   LIG d   1      -5.772  93.584 119.833  0.00  0.00     0.149 HD
ENDBRANCH   6  13
BRANCH   5  18
ATOM     18  N   LIG d   1      -8.550  93.614 117.336  0.00  0.00     0.381 N 
ATOM     19  H   LIG d   1      -9.327  93.119 116.947  0.00  0.00    -0.090 HD
ATOM     20  H   LIG d   1      -8.330  94.383 116.728  0.00  0.00    -0.090 HD
ATOM     21  H   LIG d   1      -8.785  93.955 118.243  0.00  0.00    -0.090 HD
ENDBRANCH   5  18
BRANCH   3  22
ATOM     22  C   LIG d   1      -6.135  90.087 115.176  0.00  0.00     0.382 C 
ATOM     23  O   LIG d   1      -7.207  89.757 114.615  0.00  0.00    -0.241 OA
ATOM     24  O   LIG d   1      -5.126  89.369 115.042  0.00  0.00    -0.241 OA
ENDBRANCH   3  22
TORSDOF 7
ENDMDL
MODEL 4
REMARK VINA RESULT:      -5.2     16.079     18.316
REMARK  7 active torsions:
REMARK  status: ('A' for Active; 'I' for Inactive)
REMARK    1  A    between atoms: C_2  and  C_3 
REMARK    2  A    between atoms: C_3  and  O_6 
REMARK    3  A    between atoms: C_3  and  C_4 
REMARK    4  A    between atoms: C_7  and  O_6 
REMARK    5  A    between atoms: C_9  and  C_10 
REMARK    6  A    between atoms: N_15  and  C_14 
REMARK    7  A    between atoms: N_20  and  C_19 
REMARK       I    between atoms: C_22  and  N_20 
ROOT
ATOM      1  C   LIG d   1      -1.977  74.635 115.351  0.00  0.00     0.161 C 
ATOM      2  C   LIG d   1      -1.670  73.798 116.437  0.00  0.00     0.016 C 
ATOM      3  C   LIG d   1      -0.756  74.150 117.457  0.00  0.00     0.038 C 
ATOM      4  C   LIG d   1      -0.198  75.434 117.542  0.00  0.00     0.028 C 
ATOM      5  C   LIG d   1      -0.089  76.137 116.193  0.00  0.00    -0.047 C 
ATOM      6  C   LIG d   1      -1.462  76.083 115.486  0.00  0.00     0.091 C 
ENDROOT
BRANCH   1   7
ATOM      7  O   LIG d   1      -3.399  74.628 115.116  0.00  0.00    -0.368 OA
BRANCH   7   8
ATOM      8  C   LIG d   1      -4.234  74.358 116.268  0.00  0.00     0.119 C 
BRANCH   8   9
ATOM      9  C   LIG d   1      -5.465  73.573 115.774  0.00  0.00     0.028 C 
ATOM     10  C   LIG d   1      -6.322  73.035 116.932  0.00  0.00     0.006 C 
ENDBRANCH   8   9
BRANCH   8  11
ATOM     11  C   LIG d   1      -4.792  75.652 116.868  0.00  0.00     0.028 C 
ATOM     12  C   LIG d   1      -4.073  76.067 118.162  0.00  0.00     0.006 C 
ENDBRANCH   8  11
ENDBRANCH   7   8
ENDBRANCH   1   7
BRANCH   6  13
ATOM     13  N   LIG d   1      -1.422  76.675 114.123  0.00  0.00    -0.311 N 
ATOM     14  C   LIG d   1      -2.343  77.519 113.663  0.00  0.00     0.210 C 
ATOM     15  C   LIG d   1      -2.123  77.994 112.223  0.00  0.00     0.109 C 
ATOM     16  O   LIG d   1      -3.304  77.944 114.321  0.00  0.00    -0.276 OA
ATOM     17  H   LIG d   1      -0.658  76.408 113.532  0.00  0.00     0.149 HD
ENDBRANCH   6  13
BRANCH   5  18
ATOM     18  N   LIG d   1       0.379  77.513 116.444  0.00  0.00     0.381 N 
ATOM     19  H   LIG d   1       0.863  77.552 117.319  0.00  0.00    -0.090 HD
ATOM     20  H   LIG d   1      -0.418  78.123 116.497  0.00  0.00    -0.090 HD
ATOM     21  H   LIG d   1       0.984  77.807 115.708  0.00  0.00    -0.090 HD
ENDBRANCH   5  18
BRANCH   3  22
ATOM     22  C   LIG d   1      -0.362  73.198 118.385  0.00  0.00     0.382 C 
ATOM     23  O   LIG d   1       0.336  73.536 119.371  0.00  0.00    -0.241 OA
ATOM     24  O   LIG d   1      -0.659  71.999 118.225  0.00  0.00    -0.241 OA
ENDBRANCH   3  22
TORSDOF 7
ENDMDL
MODEL 5
REMARK VINA RESULT:      -5.1      1.981      4.122
REMARK  7 active torsions:
REMARK  status: ('A' for Active; 'I' for Inactive)
REMARK    1  A    between atoms: C_2  and  C_3 
REMARK    2  A    between atoms: C_3  and  O_6 
REMARK    3  A    between atoms: C_3  and  C_4 
REMARK    4  A    between atoms: C_7  and  O_6 
REMARK    5  A    between atoms: C_9  and  C_10 
REMARK    6  A    between atoms: N_15  and  C_14 
REMARK    7  A    between atoms: N_20  and  C_19 
REMARK       I    between atoms: C_22  and  N_20 
ROOT
ATOM      1  C   LIG d   1      -4.857  92.517 117.644  0.00  0.00     0.161 C 
ATOM      2  C   LIG d   1      -4.929  91.511 116.666  0.00  0.00     0.016 C 
ATOM      3  C   LIG d   1      -6.109  91.204 115.951  0.00  0.00     0.038 C 
ATOM      4  C   LIG d   1      -7.267  91.988 116.059  0.00  0.00     0.028 C 
ATOM      5  C   LIG d   1      -7.394  92.698 117.403  0.00  0.00    -0.047 C 
ATOM      6  C   LIG d   1      -6.080  93.456 117.697  0.00  0.00     0.091 C 
ENDROOT
BRANCH   1   7
ATOM      7  O   LIG d   1      -3.646  93.280 117.473  0.00  0.00    -0.368 OA
BRANCH   7   8
ATOM      8  C   LIG d   1      -2.574  92.992 118.404  0.00  0.00     0.119 C 
BRANCH   8   9
ATOM      9  C   LIG d   1      -3.191  92.247 119.604  0.00  0.00     0.028 C 
ATOM     10  C   LIG d   1      -2.387  90.995 119.994  0.00  0.00     0.006 C 
ENDBRANCH   8   9
BRANCH   8  11
ATOM     11  C   LIG d   1      -1.981  94.278 118.987  0.00  0.00     0.028 C 
ATOM     12  C   LIG d   1      -2.701  94.742 120.263  0.00  0.00     0.006 C 
ENDBRANCH   8  11
ENDBRANCH   7   8
ENDBRANCH   1   7
BRANCH   6  13
ATOM     13  N   LIG d   1      -6.089  94.109 119.032  0.00  0.00    -0.311 N 
ATOM     14  C   LIG d   1      -6.459  95.374 119.227  0.00  0.00     0.210 C 
ATOM     15  C   LIG d   1      -6.375  95.856 120.678  0.00  0.00     0.109 C 
ATOM     16  O   LIG d   1      -6.880  96.133 118.340  0.00  0.00    -0.276 OA
ATOM     17  H   LIG d   1      -5.792  93.557 119.812  0.00  0.00     0.149 HD
ENDBRANCH   6  13
BRANCH   5  18
ATOM     18  N   LIG d   1      -8.570  93.585 117.328  0.00  0.00     0.381 N 
ATOM     19  H   LIG d   1      -8.422  94.393 117.900  0.00  0.00    -0.090 HD
ATOM     20  H   LIG d   1      -9.372  93.093 117.680  0.00  0.00    -0.090 HD
ATOM     21  H   LIG d   1      -8.729  93.862 116.384  0.00  0.00    -0.090 HD
ENDBRANCH   5  18
BRANCH   3  22
ATOM     22  C   LIG d   1      -6.150  90.076 115.145  0.00  0.00     0.382 C 
ATOM     23  O   LIG d   1      -7.220  89.750 114.577  0.00  0.00    -0.241 OA
ATOM     24  O   LIG d   1      -5.142  89.356 115.015  0.00  0.00    -0.241 OA
ENDBRANCH   3  22
TORSDOF 7
ENDMDL
MODEL 6
REMARK VINA RESULT:      -4.9     12.886     15.339
REMARK  7 active torsions:
REMARK  status: ('A' for Active; 'I' for Inactive)
REMARK    1  A    between atoms: C_2  and  C_3 
REMARK    2  A    between atoms: C_3  and  O_6 
REMARK    3  A    between atoms: C_3  and  C_4 
REMARK    4  A    between atoms: C_7  and  O_6 
REMARK    5  A    between atoms: C_9  and  C_10 
REMARK    6  A    between atoms: N_15  and  C_14 
REMARK    7  A    between atoms: N_20  and  C_19 
REMARK       I    between atoms: C_22  and  N_20 
ROOT
ATOM      1  C   LIG d   1      -6.907  77.762 117.595  0.00  0.00     0.161 C 
ATOM      2  C   LIG d   1      -8.290  77.844 117.825  0.00  0.00     0.016 C 
ATOM      3  C   LIG d   1      -8.928  79.003 118.323  0.00  0.00     0.038 C 
ATOM      4  C   LIG d   1      -8.243  80.217 118.484  0.00  0.00     0.028 C 
ATOM      5  C   LIG d   1      -6.750  80.039 118.744  0.00  0.00    -0.047 C 
ATOM      6  C   LIG d   1      -6.159  79.110 117.659  0.00  0.00     0.091 C 
ENDROOT
BRANCH   1   7
ATOM      7  O   LIG d   1      -6.659  77.111 116.333  0.00  0.00    -0.368 OA
BRANCH   7   8
ATOM      8  C   LIG d   1      -6.017  75.814 116.400  0.00  0.00     0.119 C 
BRANCH   8   9
ATOM      9  C   LIG d   1      -5.181  75.645 115.116  0.00  0.00     0.028 C 
ATOM     10  C   LIG d   1      -6.042  75.703 113.843  0.00  0.00     0.006 C 
ENDBRANCH   8   9
BRANCH   8  11
ATOM     11  C   LIG d   1      -7.047  74.681 116.365  0.00  0.00     0.028 C 
ATOM     12  C   LIG d   1      -6.460  73.329 116.802  0.00  0.00     0.006 C 
ENDBRANCH   8  11
ENDBRANCH   7   8
ENDBRANCH   1   7
BRANCH   6  13
ATOM     13  N   LIG d   1      -4.720  78.817 117.887  0.00  0.00    -0.311 N 
ATOM     14  C   LIG d   1      -3.789  78.933 116.941  0.00  0.00     0.210 C 
ATOM     15  C   LIG d   1      -2.370  78.561 117.382  0.00  0.00     0.109 C 
ATOM     16  O   LIG d   1      -3.999  79.340 115.789  0.00  0.00    -0.276 OA
ATOM     17  H   LIG d   1      -4.457  78.510 118.803  0.00  0.00     0.149 HD
ENDBRANCH   6  13
BRANCH   5  18
ATOM     18  N   LIG d   1      -6.137  81.381 118.753  0.00  0.00     0.381 N 
ATOM     19  H   LIG d   1      -5.663  81.530 119.622  0.00  0.00    -0.090 HD
ATOM     20  H   LIG d   1      -6.863  82.071 118.667  0.00  0.00    -0.090 HD
ATOM     21  H   LIG d   1      -5.495  81.468 117.997  0.00  0.00    -0.090 HD
ENDBRANCH   5  18
BRANCH   3  22
ATOM     22  C   LIG d   1     -10.260  78.944 118.705  0.00  0.00     0.382 C 
ATOM     23  O   LIG d   1     -10.803  79.940 119.242  0.00  0.00    -0.241 OA
ATOM     24  O   LIG d   1     -10.913  77.893 118.559  0.00  0.00    -0.241 OA
ENDBRANCH   3  22
TORSDOF 7
ENDMDL
MODEL 7
REMARK VINA RESULT:      -4.9      2.471      4.280
REMARK  7 active torsions:
REMARK  status: ('A' for Active; 'I' for Inactive)
REMARK    1  A    between atoms: C_2  and  C_3 
REMARK    2  A    between atoms: C_3  and  O_6 
REMARK    3  A    between atoms: C_3  and  C_4 
REMARK    4  A    between atoms: C_7  and  O_6 
REMARK    5  A    between atoms: C_9  and  C_10 
REMARK    6  A    between atoms: N_15  and  C_14 
REMARK    7  A    between atoms: N_20  and  C_19 
REMARK       I    between atoms: C_22  and  N_20 
ROOT
ATOM      1  C   LIG d   1      -6.183  91.914 119.140  0.00  0.00     0.161 C 
ATOM      2  C   LIG d   1      -5.249  91.182 118.388  0.00  0.00     0.016 C 
ATOM      3  C   LIG d   1      -5.354  90.989 116.992  0.00  0.00     0.038 C 
ATOM      4  C   LIG d   1      -6.326  91.646 116.223  0.00  0.00     0.028 C 
ATOM      5  C   LIG d   1      -7.589  91.988 117.007  0.00  0.00    -0.047 C 
ATOM      6  C   LIG d   1      -7.189  92.731 118.303  0.00  0.00     0.091 C 
ENDROOT
BRANCH   1   7
ATOM      7  O   LIG d   1      -5.496  92.770 120.073  0.00  0.00    -0.368 OA
BRANCH   7   8
ATOM      8  C   LIG d   1      -5.006  94.027 119.544  0.00  0.00     0.119 C 
BRANCH   8   9
ATOM      9  C   LIG d   1      -3.478  94.049 119.743  0.00  0.00     0.028 C 
ATOM     10  C   LIG d   1      -2.712  93.954 118.413  0.00  0.00     0.006 C 
ENDBRANCH   8   9
BRANCH   8  11
ATOM     11  C   LIG d   1      -5.538  95.216 120.350  0.00  0.00     0.028 C 
ATOM     12  C   LIG d   1      -6.160  94.796 121.691  0.00  0.00     0.006 C 
ENDBRANCH   8  11
ENDBRANCH   7   8
ENDBRANCH   1   7
BRANCH   6  13
ATOM     13  N   LIG d   1      -8.359  93.028 119.170  0.00  0.00    -0.311 N 
ATOM     14  C   LIG d   1      -8.972  94.210 119.194  0.00  0.00     0.210 C 
ATOM     15  C   LIG d   1     -10.145  94.310 120.174  0.00  0.00     0.109 C 
ATOM     16  O   LIG d   1      -8.676  95.176 118.475  0.00  0.00    -0.276 OA
ATOM     17  H   LIG d   1      -8.686  92.291 119.763  0.00  0.00     0.149 HD
ENDBRANCH   6  13
BRANCH   5  18
ATOM     18  N   LIG d   1      -8.458  92.790 116.125  0.00  0.00     0.381 N 
ATOM     19  H   LIG d   1      -8.276  92.558 115.169  0.00  0.00    -0.090 HD
ATOM     20  H   LIG d   1      -8.247  93.763 116.259  0.00  0.00    -0.090 HD
ATOM     21  H   LIG d   1      -9.415  92.616 116.341  0.00  0.00    -0.090 HD
ENDBRANCH   5  18
BRANCH   3  22
ATOM     22  C   LIG d   1      -4.503  90.098 116.355  0.00  0.00     0.382 C 
ATOM     23  O   LIG d   1      -4.883  89.498 115.321  0.00  0.00    -0.241 OA
ATOM     24  O   LIG d   1      -3.377  89.852 116.828  0.00  0.00    -0.241 OA
ENDBRANCH   3  22
TORSDOF 7
ENDMDL
MODEL 8
REMARK VINA RESULT:      -4.8     27.944     31.022
REMARK  7 active torsions:
REMARK  status: ('A' for Active; 'I' for Inactive)
REMARK    1  A    between atoms: C_2  and  C_3 
REMARK    2  A    between atoms: C_3  and  O_6 
REMARK    3  A    between atoms: C_3  and  C_4 
REMARK    4  A    between atoms: C_7  and  O_6 
REMARK    5  A    between atoms: C_9  and  C_10 
REMARK    6  A    between atoms: N_15  and  C_14 
REMARK    7  A    between atoms: N_20  and  C_19 
REMARK       I    between atoms: C_22  and  N_20 
ROOT
ATOM      1  C   LIG d   1     -15.952  63.097 116.491  0.00  0.00     0.161 C 
ATOM      2  C   LIG d   1     -16.215  61.772 116.104  0.00  0.00     0.016 C 
ATOM      3  C   LIG d   1     -16.784  61.424 114.857  0.00  0.00     0.038 C 
ATOM      4  C   LIG d   1     -16.989  62.374 113.845  0.00  0.00     0.028 C 
ATOM      5  C   LIG d   1     -17.209  63.787 114.376  0.00  0.00    -0.047 C 
ATOM      6  C   LIG d   1     -16.067  64.137 115.357  0.00  0.00     0.091 C 
ENDROOT
BRANCH   1   7
ATOM      7  O   LIG d   1     -14.655  63.175 117.114  0.00  0.00    -0.368 OA
BRANCH   7   8
ATOM      8  C   LIG d   1     -14.642  63.176 118.562  0.00  0.00     0.119 C 
BRANCH   8   9
ATOM      9  C   LIG d   1     -14.173  64.570 119.021  0.00  0.00     0.028 C 
ATOM     10  C   LIG d   1     -15.277  65.350 119.754  0.00  0.00     0.006 C 
ENDBRANCH   8   9
BRANCH   8  11
ATOM     11  C   LIG d   1     -13.600  62.196 119.111  0.00  0.00     0.028 C 
ATOM     12  C   LIG d   1     -12.335  62.900 119.627  0.00  0.00     0.006 C 
ENDBRANCH   8  11
ENDBRANCH   7   8
ENDBRANCH   1   7
BRANCH   6  13
ATOM     13  N   LIG d   1     -16.250  65.470 115.987  0.00  0.00    -0.311 N 
ATOM     14  C   LIG d   1     -15.282  66.381 116.070  0.00  0.00     0.210 C 
ATOM     15  C   LIG d   1     -15.676  67.682 116.776  0.00  0.00     0.109 C 
ATOM     16  O   LIG d   1     -14.143  66.248 115.597  0.00  0.00    -0.276 OA
ATOM     17  H   LIG d   1     -17.153  65.674 116.369  0.00  0.00     0.149 HD
ENDBRANCH   6  13
BRANCH   5  18
ATOM     18  N   LIG d   1     -17.272  64.694 113.214  0.00  0.00     0.381 N 
ATOM     19  H   LIG d   1     -17.305  64.160 112.369  0.00  0.00    -0.090 HD
ATOM     20  H   LIG d   1     -16.441  65.260 113.198  0.00  0.00    -0.090 HD
ATOM     21  H   LIG d   1     -18.078  65.276 113.280  0.00  0.00    -0.090 HD
ENDBRANCH   5  18
BRANCH   3  22
ATOM     22  C   LIG d   1     -17.190  60.119 114.627  0.00  0.00     0.382 C 
ATOM     23  O   LIG d   1     -18.315  59.892 114.120  0.00  0.00    -0.241 OA
ATOM     24  O   LIG d   1     -16.464  59.163 114.961  0.00  0.00    -0.241 OA
ENDBRANCH   3  22
TORSDOF 7
ENDMDL
MODEL 9
REMARK VINA RESULT:      -4.8      2.168      4.785
REMARK  7 active torsions:
REMARK  status: ('A' for Active; 'I' for Inactive)
REMARK    1  A    between atoms: C_2  and  C_3 
REMARK    2  A    between atoms: C_3  and  O_6 
REMARK    3  A    between atoms: C_3  and  C_4 
REMARK    4  A    between atoms: C_7  and  O_6 
REMARK    5  A    between atoms: C_9  and  C_10 
REMARK    6  A    between atoms: N_15  and  C_14 
REMARK    7  A    between atoms: N_20  and  C_19 
REMARK       I    between atoms: C_22  and  N_20 
ROOT
ATOM      1  C   LIG d   1      -6.143  92.943 118.138  0.00  0.00     0.161 C 
ATOM      2  C   LIG d   1      -7.493  93.078 118.502  0.00  0.00     0.016 C 
ATOM      3  C   LIG d   1      -7.921  93.755 119.667  0.00  0.00     0.038 C 
ATOM      4  C   LIG d   1      -7.030  94.478 120.474  0.00  0.00     0.028 C 
ATOM      5  C   LIG d   1      -5.601  93.949 120.423  0.00  0.00    -0.047 C 
ATOM      6  C   LIG d   1      -5.165  93.821 118.946  0.00  0.00     0.091 C 
ENDROOT
BRANCH   1   7
ATOM      7  O   LIG d   1      -5.991  93.193 116.726  0.00  0.00    -0.368 OA
BRANCH   7   8
ATOM      8  C   LIG d   1      -5.540  92.072 115.926  0.00  0.00     0.119 C 
BRANCH   8   9
ATOM      9  C   LIG d   1      -6.624  91.793 114.867  0.00  0.00     0.028 C 
ATOM     10  C   LIG d   1      -7.300  90.426 115.065  0.00  0.00     0.006 C 
ENDBRANCH   8   9
BRANCH   8  11
ATOM     11  C   LIG d   1      -5.450  90.791 116.761  0.00  0.00     0.028 C 
ATOM     12  C   LIG d   1      -4.023  90.226 116.833  0.00  0.00     0.006 C 
ENDBRANCH   8  11
ENDBRANCH   7   8
ENDBRANCH   1   7
BRANCH   6  13
ATOM     13  N   LIG d   1      -3.808  93.231 118.804  0.00  0.00    -0.311 N 
ATOM     14  C   LIG d   1      -2.695  93.959 118.738  0.00  0.00     0.210 C 
ATOM     15  C   LIG d   1      -1.403  93.151 118.572  0.00  0.00     0.109 C 
ATOM     16  O   LIG d   1      -2.651  95.194 118.833  0.00  0.00    -0.276 OA
ATOM     17  H   LIG d   1      -3.749  92.233 118.751  0.00  0.00     0.149 HD
ENDBRANCH   6  13
BRANCH   5  18
ATOM     18  N   LIG d   1      -4.754  94.876 121.198  0.00  0.00     0.381 N 
ATOM     19  H   LIG d   1      -5.308  95.636 121.538  0.00  0.00    -0.090 HD
ATOM     20  H   LIG d   1      -4.044  95.250 120.593  0.00  0.00    -0.090 HD
ATOM     21  H   LIG d   1      -4.332  94.395 121.961  0.00  0.00    -0.090 HD
ENDBRANCH   5  18
BRANCH   3  22
ATOM     22  C   LIG d   1      -9.249  93.678 120.058  0.00  0.00     0.382 C 
ATOM     23  O   LIG d   1     -10.158  93.671 119.193  0.00  0.00    -0.241 OA
ATOM     24  O   LIG d   1      -9.552  93.661 121.266  0.00  0.00    -0.241 OA
ENDBRANCH   3  22
TORSDOF 7
ENDMDL
