MODEL 1
REMARK VINA RESULT:      -6.3      0.000      0.000
REMARK  7 active torsions:
REMARK  status: ('A' for Active; 'I' for Inactive)
REMARK    1  A    between atoms: C_2  and  C_3 
REMARK    2  A    between atoms: C_3  and  O_6 
REMARK    3  A    between atoms: C_3  and  C_4 
REMARK    4  A    between atoms: C_7  and  O_6 
REMARK    5  A    between atoms: C_9  and  C_10 
REMARK    6  A    between atoms: N_15  and  C_14 
REMARK    7  A    between atoms: N_20  and  C_19 
REMARK       I    between atoms: C_22  and  N_20 
ROOT
ATOM      1  C   LIG d   1       0.304  82.546 111.288  0.00  0.00     0.161 C 
ATOM      2  C   LIG d   1      -0.845  82.222 112.029  0.00  0.00     0.016 C 
ATOM      3  C   LIG d   1      -1.364  80.911 112.125  0.00  0.00     0.038 C 
ATOM      4  C   LIG d   1      -0.678  79.802 111.607  0.00  0.00     0.028 C 
ATOM      5  C   LIG d   1       0.219  80.144 110.422  0.00  0.00    -0.047 C 
ATOM      6  C   LIG d   1       1.128  81.333 110.808  0.00  0.00     0.091 C 
ENDROOT
BRANCH   1   7
ATOM      7  O   LIG d   1       1.135  83.448 112.045  0.00  0.00    -0.368 OA
BRANCH   7   8
ATOM      8  C   LIG d   1       0.955  84.860 111.775  0.00  0.00     0.119 C 
BRANCH   8   9
ATOM      9  C   LIG d   1       0.750  85.018 110.256  0.00  0.00     0.028 C 
ATOM     10  C   LIG d   1      -0.587  85.695 109.912  0.00  0.00     0.006 C 
ENDBRANCH   8   9
BRANCH   8  11
ATOM     11  C   LIG d   1       2.223  85.656 112.098  0.00  0.00     0.028 C 
ATOM     12  C   LIG d   1       3.371  85.371 111.117  0.00  0.00     0.006 C 
ENDBRANCH   8  11
ENDBRANCH   7   8
ENDBRANCH   1   7
BRANCH   6  13
ATOM     13  N   LIG d   1       1.979  81.786 109.677  0.00  0.00    -0.311 N 
ATOM     14  C   LIG d   1       3.302  81.909 109.759  0.00  0.00     0.210 C 
ATOM     15  C   LIG d   1       3.985  82.411 108.483  0.00  0.00     0.109 C 
ATOM     16  O   LIG d   1       3.979  81.619 110.757  0.00  0.00    -0.276 OA
ATOM     17  H   LIG d   1       1.515  82.013 108.819  0.00  0.00     0.149 HD
ENDBRANCH   6  13
BRANCH   5  18
ATOM     18  N   LIG d   1       0.976  78.927 110.071  0.00  0.00     0.381 N 
ATOM     19  H   LIG d   1       0.881  78.247 110.798  0.00  0.00    -0.090 HD
ATOM     20  H   LIG d   1       1.949  79.164 109.985  0.00  0.00    -0.090 HD
ATOM     21  H   LIG d   1       0.640  78.554 109.211  0.00  0.00    -0.090 HD
ENDBRANCH   5  18
BRANCH   3  22
ATOM     22  C   LIG d   1      -2.603  80.704 112.712  0.00  0.00     0.382 C 
ATOM     23  O   LIG d   1      -3.036  79.536 112.868  0.00  0.00    -0.241 OA
ATOM     24  O   LIG d   1      -3.314  81.671 113.046  0.00  0.00    -0.241 OA
ENDBRANCH   3  22
TORSDOF 7
ENDMDL
MODEL 2
REMARK VINA RESULT:      -6.2      2.382      4.360
REMARK  7 active torsions:
REMARK  status: ('A' for Active; 'I' for Inactive)
REMARK    1  A    between atoms: C_2  and  C_3 
REMARK    2  A    between atoms: C_3  and  O_6 
REMARK    3  A    between atoms: C_3  and  C_4 
REMARK    4  A    between atoms: C_7  and  O_6 
REMARK    5  A    between atoms: C_9  and  C_10 
REMARK    6  A    between atoms: N_15  and  C_14 
REMARK    7  A    between atoms: N_20  and  C_19 
REMARK       I    between atoms: C_22  and  N_20 
ROOT
ATOM      1  C   LIG d   1       1.874  83.028 111.226  0.00  0.00     0.161 C 
ATOM      2  C   LIG d   1       0.803  82.132 111.379  0.00  0.00     0.016 C 
ATOM      3  C   LIG d   1      -0.333  82.406 112.174  0.00  0.00     0.038 C 
ATOM      4  C   LIG d   1      -0.546  83.666 112.754  0.00  0.00     0.028 C 
ATOM      5  C   LIG d   1       0.745  84.426 113.042  0.00  0.00    -0.047 C 
ATOM      6  C   LIG d   1       1.609  84.450 111.760  0.00  0.00     0.091 C 
ENDROOT
BRANCH   1   7
ATOM      7  O   LIG d   1       2.274  83.079 109.842  0.00  0.00    -0.368 OA
BRANCH   7   8
ATOM      8  C   LIG d   1       2.745  81.835 109.268  0.00  0.00     0.119 C 
BRANCH   8   9
ATOM      9  C   LIG d   1       4.261  81.747 109.532  0.00  0.00     0.028 C 
ATOM     10  C   LIG d   1       4.945  83.124 109.483  0.00  0.00     0.006 C 
ENDBRANCH   8   9
BRANCH   8  11
ATOM     11  C   LIG d   1       2.599  81.833 107.743  0.00  0.00     0.028 C 
ATOM     12  C   LIG d   1       1.806  83.042 107.220  0.00  0.00     0.006 C 
ENDBRANCH   8  11
ENDBRANCH   7   8
ENDBRANCH   1   7
BRANCH   6  13
ATOM     13  N   LIG d   1       2.927  85.102 111.978  0.00  0.00    -0.311 N 
ATOM     14  C   LIG d   1       3.163  86.385 111.712  0.00  0.00     0.210 C 
ATOM     15  C   LIG d   1       4.596  86.850 111.990  0.00  0.00     0.109 C 
ATOM     16  O   LIG d   1       2.314  87.191 111.303  0.00  0.00    -0.276 OA
ATOM     17  H   LIG d   1       3.665  84.529 112.338  0.00  0.00     0.149 HD
ENDBRANCH   6  13
BRANCH   5  18
ATOM     18  N   LIG d   1       0.373  85.773 113.514  0.00  0.00     0.381 N 
ATOM     19  H   LIG d   1      -0.027  86.297 112.762  0.00  0.00    -0.090 HD
ATOM     20  H   LIG d   1       1.202  86.249 113.824  0.00  0.00    -0.090 HD
ATOM     21  H   LIG d   1      -0.279  85.703 114.264  0.00  0.00    -0.090 HD
ENDBRANCH   5  18
BRANCH   3  22
ATOM     22  C   LIG d   1      -1.253  81.401 112.430  0.00  0.00     0.382 C 
ATOM     23  O   LIG d   1      -0.859  80.277 112.825  0.00  0.00    -0.241 OA
ATOM     24  O   LIG d   1      -2.467  81.589 112.227  0.00  0.00    -0.241 OA
ENDBRANCH   3  22
TORSDOF 7
ENDMDL
MODEL 3
REMARK VINA RESULT:      -6.1      0.621      1.616
REMARK  7 active torsions:
REMARK  status: ('A' for Active; 'I' for Inactive)
REMARK    1  A    between atoms: C_2  and  C_3 
REMARK    2  A    between atoms: C_3  and  O_6 
REMARK    3  A    between atoms: C_3  and  C_4 
REMARK    4  A    between atoms: C_7  and  O_6 
REMARK    5  A    between atoms: C_9  and  C_10 
REMARK    6  A    between atoms: N_15  and  C_14 
REMARK    7  A    between atoms: N_20  and  C_19 
REMARK       I    between atoms: C_22  and  N_20 
ROOT
ATOM      1  C   LIG d   1       0.197  82.498 111.367  0.00  0.00     0.161 C 
ATOM      2  C   LIG d   1      -0.962  82.165 112.089  0.00  0.00     0.016 C 
ATOM      3  C   LIG d   1      -1.479  80.852 112.168  0.00  0.00     0.038 C 
ATOM      4  C   LIG d   1      -0.784  79.749 111.650  0.00  0.00     0.028 C 
ATOM      5  C   LIG d   1       0.128  80.103 110.480  0.00  0.00    -0.047 C 
ATOM      6  C   LIG d   1       1.029  81.291 110.888  0.00  0.00     0.091 C 
ENDROOT
BRANCH   1   7
ATOM      7  O   LIG d   1       1.015  83.395 112.143  0.00  0.00    -0.368 OA
BRANCH   7   8
ATOM      8  C   LIG d   1       1.372  84.646 111.504  0.00  0.00     0.119 C 
BRANCH   8   9
ATOM      9  C   LIG d   1       2.805  84.999 111.947  0.00  0.00     0.028 C 
ATOM     10  C   LIG d   1       3.133  86.488 111.740  0.00  0.00     0.006 C 
ENDBRANCH   8   9
BRANCH   8  11
ATOM     11  C   LIG d   1       0.497  85.798 112.007  0.00  0.00     0.028 C 
ATOM     12  C   LIG d   1      -0.543  86.252 110.970  0.00  0.00     0.006 C 
ENDBRANCH   8  11
ENDBRANCH   7   8
ENDBRANCH   1   7
BRANCH   6  13
ATOM     13  N   LIG d   1       1.895  81.755 109.772  0.00  0.00    -0.311 N 
ATOM     14  C   LIG d   1       3.219  81.861 109.867  0.00  0.00     0.210 C 
ATOM     15  C   LIG d   1       3.918  82.378 108.606  0.00  0.00     0.109 C 
ATOM     16  O   LIG d   1       3.884  81.544 110.864  0.00  0.00    -0.276 OA
ATOM     17  H   LIG d   1       1.440  82.003 108.915  0.00  0.00     0.149 HD
ENDBRANCH   6  13
BRANCH   5  18
ATOM     18  N   LIG d   1       0.893  78.891 110.129  0.00  0.00     0.381 N 
ATOM     19  H   LIG d   1       0.276  78.106 110.070  0.00  0.00    -0.090 HD
ATOM     20  H   LIG d   1       1.566  78.710 110.853  0.00  0.00    -0.090 HD
ATOM     21  H   LIG d   1       1.359  79.022 109.258  0.00  0.00    -0.090 HD
ENDBRANCH   5  18
BRANCH   3  22
ATOM     22  C   LIG d   1      -2.726  80.637 112.735  0.00  0.00     0.382 C 
ATOM     23  O   LIG d   1      -3.726  81.259 112.305  0.00  0.00    -0.241 OA
ATOM     24  O   LIG d   1      -2.854  79.862 113.702  0.00  0.00    -0.241 OA
ENDBRANCH   3  22
TORSDOF 7
ENDMDL
MODEL 4
REMARK VINA RESULT:      -5.7      2.579      5.718
REMARK  7 active torsions:
REMARK  status: ('A' for Active; 'I' for Inactive)
REMARK    1  A    between atoms: C_2  and  C_3 
REMARK    2  A    between atoms: C_3  and  O_6 
REMARK    3  A    between atoms: C_3  and  C_4 
REMARK    4  A    between atoms: C_7  and  O_6 
REMARK    5  A    between atoms: C_9  and  C_10 
REMARK    6  A    between atoms: N_15  and  C_14 
REMARK    7  A    between atoms: N_20  and  C_19 
REMARK       I    between atoms: C_22  and  N_20 
ROOT
ATOM      1  C   LIG d   1       1.093  83.716 110.750  0.00  0.00     0.161 C 
ATOM      2  C   LIG d   1       2.012  84.776 110.686  0.00  0.00     0.016 C 
ATOM      3  C   LIG d   1       2.314  85.611 111.786  0.00  0.00     0.038 C 
ATOM      4  C   LIG d   1       1.827  85.346 113.075  0.00  0.00     0.028 C 
ATOM      5  C   LIG d   1       0.502  84.590 113.077  0.00  0.00    -0.047 C 
ATOM      6  C   LIG d   1       0.635  83.342 112.175  0.00  0.00     0.091 C 
ENDROOT
BRANCH   1   7
ATOM      7  O   LIG d   1       1.632  82.560 110.078  0.00  0.00    -0.368 OA
BRANCH   7   8
ATOM      8  C   LIG d   1       2.635  82.823 109.066  0.00  0.00     0.119 C 
BRANCH   8   9
ATOM      9  C   LIG d   1       2.072  82.332 107.718  0.00  0.00     0.028 C 
ATOM     10  C   LIG d   1       1.595  83.490 106.825  0.00  0.00     0.006 C 
ENDBRANCH   8   9
BRANCH   8  11
ATOM     11  C   LIG d   1       3.898  81.990 109.304  0.00  0.00     0.028 C 
ATOM     12  C   LIG d   1       3.664  80.812 110.263  0.00  0.00     0.006 C 
ENDBRANCH   8  11
ENDBRANCH   7   8
ENDBRANCH   1   7
BRANCH   6  13
ATOM     13  N   LIG d   1      -0.642  82.591 112.055  0.00  0.00    -0.311 N 
ATOM     14  C   LIG d   1      -0.973  81.576 112.851  0.00  0.00     0.210 C 
ATOM     15  C   LIG d   1      -2.327  80.927 112.543  0.00  0.00     0.109 C 
ATOM     16  O   LIG d   1      -0.290  81.172 113.804  0.00  0.00    -0.276 OA
ATOM     17  H   LIG d   1      -1.270  82.873 111.328  0.00  0.00     0.149 HD
ENDBRANCH   6  13
BRANCH   5  18
ATOM     18  N   LIG d   1       0.181  84.259 114.478  0.00  0.00     0.381 N 
ATOM     19  H   LIG d   1       0.053  83.271 114.573  0.00  0.00    -0.090 HD
ATOM     20  H   LIG d   1      -0.680  84.714 114.730  0.00  0.00    -0.090 HD
ATOM     21  H   LIG d   1       0.915  84.566 115.078  0.00  0.00    -0.090 HD
ENDBRANCH   5  18
BRANCH   3  22
ATOM     22  C   LIG d   1       3.081  86.750 111.594  0.00  0.00     0.382 C 
ATOM     23  O   LIG d   1       4.324  86.652 111.449  0.00  0.00    -0.241 OA
ATOM     24  O   LIG d   1       2.552  87.878 111.608  0.00  0.00    -0.241 OA
ENDBRANCH   3  22
TORSDOF 7
ENDMDL
MODEL 5
REMARK VINA RESULT:      -5.7      2.256      5.093
REMARK  7 active torsions:
REMARK  status: ('A' for Active; 'I' for Inactive)
REMARK    1  A    between atoms: C_2  and  C_3 
REMARK    2  A    between atoms: C_3  and  O_6 
REMARK    3  A    between atoms: C_3  and  C_4 
REMARK    4  A    between atoms: C_7  and  O_6 
REMARK    5  A    between atoms: C_9  and  C_10 
REMARK    6  A    between atoms: N_15  and  C_14 
REMARK    7  A    between atoms: N_20  and  C_19 
REMARK       I    between atoms: C_22  and  N_20 
ROOT
ATOM      1  C   LIG d   1       0.009  82.569 111.207  0.00  0.00     0.161 C 
ATOM      2  C   LIG d   1      -0.319  83.906 111.485  0.00  0.00     0.016 C 
ATOM      3  C   LIG d   1       0.060  84.989 110.659  0.00  0.00     0.038 C 
ATOM      4  C   LIG d   1       0.667  84.791 109.410  0.00  0.00     0.028 C 
ATOM      5  C   LIG d   1       1.467  83.496 109.324  0.00  0.00    -0.047 C 
ATOM      6  C   LIG d   1       0.575  82.324 109.792  0.00  0.00     0.091 C 
ENDROOT
BRANCH   1   7
ATOM      7  O   LIG d   1      -1.136  81.726 111.442  0.00  0.00    -0.368 OA
BRANCH   7   8
ATOM      8  C   LIG d   1      -1.052  80.842 112.587  0.00  0.00     0.119 C 
BRANCH   8   9
ATOM      9  C   LIG d   1      -1.264  79.403 112.077  0.00  0.00     0.028 C 
ATOM     10  C   LIG d   1      -2.438  78.699 112.778  0.00  0.00     0.006 C 
ENDBRANCH   8   9
BRANCH   8  11
ATOM     11  C   LIG d   1      -2.198  81.096 113.571  0.00  0.00     0.028 C 
ATOM     12  C   LIG d   1      -1.897  82.242 114.551  0.00  0.00     0.006 C 
ENDBRANCH   8  11
ENDBRANCH   7   8
ENDBRANCH   1   7
BRANCH   6  13
ATOM     13  N   LIG d   1       1.306  81.030 109.819  0.00  0.00    -0.311 N 
ATOM     14  C   LIG d   1       0.947  79.970 109.098  0.00  0.00     0.210 C 
ATOM     15  C   LIG d   1       1.826  78.730 109.288  0.00  0.00     0.109 C 
ATOM     16  O   LIG d   1       0.003  79.948 108.294  0.00  0.00    -0.276 OA
ATOM     17  H   LIG d   1       2.104  80.970 110.421  0.00  0.00     0.149 HD
ENDBRANCH   6  13
BRANCH   5  18
ATOM     18  N   LIG d   1       1.929  83.350 107.931  0.00  0.00     0.381 N 
ATOM     19  H   LIG d   1       1.249  82.844 107.399  0.00  0.00    -0.090 HD
ATOM     20  H   LIG d   1       2.787  82.825 107.926  0.00  0.00    -0.090 HD
ATOM     21  H   LIG d   1       2.078  84.247 107.525  0.00  0.00    -0.090 HD
ENDBRANCH   5  18
BRANCH   3  22
ATOM     22  C   LIG d   1      -0.133  86.290 111.099  0.00  0.00     0.382 C 
ATOM     23  O   LIG d   1      -1.296  86.740 111.234  0.00  0.00    -0.241 OA
ATOM     24  O   LIG d   1       0.842  87.033 111.321  0.00  0.00    -0.241 OA
ENDBRANCH   3  22
TORSDOF 7
ENDMDL
MODEL 6
REMARK VINA RESULT:      -5.7      2.852      3.855
REMARK  7 active torsions:
REMARK  status: ('A' for Active; 'I' for Inactive)
REMARK    1  A    between atoms: C_2  and  C_3 
REMARK    2  A    between atoms: C_3  and  O_6 
REMARK    3  A    between atoms: C_3  and  C_4 
REMARK    4  A    between atoms: C_7  and  O_6 
REMARK    5  A    between atoms: C_9  and  C_10 
REMARK    6  A    between atoms: N_15  and  C_14 
REMARK    7  A    between atoms: N_20  and  C_19 
REMARK       I    between atoms: C_22  and  N_20 
ROOT
ATOM      1  C   LIG d   1       1.426  83.129 110.854  0.00  0.00     0.161 C 
ATOM      2  C   LIG d   1       0.936  81.915 110.343  0.00  0.00     0.016 C 
ATOM      3  C   LIG d   1       1.739  80.986 109.641  0.00  0.00     0.038 C 
ATOM      4  C   LIG d   1       3.129  81.140 109.534  0.00  0.00     0.028 C 
ATOM      5  C   LIG d   1       3.585  82.594 109.596  0.00  0.00    -0.047 C 
ATOM      6  C   LIG d   1       2.963  83.262 110.844  0.00  0.00     0.091 C 
ENDROOT
BRANCH   1   7
ATOM      7  O   LIG d   1       0.913  83.340 112.184  0.00  0.00    -0.368 OA
BRANCH   7   8
ATOM      8  C   LIG d   1      -0.112  84.356 112.319  0.00  0.00     0.119 C 
BRANCH   8   9
ATOM      9  C   LIG d   1      -0.323  84.987 110.929  0.00  0.00     0.028 C 
ATOM     10  C   LIG d   1      -0.714  86.472 111.012  0.00  0.00     0.006 C 
ENDBRANCH   8   9
BRANCH   8  11
ATOM     11  C   LIG d   1       0.356  85.503 113.219  0.00  0.00     0.028 C 
ATOM     12  C   LIG d   1       1.314  85.039 114.327  0.00  0.00     0.006 C 
ENDBRANCH   8  11
ENDBRANCH   7   8
ENDBRANCH   1   7
BRANCH   6  13
ATOM     13  N   LIG d   1       3.290  84.709 110.934  0.00  0.00    -0.311 N 
ATOM     14  C   LIG d   1       4.105  85.220 111.855  0.00  0.00     0.210 C 
ATOM     15  C   LIG d   1       4.290  86.739 111.783  0.00  0.00     0.109 C 
ATOM     16  O   LIG d   1       4.717  84.556 112.705  0.00  0.00    -0.276 OA
ATOM     17  H   LIG d   1       2.861  85.316 110.264  0.00  0.00     0.149 HD
ENDBRANCH   6  13
BRANCH   5  18
ATOM     18  N   LIG d   1       5.060  82.599 109.612  0.00  0.00     0.381 N 
ATOM     19  H   LIG d   1       5.389  83.318 110.224  0.00  0.00    -0.090 HD
ATOM     20  H   LIG d   1       5.394  82.795 108.685  0.00  0.00    -0.090 HD
ATOM     21  H   LIG d   1       5.400  81.713 109.915  0.00  0.00    -0.090 HD
ENDBRANCH   5  18
BRANCH   3  22
ATOM     22  C   LIG d   1       1.144  79.909 109.003  0.00  0.00     0.382 C 
ATOM     23  O   LIG d   1       1.795  78.852 108.819  0.00  0.00    -0.241 OA
ATOM     24  O   LIG d   1      -0.020  79.995 108.569  0.00  0.00    -0.241 OA
ENDBRANCH   3  22
TORSDOF 7
ENDMDL
MODEL 7
REMARK VINA RESULT:      -5.4      2.835      5.430
REMARK  7 active torsions:
REMARK  status: ('A' for Active; 'I' for Inactive)
REMARK    1  A    between atoms: C_2  and  C_3 
REMARK    2  A    between atoms: C_3  and  O_6 
REMARK    3  A    between atoms: C_3  and  C_4 
REMARK    4  A    between atoms: C_7  and  O_6 
REMARK    5  A    between atoms: C_9  and  C_10 
REMARK    6  A    between atoms: N_15  and  C_14 
REMARK    7  A    between atoms: N_20  and  C_19 
REMARK       I    between atoms: C_22  and  N_20 
ROOT
ATOM      1  C   LIG d   1       1.984  84.001 112.076  0.00  0.00     0.161 C 
ATOM      2  C   LIG d   1       2.696  85.134 112.507  0.00  0.00     0.016 C 
ATOM      3  C   LIG d   1       3.925  85.542 111.941  0.00  0.00     0.038 C 
ATOM      4  C   LIG d   1       4.455  84.928 110.797  0.00  0.00     0.028 C 
ATOM      5  C   LIG d   1       4.030  83.472 110.639  0.00  0.00    -0.047 C 
ATOM      6  C   LIG d   1       2.491  83.383 110.756  0.00  0.00     0.091 C 
ENDROOT
BRANCH   1   7
ATOM      7  O   LIG d   1       0.581  84.315 111.977  0.00  0.00    -0.368 OA
BRANCH   7   8
ATOM      8  C   LIG d   1       0.219  85.699 112.204  0.00  0.00     0.119 C 
BRANCH   8   9
ATOM      9  C   LIG d   1      -0.809  85.726 113.352  0.00  0.00     0.028 C 
ATOM     10  C   LIG d   1      -0.369  84.875 114.555  0.00  0.00     0.006 C 
ENDBRANCH   8   9
BRANCH   8  11
ATOM     11  C   LIG d   1      -0.508  86.291 110.994  0.00  0.00     0.028 C 
ATOM     12  C   LIG d   1      -0.454  85.376 109.760  0.00  0.00     0.006 C 
ENDBRANCH   8  11
ENDBRANCH   7   8
ENDBRANCH   1   7
BRANCH   6  13
ATOM     13  N   LIG d   1       1.998  81.983 110.697  0.00  0.00    -0.311 N 
ATOM     14  C   LIG d   1       1.656  81.373 109.564  0.00  0.00     0.210 C 
ATOM     15  C   LIG d   1       1.154  79.935 109.729  0.00  0.00     0.109 C 
ATOM     16  O   LIG d   1       1.751  81.875 108.434  0.00  0.00    -0.276 OA
ATOM     17  H   LIG d   1       1.919  81.490 111.565  0.00  0.00     0.149 HD
ENDBRANCH   6  13
BRANCH   5  18
ATOM     18  N   LIG d   1       4.539  82.997 109.339  0.00  0.00     0.381 N 
ATOM     19  H   LIG d   1       3.776  82.696 108.766  0.00  0.00    -0.090 HD
ATOM     20  H   LIG d   1       5.145  82.211 109.494  0.00  0.00    -0.090 HD
ATOM     21  H   LIG d   1       5.040  83.727 108.882  0.00  0.00    -0.090 HD
ENDBRANCH   5  18
BRANCH   3  22
ATOM     22  C   LIG d   1       4.658  86.552 112.546  0.00  0.00     0.382 C 
ATOM     23  O   LIG d   1       4.733  86.609 113.797  0.00  0.00    -0.241 OA
ATOM     24  O   LIG d   1       5.209  87.432 111.858  0.00  0.00    -0.241 OA
ENDBRANCH   3  22
TORSDOF 7
ENDMDL
MODEL 8
REMARK VINA RESULT:      -5.0      2.888      4.373
REMARK  7 active torsions:
REMARK  status: ('A' for Active; 'I' for Inactive)
REMARK    1  A    between atoms: C_2  and  C_3 
REMARK    2  A    between atoms: C_3  and  O_6 
REMARK    3  A    between atoms: C_3  and  C_4 
REMARK    4  A    between atoms: C_7  and  O_6 
REMARK    5  A    between atoms: C_9  and  C_10 
REMARK    6  A    between atoms: N_15  and  C_14 
REMARK    7  A    between atoms: N_20  and  C_19 
REMARK       I    between atoms: C_22  and  N_20 
ROOT
ATOM      1  C   LIG d   1       1.981  82.405 111.753  0.00  0.00     0.161 C 
ATOM      2  C   LIG d   1       1.488  81.273 111.083  0.00  0.00     0.016 C 
ATOM      3  C   LIG d   1       2.067  80.755 109.901  0.00  0.00     0.038 C 
ATOM      4  C   LIG d   1       3.277  81.248 109.390  0.00  0.00     0.028 C 
ATOM      5  C   LIG d   1       3.534  82.708 109.747  0.00  0.00    -0.047 C 
ATOM      6  C   LIG d   1       3.365  82.890 111.273  0.00  0.00     0.091 C 
ENDROOT
BRANCH   1   7
ATOM      7  O   LIG d   1       2.000  82.162 113.173  0.00  0.00    -0.368 OA
BRANCH   7   8
ATOM      8  C   LIG d   1       0.962  82.815 113.946  0.00  0.00     0.119 C 
BRANCH   8   9
ATOM      9  C   LIG d   1      -0.033  81.728 114.395  0.00  0.00     0.028 C 
ATOM     10  C   LIG d   1      -1.476  82.039 113.963  0.00  0.00     0.006 C 
ENDBRANCH   8   9
BRANCH   8  11
ATOM     11  C   LIG d   1       0.146  83.779 113.080  0.00  0.00     0.028 C 
ATOM     12  C   LIG d   1       0.221  85.232 113.575  0.00  0.00     0.006 C 
ENDBRANCH   8  11
ENDBRANCH   7   8
ENDBRANCH   1   7
BRANCH   6  13
ATOM     13  N   LIG d   1       3.516  84.306 111.696  0.00  0.00    -0.311 N 
ATOM     14  C   LIG d   1       2.857  85.315 111.129  0.00  0.00     0.210 C 
ATOM     15  C   LIG d   1       3.175  86.699 111.703  0.00  0.00     0.109 C 
ATOM     16  O   LIG d   1       2.015  85.192 110.227  0.00  0.00    -0.276 OA
ATOM     17  H   LIG d   1       4.157  84.493 112.442  0.00  0.00     0.149 HD
ENDBRANCH   6  13
BRANCH   5  18
ATOM     18  N   LIG d   1       4.888  83.052 109.271  0.00  0.00     0.381 N 
ATOM     19  H   LIG d   1       4.854  83.294 108.301  0.00  0.00    -0.090 HD
ATOM     20  H   LIG d   1       5.482  82.248 109.375  0.00  0.00    -0.090 HD
ATOM     21  H   LIG d   1       5.252  83.814 109.799  0.00  0.00    -0.090 HD
ENDBRANCH   5  18
BRANCH   3  22
ATOM     22  C   LIG d   1       1.412  79.757 109.196  0.00  0.00     0.382 C 
ATOM     23  O   LIG d   1       1.993  78.668 108.965  0.00  0.00    -0.241 OA
ATOM     24  O   LIG d   1       0.266  79.947 108.749  0.00  0.00    -0.241 OA
ENDBRANCH   3  22
TORSDOF 7
ENDMDL
MODEL 9
REMARK VINA RESULT:      -4.8      2.340      5.315
REMARK  7 active torsions:
REMARK  status: ('A' for Active; 'I' for Inactive)
REMARK    1  A    between atoms: C_2  and  C_3 
REMARK    2  A    between atoms: C_3  and  O_6 
REMARK    3  A    between atoms: C_3  and  C_4 
REMARK    4  A    between atoms: C_7  and  O_6 
REMARK    5  A    between atoms: C_9  and  C_10 
REMARK    6  A    between atoms: N_15  and  C_14 
REMARK    7  A    between atoms: N_20  and  C_19 
REMARK       I    between atoms: C_22  and  N_20 
ROOT
ATOM      1  C   LIG d   1       1.655  83.233 111.415  0.00  0.00     0.161 C 
ATOM      2  C   LIG d   1       1.852  84.536 111.903  0.00  0.00     0.016 C 
ATOM      3  C   LIG d   1       2.978  85.327 111.578  0.00  0.00     0.038 C 
ATOM      4  C   LIG d   1       3.915  84.923 110.616  0.00  0.00     0.028 C 
ATOM      5  C   LIG d   1       4.026  83.408 110.477  0.00  0.00    -0.047 C 
ATOM      6  C   LIG d   1       2.611  82.818 110.277  0.00  0.00     0.091 C 
ENDROOT
BRANCH   1   7
ATOM      7  O   LIG d   1       0.284  83.068 111.003  0.00  0.00    -0.368 OA
BRANCH   7   8
ATOM      8  C   LIG d   1      -0.568  82.323 111.908  0.00  0.00     0.119 C 
BRANCH   8   9
ATOM      9  C   LIG d   1      -0.717  83.158 113.195  0.00  0.00     0.028 C 
ATOM     10  C   LIG d   1      -0.391  82.347 114.461  0.00  0.00     0.006 C 
ENDBRANCH   8   9
BRANCH   8  11
ATOM     11  C   LIG d   1       0.095  81.015 112.347  0.00  0.00     0.028 C 
ATOM     12  C   LIG d   1      -0.601  79.771 111.772  0.00  0.00     0.006 C 
ENDBRANCH   8  11
ENDBRANCH   7   8
ENDBRANCH   1   7
BRANCH   6  13
ATOM     13  N   LIG d   1       2.620  81.333 110.216  0.00  0.00    -0.311 N 
ATOM     14  C   LIG d   1       2.080  80.638 109.216  0.00  0.00     0.210 C 
ATOM     15  C   LIG d   1       2.181  79.116 109.360  0.00  0.00     0.109 C 
ATOM     16  O   LIG d   1       1.557  81.137 108.209  0.00  0.00    -0.276 OA
ATOM     17  H   LIG d   1       3.052  80.848 110.977  0.00  0.00     0.149 HD
ENDBRANCH   6  13
BRANCH   5  18
ATOM     18  N   LIG d   1       4.934  83.130 109.348  0.00  0.00     0.381 N 
ATOM     19  H   LIG d   1       4.973  82.144 109.180  0.00  0.00    -0.090 HD
ATOM     20  H   LIG d   1       5.857  83.446 109.588  0.00  0.00    -0.090 HD
ATOM     21  H   LIG d   1       4.615  83.601 108.530  0.00  0.00    -0.090 HD
ENDBRANCH   5  18
BRANCH   3  22
ATOM     22  C   LIG d   1       3.196  86.521 112.249  0.00  0.00     0.382 C 
ATOM     23  O   LIG d   1       3.689  86.511 113.402  0.00  0.00    -0.241 OA
ATOM     24  O   LIG d   1       2.863  87.605 111.734  0.00  0.00    -0.241 OA
ENDBRANCH   3  22
TORSDOF 7
ENDMDL
