MODEL 1
REMARK VINA RESULT:      -6.7      0.000      0.000
REMARK  7 active torsions:
REMARK  status: ('A' for Active; 'I' for Inactive)
REMARK    1  A    between atoms: C_2  and  C_3 
REMARK    2  A    between atoms: C_3  and  O_6 
REMARK    3  A    between atoms: C_3  and  C_4 
REMARK    4  A    between atoms: C_7  and  O_6 
REMARK    5  A    between atoms: C_9  and  C_10 
REMARK    6  A    between atoms: N_15  and  C_14 
REMARK    7  A    between atoms: N_20  and  C_19 
REMARK       I    between atoms: C_22  and  N_20 
ROOT
ATOM      1  C   LIG d   1       0.386  82.485 110.789  0.00  0.00     0.161 C 
ATOM      2  C   LIG d   1      -0.740  82.143 111.556  0.00  0.00     0.016 C 
ATOM      3  C   LIG d   1      -1.304  80.846 111.573  0.00  0.00     0.038 C 
ATOM      4  C   LIG d   1      -0.686  79.760 110.936  0.00  0.00     0.028 C 
ATOM      5  C   LIG d   1       0.169  80.165 109.741  0.00  0.00    -0.047 C 
ATOM      6  C   LIG d   1       1.140  81.287 110.176  0.00  0.00     0.091 C 
ENDROOT
BRANCH   1   7
ATOM      7  O   LIG d   1       1.285  83.293 111.575  0.00  0.00    -0.368 OA
BRANCH   7   8
ATOM      8  C   LIG d   1       1.398  84.684 111.186  0.00  0.00     0.119 C 
BRANCH   8   9
ATOM      9  C   LIG d   1       0.425  84.917 110.014  0.00  0.00     0.028 C 
ATOM     10  C   LIG d   1      -0.599  86.025 110.312  0.00  0.00     0.006 C 
ENDBRANCH   8   9
BRANCH   8  11
ATOM     11  C   LIG d   1       2.789  84.995 110.626  0.00  0.00     0.028 C 
ATOM     12  C   LIG d   1       3.571  85.993 111.494  0.00  0.00     0.006 C 
ENDBRANCH   8  11
ENDBRANCH   7   8
ENDBRANCH   1   7
BRANCH   6  13
ATOM     13  N   LIG d   1       1.956  81.800 109.045  0.00  0.00    -0.311 N 
ATOM     14  C   LIG d   1       3.288  81.805 109.044  0.00  0.00     0.210 C 
ATOM     15  C   LIG d   1       3.933  82.397 107.787  0.00  0.00     0.109 C 
ATOM     16  O   LIG d   1       3.997  81.344 109.952  0.00  0.00    -0.276 OA
ATOM     17  H   LIG d   1       1.462  82.164 108.254  0.00  0.00     0.149 HD
ENDBRANCH   6  13
BRANCH   5  18
ATOM     18  N   LIG d   1       0.862  78.956 109.258  0.00  0.00     0.381 N 
ATOM     19  H   LIG d   1       0.273  78.461 108.619  0.00  0.00    -0.090 HD
ATOM     20  H   LIG d   1       1.053  78.356 110.041  0.00  0.00    -0.090 HD
ATOM     21  H   LIG d   1       1.715  79.208 108.808  0.00  0.00    -0.090 HD
ENDBRANCH   5  18
BRANCH   3  22
ATOM     22  C   LIG d   1      -2.523  80.636 112.200  0.00  0.00     0.382 C 
ATOM     23  O   LIG d   1      -3.376  81.555 112.236  0.00  0.00    -0.241 OA
ATOM     24  O   LIG d   1      -2.763  79.554 112.767  0.00  0.00    -0.241 OA
ENDBRANCH   3  22
TORSDOF 7
ENDMDL
MODEL 2
REMARK VINA RESULT:      -6.5      2.874      3.967
REMARK  7 active torsions:
REMARK  status: ('A' for Active; 'I' for Inactive)
REMARK    1  A    between atoms: C_2  and  C_3 
REMARK    2  A    between atoms: C_3  and  O_6 
REMARK    3  A    between atoms: C_3  and  C_4 
REMARK    4  A    between atoms: C_7  and  O_6 
REMARK    5  A    between atoms: C_9  and  C_10 
REMARK    6  A    between atoms: N_15  and  C_14 
REMARK    7  A    between atoms: N_20  and  C_19 
REMARK       I    between atoms: C_22  and  N_20 
ROOT
ATOM      1  C   LIG d   1       2.045  85.229 110.232  0.00  0.00     0.161 C 
ATOM      2  C   LIG d   1       1.035  85.987 110.848  0.00  0.00     0.016 C 
ATOM      3  C   LIG d   1      -0.208  85.447 111.249  0.00  0.00     0.038 C 
ATOM      4  C   LIG d   1      -0.470  84.069 111.198  0.00  0.00     0.028 C 
ATOM      5  C   LIG d   1       0.326  83.341 110.120  0.00  0.00    -0.047 C 
ATOM      6  C   LIG d   1       1.822  83.702 110.270  0.00  0.00     0.091 C 
ENDROOT
BRANCH   1   7
ATOM      7  O   LIG d   1       3.325  85.562 110.806  0.00  0.00    -0.368 OA
BRANCH   7   8
ATOM      8  C   LIG d   1       3.291  86.284 112.062  0.00  0.00     0.119 C 
BRANCH   8   9
ATOM      9  C   LIG d   1       4.490  87.253 112.071  0.00  0.00     0.028 C 
ATOM     10  C   LIG d   1       4.327  88.379 113.105  0.00  0.00     0.006 C 
ENDBRANCH   8   9
BRANCH   8  11
ATOM     11  C   LIG d   1       3.520  85.345 113.250  0.00  0.00     0.028 C 
ATOM     12  C   LIG d   1       2.268  85.178 114.127  0.00  0.00     0.006 C 
ENDBRANCH   8  11
ENDBRANCH   7   8
ENDBRANCH   1   7
BRANCH   6  13
ATOM     13  N   LIG d   1       2.661  83.098 109.202  0.00  0.00    -0.311 N 
ATOM     14  C   LIG d   1       3.663  82.256 109.446  0.00  0.00     0.210 C 
ATOM     15  C   LIG d   1       4.412  81.766 108.203  0.00  0.00     0.109 C 
ATOM     16  O   LIG d   1       3.982  81.843 110.571  0.00  0.00    -0.276 OA
ATOM     17  H   LIG d   1       2.450  83.355 108.258  0.00  0.00     0.149 HD
ENDBRANCH   6  13
BRANCH   5  18
ATOM     18  N   LIG d   1       0.062  81.898 110.269  0.00  0.00     0.381 N 
ATOM     19  H   LIG d   1      -0.415  81.555 109.459  0.00  0.00    -0.090 HD
ATOM     20  H   LIG d   1      -0.532  81.757 111.068  0.00  0.00    -0.090 HD
ATOM     21  H   LIG d   1       0.919  81.405 110.393  0.00  0.00    -0.090 HD
ENDBRANCH   5  18
BRANCH   3  22
ATOM     22  C   LIG d   1      -1.222  86.294 111.670  0.00  0.00     0.382 C 
ATOM     23  O   LIG d   1      -1.702  87.140 110.877  0.00  0.00    -0.241 OA
ATOM     24  O   LIG d   1      -1.632  86.254 112.845  0.00  0.00    -0.241 OA
ENDBRANCH   3  22
TORSDOF 7
ENDMDL
MODEL 3
REMARK VINA RESULT:      -6.3      3.561      7.066
REMARK  7 active torsions:
REMARK  status: ('A' for Active; 'I' for Inactive)
REMARK    1  A    between atoms: C_2  and  C_3 
REMARK    2  A    between atoms: C_3  and  O_6 
REMARK    3  A    between atoms: C_3  and  C_4 
REMARK    4  A    between atoms: C_7  and  O_6 
REMARK    5  A    between atoms: C_9  and  C_10 
REMARK    6  A    between atoms: N_15  and  C_14 
REMARK    7  A    between atoms: N_20  and  C_19 
REMARK       I    between atoms: C_22  and  N_20 
ROOT
ATOM      1  C   LIG d   1       3.248  85.462 111.765  0.00  0.00     0.161 C 
ATOM      2  C   LIG d   1       4.068  86.602 111.800  0.00  0.00     0.016 C 
ATOM      3  C   LIG d   1       4.155  87.465 112.917  0.00  0.00     0.038 C 
ATOM      4  C   LIG d   1       3.538  87.160 114.139  0.00  0.00     0.028 C 
ATOM      5  C   LIG d   1       2.297  86.286 113.989  0.00  0.00    -0.047 C 
ATOM      6  C   LIG d   1       2.653  85.052 113.128  0.00  0.00     0.091 C 
ENDROOT
BRANCH   1   7
ATOM      7  O   LIG d   1       3.969  84.359 111.181  0.00  0.00    -0.368 OA
BRANCH   7   8
ATOM      8  C   LIG d   1       3.808  84.178 109.753  0.00  0.00     0.119 C 
BRANCH   8   9
ATOM      9  C   LIG d   1       2.433  83.522 109.521  0.00  0.00     0.028 C 
ATOM     10  C   LIG d   1       1.458  84.451 108.778  0.00  0.00     0.006 C 
ENDBRANCH   8   9
BRANCH   8  11
ATOM     11  C   LIG d   1       4.831  83.181 109.199  0.00  0.00     0.028 C 
ATOM     12  C   LIG d   1       4.178  81.908 108.638  0.00  0.00     0.006 C 
ENDBRANCH   8  11
ENDBRANCH   7   8
ENDBRANCH   1   7
BRANCH   6  13
ATOM     13  N   LIG d   1       1.474  84.188 112.862  0.00  0.00    -0.311 N 
ATOM     14  C   LIG d   1       0.340  84.638 112.327  0.00  0.00     0.210 C 
ATOM     15  C   LIG d   1      -0.758  83.583 112.156  0.00  0.00     0.109 C 
ATOM     16  O   LIG d   1       0.151  85.803 111.948  0.00  0.00    -0.276 OA
ATOM     17  H   LIG d   1       1.552  83.221 113.111  0.00  0.00     0.149 HD
ENDBRANCH   6  13
BRANCH   5  18
ATOM     18  N   LIG d   1       1.835  85.931 115.345  0.00  0.00     0.381 N 
ATOM     19  H   LIG d   1       1.236  86.651 115.697  0.00  0.00    -0.090 HD
ATOM     20  H   LIG d   1       2.633  85.859 115.951  0.00  0.00    -0.090 HD
ATOM     21  H   LIG d   1       1.346  85.064 115.322  0.00  0.00    -0.090 HD
ENDBRANCH   5  18
BRANCH   3  22
ATOM     22  C   LIG d   1       4.834  88.668 112.805  0.00  0.00     0.382 C 
ATOM     23  O   LIG d   1       5.974  88.699 112.282  0.00  0.00    -0.241 OA
ATOM     24  O   LIG d   1       4.340  89.717 113.260  0.00  0.00    -0.241 OA
ENDBRANCH   3  22
TORSDOF 7
ENDMDL
MODEL 4
REMARK VINA RESULT:      -6.2      2.364      5.695
REMARK  7 active torsions:
REMARK  status: ('A' for Active; 'I' for Inactive)
REMARK    1  A    between atoms: C_2  and  C_3 
REMARK    2  A    between atoms: C_3  and  O_6 
REMARK    3  A    between atoms: C_3  and  C_4 
REMARK    4  A    between atoms: C_7  and  O_6 
REMARK    5  A    between atoms: C_9  and  C_10 
REMARK    6  A    between atoms: N_15  and  C_14 
REMARK    7  A    between atoms: N_20  and  C_19 
REMARK       I    between atoms: C_22  and  N_20 
ROOT
ATOM      1  C   LIG d   1       0.900  83.510 109.997  0.00  0.00     0.161 C 
ATOM      2  C   LIG d   1       1.727  84.645 110.042  0.00  0.00     0.016 C 
ATOM      3  C   LIG d   1       2.232  85.193 111.244  0.00  0.00     0.038 C 
ATOM      4  C   LIG d   1       2.066  84.548 112.479  0.00  0.00     0.028 C 
ATOM      5  C   LIG d   1       0.817  83.677 112.545  0.00  0.00    -0.047 C 
ATOM      6  C   LIG d   1       0.800  82.730 111.324  0.00  0.00     0.091 C 
ENDROOT
BRANCH   1   7
ATOM      7  O   LIG d   1       1.327  82.637 108.933  0.00  0.00    -0.368 OA
BRANCH   7   8
ATOM      8  C   LIG d   1       2.477  81.802 109.216  0.00  0.00     0.119 C 
BRANCH   8   9
ATOM      9  C   LIG d   1       3.624  82.266 108.298  0.00  0.00     0.028 C 
ATOM     10  C   LIG d   1       4.788  82.893 109.083  0.00  0.00     0.006 C 
ENDBRANCH   8   9
BRANCH   8  11
ATOM     11  C   LIG d   1       2.214  80.343 108.832  0.00  0.00     0.028 C 
ATOM     12  C   LIG d   1       0.772  80.103 108.356  0.00  0.00     0.006 C 
ENDBRANCH   8  11
ENDBRANCH   7   8
ENDBRANCH   1   7
BRANCH   6  13
ATOM     13  N   LIG d   1      -0.432  81.900 111.266  0.00  0.00    -0.311 N 
ATOM     14  C   LIG d   1      -0.574  80.752 111.926  0.00  0.00     0.210 C 
ATOM     15  C   LIG d   1      -1.916  80.046 111.712  0.00  0.00     0.109 C 
ATOM     16  O   LIG d   1       0.272  80.267 112.692  0.00  0.00    -0.276 OA
ATOM     17  H   LIG d   1      -1.180  82.235 110.692  0.00  0.00     0.149 HD
ENDBRANCH   6  13
BRANCH   5  18
ATOM     18  N   LIG d   1       0.841  82.959 113.834  0.00  0.00     0.381 N 
ATOM     19  H   LIG d   1       0.019  82.396 113.924  0.00  0.00    -0.090 HD
ATOM     20  H   LIG d   1       0.846  83.632 114.580  0.00  0.00    -0.090 HD
ATOM     21  H   LIG d   1       1.653  82.385 113.889  0.00  0.00    -0.090 HD
ENDBRANCH   5  18
BRANCH   3  22
ATOM     22  C   LIG d   1       2.878  86.420 111.222  0.00  0.00     0.382 C 
ATOM     23  O   LIG d   1       4.131  86.468 111.207  0.00  0.00    -0.241 OA
ATOM     24  O   LIG d   1       2.223  87.479 111.263  0.00  0.00    -0.241 OA
ENDBRANCH   3  22
TORSDOF 7
ENDMDL
MODEL 5
REMARK VINA RESULT:      -6.0      2.761      4.703
REMARK  7 active torsions:
REMARK  status: ('A' for Active; 'I' for Inactive)
REMARK    1  A    between atoms: C_2  and  C_3 
REMARK    2  A    between atoms: C_3  and  O_6 
REMARK    3  A    between atoms: C_3  and  C_4 
REMARK    4  A    between atoms: C_7  and  O_6 
REMARK    5  A    between atoms: C_9  and  C_10 
REMARK    6  A    between atoms: N_15  and  C_14 
REMARK    7  A    between atoms: N_20  and  C_19 
REMARK       I    between atoms: C_22  and  N_20 
ROOT
ATOM      1  C   LIG d   1       2.020  83.754 111.522  0.00  0.00     0.161 C 
ATOM      2  C   LIG d   1       1.055  82.766 111.265  0.00  0.00     0.016 C 
ATOM      3  C   LIG d   1      -0.268  82.823 111.760  0.00  0.00     0.038 C 
ATOM      4  C   LIG d   1      -0.763  83.954 112.425  0.00  0.00     0.028 C 
ATOM      5  C   LIG d   1       0.318  84.755 113.144  0.00  0.00    -0.047 C 
ATOM      6  C   LIG d   1       1.467  85.049 112.153  0.00  0.00     0.091 C 
ENDROOT
BRANCH   1   7
ATOM      7  O   LIG d   1       2.746  84.055 110.314  0.00  0.00    -0.368 OA
BRANCH   7   8
ATOM      8  C   LIG d   1       2.571  83.125 109.217  0.00  0.00     0.119 C 
BRANCH   8   9
ATOM      9  C   LIG d   1       3.974  82.738 108.710  0.00  0.00     0.028 C 
ATOM     10  C   LIG d   1       4.215  81.219 108.752  0.00  0.00     0.006 C 
ENDBRANCH   8   9
BRANCH   8  11
ATOM     11  C   LIG d   1       1.880  83.792 108.025  0.00  0.00     0.028 C 
ATOM     12  C   LIG d   1       1.147  85.087 108.409  0.00  0.00     0.006 C 
ENDBRANCH   8  11
ENDBRANCH   7   8
ENDBRANCH   1   7
BRANCH   6  13
ATOM     13  N   LIG d   1       2.604  85.757 112.797  0.00  0.00    -0.311 N 
ATOM     14  C   LIG d   1       2.995  86.983 112.452  0.00  0.00     0.210 C 
ATOM     15  C   LIG d   1       4.201  87.519 113.229  0.00  0.00     0.109 C 
ATOM     16  O   LIG d   1       2.437  87.689 111.600  0.00  0.00    -0.276 OA
ATOM     17  H   LIG d   1       3.094  85.269 113.521  0.00  0.00     0.149 HD
ENDBRANCH   6  13
BRANCH   5  18
ATOM     18  N   LIG d   1      -0.313  85.977 113.676  0.00  0.00     0.381 N 
ATOM     19  H   LIG d   1      -0.290  86.700 112.985  0.00  0.00    -0.090 HD
ATOM     20  H   LIG d   1       0.208  86.290 114.477  0.00  0.00    -0.090 HD
ATOM     21  H   LIG d   1      -1.256  85.788 113.937  0.00  0.00    -0.090 HD
ENDBRANCH   5  18
BRANCH   3  22
ATOM     22  C   LIG d   1      -1.100  81.722 111.625  0.00  0.00     0.382 C 
ATOM     23  O   LIG d   1      -2.303  81.799 111.972  0.00  0.00    -0.241 OA
ATOM     24  O   LIG d   1      -0.651  80.639 111.203  0.00  0.00    -0.241 OA
ENDBRANCH   3  22
TORSDOF 7
ENDMDL
MODEL 6
REMARK VINA RESULT:      -5.9      2.997      5.944
REMARK  7 active torsions:
REMARK  status: ('A' for Active; 'I' for Inactive)
REMARK    1  A    between atoms: C_2  and  C_3 
REMARK    2  A    between atoms: C_3  and  O_6 
REMARK    3  A    between atoms: C_3  and  C_4 
REMARK    4  A    between atoms: C_7  and  O_6 
REMARK    5  A    between atoms: C_9  and  C_10 
REMARK    6  A    between atoms: N_15  and  C_14 
REMARK    7  A    between atoms: N_20  and  C_19 
REMARK       I    between atoms: C_22  and  N_20 
ROOT
ATOM      1  C   LIG d   1       2.866  84.050 111.753  0.00  0.00     0.161 C 
ATOM      2  C   LIG d   1       3.321  85.276 112.266  0.00  0.00     0.016 C 
ATOM      3  C   LIG d   1       2.914  86.531 111.757  0.00  0.00     0.038 C 
ATOM      4  C   LIG d   1       1.902  86.647 110.793  0.00  0.00     0.028 C 
ATOM      5  C   LIG d   1       1.780  85.423 109.892  0.00  0.00    -0.047 C 
ATOM      6  C   LIG d   1       1.677  84.158 110.776  0.00  0.00     0.091 C 
ENDROOT
BRANCH   1   7
ATOM      7  O   LIG d   1       2.543  83.156 112.837  0.00  0.00    -0.368 OA
BRANCH   7   8
ATOM      8  C   LIG d   1       2.211  83.782 114.101  0.00  0.00     0.119 C 
BRANCH   8   9
ATOM      9  C   LIG d   1       2.508  82.760 115.216  0.00  0.00     0.028 C 
ATOM     10  C   LIG d   1       2.113  81.328 114.819  0.00  0.00     0.006 C 
ENDBRANCH   8   9
BRANCH   8  11
ATOM     11  C   LIG d   1       0.710  84.068 114.203  0.00  0.00     0.028 C 
ATOM     12  C   LIG d   1       0.401  85.558 114.425  0.00  0.00     0.006 C 
ENDBRANCH   8  11
ENDBRANCH   7   8
ENDBRANCH   1   7
BRANCH   6  13
ATOM     13  N   LIG d   1       1.639  82.908 109.973  0.00  0.00    -0.311 N 
ATOM     14  C   LIG d   1       0.656  82.013 110.057  0.00  0.00     0.210 C 
ATOM     15  C   LIG d   1       0.822  80.784 109.157  0.00  0.00     0.109 C 
ATOM     16  O   LIG d   1      -0.353  82.135 110.767  0.00  0.00    -0.276 OA
ATOM     17  H   LIG d   1       2.404  82.744 109.348  0.00  0.00     0.149 HD
ENDBRANCH   6  13
BRANCH   5  18
ATOM     18  N   LIG d   1       0.601  85.621 109.028  0.00  0.00     0.381 N 
ATOM     19  H   LIG d   1       0.581  84.918 108.316  0.00  0.00    -0.090 HD
ATOM     20  H   LIG d   1       0.672  86.519 108.583  0.00  0.00    -0.090 HD
ATOM     21  H   LIG d   1      -0.232  85.576 109.572  0.00  0.00    -0.090 HD
ENDBRANCH   5  18
BRANCH   3  22
ATOM     22  C   LIG d   1       3.551  87.685 112.185  0.00  0.00     0.382 C 
ATOM     23  O   LIG d   1       2.901  88.574 112.787  0.00  0.00    -0.241 OA
ATOM     24  O   LIG d   1       4.758  87.869 111.939  0.00  0.00    -0.241 OA
ENDBRANCH   3  22
TORSDOF 7
ENDMDL
MODEL 7
REMARK VINA RESULT:      -5.0     23.750     26.745
REMARK  7 active torsions:
REMARK  status: ('A' for Active; 'I' for Inactive)
REMARK    1  A    between atoms: C_2  and  C_3 
REMARK    2  A    between atoms: C_3  and  O_6 
REMARK    3  A    between atoms: C_3  and  C_4 
REMARK    4  A    between atoms: C_7  and  O_6 
REMARK    5  A    between atoms: C_9  and  C_10 
REMARK    6  A    between atoms: N_15  and  C_14 
REMARK    7  A    between atoms: N_20  and  C_19 
REMARK       I    between atoms: C_22  and  N_20 
ROOT
ATOM      1  C   LIG d   1     -25.560  85.282 113.159  0.00  0.00     0.161 C 
ATOM      2  C   LIG d   1     -24.461  86.148 113.288  0.00  0.00     0.016 C 
ATOM      3  C   LIG d   1     -23.172  85.716 113.676  0.00  0.00     0.038 C 
ATOM      4  C   LIG d   1     -22.856  84.357 113.816  0.00  0.00     0.028 C 
ATOM      5  C   LIG d   1     -24.055  83.491 114.188  0.00  0.00    -0.047 C 
ATOM      6  C   LIG d   1     -25.208  83.780 113.200  0.00  0.00     0.091 C 
ENDROOT
BRANCH   1   7
ATOM      7  O   LIG d   1     -26.288  85.593 111.955  0.00  0.00    -0.368 OA
BRANCH   7   8
ATOM      8  C   LIG d   1     -26.973  86.870 111.936  0.00  0.00     0.119 C 
BRANCH   8   9
ATOM      9  C   LIG d   1     -28.481  86.584 111.793  0.00  0.00     0.028 C 
ATOM     10  C   LIG d   1     -28.763  85.330 110.949  0.00  0.00     0.006 C 
ENDBRANCH   8   9
BRANCH   8  11
ATOM     11  C   LIG d   1     -26.596  87.687 110.697  0.00  0.00     0.028 C 
ATOM     12  C   LIG d   1     -27.019  89.160 110.803  0.00  0.00     0.006 C 
ENDBRANCH   8  11
ENDBRANCH   7   8
ENDBRANCH   1   7
BRANCH   6  13
ATOM     13  N   LIG d   1     -26.448  83.036 113.542  0.00  0.00    -0.311 N 
ATOM     14  C   LIG d   1     -27.176  82.372 112.647  0.00  0.00     0.210 C 
ATOM     15  C   LIG d   1     -28.428  81.691 113.208  0.00  0.00     0.109 C 
ATOM     16  O   LIG d   1     -26.886  82.255 111.446  0.00  0.00    -0.276 OA
ATOM     17  H   LIG d   1     -26.739  83.053 114.500  0.00  0.00     0.149 HD
ENDBRANCH   6  13
BRANCH   5  18
ATOM     18  N   LIG d   1     -23.613  82.084 114.166  0.00  0.00     0.381 N 
ATOM     19  H   LIG d   1     -23.812  81.653 115.047  0.00  0.00    -0.090 HD
ATOM     20  H   LIG d   1     -22.619  82.058 114.019  0.00  0.00    -0.090 HD
ATOM     21  H   LIG d   1     -24.077  81.592 113.435  0.00  0.00    -0.090 HD
ENDBRANCH   5  18
BRANCH   3  22
ATOM     22  C   LIG d   1     -22.192  86.654 113.968  0.00  0.00     0.382 C 
ATOM     23  O   LIG d   1     -22.420  87.557 114.808  0.00  0.00    -0.241 OA
ATOM     24  O   LIG d   1     -21.100  86.634 113.369  0.00  0.00    -0.241 OA
ENDBRANCH   3  22
TORSDOF 7
ENDMDL
MODEL 8
REMARK VINA RESULT:      -5.0      3.569      6.041
REMARK  7 active torsions:
REMARK  status: ('A' for Active; 'I' for Inactive)
REMARK    1  A    between atoms: C_2  and  C_3 
REMARK    2  A    between atoms: C_3  and  O_6 
REMARK    3  A    between atoms: C_3  and  C_4 
REMARK    4  A    between atoms: C_7  and  O_6 
REMARK    5  A    between atoms: C_9  and  C_10 
REMARK    6  A    between atoms: N_15  and  C_14 
REMARK    7  A    between atoms: N_20  and  C_19 
REMARK       I    between atoms: C_22  and  N_20 
ROOT
ATOM      1  C   LIG d   1       1.447  84.258 112.500  0.00  0.00     0.161 C 
ATOM      2  C   LIG d   1       1.756  85.615 112.305  0.00  0.00     0.016 C 
ATOM      3  C   LIG d   1       2.582  86.359 113.178  0.00  0.00     0.038 C 
ATOM      4  C   LIG d   1       3.283  85.753 114.231  0.00  0.00     0.028 C 
ATOM      5  C   LIG d   1       2.605  84.496 114.766  0.00  0.00    -0.047 C 
ATOM      6  C   LIG d   1       2.292  83.553 113.582  0.00  0.00     0.091 C 
ENDROOT
BRANCH   1   7
ATOM      7  O   LIG d   1       1.543  83.550 111.249  0.00  0.00    -0.368 OA
BRANCH   7   8
ATOM      8  C   LIG d   1       2.386  84.154 110.237  0.00  0.00     0.119 C 
BRANCH   8   9
ATOM      9  C   LIG d   1       1.519  84.372 108.982  0.00  0.00     0.028 C 
ATOM     10  C   LIG d   1       1.949  83.475 107.809  0.00  0.00     0.006 C 
ENDBRANCH   8   9
BRANCH   8  11
ATOM     11  C   LIG d   1       3.501  83.200 109.799  0.00  0.00     0.028 C 
ATOM     12  C   LIG d   1       3.433  81.838 110.507  0.00  0.00     0.006 C 
ENDBRANCH   8  11
ENDBRANCH   7   8
ENDBRANCH   1   7
BRANCH   6  13
ATOM     13  N   LIG d   1       1.552  82.336 114.007  0.00  0.00    -0.311 N 
ATOM     14  C   LIG d   1       2.141  81.166 114.248  0.00  0.00     0.210 C 
ATOM     15  C   LIG d   1       1.192  80.035 114.656  0.00  0.00     0.109 C 
ATOM     16  O   LIG d   1       3.364  80.966 114.193  0.00  0.00    -0.276 OA
ATOM     17  H   LIG d   1       0.559  82.417 114.107  0.00  0.00     0.149 HD
ENDBRANCH   6  13
BRANCH   5  18
ATOM     18  N   LIG d   1       3.509  83.892 115.763  0.00  0.00     0.381 N 
ATOM     19  H   LIG d   1       3.496  84.434 116.604  0.00  0.00    -0.090 HD
ATOM     20  H   LIG d   1       4.445  83.897 115.399  0.00  0.00    -0.090 HD
ATOM     21  H   LIG d   1       3.225  82.957 115.958  0.00  0.00    -0.090 HD
ENDBRANCH   5  18
BRANCH   3  22
ATOM     22  C   LIG d   1       2.683  87.733 113.025  0.00  0.00     0.382 C 
ATOM     23  O   LIG d   1       2.727  88.234 111.875  0.00  0.00    -0.241 OA
ATOM     24  O   LIG d   1       2.774  88.475 114.021  0.00  0.00    -0.241 OA
ENDBRANCH   3  22
TORSDOF 7
ENDMDL
MODEL 9
REMARK VINA RESULT:      -4.8      3.378      6.255
REMARK  7 active torsions:
REMARK  status: ('A' for Active; 'I' for Inactive)
REMARK    1  A    between atoms: C_2  and  C_3 
REMARK    2  A    between atoms: C_3  and  O_6 
REMARK    3  A    between atoms: C_3  and  C_4 
REMARK    4  A    between atoms: C_7  and  O_6 
REMARK    5  A    between atoms: C_9  and  C_10 
REMARK    6  A    between atoms: N_15  and  C_14 
REMARK    7  A    between atoms: N_20  and  C_19 
REMARK       I    between atoms: C_22  and  N_20 
ROOT
ATOM      1  C   LIG d   1       2.552  84.673 112.200  0.00  0.00     0.161 C 
ATOM      2  C   LIG d   1       3.593  84.890 113.118  0.00  0.00     0.016 C 
ATOM      3  C   LIG d   1       3.380  85.302 114.453  0.00  0.00     0.038 C 
ATOM      4  C   LIG d   1       2.094  85.379 115.009  0.00  0.00     0.028 C 
ATOM      5  C   LIG d   1       1.004  85.657 113.979  0.00  0.00    -0.047 C 
ATOM      6  C   LIG d   1       1.139  84.644 112.819  0.00  0.00     0.091 C 
ENDROOT
BRANCH   1   7
ATOM      7  O   LIG d   1       2.800  83.461 111.459  0.00  0.00    -0.368 OA
BRANCH   7   8
ATOM      8  C   LIG d   1       3.153  83.628 110.064  0.00  0.00     0.119 C 
BRANCH   8   9
ATOM      9  C   LIG d   1       2.013  83.022 109.222  0.00  0.00     0.028 C 
ATOM     10  C   LIG d   1       1.209  81.965 109.998  0.00  0.00     0.006 C 
ENDBRANCH   8   9
BRANCH   8  11
ATOM     11  C   LIG d   1       4.400  82.816 109.704  0.00  0.00     0.028 C 
ATOM     12  C   LIG d   1       4.394  82.329 108.246  0.00  0.00     0.006 C 
ENDBRANCH   8  11
ENDBRANCH   7   8
ENDBRANCH   1   7
BRANCH   6  13
ATOM     13  N   LIG d   1       0.164  84.899 111.727  0.00  0.00    -0.311 N 
ATOM     14  C   LIG d   1       0.212  85.970 110.937  0.00  0.00     0.210 C 
ATOM     15  C   LIG d   1      -0.901  86.049 109.887  0.00  0.00     0.109 C 
ATOM     16  O   LIG d   1       1.090  86.845 110.984  0.00  0.00    -0.276 OA
ATOM     17  H   LIG d   1      -0.563  84.223 111.598  0.00  0.00     0.149 HD
ENDBRANCH   6  13
BRANCH   5  18
ATOM     18  N   LIG d   1      -0.295  85.575 114.671  0.00  0.00     0.381 N 
ATOM     19  H   LIG d   1      -0.485  86.437 115.141  0.00  0.00    -0.090 HD
ATOM     20  H   LIG d   1      -0.251  84.844 115.359  0.00  0.00    -0.090 HD
ATOM     21  H   LIG d   1      -1.019  85.380 114.014  0.00  0.00    -0.090 HD
ENDBRANCH   5  18
BRANCH   3  22
ATOM     22  C   LIG d   1       4.459  85.681 115.237  0.00  0.00     0.382 C 
ATOM     23  O   LIG d   1       5.225  84.809 115.713  0.00  0.00    -0.241 OA
ATOM     24  O   LIG d   1       4.651  86.881 115.510  0.00  0.00    -0.241 OA
ENDBRANCH   3  22
TORSDOF 7
ENDMDL
