MODEL 1
REMARK VINA RESULT:      -6.9      0.000      0.000
REMARK  7 active torsions:
REMARK  status: ('A' for Active; 'I' for Inactive)
REMARK    1  A    between atoms: C_2  and  C_3 
REMARK    2  A    between atoms: C_3  and  O_6 
REMARK    3  A    between atoms: C_3  and  C_4 
REMARK    4  A    between atoms: C_7  and  O_6 
REMARK    5  A    between atoms: C_9  and  C_10 
REMARK    6  A    between atoms: N_15  and  C_14 
REMARK    7  A    between atoms: N_20  and  C_19 
REMARK       I    between atoms: C_22  and  N_20 
ROOT
ATOM      1  C   LIG d   1       0.206  82.164 111.008  0.00  0.00     0.161 C 
ATOM      2  C   LIG d   1      -0.904  81.923 111.834  0.00  0.00     0.016 C 
ATOM      3  C   LIG d   1      -1.508  80.653 111.977  0.00  0.00     0.038 C 
ATOM      4  C   LIG d   1      -0.944  79.497 111.415  0.00  0.00     0.028 C 
ATOM      5  C   LIG d   1      -0.117  79.773 110.164  0.00  0.00    -0.047 C 
ATOM      6  C   LIG d   1       0.902  80.894 110.474  0.00  0.00     0.091 C 
ENDROOT
BRANCH   1   7
ATOM      7  O   LIG d   1       1.154  83.003 111.695  0.00  0.00    -0.368 OA
BRANCH   7   8
ATOM      8  C   LIG d   1       1.279  84.360 111.203  0.00  0.00     0.119 C 
BRANCH   8   9
ATOM      9  C   LIG d   1       0.397  84.479 109.945  0.00  0.00     0.028 C 
ATOM     10  C   LIG d   1      -0.532  85.703 109.992  0.00  0.00     0.006 C 
ENDBRANCH   8   9
BRANCH   8  11
ATOM     11  C   LIG d   1       2.705  84.652 110.728  0.00  0.00     0.028 C 
ATOM     12  C   LIG d   1       3.128  86.110 110.972  0.00  0.00     0.006 C 
ENDBRANCH   8  11
ENDBRANCH   7   8
ENDBRANCH   1   7
BRANCH   6  13
ATOM     13  N   LIG d   1       1.695  81.284 109.279  0.00  0.00    -0.311 N 
ATOM     14  C   LIG d   1       3.026  81.330 109.267  0.00  0.00     0.210 C 
ATOM     15  C   LIG d   1       3.645  81.778 107.939  0.00  0.00     0.109 C 
ATOM     16  O   LIG d   1       3.754  81.012 110.219  0.00  0.00    -0.276 OA
ATOM     17  H   LIG d   1       1.186  81.528 108.453  0.00  0.00     0.149 HD
ENDBRANCH   6  13
BRANCH   5  18
ATOM     18  N   LIG d   1       0.522  78.505 109.764  0.00  0.00     0.381 N 
ATOM     19  H   LIG d   1       0.599  78.465 108.767  0.00  0.00    -0.090 HD
ATOM     20  H   LIG d   1      -0.055  77.741 110.067  0.00  0.00    -0.090 HD
ATOM     21  H   LIG d   1       1.426  78.434 110.177  0.00  0.00    -0.090 HD
ENDBRANCH   5  18
BRANCH   3  22
ATOM     22  C   LIG d   1      -2.711  80.536 112.656  0.00  0.00     0.382 C 
ATOM     23  O   LIG d   1      -2.847  79.659 113.544  0.00  0.00    -0.241 OA
ATOM     24  O   LIG d   1      -3.676  81.266 112.362  0.00  0.00    -0.241 OA
ENDBRANCH   3  22
TORSDOF 7
ENDMDL
MODEL 2
REMARK VINA RESULT:      -6.3      2.356      3.759
REMARK  7 active torsions:
REMARK  status: ('A' for Active; 'I' for Inactive)
REMARK    1  A    between atoms: C_2  and  C_3 
REMARK    2  A    between atoms: C_3  and  O_6 
REMARK    3  A    between atoms: C_3  and  C_4 
REMARK    4  A    between atoms: C_7  and  O_6 
REMARK    5  A    between atoms: C_9  and  C_10 
REMARK    6  A    between atoms: N_15  and  C_14 
REMARK    7  A    between atoms: N_20  and  C_19 
REMARK       I    between atoms: C_22  and  N_20 
ROOT
ATOM      1  C   LIG d   1       0.104  83.835 110.538  0.00  0.00     0.161 C 
ATOM      2  C   LIG d   1      -0.064  84.840 111.505  0.00  0.00     0.016 C 
ATOM      3  C   LIG d   1      -0.467  84.581 112.835  0.00  0.00     0.038 C 
ATOM      4  C   LIG d   1      -0.585  83.275 113.333  0.00  0.00     0.028 C 
ATOM      5  C   LIG d   1      -0.917  82.245 112.258  0.00  0.00    -0.047 C 
ATOM      6  C   LIG d   1       0.087  82.395 111.093  0.00  0.00     0.091 C 
ENDROOT
BRANCH   1   7
ATOM      7  O   LIG d   1       1.314  84.070 109.792  0.00  0.00    -0.368 OA
BRANCH   7   8
ATOM      8  C   LIG d   1       2.549  84.013 110.548  0.00  0.00     0.119 C 
BRANCH   8   9
ATOM      9  C   LIG d   1       3.194  85.411 110.487  0.00  0.00     0.028 C 
ATOM     10  C   LIG d   1       3.450  86.000 111.885  0.00  0.00     0.006 C 
ENDBRANCH   8   9
BRANCH   8  11
ATOM     11  C   LIG d   1       3.562  83.071 109.889  0.00  0.00     0.028 C 
ATOM     12  C   LIG d   1       3.195  82.722 108.438  0.00  0.00     0.006 C 
ENDBRANCH   8  11
ENDBRANCH   7   8
ENDBRANCH   1   7
BRANCH   6  13
ATOM     13  N   LIG d   1      -0.218  81.480 109.961  0.00  0.00    -0.311 N 
ATOM     14  C   LIG d   1       0.568  80.464 109.608  0.00  0.00     0.210 C 
ATOM     15  C   LIG d   1       0.078  79.658 108.401  0.00  0.00     0.109 C 
ATOM     16  O   LIG d   1       1.606  80.134 110.200  0.00  0.00    -0.276 OA
ATOM     17  H   LIG d   1      -1.057  81.657 109.445  0.00  0.00     0.149 HD
ENDBRANCH   6  13
BRANCH   5  18
ATOM     18  N   LIG d   1      -0.874  80.913 112.890  0.00  0.00     0.381 N 
ATOM     19  H   LIG d   1      -0.785  80.207 112.187  0.00  0.00    -0.090 HD
ATOM     20  H   LIG d   1      -1.736  80.759 113.384  0.00  0.00    -0.090 HD
ATOM     21  H   LIG d   1      -0.107  80.860 113.523  0.00  0.00    -0.090 HD
ENDBRANCH   5  18
BRANCH   3  22
ATOM     22  C   LIG d   1      -0.796  85.637 113.671  0.00  0.00     0.382 C 
ATOM     23  O   LIG d   1       0.094  86.436 114.051  0.00  0.00    -0.241 OA
ATOM     24  O   LIG d   1      -1.962  85.775 114.086  0.00  0.00    -0.241 OA
ENDBRANCH   3  22
TORSDOF 7
ENDMDL
MODEL 3
REMARK VINA RESULT:      -6.2      3.084      4.809
REMARK  7 active torsions:
REMARK  status: ('A' for Active; 'I' for Inactive)
REMARK    1  A    between atoms: C_2  and  C_3 
REMARK    2  A    between atoms: C_3  and  O_6 
REMARK    3  A    between atoms: C_3  and  C_4 
REMARK    4  A    between atoms: C_7  and  O_6 
REMARK    5  A    between atoms: C_9  and  C_10 
REMARK    6  A    between atoms: N_15  and  C_14 
REMARK    7  A    between atoms: N_20  and  C_19 
REMARK       I    between atoms: C_22  and  N_20 
ROOT
ATOM      1  C   LIG d   1       1.775  84.017 112.062  0.00  0.00     0.161 C 
ATOM      2  C   LIG d   1       0.818  82.991 112.123  0.00  0.00     0.016 C 
ATOM      3  C   LIG d   1      -0.362  83.073 112.898  0.00  0.00     0.038 C 
ATOM      4  C   LIG d   1      -0.740  84.256 113.549  0.00  0.00     0.028 C 
ATOM      5  C   LIG d   1       0.441  85.145 113.926  0.00  0.00    -0.047 C 
ATOM      6  C   LIG d   1       1.326  85.359 112.677  0.00  0.00     0.091 C 
ENDROOT
BRANCH   1   7
ATOM      7  O   LIG d   1       2.199  84.208 110.697  0.00  0.00    -0.368 OA
BRANCH   7   8
ATOM      8  C   LIG d   1       1.234  83.857 109.675  0.00  0.00     0.119 C 
BRANCH   8   9
ATOM      9  C   LIG d   1       1.990  83.100 108.566  0.00  0.00     0.028 C 
ATOM     10  C   LIG d   1       3.440  82.773 108.962  0.00  0.00     0.006 C 
ENDBRANCH   8   9
BRANCH   8  11
ATOM     11  C   LIG d   1       0.662  85.105 108.996  0.00  0.00     0.028 C 
ATOM     12  C   LIG d   1      -0.485  85.744 109.795  0.00  0.00     0.006 C 
ENDBRANCH   8  11
ENDBRANCH   7   8
ENDBRANCH   1   7
BRANCH   6  13
ATOM     13  N   LIG d   1       2.549  86.148 112.977  0.00  0.00    -0.311 N 
ATOM     14  C   LIG d   1       2.933  87.205 112.263  0.00  0.00     0.210 C 
ATOM     15  C   LIG d   1       4.235  87.863 112.731  0.00  0.00     0.109 C 
ATOM     16  O   LIG d   1       2.302  87.680 111.307  0.00  0.00    -0.276 OA
ATOM     17  H   LIG d   1       3.103  85.851 113.756  0.00  0.00     0.149 HD
ENDBRANCH   6  13
BRANCH   5  18
ATOM     18  N   LIG d   1      -0.104  86.403 114.471  0.00  0.00     0.381 N 
ATOM     19  H   LIG d   1      -0.959  86.632 114.004  0.00  0.00    -0.090 HD
ATOM     20  H   LIG d   1       0.555  87.142 114.303  0.00  0.00    -0.090 HD
ATOM     21  H   LIG d   1      -0.267  86.308 115.449  0.00  0.00    -0.090 HD
ENDBRANCH   5  18
BRANCH   3  22
ATOM     22  C   LIG d   1      -1.157  81.949 113.060  0.00  0.00     0.382 C 
ATOM     23  O   LIG d   1      -0.857  81.086 113.920  0.00  0.00    -0.241 OA
ATOM     24  O   LIG d   1      -2.147  81.764 112.326  0.00  0.00    -0.241 OA
ENDBRANCH   3  22
TORSDOF 7
ENDMDL
MODEL 4
REMARK VINA RESULT:      -6.2      2.885      4.565
REMARK  7 active torsions:
REMARK  status: ('A' for Active; 'I' for Inactive)
REMARK    1  A    between atoms: C_2  and  C_3 
REMARK    2  A    between atoms: C_3  and  O_6 
REMARK    3  A    between atoms: C_3  and  C_4 
REMARK    4  A    between atoms: C_7  and  O_6 
REMARK    5  A    between atoms: C_9  and  C_10 
REMARK    6  A    between atoms: N_15  and  C_14 
REMARK    7  A    between atoms: N_20  and  C_19 
REMARK       I    between atoms: C_22  and  N_20 
ROOT
ATOM      1  C   LIG d   1       1.633  83.685 111.451  0.00  0.00     0.161 C 
ATOM      2  C   LIG d   1       0.627  82.711 111.567  0.00  0.00     0.016 C 
ATOM      3  C   LIG d   1      -0.456  82.814 112.470  0.00  0.00     0.038 C 
ATOM      4  C   LIG d   1      -0.690  83.978 113.217  0.00  0.00     0.028 C 
ATOM      5  C   LIG d   1       0.576  84.778 113.505  0.00  0.00    -0.047 C 
ATOM      6  C   LIG d   1       1.334  85.013 112.179  0.00  0.00     0.091 C 
ENDROOT
BRANCH   1   7
ATOM      7  O   LIG d   1       1.919  83.930 110.060  0.00  0.00    -0.368 OA
BRANCH   7   8
ATOM      8  C   LIG d   1       3.238  83.543 109.603  0.00  0.00     0.119 C 
BRANCH   8   9
ATOM      9  C   LIG d   1       3.053  82.520 108.465  0.00  0.00     0.028 C 
ATOM     10  C   LIG d   1       1.782  82.784 107.640  0.00  0.00     0.006 C 
ENDBRANCH   8   9
BRANCH   8  11
ATOM     11  C   LIG d   1       4.010  82.799 110.696  0.00  0.00     0.028 C 
ATOM     12  C   LIG d   1       4.412  81.375 110.277  0.00  0.00     0.006 C 
ENDBRANCH   8  11
ENDBRANCH   7   8
ENDBRANCH   1   7
BRANCH   6  13
ATOM     13  N   LIG d   1       2.628  85.715 112.382  0.00  0.00    -0.311 N 
ATOM     14  C   LIG d   1       2.927  86.880 111.809  0.00  0.00     0.210 C 
ATOM     15  C   LIG d   1       4.322  87.422 112.136  0.00  0.00     0.109 C 
ATOM     16  O   LIG d   1       2.157  87.532 111.088  0.00  0.00    -0.276 OA
ATOM     17  H   LIG d   1       3.299  85.272 112.978  0.00  0.00     0.149 HD
ENDBRANCH   6  13
BRANCH   5  18
ATOM     18  N   LIG d   1       0.170  86.031 114.169  0.00  0.00     0.381 N 
ATOM     19  H   LIG d   1      -0.822  86.043 114.293  0.00  0.00    -0.090 HD
ATOM     20  H   LIG d   1       0.425  86.806 113.583  0.00  0.00    -0.090 HD
ATOM     21  H   LIG d   1       0.623  86.110 115.053  0.00  0.00    -0.090 HD
ENDBRANCH   5  18
BRANCH   3  22
ATOM     22  C   LIG d   1      -1.297  81.728 112.662  0.00  0.00     0.382 C 
ATOM     23  O   LIG d   1      -1.003  80.850 113.509  0.00  0.00    -0.241 OA
ATOM     24  O   LIG d   1      -2.322  81.592 111.967  0.00  0.00    -0.241 OA
ENDBRANCH   3  22
TORSDOF 7
ENDMDL
MODEL 5
REMARK VINA RESULT:      -6.0      2.334      5.625
REMARK  7 active torsions:
REMARK  status: ('A' for Active; 'I' for Inactive)
REMARK    1  A    between atoms: C_2  and  C_3 
REMARK    2  A    between atoms: C_3  and  O_6 
REMARK    3  A    between atoms: C_3  and  C_4 
REMARK    4  A    between atoms: C_7  and  O_6 
REMARK    5  A    between atoms: C_9  and  C_10 
REMARK    6  A    between atoms: N_15  and  C_14 
REMARK    7  A    between atoms: N_20  and  C_19 
REMARK       I    between atoms: C_22  and  N_20 
ROOT
ATOM      1  C   LIG d   1       1.099  83.008 109.852  0.00  0.00     0.161 C 
ATOM      2  C   LIG d   1       1.778  84.238 109.850  0.00  0.00     0.016 C 
ATOM      3  C   LIG d   1       1.893  85.065 110.991  0.00  0.00     0.038 C 
ATOM      4  C   LIG d   1       1.462  84.645 112.258  0.00  0.00     0.028 C 
ATOM      5  C   LIG d   1       0.323  83.632 112.205  0.00  0.00    -0.047 C 
ATOM      6  C   LIG d   1       0.719  82.482 111.252  0.00  0.00     0.091 C 
ENDROOT
BRANCH   1   7
ATOM      7  O   LIG d   1       1.871  82.022 109.138  0.00  0.00    -0.368 OA
BRANCH   7   8
ATOM      8  C   LIG d   1       2.810  81.253 109.930  0.00  0.00     0.119 C 
BRANCH   8   9
ATOM      9  C   LIG d   1       4.229  81.672 109.500  0.00  0.00     0.028 C 
ATOM     10  C   LIG d   1       4.266  82.239 108.071  0.00  0.00     0.006 C 
ENDBRANCH   8   9
BRANCH   8  11
ATOM     11  C   LIG d   1       2.714  79.758 109.611  0.00  0.00     0.028 C 
ATOM     12  C   LIG d   1       1.512  79.416 108.717  0.00  0.00     0.006 C 
ENDBRANCH   8  11
ENDBRANCH   7   8
ENDBRANCH   1   7
BRANCH   6  13
ATOM     13  N   LIG d   1      -0.374  81.489 111.077  0.00  0.00    -0.311 N 
ATOM     14  C   LIG d   1      -0.537  80.431 111.870  0.00  0.00     0.210 C 
ATOM     15  C   LIG d   1      -1.714  79.523 111.503  0.00  0.00     0.109 C 
ATOM     16  O   LIG d   1       0.163  80.176 112.862  0.00  0.00    -0.276 OA
ATOM     17  H   LIG d   1      -1.007  81.636 110.316  0.00  0.00     0.149 HD
ENDBRANCH   6  13
BRANCH   5  18
ATOM     18  N   LIG d   1       0.068  83.177 113.585  0.00  0.00     0.381 N 
ATOM     19  H   LIG d   1      -0.018  83.968 114.192  0.00  0.00    -0.090 HD
ATOM     20  H   LIG d   1       0.847  82.625 113.895  0.00  0.00    -0.090 HD
ATOM     21  H   LIG d   1      -0.767  82.634 113.616  0.00  0.00    -0.090 HD
ENDBRANCH   5  18
BRANCH   3  22
ATOM     22  C   LIG d   1       2.408  86.346 110.862  0.00  0.00     0.382 C 
ATOM     23  O   LIG d   1       1.637  87.315 110.659  0.00  0.00    -0.241 OA
ATOM     24  O   LIG d   1       3.638  86.539 110.901  0.00  0.00    -0.241 OA
ENDBRANCH   3  22
TORSDOF 7
ENDMDL
MODEL 6
REMARK VINA RESULT:      -6.0      2.275      5.108
REMARK  7 active torsions:
REMARK  status: ('A' for Active; 'I' for Inactive)
REMARK    1  A    between atoms: C_2  and  C_3 
REMARK    2  A    between atoms: C_3  and  O_6 
REMARK    3  A    between atoms: C_3  and  C_4 
REMARK    4  A    between atoms: C_7  and  O_6 
REMARK    5  A    between atoms: C_9  and  C_10 
REMARK    6  A    between atoms: N_15  and  C_14 
REMARK    7  A    between atoms: N_20  and  C_19 
REMARK       I    between atoms: C_22  and  N_20 
ROOT
ATOM      1  C   LIG d   1       2.277  83.327 111.387  0.00  0.00     0.161 C 
ATOM      2  C   LIG d   1       2.813  83.215 110.094  0.00  0.00     0.016 C 
ATOM      3  C   LIG d   1       2.323  82.310 109.124  0.00  0.00     0.038 C 
ATOM      4  C   LIG d   1       1.158  81.557 109.334  0.00  0.00     0.028 C 
ATOM      5  C   LIG d   1       0.882  81.267 110.805  0.00  0.00    -0.047 C 
ATOM      6  C   LIG d   1       0.936  82.593 111.597  0.00  0.00     0.091 C 
ENDROOT
BRANCH   1   7
ATOM      7  O   LIG d   1       2.148  84.718 111.744  0.00  0.00    -0.368 OA
BRANCH   7   8
ATOM      8  C   LIG d   1       2.502  85.675 110.716  0.00  0.00     0.119 C 
BRANCH   8   9
ATOM      9  C   LIG d   1       3.504  86.669 111.333  0.00  0.00     0.028 C 
ATOM     10  C   LIG d   1       3.537  86.591 112.869  0.00  0.00     0.006 C 
ENDBRANCH   8   9
BRANCH   8  11
ATOM     11  C   LIG d   1       1.294  86.520 110.302  0.00  0.00     0.028 C 
ATOM     12  C   LIG d   1       0.342  85.776 109.352  0.00  0.00     0.006 C 
ENDBRANCH   8  11
ENDBRANCH   7   8
ENDBRANCH   1   7
BRANCH   6  13
ATOM     13  N   LIG d   1       0.759  82.389 113.058  0.00  0.00    -0.311 N 
ATOM     14  C   LIG d   1      -0.184  82.998 113.775  0.00  0.00     0.210 C 
ATOM     15  C   LIG d   1      -0.179  82.661 115.270  0.00  0.00     0.109 C 
ATOM     16  O   LIG d   1      -1.045  83.760 113.310  0.00  0.00    -0.276 OA
ATOM     17  H   LIG d   1       1.395  81.762 113.511  0.00  0.00     0.149 HD
ENDBRANCH   6  13
BRANCH   5  18
ATOM     18  N   LIG d   1      -0.430  80.597 110.888  0.00  0.00     0.381 N 
ATOM     19  H   LIG d   1      -1.162  81.270 110.780  0.00  0.00    -0.090 HD
ATOM     20  H   LIG d   1      -0.522  80.174 111.795  0.00  0.00    -0.090 HD
ATOM     21  H   LIG d   1      -0.502  79.900 110.179  0.00  0.00    -0.090 HD
ENDBRANCH   5  18
BRANCH   3  22
ATOM     22  C   LIG d   1       3.025  82.122 107.943  0.00  0.00     0.382 C 
ATOM     23  O   LIG d   1       2.571  82.576 106.865  0.00  0.00    -0.241 OA
ATOM     24  O   LIG d   1       4.084  81.467 107.935  0.00  0.00    -0.241 OA
ENDBRANCH   3  22
TORSDOF 7
ENDMDL
MODEL 7
REMARK VINA RESULT:      -6.0      2.848      5.936
REMARK  7 active torsions:
REMARK  status: ('A' for Active; 'I' for Inactive)
REMARK    1  A    between atoms: C_2  and  C_3 
REMARK    2  A    between atoms: C_3  and  O_6 
REMARK    3  A    between atoms: C_3  and  C_4 
REMARK    4  A    between atoms: C_7  and  O_6 
REMARK    5  A    between atoms: C_9  and  C_10 
REMARK    6  A    between atoms: N_15  and  C_14 
REMARK    7  A    between atoms: N_20  and  C_19 
REMARK       I    between atoms: C_22  and  N_20 
ROOT
ATOM      1  C   LIG d   1       3.124  83.903 111.523  0.00  0.00     0.161 C 
ATOM      2  C   LIG d   1       3.494  85.152 112.049  0.00  0.00     0.016 C 
ATOM      3  C   LIG d   1       2.892  86.371 111.659  0.00  0.00     0.038 C 
ATOM      4  C   LIG d   1       1.766  86.407 110.823  0.00  0.00     0.028 C 
ATOM      5  C   LIG d   1       1.677  85.216 109.875  0.00  0.00    -0.047 C 
ATOM      6  C   LIG d   1       1.823  83.912 110.692  0.00  0.00     0.091 C 
ENDROOT
BRANCH   1   7
ATOM      7  O   LIG d   1       3.033  82.933 112.585  0.00  0.00    -0.368 OA
BRANCH   7   8
ATOM      8  C   LIG d   1       1.742  82.815 113.232  0.00  0.00     0.119 C 
BRANCH   8   9
ATOM      9  C   LIG d   1       1.877  83.413 114.646  0.00  0.00     0.028 C 
ATOM     10  C   LIG d   1       1.097  84.729 114.803  0.00  0.00     0.006 C 
ENDBRANCH   8   9
BRANCH   8  11
ATOM     11  C   LIG d   1       1.359  81.348 113.447  0.00  0.00     0.028 C 
ATOM     12  C   LIG d   1       0.048  81.183 114.232  0.00  0.00     0.006 C 
ENDBRANCH   8  11
ENDBRANCH   7   8
ENDBRANCH   1   7
BRANCH   6  13
ATOM     13  N   LIG d   1       1.832  82.701 109.831  0.00  0.00    -0.311 N 
ATOM     14  C   LIG d   1       0.818  81.839 109.767  0.00  0.00     0.210 C 
ATOM     15  C   LIG d   1       1.041  80.647 108.831  0.00  0.00     0.109 C 
ATOM     16  O   LIG d   1      -0.257  81.966 110.371  0.00  0.00    -0.276 OA
ATOM     17  H   LIG d   1       2.654  82.537 109.282  0.00  0.00     0.149 HD
ENDBRANCH   6  13
BRANCH   5  18
ATOM     18  N   LIG d   1       0.390  85.309 109.160  0.00  0.00     0.381 N 
ATOM     19  H   LIG d   1       0.308  84.554 108.510  0.00  0.00    -0.090 HD
ATOM     20  H   LIG d   1       0.366  86.172 108.646  0.00  0.00    -0.090 HD
ATOM     21  H   LIG d   1      -0.364  85.280 109.811  0.00  0.00    -0.090 HD
ENDBRANCH   5  18
BRANCH   3  22
ATOM     22  C   LIG d   1       3.441  87.573 112.077  0.00  0.00     0.382 C 
ATOM     23  O   LIG d   1       4.687  87.710 112.126  0.00  0.00    -0.241 OA
ATOM     24  O   LIG d   1       2.706  88.508 112.448  0.00  0.00    -0.241 OA
ENDBRANCH   3  22
TORSDOF 7
ENDMDL
MODEL 8
REMARK VINA RESULT:      -5.9      2.880      5.186
REMARK  7 active torsions:
REMARK  status: ('A' for Active; 'I' for Inactive)
REMARK    1  A    between atoms: C_2  and  C_3 
REMARK    2  A    between atoms: C_3  and  O_6 
REMARK    3  A    between atoms: C_3  and  C_4 
REMARK    4  A    between atoms: C_7  and  O_6 
REMARK    5  A    between atoms: C_9  and  C_10 
REMARK    6  A    between atoms: N_15  and  C_14 
REMARK    7  A    between atoms: N_20  and  C_19 
REMARK       I    between atoms: C_22  and  N_20 
ROOT
ATOM      1  C   LIG d   1       1.703  83.897 112.759  0.00  0.00     0.161 C 
ATOM      2  C   LIG d   1       2.557  83.091 111.989  0.00  0.00     0.016 C 
ATOM      3  C   LIG d   1       2.125  81.931 111.305  0.00  0.00     0.038 C 
ATOM      4  C   LIG d   1       0.769  81.582 111.221  0.00  0.00     0.028 C 
ATOM      5  C   LIG d   1      -0.059  82.082 112.400  0.00  0.00    -0.047 C 
ATOM      6  C   LIG d   1       0.199  83.595 112.589  0.00  0.00     0.091 C 
ENDROOT
BRANCH   1   7
ATOM      7  O   LIG d   1       1.967  85.288 112.488  0.00  0.00    -0.368 OA
BRANCH   7   8
ATOM      8  C   LIG d   1       2.417  85.601 111.147  0.00  0.00     0.119 C 
BRANCH   8   9
ATOM      9  C   LIG d   1       3.617  86.560 111.273  0.00  0.00     0.028 C 
ATOM     10  C   LIG d   1       3.448  87.562 112.428  0.00  0.00     0.006 C 
ENDBRANCH   8   9
BRANCH   8  11
ATOM     11  C   LIG d   1       1.353  86.383 110.371  0.00  0.00     0.028 C 
ATOM     12  C   LIG d   1       0.547  85.496 109.408  0.00  0.00     0.006 C 
ENDBRANCH   8  11
ENDBRANCH   7   8
ENDBRANCH   1   7
BRANCH   6  13
ATOM     13  N   LIG d   1      -0.508  84.147 113.774  0.00  0.00    -0.311 N 
ATOM     14  C   LIG d   1      -1.142  85.318 113.769  0.00  0.00     0.210 C 
ATOM     15  C   LIG d   1      -1.788  85.709 115.102  0.00  0.00     0.109 C 
ATOM     16  O   LIG d   1      -1.257  86.056 112.779  0.00  0.00    -0.276 OA
ATOM     17  H   LIG d   1      -0.491  83.599 114.612  0.00  0.00     0.149 HD
ENDBRANCH   6  13
BRANCH   5  18
ATOM     18  N   LIG d   1      -1.473  81.769 112.117  0.00  0.00     0.381 N 
ATOM     19  H   LIG d   1      -1.838  82.422 111.454  0.00  0.00    -0.090 HD
ATOM     20  H   LIG d   1      -2.001  81.853 112.967  0.00  0.00    -0.090 HD
ATOM     21  H   LIG d   1      -1.551  80.842 111.759  0.00  0.00    -0.090 HD
ENDBRANCH   5  18
BRANCH   3  22
ATOM     22  C   LIG d   1       3.060  81.085 110.728  0.00  0.00     0.382 C 
ATOM     23  O   LIG d   1       4.284  81.273 110.931  0.00  0.00    -0.241 OA
ATOM     24  O   LIG d   1       2.697  80.164 109.973  0.00  0.00    -0.241 OA
ENDBRANCH   3  22
TORSDOF 7
ENDMDL
MODEL 9
REMARK VINA RESULT:      -5.7      2.639      4.514
REMARK  7 active torsions:
REMARK  status: ('A' for Active; 'I' for Inactive)
REMARK    1  A    between atoms: C_2  and  C_3 
REMARK    2  A    between atoms: C_3  and  O_6 
REMARK    3  A    between atoms: C_3  and  C_4 
REMARK    4  A    between atoms: C_7  and  O_6 
REMARK    5  A    between atoms: C_9  and  C_10 
REMARK    6  A    between atoms: N_15  and  C_14 
REMARK    7  A    between atoms: N_20  and  C_19 
REMARK       I    between atoms: C_22  and  N_20 
ROOT
ATOM      1  C   LIG d   1       0.743  83.030 110.073  0.00  0.00     0.161 C 
ATOM      2  C   LIG d   1       0.486  81.740 109.580  0.00  0.00     0.016 C 
ATOM      3  C   LIG d   1       1.481  80.744 109.453  0.00  0.00     0.038 C 
ATOM      4  C   LIG d   1       2.778  80.922 109.956  0.00  0.00     0.028 C 
ATOM      5  C   LIG d   1       3.214  82.383 110.003  0.00  0.00    -0.047 C 
ATOM      6  C   LIG d   1       2.128  83.207 110.731  0.00  0.00     0.091 C 
ENDROOT
BRANCH   1   7
ATOM      7  O   LIG d   1      -0.300  83.419 110.989  0.00  0.00    -0.368 OA
BRANCH   7   8
ATOM      8  C   LIG d   1      -0.122  83.011 112.368  0.00  0.00     0.119 C 
BRANCH   8   9
ATOM      9  C   LIG d   1      -1.210  81.967 112.685  0.00  0.00     0.028 C 
ATOM     10  C   LIG d   1      -0.621  80.576 112.976  0.00  0.00     0.006 C 
ENDBRANCH   8   9
BRANCH   8  11
ATOM     11  C   LIG d   1      -0.383  84.173 113.331  0.00  0.00     0.028 C 
ATOM     12  C   LIG d   1      -0.588  85.513 112.607  0.00  0.00     0.006 C 
ENDBRANCH   8  11
ENDBRANCH   7   8
ENDBRANCH   1   7
BRANCH   6  13
ATOM     13  N   LIG d   1       2.435  84.661 110.747  0.00  0.00    -0.311 N 
ATOM     14  C   LIG d   1       3.054  85.269 111.758  0.00  0.00     0.210 C 
ATOM     15  C   LIG d   1       3.255  86.777 111.580  0.00  0.00     0.109 C 
ATOM     16  O   LIG d   1       3.484  84.696 112.770  0.00  0.00    -0.276 OA
ATOM     17  H   LIG d   1       2.149  85.197 109.950  0.00  0.00     0.149 HD
ENDBRANCH   6  13
BRANCH   5  18
ATOM     18  N   LIG d   1       4.526  82.435 110.674  0.00  0.00     0.381 N 
ATOM     19  H   LIG d   1       4.540  81.793 111.441  0.00  0.00    -0.090 HD
ATOM     20  H   LIG d   1       4.670  83.362 111.035  0.00  0.00    -0.090 HD
ATOM     21  H   LIG d   1       5.249  82.207 110.028  0.00  0.00    -0.090 HD
ENDBRANCH   5  18
BRANCH   3  22
ATOM     22  C   LIG d   1       1.192  79.566 108.780  0.00  0.00     0.382 C 
ATOM     23  O   LIG d   1       0.142  79.474 108.100  0.00  0.00    -0.241 OA
ATOM     24  O   LIG d   1       1.946  78.580 108.881  0.00  0.00    -0.241 OA
ENDBRANCH   3  22
TORSDOF 7
ENDMDL
