MODEL 1
REMARK VINA RESULT:      -6.8      0.000      0.000
REMARK  7 active torsions:
REMARK  status: ('A' for Active; 'I' for Inactive)
REMARK    1  A    between atoms: C_2  and  C_3 
REMARK    2  A    between atoms: C_3  and  O_6 
REMARK    3  A    between atoms: C_3  and  C_4 
REMARK    4  A    between atoms: C_7  and  O_6 
REMARK    5  A    between atoms: C_9  and  C_10 
REMARK    6  A    between atoms: N_15  and  C_14 
REMARK    7  A    between atoms: N_20  and  C_19 
REMARK       I    between atoms: C_22  and  N_20 
ROOT
ATOM      1  C   LIG d   1       0.453  82.608 111.674  0.00  0.00     0.161 C 
ATOM      2  C   LIG d   1      -0.750  82.266 112.313  0.00  0.00     0.016 C 
ATOM      3  C   LIG d   1      -1.420  81.039 112.106  0.00  0.00     0.038 C 
ATOM      4  C   LIG d   1      -0.849  80.000 111.356  0.00  0.00     0.028 C 
ATOM      5  C   LIG d   1       0.121  80.488 110.286  0.00  0.00    -0.047 C 
ATOM      6  C   LIG d   1       1.147  81.443 110.937  0.00  0.00     0.091 C 
ENDROOT
BRANCH   1   7
ATOM      7  O   LIG d   1       1.357  83.211 112.621  0.00  0.00    -0.368 OA
BRANCH   7   8
ATOM      8  C   LIG d   1       1.523  84.646 112.519  0.00  0.00     0.119 C 
BRANCH   8   9
ATOM      9  C   LIG d   1       0.791  85.107 111.244  0.00  0.00     0.028 C 
ATOM     10  C   LIG d   1      -0.364  86.077 111.549  0.00  0.00     0.006 C 
ENDBRANCH   8   9
BRANCH   8  11
ATOM     11  C   LIG d   1       2.992  85.022 112.301  0.00  0.00     0.028 C 
ATOM     12  C   LIG d   1       3.240  85.693 110.940  0.00  0.00     0.006 C 
ENDBRANCH   8  11
ENDBRANCH   7   8
ENDBRANCH   1   7
BRANCH   6  13
ATOM     13  N   LIG d   1       2.083  82.033 109.944  0.00  0.00    -0.311 N 
ATOM     14  C   LIG d   1       3.406  82.041 110.098  0.00  0.00     0.210 C 
ATOM     15  C   LIG d   1       4.185  82.717 108.966  0.00  0.00     0.109 C 
ATOM     16  O   LIG d   1       4.010  81.524 111.050  0.00  0.00    -0.276 OA
ATOM     17  H   LIG d   1       1.679  82.446 109.127  0.00  0.00     0.149 HD
ENDBRANCH   6  13
BRANCH   5  18
ATOM     18  N   LIG d   1       0.745  79.300 109.673  0.00  0.00     0.381 N 
ATOM     19  H   LIG d   1       1.294  78.816 110.355  0.00  0.00    -0.090 HD
ATOM     20  H   LIG d   1       1.354  79.598 108.932  0.00  0.00    -0.090 HD
ATOM     21  H   LIG d   1       0.041  78.694 109.312  0.00  0.00    -0.090 HD
ENDBRANCH   5  18
BRANCH   3  22
ATOM     22  C   LIG d   1      -2.694  80.856 112.622  0.00  0.00     0.382 C 
ATOM     23  O   LIG d   1      -2.971  79.807 113.253  0.00  0.00    -0.241 OA
ATOM     24  O   LIG d   1      -3.583  81.706 112.426  0.00  0.00    -0.241 OA
ENDBRANCH   3  22
TORSDOF 7
ENDMDL
MODEL 2
REMARK VINA RESULT:      -6.7      2.386      3.829
REMARK  7 active torsions:
REMARK  status: ('A' for Active; 'I' for Inactive)
REMARK    1  A    between atoms: C_2  and  C_3 
REMARK    2  A    between atoms: C_3  and  O_6 
REMARK    3  A    between atoms: C_3  and  C_4 
REMARK    4  A    between atoms: C_7  and  O_6 
REMARK    5  A    between atoms: C_9  and  C_10 
REMARK    6  A    between atoms: N_15  and  C_14 
REMARK    7  A    between atoms: N_20  and  C_19 
REMARK       I    between atoms: C_22  and  N_20 
ROOT
ATOM      1  C   LIG d   1       0.223  84.336 110.470  0.00  0.00     0.161 C 
ATOM      2  C   LIG d   1      -0.018  85.300 111.464  0.00  0.00     0.016 C 
ATOM      3  C   LIG d   1      -0.384  84.976 112.790  0.00  0.00     0.038 C 
ATOM      4  C   LIG d   1      -0.387  83.653 113.256  0.00  0.00     0.028 C 
ATOM      5  C   LIG d   1      -0.643  82.625 112.159  0.00  0.00    -0.047 C 
ATOM      6  C   LIG d   1       0.333  82.887 110.989  0.00  0.00     0.091 C 
ENDROOT
BRANCH   1   7
ATOM      7  O   LIG d   1       1.401  84.691 109.721  0.00  0.00    -0.368 OA
BRANCH   7   8
ATOM      8  C   LIG d   1       2.671  84.396 110.352  0.00  0.00     0.119 C 
BRANCH   8   9
ATOM      9  C   LIG d   1       3.395  85.736 110.584  0.00  0.00     0.028 C 
ATOM     10  C   LIG d   1       3.576  86.055 112.078  0.00  0.00     0.006 C 
ENDBRANCH   8   9
BRANCH   8  11
ATOM     11  C   LIG d   1       3.586  83.597 109.419  0.00  0.00     0.028 C 
ATOM     12  C   LIG d   1       4.379  82.504 110.153  0.00  0.00     0.006 C 
ENDBRANCH   8  11
ENDBRANCH   7   8
ENDBRANCH   1   7
BRANCH   6  13
ATOM     13  N   LIG d   1       0.094  81.978 109.838  0.00  0.00    -0.311 N 
ATOM     14  C   LIG d   1       0.782  80.856 109.634  0.00  0.00     0.210 C 
ATOM     15  C   LIG d   1       0.390  80.076 108.376  0.00  0.00     0.109 C 
ATOM     16  O   LIG d   1       1.658  80.416 110.394  0.00  0.00    -0.276 OA
ATOM     17  H   LIG d   1      -0.621  82.242 109.188  0.00  0.00     0.149 HD
ENDBRANCH   6  13
BRANCH   5  18
ATOM     18  N   LIG d   1      -0.482  81.286 112.757  0.00  0.00     0.381 N 
ATOM     19  H   LIG d   1      -0.800  80.588 112.115  0.00  0.00    -0.090 HD
ATOM     20  H   LIG d   1      -1.045  81.231 113.587  0.00  0.00    -0.090 HD
ATOM     21  H   LIG d   1       0.475  81.127 112.985  0.00  0.00    -0.090 HD
ENDBRANCH   5  18
BRANCH   3  22
ATOM     22  C   LIG d   1      -0.791  85.980 113.655  0.00  0.00     0.382 C 
ATOM     23  O   LIG d   1       0.054  86.769 114.143  0.00  0.00    -0.241 OA
ATOM     24  O   LIG d   1      -1.987  86.080 113.989  0.00  0.00    -0.241 OA
ENDBRANCH   3  22
TORSDOF 7
ENDMDL
MODEL 3
REMARK VINA RESULT:      -6.4      1.407      2.002
REMARK  7 active torsions:
REMARK  status: ('A' for Active; 'I' for Inactive)
REMARK    1  A    between atoms: C_2  and  C_3 
REMARK    2  A    between atoms: C_3  and  O_6 
REMARK    3  A    between atoms: C_3  and  C_4 
REMARK    4  A    between atoms: C_7  and  O_6 
REMARK    5  A    between atoms: C_9  and  C_10 
REMARK    6  A    between atoms: N_15  and  C_14 
REMARK    7  A    between atoms: N_20  and  C_19 
REMARK       I    between atoms: C_22  and  N_20 
ROOT
ATOM      1  C   LIG d   1       0.461  82.537 111.785  0.00  0.00     0.161 C 
ATOM      2  C   LIG d   1      -0.754  82.187 112.396  0.00  0.00     0.016 C 
ATOM      3  C   LIG d   1      -1.435  80.976 112.137  0.00  0.00     0.038 C 
ATOM      4  C   LIG d   1      -0.866  79.958 111.357  0.00  0.00     0.028 C 
ATOM      5  C   LIG d   1       0.125  80.473 110.318  0.00  0.00    -0.047 C 
ATOM      6  C   LIG d   1       1.152  81.392 111.017  0.00  0.00     0.091 C 
ENDROOT
BRANCH   1   7
ATOM      7  O   LIG d   1       1.358  83.095 112.766  0.00  0.00    -0.368 OA
BRANCH   7   8
ATOM      8  C   LIG d   1       0.767  83.453 114.040  0.00  0.00     0.119 C 
BRANCH   8   9
ATOM      9  C   LIG d   1       0.837  84.987 114.168  0.00  0.00     0.028 C 
ATOM     10  C   LIG d   1      -0.459  85.674 113.703  0.00  0.00     0.006 C 
ENDBRANCH   8   9
BRANCH   8  11
ATOM     11  C   LIG d   1       1.594  82.910 115.209  0.00  0.00     0.028 C 
ATOM     12  C   LIG d   1       1.412  83.729 116.497  0.00  0.00     0.006 C 
ENDBRANCH   8  11
ENDBRANCH   7   8
ENDBRANCH   1   7
BRANCH   6  13
ATOM     13  N   LIG d   1       2.108  82.005 110.058  0.00  0.00    -0.311 N 
ATOM     14  C   LIG d   1       3.431  81.943 110.201  0.00  0.00     0.210 C 
ATOM     15  C   LIG d   1       4.233  82.660 109.110  0.00  0.00     0.109 C 
ATOM     16  O   LIG d   1       4.017  81.336 111.110  0.00  0.00    -0.276 OA
ATOM     17  H   LIG d   1       1.719  82.491 109.274  0.00  0.00     0.149 HD
ENDBRANCH   6  13
BRANCH   5  18
ATOM     18  N   LIG d   1       0.743  79.300 109.672  0.00  0.00     0.381 N 
ATOM     19  H   LIG d   1       1.541  79.005 110.198  0.00  0.00    -0.090 HD
ATOM     20  H   LIG d   1       1.050  79.560 108.751  0.00  0.00    -0.090 HD
ATOM     21  H   LIG d   1       0.083  78.556 109.612  0.00  0.00    -0.090 HD
ENDBRANCH   5  18
BRANCH   3  22
ATOM     22  C   LIG d   1      -2.718  80.790 112.628  0.00  0.00     0.382 C 
ATOM     23  O   LIG d   1      -3.598  81.662 112.430  0.00  0.00    -0.241 OA
ATOM     24  O   LIG d   1      -2.996  79.781 113.304  0.00  0.00    -0.241 OA
ENDBRANCH   3  22
TORSDOF 7
ENDMDL
MODEL 4
REMARK VINA RESULT:      -6.3      2.907      4.827
REMARK  7 active torsions:
REMARK  status: ('A' for Active; 'I' for Inactive)
REMARK    1  A    between atoms: C_2  and  C_3 
REMARK    2  A    between atoms: C_3  and  O_6 
REMARK    3  A    between atoms: C_3  and  C_4 
REMARK    4  A    between atoms: C_7  and  O_6 
REMARK    5  A    between atoms: C_9  and  C_10 
REMARK    6  A    between atoms: N_15  and  C_14 
REMARK    7  A    between atoms: N_20  and  C_19 
REMARK       I    between atoms: C_22  and  N_20 
ROOT
ATOM      1  C   LIG d   1       2.047  84.338 112.079  0.00  0.00     0.161 C 
ATOM      2  C   LIG d   1       1.157  83.255 111.992  0.00  0.00     0.016 C 
ATOM      3  C   LIG d   1      -0.131  83.257 112.576  0.00  0.00     0.038 C 
ATOM      4  C   LIG d   1      -0.677  84.409 113.161  0.00  0.00     0.028 C 
ATOM      5  C   LIG d   1       0.374  85.364 113.716  0.00  0.00    -0.047 C 
ATOM      6  C   LIG d   1       1.426  85.644 112.618  0.00  0.00     0.091 C 
ENDROOT
BRANCH   1   7
ATOM      7  O   LIG d   1       2.663  84.568 110.797  0.00  0.00    -0.368 OA
BRANCH   7   8
ATOM      8  C   LIG d   1       2.532  83.501 109.826  0.00  0.00     0.119 C 
BRANCH   8   9
ATOM      9  C   LIG d   1       3.953  83.105 109.379  0.00  0.00     0.028 C 
ATOM     10  C   LIG d   1       3.944  82.109 108.207  0.00  0.00     0.006 C 
ENDBRANCH   8   9
BRANCH   8  11
ATOM     11  C   LIG d   1       1.828  83.986 108.555  0.00  0.00     0.028 C 
ATOM     12  C   LIG d   1       0.948  85.222 108.797  0.00  0.00     0.006 C 
ENDBRANCH   8  11
ENDBRANCH   7   8
ENDBRANCH   1   7
BRANCH   6  13
ATOM     13  N   LIG d   1       2.537  86.503 113.104  0.00  0.00    -0.311 N 
ATOM     14  C   LIG d   1       2.852  87.675 112.554  0.00  0.00     0.210 C 
ATOM     15  C   LIG d   1       4.045  88.391 113.195  0.00  0.00     0.109 C 
ATOM     16  O   LIG d   1       2.237  88.204 111.616  0.00  0.00    -0.276 OA
ATOM     17  H   LIG d   1       3.070  86.165 113.881  0.00  0.00     0.149 HD
ENDBRANCH   6  13
BRANCH   5  18
ATOM     18  N   LIG d   1      -0.324  86.581 114.171  0.00  0.00     0.381 N 
ATOM     19  H   LIG d   1       0.333  87.326 114.287  0.00  0.00    -0.090 HD
ATOM     20  H   LIG d   1      -0.752  86.397 115.061  0.00  0.00    -0.090 HD
ATOM     21  H   LIG d   1      -1.020  86.843 113.507  0.00  0.00    -0.090 HD
ENDBRANCH   5  18
BRANCH   3  22
ATOM     22  C   LIG d   1      -0.871  82.085 112.613  0.00  0.00     0.382 C 
ATOM     23  O   LIG d   1      -2.005  82.043 112.078  0.00  0.00    -0.241 OA
ATOM     24  O   LIG d   1      -0.438  81.083 113.212  0.00  0.00    -0.241 OA
ENDBRANCH   3  22
TORSDOF 7
ENDMDL
MODEL 5
REMARK VINA RESULT:      -6.2      1.776      4.938
REMARK  7 active torsions:
REMARK  status: ('A' for Active; 'I' for Inactive)
REMARK    1  A    between atoms: C_2  and  C_3 
REMARK    2  A    between atoms: C_3  and  O_6 
REMARK    3  A    between atoms: C_3  and  C_4 
REMARK    4  A    between atoms: C_7  and  O_6 
REMARK    5  A    between atoms: C_9  and  C_10 
REMARK    6  A    between atoms: N_15  and  C_14 
REMARK    7  A    between atoms: N_20  and  C_19 
REMARK       I    between atoms: C_22  and  N_20 
ROOT
ATOM      1  C   LIG d   1       1.400  81.164 111.743  0.00  0.00     0.161 C 
ATOM      2  C   LIG d   1       2.522  81.746 111.129  0.00  0.00     0.016 C 
ATOM      3  C   LIG d   1       2.719  81.768 109.729  0.00  0.00     0.038 C 
ATOM      4  C   LIG d   1       1.728  81.339 108.834  0.00  0.00     0.028 C 
ATOM      5  C   LIG d   1       0.797  80.283 109.421  0.00  0.00    -0.047 C 
ATOM      6  C   LIG d   1       0.256  80.790 110.777  0.00  0.00     0.091 C 
ENDROOT
BRANCH   1   7
ATOM      7  O   LIG d   1       0.912  82.027 112.788  0.00  0.00    -0.368 OA
BRANCH   7   8
ATOM      8  C   LIG d   1       1.171  83.442 112.619  0.00  0.00     0.119 C 
BRANCH   8   9
ATOM      9  C   LIG d   1       1.526  84.016 114.005  0.00  0.00     0.028 C 
ATOM     10  C   LIG d   1       0.484  85.032 114.504  0.00  0.00     0.006 C 
ENDBRANCH   8   9
BRANCH   8  11
ATOM     11  C   LIG d   1      -0.090  84.192 112.180  0.00  0.00     0.028 C 
ATOM     12  C   LIG d   1      -0.142  84.435 110.664  0.00  0.00     0.006 C 
ENDBRANCH   8  11
ENDBRANCH   7   8
ENDBRANCH   1   7
BRANCH   6  13
ATOM     13  N   LIG d   1      -0.597  79.781 111.459  0.00  0.00    -0.311 N 
ATOM     14  C   LIG d   1      -1.786  80.064 111.989  0.00  0.00     0.210 C 
ATOM     15  C   LIG d   1      -2.491  78.883 112.663  0.00  0.00     0.109 C 
ATOM     16  O   LIG d   1      -2.338  81.174 111.936  0.00  0.00    -0.276 OA
ATOM     17  H   LIG d   1      -0.239  78.848 111.520  0.00  0.00     0.149 HD
ENDBRANCH   6  13
BRANCH   5  18
ATOM     18  N   LIG d   1      -0.267  80.028 108.432  0.00  0.00     0.381 N 
ATOM     19  H   LIG d   1      -0.547  80.889 108.006  0.00  0.00    -0.090 HD
ATOM     20  H   LIG d   1      -1.063  79.637 108.905  0.00  0.00    -0.090 HD
ATOM     21  H   LIG d   1       0.059  79.395 107.735  0.00  0.00    -0.090 HD
ENDBRANCH   5  18
BRANCH   3  22
ATOM     22  C   LIG d   1       3.936  82.187 109.213  0.00  0.00     0.382 C 
ATOM     23  O   LIG d   1       4.134  82.161 107.974  0.00  0.00    -0.241 OA
ATOM     24  O   LIG d   1       4.854  82.547 109.974  0.00  0.00    -0.241 OA
ENDBRANCH   3  22
TORSDOF 7
ENDMDL
MODEL 6
REMARK VINA RESULT:      -5.7      2.535      4.412
REMARK  7 active torsions:
REMARK  status: ('A' for Active; 'I' for Inactive)
REMARK    1  A    between atoms: C_2  and  C_3 
REMARK    2  A    between atoms: C_3  and  O_6 
REMARK    3  A    between atoms: C_3  and  C_4 
REMARK    4  A    between atoms: C_7  and  O_6 
REMARK    5  A    between atoms: C_9  and  C_10 
REMARK    6  A    between atoms: N_15  and  C_14 
REMARK    7  A    between atoms: N_20  and  C_19 
REMARK       I    between atoms: C_22  and  N_20 
ROOT
ATOM      1  C   LIG d   1       2.452  83.307 111.132  0.00  0.00     0.161 C 
ATOM      2  C   LIG d   1       2.817  82.309 110.214  0.00  0.00     0.016 C 
ATOM      3  C   LIG d   1       2.222  81.027 110.181  0.00  0.00     0.038 C 
ATOM      4  C   LIG d   1       1.110  80.705 110.973  0.00  0.00     0.028 C 
ATOM      5  C   LIG d   1       1.034  81.509 112.266  0.00  0.00    -0.047 C 
ATOM      6  C   LIG d   1       1.165  83.012 111.930  0.00  0.00     0.091 C 
ENDROOT
BRANCH   1   7
ATOM      7  O   LIG d   1       2.344  84.576 110.458  0.00  0.00    -0.368 OA
BRANCH   7   8
ATOM      8  C   LIG d   1       2.470  85.754 111.292  0.00  0.00     0.119 C 
BRANCH   8   9
ATOM      9  C   LIG d   1       1.474  86.804 110.764  0.00  0.00     0.028 C 
ATOM     10  C   LIG d   1       0.196  86.166 110.193  0.00  0.00     0.006 C 
ENDBRANCH   8   9
BRANCH   8  11
ATOM     11  C   LIG d   1       3.853  86.397 111.144  0.00  0.00     0.028 C 
ATOM     12  C   LIG d   1       4.122  87.482 112.198  0.00  0.00     0.006 C 
ENDBRANCH   8  11
ENDBRANCH   7   8
ENDBRANCH   1   7
BRANCH   6  13
ATOM     13  N   LIG d   1       1.185  83.865 113.147  0.00  0.00    -0.311 N 
ATOM     14  C   LIG d   1       0.114  84.508 113.610  0.00  0.00     0.210 C 
ATOM     15  C   LIG d   1       0.358  85.349 114.867  0.00  0.00     0.109 C 
ATOM     16  O   LIG d   1      -1.021  84.437 113.117  0.00  0.00    -0.276 OA
ATOM     17  H   LIG d   1       2.059  83.954 113.628  0.00  0.00     0.149 HD
ENDBRANCH   6  13
BRANCH   5  18
ATOM     18  N   LIG d   1      -0.242  81.173 112.926  0.00  0.00     0.381 N 
ATOM     19  H   LIG d   1      -0.126  80.356 113.491  0.00  0.00    -0.090 HD
ATOM     20  H   LIG d   1      -0.930  80.974 112.221  0.00  0.00    -0.090 HD
ATOM     21  H   LIG d   1      -0.545  81.936 113.490  0.00  0.00    -0.090 HD
ENDBRANCH   5  18
BRANCH   3  22
ATOM     22  C   LIG d   1       2.767  80.037 109.377  0.00  0.00     0.382 C 
ATOM     23  O   LIG d   1       2.014  79.283 108.714  0.00  0.00    -0.241 OA
ATOM     24  O   LIG d   1       3.999  79.860 109.340  0.00  0.00    -0.241 OA
ENDBRANCH   3  22
TORSDOF 7
ENDMDL
MODEL 7
REMARK VINA RESULT:      -5.7      2.194      4.320
REMARK  7 active torsions:
REMARK  status: ('A' for Active; 'I' for Inactive)
REMARK    1  A    between atoms: C_2  and  C_3 
REMARK    2  A    between atoms: C_3  and  O_6 
REMARK    3  A    between atoms: C_3  and  C_4 
REMARK    4  A    between atoms: C_7  and  O_6 
REMARK    5  A    between atoms: C_9  and  C_10 
REMARK    6  A    between atoms: N_15  and  C_14 
REMARK    7  A    between atoms: N_20  and  C_19 
REMARK       I    between atoms: C_22  and  N_20 
ROOT
ATOM      1  C   LIG d   1       1.517  83.012 111.504  0.00  0.00     0.161 C 
ATOM      2  C   LIG d   1       0.451  82.123 111.722  0.00  0.00     0.016 C 
ATOM      3  C   LIG d   1      -0.769  82.504 112.328  0.00  0.00     0.038 C 
ATOM      4  C   LIG d   1      -1.064  83.844 112.622  0.00  0.00     0.028 C 
ATOM      5  C   LIG d   1       0.175  84.694 112.883  0.00  0.00    -0.047 C 
ATOM      6  C   LIG d   1       1.171  84.500 111.717  0.00  0.00     0.091 C 
ENDROOT
BRANCH   1   7
ATOM      7  O   LIG d   1       2.062  82.807 110.186  0.00  0.00    -0.368 OA
BRANCH   7   8
ATOM      8  C   LIG d   1       2.541  81.471 109.894  0.00  0.00     0.119 C 
BRANCH   8   9
ATOM      9  C   LIG d   1       4.057  81.569 109.638  0.00  0.00     0.028 C 
ATOM     10  C   LIG d   1       4.516  83.012 109.373  0.00  0.00     0.006 C 
ENDBRANCH   8   9
BRANCH   8  11
ATOM     11  C   LIG d   1       1.943  80.937 108.589  0.00  0.00     0.028 C 
ATOM     12  C   LIG d   1       0.717  80.039 108.820  0.00  0.00     0.006 C 
ENDBRANCH   8  11
ENDBRANCH   7   8
ENDBRANCH   1   7
BRANCH   6  13
ATOM     13  N   LIG d   1       2.447  85.231 111.934  0.00  0.00    -0.311 N 
ATOM     14  C   LIG d   1       2.816  86.291 111.216  0.00  0.00     0.210 C 
ATOM     15  C   LIG d   1       4.178  86.883 111.591  0.00  0.00     0.109 C 
ATOM     16  O   LIG d   1       2.130  86.816 110.326  0.00  0.00    -0.276 OA
ATOM     17  H   LIG d   1       3.050  84.892 112.657  0.00  0.00     0.149 HD
ENDBRANCH   6  13
BRANCH   5  18
ATOM     18  N   LIG d   1      -0.268  86.092 113.039  0.00  0.00     0.381 N 
ATOM     19  H   LIG d   1      -0.355  86.313 114.011  0.00  0.00    -0.090 HD
ATOM     20  H   LIG d   1      -1.171  86.196 112.610  0.00  0.00    -0.090 HD
ATOM     21  H   LIG d   1       0.386  86.707 112.608  0.00  0.00    -0.090 HD
ENDBRANCH   5  18
BRANCH   3  22
ATOM     22  C   LIG d   1      -1.693  81.533 112.682  0.00  0.00     0.382 C 
ATOM     23  O   LIG d   1      -1.305  80.377 112.978  0.00  0.00    -0.241 OA
ATOM     24  O   LIG d   1      -2.912  81.786 112.667  0.00  0.00    -0.241 OA
ENDBRANCH   3  22
TORSDOF 7
ENDMDL
MODEL 8
REMARK VINA RESULT:      -5.6      1.509      2.112
REMARK  7 active torsions:
REMARK  status: ('A' for Active; 'I' for Inactive)
REMARK    1  A    between atoms: C_2  and  C_3 
REMARK    2  A    between atoms: C_3  and  O_6 
REMARK    3  A    between atoms: C_3  and  C_4 
REMARK    4  A    between atoms: C_7  and  O_6 
REMARK    5  A    between atoms: C_9  and  C_10 
REMARK    6  A    between atoms: N_15  and  C_14 
REMARK    7  A    between atoms: N_20  and  C_19 
REMARK       I    between atoms: C_22  and  N_20 
ROOT
ATOM      1  C   LIG d   1      -0.085  83.244 112.221  0.00  0.00     0.161 C 
ATOM      2  C   LIG d   1      -1.129  82.379 112.590  0.00  0.00     0.016 C 
ATOM      3  C   LIG d   1      -1.212  81.033 112.165  0.00  0.00     0.038 C 
ATOM      4  C   LIG d   1      -0.170  80.413 111.460  0.00  0.00     0.028 C 
ATOM      5  C   LIG d   1       0.667  81.385 110.636  0.00  0.00    -0.047 C 
ATOM      6  C   LIG d   1       1.117  82.553 111.544  0.00  0.00     0.091 C 
ENDROOT
BRANCH   1   7
ATOM      7  O   LIG d   1       0.353  83.999 113.368  0.00  0.00    -0.368 OA
BRANCH   7   8
ATOM      8  C   LIG d   1       0.546  85.420 113.159  0.00  0.00     0.119 C 
BRANCH   8   9
ATOM      9  C   LIG d   1       0.740  86.069 114.542  0.00  0.00     0.028 C 
ATOM     10  C   LIG d   1      -0.597  86.396 115.229  0.00  0.00     0.006 C 
ENDBRANCH   8   9
BRANCH   8  11
ATOM     11  C   LIG d   1      -0.710  86.074 112.576  0.00  0.00     0.028 C 
ATOM     12  C   LIG d   1      -0.484  86.649 111.168  0.00  0.00     0.006 C 
ENDBRANCH   8  11
ENDBRANCH   7   8
ENDBRANCH   1   7
BRANCH   6  13
ATOM     13  N   LIG d   1       1.871  83.593 110.796  0.00  0.00    -0.311 N 
ATOM     14  C   LIG d   1       3.138  83.912 111.059  0.00  0.00     0.210 C 
ATOM     15  C   LIG d   1       3.720  85.026 110.184  0.00  0.00     0.109 C 
ATOM     16  O   LIG d   1       3.844  83.355 111.913  0.00  0.00    -0.276 OA
ATOM     17  H   LIG d   1       1.384  84.073 110.066  0.00  0.00     0.149 HD
ENDBRANCH   6  13
BRANCH   5  18
ATOM     18  N   LIG d   1       1.797  80.628 110.065  0.00  0.00     0.381 N 
ATOM     19  H   LIG d   1       2.661  81.057 110.330  0.00  0.00    -0.090 HD
ATOM     20  H   LIG d   1       1.728  80.649 109.063  0.00  0.00    -0.090 HD
ATOM     21  H   LIG d   1       1.773  79.685 110.387  0.00  0.00    -0.090 HD
ENDBRANCH   5  18
BRANCH   3  22
ATOM     22  C   LIG d   1      -2.366  80.305 112.411  0.00  0.00     0.382 C 
ATOM     23  O   LIG d   1      -2.366  79.060 112.258  0.00  0.00    -0.241 OA
ATOM     24  O   LIG d   1      -3.419  80.883 112.742  0.00  0.00    -0.241 OA
ENDBRANCH   3  22
TORSDOF 7
ENDMDL
MODEL 9
REMARK VINA RESULT:      -5.4      2.791      4.414
REMARK  7 active torsions:
REMARK  status: ('A' for Active; 'I' for Inactive)
REMARK    1  A    between atoms: C_2  and  C_3 
REMARK    2  A    between atoms: C_3  and  O_6 
REMARK    3  A    between atoms: C_3  and  C_4 
REMARK    4  A    between atoms: C_7  and  O_6 
REMARK    5  A    between atoms: C_9  and  C_10 
REMARK    6  A    between atoms: N_15  and  C_14 
REMARK    7  A    between atoms: N_20  and  C_19 
REMARK       I    between atoms: C_22  and  N_20 
ROOT
ATOM      1  C   LIG d   1       2.065  83.120 112.072  0.00  0.00     0.161 C 
ATOM      2  C   LIG d   1       2.475  82.565 110.848  0.00  0.00     0.016 C 
ATOM      3  C   LIG d   1       2.000  81.327 110.357  0.00  0.00     0.038 C 
ATOM      4  C   LIG d   1       0.963  80.627 110.991  0.00  0.00     0.028 C 
ATOM      5  C   LIG d   1       0.877  80.897 112.490  0.00  0.00    -0.047 C 
ATOM      6  C   LIG d   1       0.852  82.425 112.723  0.00  0.00     0.091 C 
ENDROOT
BRANCH   1   7
ATOM      7  O   LIG d   1       1.807  84.529 111.908  0.00  0.00    -0.368 OA
BRANCH   7   8
ATOM      8  C   LIG d   1       1.490  84.966 110.564  0.00  0.00     0.119 C 
BRANCH   8   9
ATOM      9  C   LIG d   1       2.154  86.341 110.355  0.00  0.00     0.028 C 
ATOM     10  C   LIG d   1       3.454  86.493 111.163  0.00  0.00     0.006 C 
ENDBRANCH   8   9
BRANCH   8  11
ATOM     11  C   LIG d   1      -0.013  85.213 110.398  0.00  0.00     0.028 C 
ATOM     12  C   LIG d   1      -0.471  86.540 111.023  0.00  0.00     0.006 C 
ENDBRANCH   8  11
ENDBRANCH   7   8
ENDBRANCH   1   7
BRANCH   6  13
ATOM     13  N   LIG d   1       0.853  82.778 114.167  0.00  0.00    -0.311 N 
ATOM     14  C   LIG d   1       1.571  82.126 115.080  0.00  0.00     0.210 C 
ATOM     15  C   LIG d   1       1.412  82.639 116.515  0.00  0.00     0.109 C 
ATOM     16  O   LIG d   1       2.349  81.192 114.834  0.00  0.00    -0.276 OA
ATOM     17  H   LIG d   1       0.273  83.543 114.450  0.00  0.00     0.149 HD
ENDBRANCH   6  13
BRANCH   5  18
ATOM     18  N   LIG d   1      -0.329  80.215 112.997  0.00  0.00     0.381 N 
ATOM     19  H   LIG d   1      -0.196  79.224 112.965  0.00  0.00    -0.090 HD
ATOM     20  H   LIG d   1      -1.107  80.448 112.406  0.00  0.00    -0.090 HD
ATOM     21  H   LIG d   1      -0.515  80.502 113.933  0.00  0.00    -0.090 HD
ENDBRANCH   5  18
BRANCH   3  22
ATOM     22  C   LIG d   1       2.593  80.757 109.241  0.00  0.00     0.382 C 
ATOM     23  O   LIG d   1       2.431  79.537 108.999  0.00  0.00    -0.241 OA
ATOM     24  O   LIG d   1       3.324  81.438 108.497  0.00  0.00    -0.241 OA
ENDBRANCH   3  22
TORSDOF 7
ENDMDL
