MODEL       71
USER    Run = 71
USER    DPF = dock.dpf
USER  
USER    Estimated Free Energy of Binding    =   -7.00 kcal/mol  [=(1)+(2)+(3)-(4)]
USER    Estimated Inhibition Constant, Ki   =    7.38 uM (micromolar)  [Temperature = 298.15 K]
USER    
USER    (1) Final Intermolecular Energy     =   -9.69 kcal/mol
USER        vdW + Hbond + desolv Energy     =   -9.73 kcal/mol
USER        Electrostatic Energy            =   +0.04 kcal/mol
USER    (2) Final Total Internal Energy     =   -0.77 kcal/mol
USER    (3) Torsional Free Energy           =   +2.68 kcal/mol
USER    (4) Unbound System's Energy  [=(2)] =   -0.77 kcal/mol
USER    
USER    
USER    NEWDPF move osel.pdbqt
USER    NEWDPF about 0.037600 0.422000 0.092100
USER    NEWDPF tran0 -6.128825 79.276172 113.713984
USER    NEWDPF quaternion0 0.145803 -0.802420 0.522106 0.249537
USER    NEWDPF axisangle0 0.150566 -0.828634 0.539162 151.099794
USER    NEWDPF quat0 0.150566 -0.828634 0.539162 151.099794 # deprecated
USER    NEWDPF dihe0 9.47 -85.70 -142.73 22.96 17.92 138.44 50.85 
USER  
REMARK  7 active torsions:
REMARK  status: ('A' for Active; 'I' for Inactive)
REMARK    1  A    between atoms: C_2  and  C_3 
REMARK    2  A    between atoms: C_3  and  O_6 
REMARK    3  A    between atoms: C_3  and  C_4 
REMARK    4  A    between atoms: C_7  and  O_6 
REMARK    5  A    between atoms: C_9  and  C_10 
REMARK    6  A    between atoms: N_15  and  C_14 
REMARK    7  A    between atoms: N_20  and  C_19 
REMARK       I    between atoms: C_22  and  N_20 
USER                              x       y       z     vdW  Elec       q    Type
USER                           _______ _______ _______ _____ _____    ______ ____
ROOT
ATOM      1  C   LIG d          -7.444  75.953 116.220 -0.43 +0.06    +0.161 C 
ATOM      2  C   LIG d          -7.590  74.557 116.175 -0.64 +0.00    +0.016 C 
ATOM      3  C   LIG d          -8.843  73.904 116.230 -0.76 -0.00    +0.038 C 
ATOM      4  C   LIG d         -10.052  74.614 116.180 -0.62 +0.00    +0.028 C 
ATOM      5  C   LIG d          -9.946  76.031 116.733 -0.59 -0.02    -0.047 C 
ATOM      6  C   LIG d          -8.756  76.747 116.054 -0.48 +0.05    +0.091 C 
ENDROOT
BRANCH   1   7
ATOM      7  O   LIG d          -6.476  76.375 115.239 -0.24 -0.19    -0.368 OA
BRANCH   7   8
ATOM      8  C   LIG d          -5.084  76.243 115.619 -0.38 +0.04    +0.119 C 
BRANCH   8   9
ATOM      9  C   LIG d          -4.387  77.579 115.298 -0.39 +0.01    +0.028 C 
ATOM     10  C   LIG d          -4.625  78.641 116.385 -0.35 +0.00    +0.006 C 
ENDBRANCH   8   9
BRANCH   8  11
ATOM     11  C   LIG d          -4.368  75.196 114.760 -0.55 +0.01    +0.028 C 
ATOM     12  C   LIG d          -2.937  74.907 115.241 -0.54 +0.00    +0.006 C 
ENDBRANCH   8  11
ENDBRANCH   7   8
ENDBRANCH   1   7
BRANCH   6  13
ATOM     13  N   LIG d          -8.529  78.111 116.599 -0.19 -0.23    -0.311 N 
ATOM     14  C   LIG d          -8.247  78.352 117.878 -0.32 +0.14    +0.210 C 
ATOM     15  C   LIG d          -8.070  79.831 118.234 -0.33 +0.07    +0.109 C 
ATOM     16  O   LIG d          -8.096  77.478 118.745 -0.28 -0.22    -0.276 OA
ATOM     17  H   LIG d          -8.602  78.877 115.957 +0.12 +0.15    +0.149 HD
ENDBRANCH   6  13
BRANCH   5  18
ATOM     18  N   LIG d         -11.238  76.702 116.494 -0.20 +0.14    +0.381 N 
ATOM     19  H   LIG d         -11.112  77.694 116.507 -0.32 -0.04    -0.090 HD
ATOM     20  H   LIG d         -11.873  76.455 117.232 +0.04 -0.04    -0.090 HD
ATOM     21  H   LIG d         -11.611  76.418 115.615 -0.33 -0.01    -0.090 HD
ENDBRANCH   5  18
BRANCH   3  22
ATOM     22  C   LIG d          -8.895  72.526 116.375 -0.55 -0.12    +0.382 C 
ATOM     23  O   LIG d          -7.851  71.843 116.243 -0.70 +0.10    -0.241 OA
ATOM     24  O   LIG d          -9.979  71.954 116.593 -0.73 +0.12    -0.241 OA
ENDBRANCH   3  22
TORSDOF 7
TER
ENDMDL

