MODEL 1
REMARK  7 active torsions:
REMARK  status: ('A' for Active; 'I' for Inactive)
REMARK    1  A    between atoms: C_2  and  C_3 
REMARK    2  A    between atoms: C_3  and  O_6 
REMARK    3  A    between atoms: C_3  and  C_4 
REMARK    4  A    between atoms: C_7  and  O_6 
REMARK    5  A    between atoms: C_9  and  C_10 
REMARK    6  A    between atoms: N_15  and  C_14 
REMARK    7  A    between atoms: N_20  and  C_19 
REMARK       I    between atoms: C_22  and  N_20 
ROOT
ATOM      1  C   LIG d   1      -7.274  76.364 115.904  0.00  0.00     0.161 C 
ATOM      2  C   LIG d   1      -8.047  75.309 115.391  0.00  0.00     0.016 C 
ATOM      3  C   LIG d   1      -9.452  75.234 115.532  0.00  0.00     0.038 C 
ATOM      4  C   LIG d   1     -10.201  76.291 116.069  0.00  0.00     0.028 C 
ATOM      5  C   LIG d   1      -9.416  77.151 117.054  0.00  0.00    -0.047 C 
ATOM      6  C   LIG d   1      -8.086  77.581 116.395  0.00  0.00     0.091 C 
ENDROOT
BRANCH   1   7
ATOM      7  O   LIG d   1      -6.298  76.775 114.926  0.00  0.00    -0.368 OA
BRANCH   7   8
ATOM      8  C   LIG d   1      -4.909  76.604 115.302  0.00  0.00     0.119 C 
BRANCH   8   9
ATOM      9  C   LIG d   1      -4.082  77.619 114.490  0.00  0.00     0.028 C 
ATOM     10  C   LIG d   1      -3.874  78.943 115.245  0.00  0.00     0.006 C 
ENDBRANCH   8   9
BRANCH   8  11
ATOM     11  C   LIG d   1      -4.384  75.227 114.884  0.00  0.00     0.028 C 
ATOM     12  C   LIG d   1      -2.906  75.017 115.248  0.00  0.00     0.006 C 
ENDBRANCH   8  11
ENDBRANCH   7   8
ENDBRANCH   1   7
BRANCH   6  13
ATOM     13  N   LIG d   1      -7.219  78.355 117.321  0.00  0.00    -0.311 N 
ATOM     14  C   LIG d   1      -7.375  79.657 117.555  0.00  0.00     0.210 C 
ATOM     15  C   LIG d   1      -6.360  80.265 118.529  0.00  0.00     0.109 C 
ATOM     16  O   LIG d   1      -8.277  80.359 117.074  0.00  0.00    -0.276 OA
ATOM     17  H   LIG d   1      -6.481  77.857 117.779  0.00  0.00     0.149 HD
ENDBRANCH   6  13
BRANCH   5  18
ATOM     18  N   LIG d   1     -10.271  78.292 117.430  0.00  0.00     0.381 N 
ATOM     19  H   LIG d   1     -11.143  78.237 116.943  0.00  0.00    -0.090 HD
ATOM     20  H   LIG d   1      -9.813  79.145 117.160  0.00  0.00    -0.090 HD
ATOM     21  H   LIG d   1     -10.431  78.289 118.413  0.00  0.00    -0.090 HD
ENDBRANCH   5  18
BRANCH   3  22
ATOM     22  C   LIG d   1     -10.118  74.073 115.170  0.00  0.00     0.382 C 
ATOM     23  O   LIG d   1     -10.817  74.050 114.128  0.00  0.00    -0.241 OA
ATOM     24  O   LIG d   1     -10.064  73.061 115.895  0.00  0.00    -0.241 OA
ENDBRANCH   3  22
TORSDOF 7
ENDMDL
