MODEL 1
REMARK VINA RESULT:      -4.5      0.000      0.000
REMARK  7 active torsions:
REMARK  status: ('A' for Active; 'I' for Inactive)
REMARK    1  A    between atoms: C_2  and  C_3 
REMARK    2  A    between atoms: C_3  and  O_6 
REMARK    3  A    between atoms: C_3  and  C_4 
REMARK    4  A    between atoms: C_7  and  O_6 
REMARK    5  A    between atoms: C_9  and  C_10 
REMARK    6  A    between atoms: N_15  and  C_14 
REMARK    7  A    between atoms: N_20  and  C_19 
REMARK       I    between atoms: C_22  and  N_20 
ROOT
ATOM      1  C   LIG d   1      -5.108  94.022 120.398  0.00  0.00     0.161 C 
ATOM      2  C   LIG d   1      -3.884  93.597 119.855  0.00  0.00     0.016 C 
ATOM      3  C   LIG d   1      -3.785  92.719 118.751  0.00  0.00     0.038 C 
ATOM      4  C   LIG d   1      -4.912  92.324 118.015  0.00  0.00     0.028 C 
ATOM      5  C   LIG d   1      -6.199  92.323 118.832  0.00  0.00    -0.047 C 
ATOM      6  C   LIG d   1      -6.346  93.690 119.539  0.00  0.00     0.091 C 
ENDROOT
BRANCH   1   7
ATOM      7  O   LIG d   1      -5.054  95.436 120.674  0.00  0.00    -0.368 OA
BRANCH   7   8
ATOM      8  C   LIG d   1      -5.313  96.315 119.552  0.00  0.00     0.119 C 
BRANCH   8   9
ATOM      9  C   LIG d   1      -4.064  97.197 119.359  0.00  0.00     0.028 C 
ATOM     10  C   LIG d   1      -4.225  98.197 118.201  0.00  0.00     0.006 C 
ENDBRANCH   8   9
BRANCH   8  11
ATOM     11  C   LIG d   1      -6.454  97.290 119.859  0.00  0.00     0.028 C 
ATOM     12  C   LIG d   1      -6.916  97.224 121.323  0.00  0.00     0.006 C 
ENDBRANCH   8  11
ENDBRANCH   7   8
ENDBRANCH   1   7
BRANCH   6  13
ATOM     13  N   LIG d   1      -7.536  93.745 120.427  0.00  0.00    -0.311 N 
ATOM     14  C   LIG d   1      -8.720  94.217 120.038  0.00  0.00     0.210 C 
ATOM     15  C   LIG d   1      -9.808  94.201 121.116  0.00  0.00     0.109 C 
ATOM     16  O   LIG d   1      -8.980  94.617 118.894  0.00  0.00    -0.276 OA
ATOM     17  H   LIG d   1      -7.422  93.410 121.364  0.00  0.00     0.149 HD
ENDBRANCH   6  13
BRANCH   5  18
ATOM     18  N   LIG d   1      -7.312  92.027 117.910  0.00  0.00     0.381 N 
ATOM     19  H   LIG d   1      -8.109  92.581 118.152  0.00  0.00    -0.090 HD
ATOM     20  H   LIG d   1      -7.562  91.058 118.004  0.00  0.00    -0.090 HD
ATOM     21  H   LIG d   1      -7.037  92.217 116.972  0.00  0.00    -0.090 HD
ENDBRANCH   5  18
BRANCH   3  22
ATOM     22  C   LIG d   1      -2.550  92.195 118.398  0.00  0.00     0.382 C 
ATOM     23  O   LIG d   1      -2.345  90.961 118.486  0.00  0.00    -0.241 OA
ATOM     24  O   LIG d   1      -1.626  92.947 118.035  0.00  0.00    -0.241 OA
ENDBRANCH   3  22
TORSDOF 7
ENDMDL
MODEL 2
REMARK VINA RESULT:      -4.5      1.328      1.874
REMARK  7 active torsions:
REMARK  status: ('A' for Active; 'I' for Inactive)
REMARK    1  A    between atoms: C_2  and  C_3 
REMARK    2  A    between atoms: C_3  and  O_6 
REMARK    3  A    between atoms: C_3  and  C_4 
REMARK    4  A    between atoms: C_7  and  O_6 
REMARK    5  A    between atoms: C_9  and  C_10 
REMARK    6  A    between atoms: N_15  and  C_14 
REMARK    7  A    between atoms: N_20  and  C_19 
REMARK       I    between atoms: C_22  and  N_20 
ROOT
ATOM      1  C   LIG d   1      -4.990  92.815 120.306  0.00  0.00     0.161 C 
ATOM      2  C   LIG d   1      -3.954  92.053 119.741  0.00  0.00     0.016 C 
ATOM      3  C   LIG d   1      -4.028  91.471 118.455  0.00  0.00     0.038 C 
ATOM      4  C   LIG d   1      -5.091  91.741 117.579  0.00  0.00     0.028 C 
ATOM      5  C   LIG d   1      -6.391  92.093 118.294  0.00  0.00    -0.047 C 
ATOM      6  C   LIG d   1      -6.110  93.213 119.322  0.00  0.00     0.091 C 
ENDROOT
BRANCH   1   7
ATOM      7  O   LIG d   1      -4.443  93.987 120.943  0.00  0.00    -0.368 OA
BRANCH   7   8
ATOM      8  C   LIG d   1      -4.085  95.082 120.064  0.00  0.00     0.119 C 
BRANCH   8   9
ATOM      9  C   LIG d   1      -2.594  95.393 120.296  0.00  0.00     0.028 C 
ATOM     10  C   LIG d   1      -1.711  94.942 119.120  0.00  0.00     0.006 C 
ENDBRANCH   8   9
BRANCH   8  11
ATOM     11  C   LIG d   1      -4.830  96.366 120.441  0.00  0.00     0.028 C 
ATOM     12  C   LIG d   1      -5.259  97.187 119.215  0.00  0.00     0.006 C 
ENDBRANCH   8  11
ENDBRANCH   7   8
ENDBRANCH   1   7
BRANCH   6  13
ATOM     13  N   LIG d   1      -7.312  93.559 120.125  0.00  0.00    -0.311 N 
ATOM     14  C   LIG d   1      -8.179  94.509 119.776  0.00  0.00     0.210 C 
ATOM     15  C   LIG d   1      -9.338  94.718 120.756  0.00  0.00     0.109 C 
ATOM     16  O   LIG d   1      -8.115  95.175 118.732  0.00  0.00    -0.276 OA
ATOM     17  H   LIG d   1      -7.458  93.046 120.972  0.00  0.00     0.149 HD
ENDBRANCH   6  13
BRANCH   5  18
ATOM     18  N   LIG d   1      -7.373  92.485 117.266  0.00  0.00     0.381 N 
ATOM     19  H   LIG d   1      -7.539  91.717 116.646  0.00  0.00    -0.090 HD
ATOM     20  H   LIG d   1      -6.997  93.247 116.730  0.00  0.00    -0.090 HD
ATOM     21  H   LIG d   1      -8.227  92.762 117.698  0.00  0.00    -0.090 HD
ENDBRANCH   5  18
BRANCH   3  22
ATOM     22  C   LIG d   1      -3.050  90.577 118.048  0.00  0.00     0.382 C 
ATOM     23  O   LIG d   1      -1.948  91.002 117.627  0.00  0.00    -0.241 OA
ATOM     24  O   LIG d   1      -3.273  89.351 118.054  0.00  0.00    -0.241 OA
ENDBRANCH   3  22
TORSDOF 7
ENDMDL
MODEL 3
REMARK VINA RESULT:      -4.4     19.443     21.477
REMARK  7 active torsions:
REMARK  status: ('A' for Active; 'I' for Inactive)
REMARK    1  A    between atoms: C_2  and  C_3 
REMARK    2  A    between atoms: C_3  and  O_6 
REMARK    3  A    between atoms: C_3  and  C_4 
REMARK    4  A    between atoms: C_7  and  O_6 
REMARK    5  A    between atoms: C_9  and  C_10 
REMARK    6  A    between atoms: N_15  and  C_14 
REMARK    7  A    between atoms: N_20  and  C_19 
REMARK       I    between atoms: C_22  and  N_20 
ROOT
ATOM      1  C   LIG d   1     -17.517  77.509 120.131  0.00  0.00     0.161 C 
ATOM      2  C   LIG d   1     -16.507  76.703 120.681  0.00  0.00     0.016 C 
ATOM      3  C   LIG d   1     -15.895  76.965 121.929  0.00  0.00     0.038 C 
ATOM      4  C   LIG d   1     -16.362  77.973 122.786  0.00  0.00     0.028 C 
ATOM      5  C   LIG d   1     -17.042  79.124 122.053  0.00  0.00    -0.047 C 
ATOM      6  C   LIG d   1     -18.116  78.548 121.102  0.00  0.00     0.091 C 
ENDROOT
BRANCH   1   7
ATOM      7  O   LIG d   1     -18.559  76.679 119.581  0.00  0.00    -0.368 OA
BRANCH   7   8
ATOM      8  C   LIG d   1     -19.404  75.997 120.540  0.00  0.00     0.119 C 
BRANCH   8   9
ATOM      9  C   LIG d   1     -19.209  74.482 120.334  0.00  0.00     0.028 C 
ATOM     10  C   LIG d   1     -18.502  73.814 121.525  0.00  0.00     0.006 C 
ENDBRANCH   8   9
BRANCH   8  11
ATOM     11  C   LIG d   1     -20.887  76.257 120.260  0.00  0.00     0.028 C 
ATOM     12  C   LIG d   1     -21.650  74.983 119.862  0.00  0.00     0.006 C 
ENDBRANCH   8  11
ENDBRANCH   7   8
ENDBRANCH   1   7
BRANCH   6  13
ATOM     13  N   LIG d   1     -18.772  79.602 120.284  0.00  0.00    -0.311 N 
ATOM     14  C   LIG d   1     -19.930  80.171 120.614  0.00  0.00     0.210 C 
ATOM     15  C   LIG d   1     -20.441  81.220 119.622  0.00  0.00     0.109 C 
ATOM     16  O   LIG d   1     -20.567  79.929 121.651  0.00  0.00    -0.276 OA
ATOM     17  H   LIG d   1     -18.308  79.881 119.442  0.00  0.00     0.149 HD
ENDBRANCH   6  13
BRANCH   5  18
ATOM     18  N   LIG d   1     -17.600  80.033 123.073  0.00  0.00     0.381 N 
ATOM     19  H   LIG d   1     -17.803  80.921 122.660  0.00  0.00    -0.090 HD
ATOM     20  H   LIG d   1     -16.916  80.169 123.796  0.00  0.00    -0.090 HD
ATOM     21  H   LIG d   1     -18.431  79.642 123.460  0.00  0.00    -0.090 HD
ENDBRANCH   5  18
BRANCH   3  22
ATOM     22  C   LIG d   1     -14.778  76.239 122.312  0.00  0.00     0.382 C 
ATOM     23  O   LIG d   1     -13.629  76.668 122.044  0.00  0.00    -0.241 OA
ATOM     24  O   LIG d   1     -14.904  75.139 122.883  0.00  0.00    -0.241 OA
ENDBRANCH   3  22
TORSDOF 7
ENDMDL
MODEL 4
REMARK VINA RESULT:      -4.4     12.659     14.872
REMARK  7 active torsions:
REMARK  status: ('A' for Active; 'I' for Inactive)
REMARK    1  A    between atoms: C_2  and  C_3 
REMARK    2  A    between atoms: C_3  and  O_6 
REMARK    3  A    between atoms: C_3  and  C_4 
REMARK    4  A    between atoms: C_7  and  O_6 
REMARK    5  A    between atoms: C_9  and  C_10 
REMARK    6  A    between atoms: N_15  and  C_14 
REMARK    7  A    between atoms: N_20  and  C_19 
REMARK       I    between atoms: C_22  and  N_20 
ROOT
ATOM      1  C   LIG d   1     -10.118  80.618 120.292  0.00  0.00     0.161 C 
ATOM      2  C   LIG d   1      -9.487  79.624 119.527  0.00  0.00     0.016 C 
ATOM      3  C   LIG d   1      -8.314  79.851 118.771  0.00  0.00     0.038 C 
ATOM      4  C   LIG d   1      -7.602  81.057 118.851  0.00  0.00     0.028 C 
ATOM      5  C   LIG d   1      -8.476  82.253 119.214  0.00  0.00    -0.047 C 
ATOM      6  C   LIG d   1      -9.295  81.910 120.480  0.00  0.00     0.091 C 
ENDROOT
BRANCH   1   7
ATOM      7  O   LIG d   1     -10.502  80.079 121.572  0.00  0.00    -0.368 OA
BRANCH   7   8
ATOM      8  C   LIG d   1      -9.745  78.933 122.035  0.00  0.00     0.119 C 
BRANCH   8   9
ATOM      9  C   LIG d   1     -10.722  78.002 122.778  0.00  0.00     0.028 C 
ATOM     10  C   LIG d   1     -10.187  76.565 122.898  0.00  0.00     0.006 C 
ENDBRANCH   8   9
BRANCH   8  11
ATOM     11  C   LIG d   1      -8.701  79.340 123.078  0.00  0.00     0.028 C 
ATOM     12  C   LIG d   1      -7.265  78.995 122.651  0.00  0.00     0.006 C 
ENDBRANCH   8  11
ENDBRANCH   7   8
ENDBRANCH   1   7
BRANCH   6  13
ATOM     13  N   LIG d   1     -10.239  82.994 120.856  0.00  0.00    -0.311 N 
ATOM     14  C   LIG d   1     -10.215  83.610 122.037  0.00  0.00     0.210 C 
ATOM     15  C   LIG d   1     -11.289  84.685 122.227  0.00  0.00     0.109 C 
ATOM     16  O   LIG d   1      -9.386  83.390 122.933  0.00  0.00    -0.276 OA
ATOM     17  H   LIG d   1     -10.925  83.258 120.176  0.00  0.00     0.149 HD
ENDBRANCH   6  13
BRANCH   5  18
ATOM     18  N   LIG d   1      -7.587  83.415 119.398  0.00  0.00     0.381 N 
ATOM     19  H   LIG d   1      -8.134  84.246 119.510  0.00  0.00    -0.090 HD
ATOM     20  H   LIG d   1      -7.016  83.521 118.578  0.00  0.00    -0.090 HD
ATOM     21  H   LIG d   1      -7.009  83.279 120.199  0.00  0.00    -0.090 HD
ENDBRANCH   5  18
BRANCH   3  22
ATOM     22  C   LIG d   1      -7.863  78.877 117.892  0.00  0.00     0.382 C 
ATOM     23  O   LIG d   1      -6.853  79.094 117.180  0.00  0.00    -0.241 OA
ATOM     24  O   LIG d   1      -8.480  77.802 117.771  0.00  0.00    -0.241 OA
ENDBRANCH   3  22
TORSDOF 7
ENDMDL
MODEL 5
REMARK VINA RESULT:      -4.3     33.878     34.731
REMARK  7 active torsions:
REMARK  status: ('A' for Active; 'I' for Inactive)
REMARK    1  A    between atoms: C_2  and  C_3 
REMARK    2  A    between atoms: C_3  and  O_6 
REMARK    3  A    between atoms: C_3  and  C_4 
REMARK    4  A    between atoms: C_7  and  O_6 
REMARK    5  A    between atoms: C_9  and  C_10 
REMARK    6  A    between atoms: N_15  and  C_14 
REMARK    7  A    between atoms: N_20  and  C_19 
REMARK       I    between atoms: C_22  and  N_20 
ROOT
ATOM      1  C   LIG d   1      -0.506  59.814 121.708  0.00  0.00     0.161 C 
ATOM      2  C   LIG d   1      -0.835  59.854 120.342  0.00  0.00     0.016 C 
ATOM      3  C   LIG d   1      -2.151  60.050 119.865  0.00  0.00     0.038 C 
ATOM      4  C   LIG d   1      -3.212  60.371 120.724  0.00  0.00     0.028 C 
ATOM      5  C   LIG d   1      -3.024  59.842 122.142  0.00  0.00    -0.047 C 
ATOM      6  C   LIG d   1      -1.632  60.273 122.658  0.00  0.00     0.091 C 
ENDROOT
BRANCH   1   7
ATOM      7  O   LIG d   1       0.692  60.578 121.944  0.00  0.00    -0.368 OA
BRANCH   7   8
ATOM      8  C   LIG d   1       1.897  59.814 122.196  0.00  0.00     0.119 C 
BRANCH   8   9
ATOM      9  C   LIG d   1       2.692  60.550 123.292  0.00  0.00     0.028 C 
ATOM     10  C   LIG d   1       1.840  61.594 124.033  0.00  0.00     0.006 C 
ENDBRANCH   8   9
BRANCH   8  11
ATOM     11  C   LIG d   1       2.815  59.800 120.970  0.00  0.00     0.028 C 
ATOM     12  C   LIG d   1       3.992  60.780 121.096  0.00  0.00     0.006 C 
ENDBRANCH   8  11
ENDBRANCH   7   8
ENDBRANCH   1   7
BRANCH   6  13
ATOM     13  N   LIG d   1      -1.333  59.726 124.007  0.00  0.00    -0.311 N 
ATOM     14  C   LIG d   1      -1.554  60.397 125.136  0.00  0.00     0.210 C 
ATOM     15  C   LIG d   1      -1.156  59.657 126.417  0.00  0.00     0.109 C 
ATOM     16  O   LIG d   1      -2.072  61.522 125.200  0.00  0.00    -0.276 OA
ATOM     17  H   LIG d   1      -0.939  58.806 124.049  0.00  0.00     0.149 HD
ENDBRANCH   6  13
BRANCH   5  18
ATOM     18  N   LIG d   1      -4.132  60.366 122.964  0.00  0.00     0.381 N 
ATOM     19  H   LIG d   1      -4.797  59.639 123.137  0.00  0.00    -0.090 HD
ATOM     20  H   LIG d   1      -4.593  61.101 122.457  0.00  0.00    -0.090 HD
ATOM     21  H   LIG d   1      -3.780  60.717 123.827  0.00  0.00    -0.090 HD
ENDBRANCH   5  18
BRANCH   3  22
ATOM     22  C   LIG d   1      -2.424  59.884 118.515  0.00  0.00     0.382 C 
ATOM     23  O   LIG d   1      -1.497  59.603 117.718  0.00  0.00    -0.241 OA
ATOM     24  O   LIG d   1      -3.578  60.057 118.078  0.00  0.00    -0.241 OA
ENDBRANCH   3  22
TORSDOF 7
ENDMDL
MODEL 6
REMARK VINA RESULT:      -4.3     12.507     14.690
REMARK  7 active torsions:
REMARK  status: ('A' for Active; 'I' for Inactive)
REMARK    1  A    between atoms: C_2  and  C_3 
REMARK    2  A    between atoms: C_3  and  O_6 
REMARK    3  A    between atoms: C_3  and  C_4 
REMARK    4  A    between atoms: C_7  and  O_6 
REMARK    5  A    between atoms: C_9  and  C_10 
REMARK    6  A    between atoms: N_15  and  C_14 
REMARK    7  A    between atoms: N_20  and  C_19 
REMARK       I    between atoms: C_22  and  N_20 
ROOT
ATOM      1  C   LIG d   1     -10.014  80.667 120.704  0.00  0.00     0.161 C 
ATOM      2  C   LIG d   1      -9.411  79.702 119.880  0.00  0.00     0.016 C 
ATOM      3  C   LIG d   1      -8.443  80.013 118.897  0.00  0.00     0.038 C 
ATOM      4  C   LIG d   1      -7.898  81.300 118.775  0.00  0.00     0.028 C 
ATOM      5  C   LIG d   1      -8.840  82.404 119.243  0.00  0.00    -0.047 C 
ATOM      6  C   LIG d   1      -9.351  82.060 120.661  0.00  0.00     0.091 C 
ENDROOT
BRANCH   1   7
ATOM      7  O   LIG d   1     -10.074  80.182 122.060  0.00  0.00    -0.368 OA
BRANCH   7   8
ATOM      8  C   LIG d   1     -11.344  79.627 122.483  0.00  0.00     0.119 C 
BRANCH   8   9
ATOM      9  C   LIG d   1     -12.028  80.672 123.386  0.00  0.00     0.028 C 
ATOM     10  C   LIG d   1     -13.548  80.458 123.484  0.00  0.00     0.006 C 
ENDBRANCH   8   9
BRANCH   8  11
ATOM     11  C   LIG d   1     -11.145  78.394 123.369  0.00  0.00     0.028 C 
ATOM     12  C   LIG d   1     -10.806  77.130 122.563  0.00  0.00     0.006 C 
ENDBRANCH   8  11
ENDBRANCH   7   8
ENDBRANCH   1   7
BRANCH   6  13
ATOM     13  N   LIG d   1     -10.344  83.046 121.161  0.00  0.00    -0.311 N 
ATOM     14  C   LIG d   1     -10.026  84.075 121.944  0.00  0.00     0.210 C 
ATOM     15  C   LIG d   1     -11.205  84.959 122.362  0.00  0.00     0.109 C 
ATOM     16  O   LIG d   1      -8.874  84.357 122.307  0.00  0.00    -0.276 OA
ATOM     17  H   LIG d   1     -11.299  82.910 120.889  0.00  0.00     0.149 HD
ENDBRANCH   6  13
BRANCH   5  18
ATOM     18  N   LIG d   1      -8.097  83.677 119.190  0.00  0.00     0.381 N 
ATOM     19  H   LIG d   1      -8.383  84.268 119.944  0.00  0.00    -0.090 HD
ATOM     20  H   LIG d   1      -8.311  84.143 118.326  0.00  0.00    -0.090 HD
ATOM     21  H   LIG d   1      -7.118  83.503 119.248  0.00  0.00    -0.090 HD
ENDBRANCH   5  18
BRANCH   3  22
ATOM     22  C   LIG d   1      -8.040  79.039 117.997  0.00  0.00     0.382 C 
ATOM     23  O   LIG d   1      -7.005  79.211 117.309  0.00  0.00    -0.241 OA
ATOM     24  O   LIG d   1      -8.721  78.009 117.833  0.00  0.00    -0.241 OA
ENDBRANCH   3  22
TORSDOF 7
ENDMDL
MODEL 7
REMARK VINA RESULT:      -4.3     31.508     33.921
REMARK  7 active torsions:
REMARK  status: ('A' for Active; 'I' for Inactive)
REMARK    1  A    between atoms: C_2  and  C_3 
REMARK    2  A    between atoms: C_3  and  O_6 
REMARK    3  A    between atoms: C_3  and  C_4 
REMARK    4  A    between atoms: C_7  and  O_6 
REMARK    5  A    between atoms: C_9  and  C_10 
REMARK    6  A    between atoms: N_15  and  C_14 
REMARK    7  A    between atoms: N_20  and  C_19 
REMARK       I    between atoms: C_22  and  N_20 
ROOT
ATOM      1  C   LIG d   1      -2.769  60.919 123.623  0.00  0.00     0.161 C 
ATOM      2  C   LIG d   1      -3.601  59.787 123.645  0.00  0.00     0.016 C 
ATOM      3  C   LIG d   1      -4.803  59.718 124.386  0.00  0.00     0.038 C 
ATOM      4  C   LIG d   1      -5.335  60.839 125.041  0.00  0.00     0.028 C 
ATOM      5  C   LIG d   1      -4.277  61.853 125.463  0.00  0.00    -0.047 C 
ATOM      6  C   LIG d   1      -3.389  62.189 124.242  0.00  0.00     0.091 C 
ENDROOT
BRANCH   1   7
ATOM      7  O   LIG d   1      -2.334  61.180 122.274  0.00  0.00    -0.368 OA
BRANCH   7   8
ATOM      8  C   LIG d   1      -1.910  60.026 121.507  0.00  0.00     0.119 C 
BRANCH   8   9
ATOM      9  C   LIG d   1      -0.372  59.963 121.578  0.00  0.00     0.028 C 
ATOM     10  C   LIG d   1       0.243  59.245 120.365  0.00  0.00     0.006 C 
ENDBRANCH   8   9
BRANCH   8  11
ATOM     11  C   LIG d   1      -2.240  60.194 120.021  0.00  0.00     0.028 C 
ATOM     12  C   LIG d   1      -3.688  59.801 119.684  0.00  0.00     0.006 C 
ENDBRANCH   8  11
ENDBRANCH   7   8
ENDBRANCH   1   7
BRANCH   6  13
ATOM     13  N   LIG d   1      -2.276  63.110 124.588  0.00  0.00    -0.311 N 
ATOM     14  C   LIG d   1      -2.381  64.437 124.542  0.00  0.00     0.210 C 
ATOM     15  C   LIG d   1      -1.108  65.201 124.918  0.00  0.00     0.109 C 
ATOM     16  O   LIG d   1      -3.419  65.055 124.257  0.00  0.00    -0.276 OA
ATOM     17  H   LIG d   1      -1.407  62.694 124.860  0.00  0.00     0.149 HD
ENDBRANCH   6  13
BRANCH   5  18
ATOM     18  N   LIG d   1      -4.979  63.030 126.008  0.00  0.00     0.381 N 
ATOM     19  H   LIG d   1      -5.771  62.734 126.543  0.00  0.00    -0.090 HD
ATOM     20  H   LIG d   1      -5.308  63.594 125.244  0.00  0.00    -0.090 HD
ATOM     21  H   LIG d   1      -4.361  63.561 126.581  0.00  0.00    -0.090 HD
ENDBRANCH   5  18
BRANCH   3  22
ATOM     22  C   LIG d   1      -5.465  58.507 124.511  0.00  0.00     0.382 C 
ATOM     23  O   LIG d   1      -4.974  57.468 124.006  0.00  0.00    -0.241 OA
ATOM     24  O   LIG d   1      -6.570  58.446 125.083  0.00  0.00    -0.241 OA
ENDBRANCH   3  22
TORSDOF 7
ENDMDL
MODEL 8
REMARK VINA RESULT:      -4.2     34.462     35.930
REMARK  7 active torsions:
REMARK  status: ('A' for Active; 'I' for Inactive)
REMARK    1  A    between atoms: C_2  and  C_3 
REMARK    2  A    between atoms: C_3  and  O_6 
REMARK    3  A    between atoms: C_3  and  C_4 
REMARK    4  A    between atoms: C_7  and  O_6 
REMARK    5  A    between atoms: C_9  and  C_10 
REMARK    6  A    between atoms: N_15  and  C_14 
REMARK    7  A    between atoms: N_20  and  C_19 
REMARK       I    between atoms: C_22  and  N_20 
ROOT
ATOM      1  C   LIG d   1       1.107  58.594 120.581  0.00  0.00     0.161 C 
ATOM      2  C   LIG d   1       0.392  58.959 119.428  0.00  0.00     0.016 C 
ATOM      3  C   LIG d   1      -0.824  59.681 119.462  0.00  0.00     0.038 C 
ATOM      4  C   LIG d   1      -1.332  60.221 120.653  0.00  0.00     0.028 C 
ATOM      5  C   LIG d   1      -0.910  59.448 121.897  0.00  0.00    -0.047 C 
ATOM      6  C   LIG d   1       0.625  59.270 121.882  0.00  0.00     0.091 C 
ENDROOT
BRANCH   1   7
ATOM      7  O   LIG d   1       2.513  58.837 120.381  0.00  0.00    -0.368 OA
BRANCH   7   8
ATOM      8  C   LIG d   1       2.930  59.083 119.015  0.00  0.00     0.119 C 
BRANCH   8   9
ATOM      9  C   LIG d   1       3.553  57.780 118.479  0.00  0.00     0.028 C 
ATOM     10  C   LIG d   1       2.881  57.299 117.182  0.00  0.00     0.006 C 
ENDBRANCH   8   9
BRANCH   8  11
ATOM     11  C   LIG d   1       4.052  60.124 118.954  0.00  0.00     0.028 C 
ATOM     12  C   LIG d   1       4.231  60.885 120.278  0.00  0.00     0.006 C 
ENDBRANCH   8  11
ENDBRANCH   7   8
ENDBRANCH   1   7
BRANCH   6  13
ATOM     13  N   LIG d   1       1.113  58.451 123.022  0.00  0.00    -0.311 N 
ATOM     14  C   LIG d   1       1.532  58.973 124.173  0.00  0.00     0.210 C 
ATOM     15  C   LIG d   1       2.012  57.951 125.209  0.00  0.00     0.109 C 
ATOM     16  O   LIG d   1       1.522  60.182 124.447  0.00  0.00    -0.276 OA
ATOM     17  H   LIG d   1       1.125  57.458 122.897  0.00  0.00     0.149 HD
ENDBRANCH   6  13
BRANCH   5  18
ATOM     18  N   LIG d   1      -1.394  60.196 123.073  0.00  0.00     0.381 N 
ATOM     19  H   LIG d   1      -1.910  60.999 122.774  0.00  0.00    -0.090 HD
ATOM     20  H   LIG d   1      -0.602  60.511 123.606  0.00  0.00    -0.090 HD
ATOM     21  H   LIG d   1      -1.971  59.612 123.636  0.00  0.00    -0.090 HD
ENDBRANCH   5  18
BRANCH   3  22
ATOM     22  C   LIG d   1      -1.564  59.835 118.300  0.00  0.00     0.382 C 
ATOM     23  O   LIG d   1      -2.754  60.227 118.362  0.00  0.00    -0.241 OA
ATOM     24  O   LIG d   1      -1.072  59.543 117.194  0.00  0.00    -0.241 OA
ENDBRANCH   3  22
TORSDOF 7
ENDMDL
MODEL 9
REMARK VINA RESULT:      -4.2     10.929     12.981
REMARK  7 active torsions:
REMARK  status: ('A' for Active; 'I' for Inactive)
REMARK    1  A    between atoms: C_2  and  C_3 
REMARK    2  A    between atoms: C_3  and  O_6 
REMARK    3  A    between atoms: C_3  and  C_4 
REMARK    4  A    between atoms: C_7  and  O_6 
REMARK    5  A    between atoms: C_9  and  C_10 
REMARK    6  A    between atoms: N_15  and  C_14 
REMARK    7  A    between atoms: N_20  and  C_19 
REMARK       I    between atoms: C_22  and  N_20 
ROOT
ATOM      1  C   LIG d   1      -7.153  81.868 119.892  0.00  0.00     0.161 C 
ATOM      2  C   LIG d   1      -6.960  80.575 119.378  0.00  0.00     0.016 C 
ATOM      3  C   LIG d   1      -7.877  79.938 118.510  0.00  0.00     0.038 C 
ATOM      4  C   LIG d   1      -8.982  80.614 117.974  0.00  0.00     0.028 C 
ATOM      5  C   LIG d   1      -9.487  81.748 118.860  0.00  0.00    -0.047 C 
ATOM      6  C   LIG d   1      -8.298  82.663 119.230  0.00  0.00     0.091 C 
ENDROOT
BRANCH   1   7
ATOM      7  O   LIG d   1      -5.920  82.611 119.820  0.00  0.00    -0.368 OA
BRANCH   7   8
ATOM      8  C   LIG d   1      -5.008  82.442 120.933  0.00  0.00     0.119 C 
BRANCH   8   9
ATOM      9  C   LIG d   1      -5.730  82.934 122.202  0.00  0.00     0.028 C 
ATOM     10  C   LIG d   1      -5.730  84.468 122.320  0.00  0.00     0.006 C 
ENDBRANCH   8   9
BRANCH   8  11
ATOM     11  C   LIG d   1      -3.779  83.345 120.789  0.00  0.00     0.028 C 
ATOM     12  C   LIG d   1      -2.518  82.574 120.368  0.00  0.00     0.006 C 
ENDBRANCH   8  11
ENDBRANCH   7   8
ENDBRANCH   1   7
BRANCH   6  13
ATOM     13  N   LIG d   1      -8.688  83.751 120.165  0.00  0.00    -0.311 N 
ATOM     14  C   LIG d   1      -9.267  83.531 121.344  0.00  0.00     0.210 C 
ATOM     15  C   LIG d   1      -9.606  84.794 122.143  0.00  0.00     0.109 C 
ATOM     16  O   LIG d   1      -9.501  82.410 121.819  0.00  0.00    -0.276 OA
ATOM     17  H   LIG d   1      -8.506  84.691 119.872  0.00  0.00     0.149 HD
ENDBRANCH   6  13
BRANCH   5  18
ATOM     18  N   LIG d   1     -10.550  82.453 118.120  0.00  0.00     0.381 N 
ATOM     19  H   LIG d   1     -11.280  81.811 117.882  0.00  0.00    -0.090 HD
ATOM     20  H   LIG d   1     -10.164  82.821 117.268  0.00  0.00    -0.090 HD
ATOM     21  H   LIG d   1     -10.918  83.195 118.674  0.00  0.00    -0.090 HD
ENDBRANCH   5  18
BRANCH   3  22
ATOM     22  C   LIG d   1      -7.712  78.596 118.202  0.00  0.00     0.382 C 
ATOM     23  O   LIG d   1      -8.691  77.920 117.803  0.00  0.00    -0.241 OA
ATOM     24  O   LIG d   1      -6.608  78.042 118.361  0.00  0.00    -0.241 OA
ENDBRANCH   3  22
TORSDOF 7
ENDMDL
