MODEL 1
REMARK VINA RESULT:      -5.7      0.000      0.000
REMARK  7 active torsions:
REMARK  status: ('A' for Active; 'I' for Inactive)
REMARK    1  A    between atoms: C_2  and  C_3 
REMARK    2  A    between atoms: C_3  and  O_6 
REMARK    3  A    between atoms: C_3  and  C_4 
REMARK    4  A    between atoms: C_7  and  O_6 
REMARK    5  A    between atoms: C_9  and  C_10 
REMARK    6  A    between atoms: N_15  and  C_14 
REMARK    7  A    between atoms: N_20  and  C_19 
REMARK       I    between atoms: C_22  and  N_20 
ROOT
ATOM      1  C   LIG d   1      -5.395  91.749 117.500  0.00  0.00     0.161 C 
ATOM      2  C   LIG d   1      -5.835  91.402 116.212  0.00  0.00     0.016 C 
ATOM      3  C   LIG d   1      -7.091  91.787 115.688  0.00  0.00     0.038 C 
ATOM      4  C   LIG d   1      -7.935  92.679 116.366  0.00  0.00     0.028 C 
ATOM      5  C   LIG d   1      -7.756  92.650 117.880  0.00  0.00    -0.047 C 
ATOM      6  C   LIG d   1      -6.255  92.815 118.211  0.00  0.00     0.091 C 
ENDROOT
BRANCH   1   7
ATOM      7  O   LIG d   1      -4.017  92.170 117.448  0.00  0.00    -0.368 OA
BRANCH   7   8
ATOM      8  C   LIG d   1      -3.026  91.120 117.566  0.00  0.00     0.119 C 
BRANCH   8   9
ATOM      9  C   LIG d   1      -3.422  90.241 118.768  0.00  0.00     0.028 C 
ATOM     10  C   LIG d   1      -2.901  90.802 120.102  0.00  0.00     0.006 C 
ENDBRANCH   8   9
BRANCH   8  11
ATOM     11  C   LIG d   1      -1.649  91.691 117.917  0.00  0.00     0.028 C 
ATOM     12  C   LIG d   1      -0.511  91.039 117.115  0.00  0.00     0.006 C 
ENDBRANCH   8  11
ENDBRANCH   7   8
ENDBRANCH   1   7
BRANCH   6  13
ATOM     13  N   LIG d   1      -5.982  92.713 119.669  0.00  0.00    -0.311 N 
ATOM     14  C   LIG d   1      -5.917  93.769 120.478  0.00  0.00     0.210 C 
ATOM     15  C   LIG d   1      -5.604  93.444 121.942  0.00  0.00     0.109 C 
ATOM     16  O   LIG d   1      -6.121  94.941 120.129  0.00  0.00    -0.276 OA
ATOM     17  H   LIG d   1      -5.834  91.796 120.042  0.00  0.00     0.149 HD
ENDBRANCH   6  13
BRANCH   5  18
ATOM     18  N   LIG d   1      -8.595  93.722 118.449  0.00  0.00     0.381 N 
ATOM     19  H   LIG d   1      -9.557  93.451 118.418  0.00  0.00    -0.090 HD
ATOM     20  H   LIG d   1      -8.482  94.552 117.894  0.00  0.00    -0.090 HD
ATOM     21  H   LIG d   1      -8.323  93.904 119.390  0.00  0.00    -0.090 HD
ENDBRANCH   5  18
BRANCH   3  22
ATOM     22  C   LIG d   1      -7.531  91.246 114.490  0.00  0.00     0.382 C 
ATOM     23  O   LIG d   1      -8.058  91.985 113.624  0.00  0.00    -0.241 OA
ATOM     24  O   LIG d   1      -7.448  90.021 114.282  0.00  0.00    -0.241 OA
ENDBRANCH   3  22
TORSDOF 7
ENDMDL
MODEL 2
REMARK VINA RESULT:      -5.7     13.666     15.620
REMARK  7 active torsions:
REMARK  status: ('A' for Active; 'I' for Inactive)
REMARK    1  A    between atoms: C_2  and  C_3 
REMARK    2  A    between atoms: C_3  and  O_6 
REMARK    3  A    between atoms: C_3  and  C_4 
REMARK    4  A    between atoms: C_7  and  O_6 
REMARK    5  A    between atoms: C_9  and  C_10 
REMARK    6  A    between atoms: N_15  and  C_14 
REMARK    7  A    between atoms: N_20  and  C_19 
REMARK       I    between atoms: C_22  and  N_20 
ROOT
ATOM      1  C   LIG d   1      -2.461  78.138 114.690  0.00  0.00     0.161 C 
ATOM      2  C   LIG d   1      -2.751  79.273 113.915  0.00  0.00     0.016 C 
ATOM      3  C   LIG d   1      -1.790  80.254 113.581  0.00  0.00     0.038 C 
ATOM      4  C   LIG d   1      -0.428  80.089 113.875  0.00  0.00     0.028 C 
ATOM      5  C   LIG d   1      -0.175  79.207 115.093  0.00  0.00    -0.047 C 
ATOM      6  C   LIG d   1      -0.957  77.884 114.926  0.00  0.00     0.091 C 
ENDROOT
BRANCH   1   7
ATOM      7  O   LIG d   1      -3.080  76.975 114.106  0.00  0.00    -0.368 OA
BRANCH   7   8
ATOM      8  C   LIG d   1      -4.269  76.484 114.771  0.00  0.00     0.119 C 
BRANCH   8   9
ATOM      9  C   LIG d   1      -4.452  77.308 116.061  0.00  0.00     0.028 C 
ATOM     10  C   LIG d   1      -5.905  77.769 116.262  0.00  0.00     0.006 C 
ENDBRANCH   8   9
BRANCH   8  11
ATOM     11  C   LIG d   1      -4.090  75.036 115.237  0.00  0.00     0.028 C 
ATOM     12  C   LIG d   1      -5.373  74.202 115.095  0.00  0.00     0.006 C 
ENDBRANCH   8  11
ENDBRANCH   7   8
ENDBRANCH   1   7
BRANCH   6  13
ATOM     13  N   LIG d   1      -0.832  76.998 116.113  0.00  0.00    -0.311 N 
ATOM     14  C   LIG d   1      -0.627  75.685 116.029  0.00  0.00     0.210 C 
ATOM     15  C   LIG d   1      -0.548  74.955 117.373  0.00  0.00     0.109 C 
ATOM     16  O   LIG d   1      -0.471  75.060 114.969  0.00  0.00    -0.276 OA
ATOM     17  H   LIG d   1      -0.914  77.428 117.014  0.00  0.00     0.149 HD
ENDBRANCH   6  13
BRANCH   5  18
ATOM     18  N   LIG d   1       1.283  79.007 115.202  0.00  0.00     0.381 N 
ATOM     19  H   LIG d   1       1.755  79.586 114.537  0.00  0.00    -0.090 HD
ATOM     20  H   LIG d   1       1.496  78.047 114.993  0.00  0.00    -0.090 HD
ATOM     21  H   LIG d   1       1.589  79.229 116.124  0.00  0.00    -0.090 HD
ENDBRANCH   5  18
BRANCH   3  22
ATOM     22  C   LIG d   1      -2.195  81.436 112.979  0.00  0.00     0.382 C 
ATOM     23  O   LIG d   1      -3.369  81.553 112.554  0.00  0.00    -0.241 OA
ATOM     24  O   LIG d   1      -1.388  82.371 112.817  0.00  0.00    -0.241 OA
ENDBRANCH   3  22
TORSDOF 7
ENDMDL
MODEL 3
REMARK VINA RESULT:      -5.7      1.492      1.824
REMARK  7 active torsions:
REMARK  status: ('A' for Active; 'I' for Inactive)
REMARK    1  A    between atoms: C_2  and  C_3 
REMARK    2  A    between atoms: C_3  and  O_6 
REMARK    3  A    between atoms: C_3  and  C_4 
REMARK    4  A    between atoms: C_7  and  O_6 
REMARK    5  A    between atoms: C_9  and  C_10 
REMARK    6  A    between atoms: N_15  and  C_14 
REMARK    7  A    between atoms: N_20  and  C_19 
REMARK       I    between atoms: C_22  and  N_20 
ROOT
ATOM      1  C   LIG d   1      -5.958  92.379 118.294  0.00  0.00     0.161 C 
ATOM      2  C   LIG d   1      -5.908  91.649 117.095  0.00  0.00     0.016 C 
ATOM      3  C   LIG d   1      -6.865  91.782 116.063  0.00  0.00     0.038 C 
ATOM      4  C   LIG d   1      -7.859  92.772 116.096  0.00  0.00     0.028 C 
ATOM      5  C   LIG d   1      -8.251  93.189 117.509  0.00  0.00    -0.047 C 
ATOM      6  C   LIG d   1      -6.972  93.543 118.301  0.00  0.00     0.091 C 
ENDROOT
BRANCH   1   7
ATOM      7  O   LIG d   1      -4.641  92.860 118.629  0.00  0.00    -0.368 OA
BRANCH   7   8
ATOM      8  C   LIG d   1      -3.533  92.183 117.986  0.00  0.00     0.119 C 
BRANCH   8   9
ATOM      9  C   LIG d   1      -2.921  91.215 119.018  0.00  0.00     0.028 C 
ATOM     10  C   LIG d   1      -3.061  89.742 118.595  0.00  0.00     0.006 C 
ENDBRANCH   8   9
BRANCH   8  11
ATOM     11  C   LIG d   1      -2.410  93.162 117.634  0.00  0.00     0.028 C 
ATOM     12  C   LIG d   1      -2.643  94.568 118.210  0.00  0.00     0.006 C 
ENDBRANCH   8  11
ENDBRANCH   7   8
ENDBRANCH   1   7
BRANCH   6  13
ATOM     13  N   LIG d   1      -7.258  93.880 119.720  0.00  0.00    -0.311 N 
ATOM     14  C   LIG d   1      -7.455  95.125 120.152  0.00  0.00     0.210 C 
ATOM     15  C   LIG d   1      -7.716  95.254 121.656  0.00  0.00     0.109 C 
ATOM     16  O   LIG d   1      -7.469  96.131 119.427  0.00  0.00    -0.276 OA
ATOM     17  H   LIG d   1      -7.296  93.121 120.371  0.00  0.00     0.149 HD
ENDBRANCH   6  13
BRANCH   5  18
ATOM     18  N   LIG d   1      -9.192  94.319 117.395  0.00  0.00     0.381 N 
ATOM     19  H   LIG d   1      -8.708  95.130 117.066  0.00  0.00    -0.090 HD
ATOM     20  H   LIG d   1      -9.566  94.523 118.305  0.00  0.00    -0.090 HD
ATOM     21  H   LIG d   1      -9.931  94.086 116.769  0.00  0.00    -0.090 HD
ENDBRANCH   5  18
BRANCH   3  22
ATOM     22  C   LIG d   1      -6.856  90.893 114.999  0.00  0.00     0.382 C 
ATOM     23  O   LIG d   1      -6.064  89.920 115.001  0.00  0.00    -0.241 OA
ATOM     24  O   LIG d   1      -7.601  91.075 114.017  0.00  0.00    -0.241 OA
ENDBRANCH   3  22
TORSDOF 7
ENDMDL
MODEL 4
REMARK VINA RESULT:      -5.6     13.482     15.382
REMARK  7 active torsions:
REMARK  status: ('A' for Active; 'I' for Inactive)
REMARK    1  A    between atoms: C_2  and  C_3 
REMARK    2  A    between atoms: C_3  and  O_6 
REMARK    3  A    between atoms: C_3  and  C_4 
REMARK    4  A    between atoms: C_7  and  O_6 
REMARK    5  A    between atoms: C_9  and  C_10 
REMARK    6  A    between atoms: N_15  and  C_14 
REMARK    7  A    between atoms: N_20  and  C_19 
REMARK       I    between atoms: C_22  and  N_20 
ROOT
ATOM      1  C   LIG d   1      -2.295  78.475 115.632  0.00  0.00     0.161 C 
ATOM      2  C   LIG d   1      -2.535  79.693 114.975  0.00  0.00     0.016 C 
ATOM      3  C   LIG d   1      -2.275  79.901 113.601  0.00  0.00     0.038 C 
ATOM      4  C   LIG d   1      -1.896  78.851 112.751  0.00  0.00     0.028 C 
ATOM      5  C   LIG d   1      -1.157  77.727 113.470  0.00  0.00    -0.047 C 
ATOM      6  C   LIG d   1      -1.986  77.287 114.698  0.00  0.00     0.091 C 
ENDROOT
BRANCH   1   7
ATOM      7  O   LIG d   1      -3.405  78.159 116.495  0.00  0.00    -0.368 OA
BRANCH   7   8
ATOM      8  C   LIG d   1      -4.723  78.270 115.905  0.00  0.00     0.119 C 
BRANCH   8   9
ATOM      9  C   LIG d   1      -5.611  79.045 116.898  0.00  0.00     0.028 C 
ATOM     10  C   LIG d   1      -5.219  80.529 117.001  0.00  0.00     0.006 C 
ENDBRANCH   8   9
BRANCH   8  11
ATOM     11  C   LIG d   1      -5.385  76.897 115.757  0.00  0.00     0.028 C 
ATOM     12  C   LIG d   1      -5.702  76.543 114.296  0.00  0.00     0.006 C 
ENDBRANCH   8  11
ENDBRANCH   7   8
ENDBRANCH   1   7
BRANCH   6  13
ATOM     13  N   LIG d   1      -1.295  76.248 115.505  0.00  0.00    -0.311 N 
ATOM     14  C   LIG d   1      -1.813  75.045 115.751  0.00  0.00     0.210 C 
ATOM     15  C   LIG d   1      -0.944  74.133 116.622  0.00  0.00     0.109 C 
ATOM     16  O   LIG d   1      -2.894  74.636 115.303  0.00  0.00    -0.276 OA
ATOM     17  H   LIG d   1      -0.398  76.484 115.881  0.00  0.00     0.149 HD
ENDBRANCH   6  13
BRANCH   5  18
ATOM     18  N   LIG d   1      -0.944  76.640 112.496  0.00  0.00     0.381 N 
ATOM     19  H   LIG d   1      -0.326  75.955 112.883  0.00  0.00    -0.090 HD
ATOM     20  H   LIG d   1      -0.515  77.022 111.671  0.00  0.00    -0.090 HD
ATOM     21  H   LIG d   1      -1.815  76.217 112.261  0.00  0.00    -0.090 HD
ENDBRANCH   5  18
BRANCH   3  22
ATOM     22  C   LIG d   1      -2.356  81.180 113.071  0.00  0.00     0.382 C 
ATOM     23  O   LIG d   1      -1.377  81.959 113.164  0.00  0.00    -0.241 OA
ATOM     24  O   LIG d   1      -3.410  81.579 112.542  0.00  0.00    -0.241 OA
ENDBRANCH   3  22
TORSDOF 7
ENDMDL
MODEL 5
REMARK VINA RESULT:      -5.1     13.354     15.171
REMARK  7 active torsions:
REMARK  status: ('A' for Active; 'I' for Inactive)
REMARK    1  A    between atoms: C_2  and  C_3 
REMARK    2  A    between atoms: C_3  and  O_6 
REMARK    3  A    between atoms: C_3  and  C_4 
REMARK    4  A    between atoms: C_7  and  O_6 
REMARK    5  A    between atoms: C_9  and  C_10 
REMARK    6  A    between atoms: N_15  and  C_14 
REMARK    7  A    between atoms: N_20  and  C_19 
REMARK       I    between atoms: C_22  and  N_20 
ROOT
ATOM      1  C   LIG d   1      -2.087  78.413 115.287  0.00  0.00     0.161 C 
ATOM      2  C   LIG d   1      -2.410  79.290 114.238  0.00  0.00     0.016 C 
ATOM      3  C   LIG d   1      -1.674  80.463 113.950  0.00  0.00     0.038 C 
ATOM      4  C   LIG d   1      -0.468  80.760 114.602  0.00  0.00     0.028 C 
ATOM      5  C   LIG d   1      -0.376  80.169 116.005  0.00  0.00    -0.047 C 
ATOM      6  C   LIG d   1      -0.710  78.662 115.938  0.00  0.00     0.091 C 
ENDROOT
BRANCH   1   7
ATOM      7  O   LIG d   1      -2.186  77.049 114.831  0.00  0.00    -0.368 OA
BRANCH   7   8
ATOM      8  C   LIG d   1      -3.236  76.251 115.432  0.00  0.00     0.119 C 
BRANCH   8   9
ATOM      9  C   LIG d   1      -2.640  74.866 115.751  0.00  0.00     0.028 C 
ATOM     10  C   LIG d   1      -1.114  74.825 115.558  0.00  0.00     0.006 C 
ENDBRANCH   8   9
BRANCH   8  11
ATOM     11  C   LIG d   1      -4.371  75.984 114.438  0.00  0.00     0.028 C 
ATOM     12  C   LIG d   1      -5.237  74.778 114.834  0.00  0.00     0.006 C 
ENDBRANCH   8  11
ENDBRANCH   7   8
ENDBRANCH   1   7
BRANCH   6  13
ATOM     13  N   LIG d   1      -0.725  78.024 117.280  0.00  0.00    -0.311 N 
ATOM     14  C   LIG d   1       0.334  77.421 117.818  0.00  0.00     0.210 C 
ATOM     15  C   LIG d   1       0.097  76.811 119.203  0.00  0.00     0.109 C 
ATOM     16  O   LIG d   1       1.456  77.362 117.292  0.00  0.00    -0.276 OA
ATOM     17  H   LIG d   1      -1.587  78.053 117.789  0.00  0.00     0.149 HD
ENDBRANCH   6  13
BRANCH   5  18
ATOM     18  N   LIG d   1       0.982  80.438 116.514  0.00  0.00     0.381 N 
ATOM     19  H   LIG d   1       0.964  81.228 117.128  0.00  0.00    -0.090 HD
ATOM     20  H   LIG d   1       1.583  80.656 115.738  0.00  0.00    -0.090 HD
ATOM     21  H   LIG d   1       1.330  79.640 116.998  0.00  0.00    -0.090 HD
ENDBRANCH   5  18
BRANCH   3  22
ATOM     22  C   LIG d   1      -2.166  81.373 113.028  0.00  0.00     0.382 C 
ATOM     23  O   LIG d   1      -1.500  82.397 112.740  0.00  0.00    -0.241 OA
ATOM     24  O   LIG d   1      -3.288  81.207 112.513  0.00  0.00    -0.241 OA
ENDBRANCH   3  22
TORSDOF 7
ENDMDL
MODEL 6
REMARK VINA RESULT:      -4.8     28.811     30.231
REMARK  7 active torsions:
REMARK  status: ('A' for Active; 'I' for Inactive)
REMARK    1  A    between atoms: C_2  and  C_3 
REMARK    2  A    between atoms: C_3  and  O_6 
REMARK    3  A    between atoms: C_3  and  C_4 
REMARK    4  A    between atoms: C_7  and  O_6 
REMARK    5  A    between atoms: C_9  and  C_10 
REMARK    6  A    between atoms: N_15  and  C_14 
REMARK    7  A    between atoms: N_20  and  C_19 
REMARK       I    between atoms: C_22  and  N_20 
ROOT
ATOM      1  C   LIG d   1     -16.044  63.809 116.891  0.00  0.00     0.161 C 
ATOM      2  C   LIG d   1     -16.262  62.475 116.511  0.00  0.00     0.016 C 
ATOM      3  C   LIG d   1     -16.914  62.103 115.313  0.00  0.00     0.038 C 
ATOM      4  C   LIG d   1     -17.261  63.047 114.334  0.00  0.00     0.028 C 
ATOM      5  C   LIG d   1     -17.515  64.440 114.899  0.00  0.00    -0.047 C 
ATOM      6  C   LIG d   1     -16.315  64.849 115.784  0.00  0.00     0.091 C 
ENDROOT
BRANCH   1   7
ATOM      7  O   LIG d   1     -14.704  63.959 117.402  0.00  0.00    -0.368 OA
BRANCH   7   8
ATOM      8  C   LIG d   1     -14.591  64.299 118.806  0.00  0.00     0.119 C 
BRANCH   8   9
ATOM      9  C   LIG d   1     -13.859  63.137 119.505  0.00  0.00     0.028 C 
ATOM     10  C   LIG d   1     -14.731  62.449 120.568  0.00  0.00     0.006 C 
ENDBRANCH   8   9
BRANCH   8  11
ATOM     11  C   LIG d   1     -15.968  64.371 119.474  0.00  0.00     0.028 C 
ATOM     12  C   LIG d   1     -16.269  65.755 120.069  0.00  0.00     0.006 C 
ENDBRANCH   8  11
ENDBRANCH   7   8
ENDBRANCH   1   7
BRANCH   6  13
ATOM     13  N   LIG d   1     -16.520  66.165 116.444  0.00  0.00    -0.311 N 
ATOM     14  C   LIG d   1     -15.567  67.090 116.546  0.00  0.00     0.210 C 
ATOM     15  C   LIG d   1     -15.983  68.368 117.282  0.00  0.00     0.109 C 
ATOM     16  O   LIG d   1     -14.427  66.987 116.070  0.00  0.00    -0.276 OA
ATOM     17  H   LIG d   1     -17.426  66.345 116.830  0.00  0.00     0.149 HD
ENDBRANCH   6  13
BRANCH   5  18
ATOM     18  N   LIG d   1     -17.730  65.351 113.759  0.00  0.00     0.381 N 
ATOM     19  H   LIG d   1     -18.406  66.047 114.004  0.00  0.00    -0.090 HD
ATOM     20  H   LIG d   1     -18.088  64.822 112.984  0.00  0.00    -0.090 HD
ATOM     21  H   LIG d   1     -16.871  65.787 113.504  0.00  0.00    -0.090 HD
ENDBRANCH   5  18
BRANCH   3  22
ATOM     22  C   LIG d   1     -17.263  60.778 115.103  0.00  0.00     0.382 C 
ATOM     23  O   LIG d   1     -18.372  60.349 115.504  0.00  0.00    -0.241 OA
ATOM     24  O   LIG d   1     -16.464  59.994 114.556  0.00  0.00    -0.241 OA
ENDBRANCH   3  22
TORSDOF 7
ENDMDL
MODEL 7
REMARK VINA RESULT:      -4.8     13.138     15.052
REMARK  7 active torsions:
REMARK  status: ('A' for Active; 'I' for Inactive)
REMARK    1  A    between atoms: C_2  and  C_3 
REMARK    2  A    between atoms: C_3  and  O_6 
REMARK    3  A    between atoms: C_3  and  C_4 
REMARK    4  A    between atoms: C_7  and  O_6 
REMARK    5  A    between atoms: C_9  and  C_10 
REMARK    6  A    between atoms: N_15  and  C_14 
REMARK    7  A    between atoms: N_20  and  C_19 
REMARK       I    between atoms: C_22  and  N_20 
ROOT
ATOM      1  C   LIG d   1      -1.160  78.624 115.347  0.00  0.00     0.161 C 
ATOM      2  C   LIG d   1      -1.803  79.415 114.380  0.00  0.00     0.016 C 
ATOM      3  C   LIG d   1      -1.217  80.561 113.796  0.00  0.00     0.038 C 
ATOM      4  C   LIG d   1       0.122  80.909 114.029  0.00  0.00     0.028 C 
ATOM      5  C   LIG d   1       0.645  80.433 115.380  0.00  0.00    -0.047 C 
ATOM      6  C   LIG d   1       0.343  78.925 115.532  0.00  0.00     0.091 C 
ENDROOT
BRANCH   1   7
ATOM      7  O   LIG d   1      -1.358  77.228 115.048  0.00  0.00    -0.368 OA
BRANCH   7   8
ATOM      8  C   LIG d   1      -2.499  76.597 115.679  0.00  0.00     0.119 C 
BRANCH   8   9
ATOM      9  C   LIG d   1      -2.505  77.025 117.159  0.00  0.00     0.028 C 
ATOM     10  C   LIG d   1      -3.914  77.381 117.662  0.00  0.00     0.006 C 
ENDBRANCH   8   9
BRANCH   8  11
ATOM     11  C   LIG d   1      -2.354  75.073 115.698  0.00  0.00     0.028 C 
ATOM     12  C   LIG d   1      -1.065  74.606 116.393  0.00  0.00     0.006 C 
ENDBRANCH   8  11
ENDBRANCH   7   8
ENDBRANCH   1   7
BRANCH   6  13
ATOM     13  N   LIG d   1       0.747  78.397 116.861  0.00  0.00    -0.311 N 
ATOM     14  C   LIG d   1       1.955  77.898 117.115  0.00  0.00     0.210 C 
ATOM     15  C   LIG d   1       2.157  77.389 118.546  0.00  0.00     0.109 C 
ATOM     16  O   LIG d   1       2.889  77.858 116.301  0.00  0.00    -0.276 OA
ATOM     17  H   LIG d   1       0.059  78.419 117.589  0.00  0.00     0.149 HD
ENDBRANCH   6  13
BRANCH   5  18
ATOM     18  N   LIG d   1       2.086  80.742 115.434  0.00  0.00     0.381 N 
ATOM     19  H   LIG d   1       2.609  79.991 115.028  0.00  0.00    -0.090 HD
ATOM     20  H   LIG d   1       2.363  80.835 116.395  0.00  0.00    -0.090 HD
ATOM     21  H   LIG d   1       2.272  81.589 114.943  0.00  0.00    -0.090 HD
ENDBRANCH   5  18
BRANCH   3  22
ATOM     22  C   LIG d   1      -1.985  81.394 112.997  0.00  0.00     0.382 C 
ATOM     23  O   LIG d   1      -3.123  81.026 112.618  0.00  0.00    -0.241 OA
ATOM     24  O   LIG d   1      -1.537  82.492 112.615  0.00  0.00    -0.241 OA
ENDBRANCH   3  22
TORSDOF 7
ENDMDL
MODEL 8
REMARK VINA RESULT:      -4.8      7.414     10.076
REMARK  7 active torsions:
REMARK  status: ('A' for Active; 'I' for Inactive)
REMARK    1  A    between atoms: C_2  and  C_3 
REMARK    2  A    between atoms: C_3  and  O_6 
REMARK    3  A    between atoms: C_3  and  C_4 
REMARK    4  A    between atoms: C_7  and  O_6 
REMARK    5  A    between atoms: C_9  and  C_10 
REMARK    6  A    between atoms: N_15  and  C_14 
REMARK    7  A    between atoms: N_20  and  C_19 
REMARK       I    between atoms: C_22  and  N_20 
ROOT
ATOM      1  C   LIG d   1       1.909  88.288 115.974  0.00  0.00     0.161 C 
ATOM      2  C   LIG d   1       0.914  88.496 116.944  0.00  0.00     0.016 C 
ATOM      3  C   LIG d   1       0.915  89.590 117.839  0.00  0.00     0.038 C 
ATOM      4  C   LIG d   1       1.838  90.641 117.724  0.00  0.00     0.028 C 
ATOM      5  C   LIG d   1       3.158  90.220 117.087  0.00  0.00    -0.047 C 
ATOM      6  C   LIG d   1       2.863  89.483 115.761  0.00  0.00     0.091 C 
ENDROOT
BRANCH   1   7
ATOM      7  O   LIG d   1       1.302  87.902 114.725  0.00  0.00    -0.368 OA
BRANCH   7   8
ATOM      8  C   LIG d   1       1.489  86.522 114.326  0.00  0.00     0.119 C 
BRANCH   8   9
ATOM      9  C   LIG d   1       2.364  85.844 115.397  0.00  0.00     0.028 C 
ATOM     10  C   LIG d   1       3.632  85.207 114.802  0.00  0.00     0.006 C 
ENDBRANCH   8   9
BRANCH   8  11
ATOM     11  C   LIG d   1       2.290  86.422 113.024  0.00  0.00     0.028 C 
ATOM     12  C   LIG d   1       1.821  87.424 111.958  0.00  0.00     0.006 C 
ENDBRANCH   8  11
ENDBRANCH   7   8
ENDBRANCH   1   7
BRANCH   6  13
ATOM     13  N   LIG d   1       4.096  88.963 115.114  0.00  0.00    -0.311 N 
ATOM     14  C   LIG d   1       4.477  89.302 113.884  0.00  0.00     0.210 C 
ATOM     15  C   LIG d   1       5.770  88.637 113.401  0.00  0.00     0.109 C 
ATOM     16  O   LIG d   1       3.884  90.115 113.158  0.00  0.00    -0.276 OA
ATOM     17  H   LIG d   1       4.653  88.322 115.644  0.00  0.00     0.149 HD
ENDBRANCH   6  13
BRANCH   5  18
ATOM     18  N   LIG d   1       3.972  91.437 116.902  0.00  0.00     0.381 N 
ATOM     19  H   LIG d   1       3.742  91.869 116.030  0.00  0.00    -0.090 HD
ATOM     20  H   LIG d   1       4.943  91.179 116.881  0.00  0.00    -0.090 HD
ATOM     21  H   LIG d   1       3.806  92.074 117.650  0.00  0.00    -0.090 HD
ENDBRANCH   5  18
BRANCH   3  22
ATOM     22  C   LIG d   1       0.010  89.621 118.888  0.00  0.00     0.382 C 
ATOM     23  O   LIG d   1       0.063  90.545 119.736  0.00  0.00    -0.241 OA
ATOM     24  O   LIG d   1      -0.832  88.713 119.023  0.00  0.00    -0.241 OA
ENDBRANCH   3  22
TORSDOF 7
ENDMDL
MODEL 9
REMARK VINA RESULT:      -4.8     12.754     14.558
REMARK  7 active torsions:
REMARK  status: ('A' for Active; 'I' for Inactive)
REMARK    1  A    between atoms: C_2  and  C_3 
REMARK    2  A    between atoms: C_3  and  O_6 
REMARK    3  A    between atoms: C_3  and  C_4 
REMARK    4  A    between atoms: C_7  and  O_6 
REMARK    5  A    between atoms: C_9  and  C_10 
REMARK    6  A    between atoms: N_15  and  C_14 
REMARK    7  A    between atoms: N_20  and  C_19 
REMARK       I    between atoms: C_22  and  N_20 
ROOT
ATOM      1  C   LIG d   1      -2.683  79.192 116.102  0.00  0.00     0.161 C 
ATOM      2  C   LIG d   1      -2.953  79.985 114.974  0.00  0.00     0.016 C 
ATOM      3  C   LIG d   1      -1.958  80.406 114.062  0.00  0.00     0.038 C 
ATOM      4  C   LIG d   1      -0.639  79.933 114.133  0.00  0.00     0.028 C 
ATOM      5  C   LIG d   1      -0.213  79.536 115.543  0.00  0.00    -0.047 C 
ATOM      6  C   LIG d   1      -1.269  78.574 116.134  0.00  0.00     0.091 C 
ENDROOT
BRANCH   1   7
ATOM      7  O   LIG d   1      -3.683  78.161 116.225  0.00  0.00    -0.368 OA
BRANCH   7   8
ATOM      8  C   LIG d   1      -5.040  78.613 116.452  0.00  0.00     0.119 C 
BRANCH   8   9
ATOM      9  C   LIG d   1      -5.225  78.778 117.973  0.00  0.00     0.028 C 
ATOM     10  C   LIG d   1      -4.805  77.522 118.755  0.00  0.00     0.006 C 
ENDBRANCH   8   9
BRANCH   8  11
ATOM     11  C   LIG d   1      -6.059  77.550 116.032  0.00  0.00     0.028 C 
ATOM     12  C   LIG d   1      -5.542  76.640 114.907  0.00  0.00     0.006 C 
ENDBRANCH   8  11
ENDBRANCH   7   8
ENDBRANCH   1   7
BRANCH   6  13
ATOM     13  N   LIG d   1      -0.972  78.204 117.543  0.00  0.00    -0.311 N 
ATOM     14  C   LIG d   1      -0.355  77.075 117.889  0.00  0.00     0.210 C 
ATOM     15  C   LIG d   1      -0.165  76.879 119.396  0.00  0.00     0.109 C 
ATOM     16  O   LIG d   1       0.083  76.234 117.090  0.00  0.00    -0.276 OA
ATOM     17  H   LIG d   1      -1.265  78.844 118.254  0.00  0.00     0.149 HD
ENDBRANCH   6  13
BRANCH   5  18
ATOM     18  N   LIG d   1       1.130  78.934 115.450  0.00  0.00     0.381 N 
ATOM     19  H   LIG d   1       1.787  79.491 115.958  0.00  0.00    -0.090 HD
ATOM     20  H   LIG d   1       1.412  78.916 114.485  0.00  0.00    -0.090 HD
ATOM     21  H   LIG d   1       1.115  78.008 115.816  0.00  0.00    -0.090 HD
ENDBRANCH   5  18
BRANCH   3  22
ATOM     22  C   LIG d   1      -2.271  81.342 113.088  0.00  0.00     0.382 C 
ATOM     23  O   LIG d   1      -1.488  82.295 112.860  0.00  0.00    -0.241 OA
ATOM     24  O   LIG d   1      -3.347  81.270 112.465  0.00  0.00    -0.241 OA
ENDBRANCH   3  22
TORSDOF 7
ENDMDL
