MODEL 1
REMARK VINA RESULT:      -5.4      0.000      0.000
REMARK  7 active torsions:
REMARK  status: ('A' for Active; 'I' for Inactive)
REMARK    1  A    between atoms: C_2  and  C_3 
REMARK    2  A    between atoms: C_3  and  O_6 
REMARK    3  A    between atoms: C_3  and  C_4 
REMARK    4  A    between atoms: C_7  and  O_6 
REMARK    5  A    between atoms: C_9  and  C_10 
REMARK    6  A    between atoms: N_15  and  C_14 
REMARK    7  A    between atoms: N_20  and  C_19 
REMARK       I    between atoms: C_22  and  N_20 
ROOT
ATOM      1  C   LIG d   1      -4.803  91.978 117.827  0.00  0.00     0.161 C 
ATOM      2  C   LIG d   1      -5.372  91.386 116.686  0.00  0.00     0.016 C 
ATOM      3  C   LIG d   1      -6.676  91.678 116.227  0.00  0.00     0.038 C 
ATOM      4  C   LIG d   1      -7.450  92.702 116.794  0.00  0.00     0.028 C 
ATOM      5  C   LIG d   1      -7.117  92.974 118.256  0.00  0.00    -0.047 C 
ATOM      6  C   LIG d   1      -5.591  93.178 118.393  0.00  0.00     0.091 C 
ENDROOT
BRANCH   1   7
ATOM      7  O   LIG d   1      -3.440  92.358 117.552  0.00  0.00    -0.368 OA
BRANCH   7   8
ATOM      8  C   LIG d   1      -2.429  91.763 118.402  0.00  0.00     0.119 C 
BRANCH   8   9
ATOM      9  C   LIG d   1      -1.218  92.716 118.418  0.00  0.00     0.028 C 
ATOM     10  C   LIG d   1      -1.524  94.064 117.745  0.00  0.00     0.006 C 
ENDBRANCH   8   9
BRANCH   8  11
ATOM     11  C   LIG d   1      -1.905  90.451 117.811  0.00  0.00     0.028 C 
ATOM     12  C   LIG d   1      -2.539  89.210 118.459  0.00  0.00     0.006 C 
ENDBRANCH   8  11
ENDBRANCH   7   8
ENDBRANCH   1   7
BRANCH   6  13
ATOM     13  N   LIG d   1      -5.168  93.367 119.806  0.00  0.00    -0.311 N 
ATOM     14  C   LIG d   1      -4.531  94.452 120.241  0.00  0.00     0.210 C 
ATOM     15  C   LIG d   1      -4.169  94.435 121.730  0.00  0.00     0.109 C 
ATOM     16  O   LIG d   1      -4.259  95.441 119.544  0.00  0.00    -0.276 OA
ATOM     17  H   LIG d   1      -5.377  92.627 120.447  0.00  0.00     0.149 HD
ENDBRANCH   6  13
BRANCH   5  18
ATOM     18  N   LIG d   1      -7.898  94.152 118.680  0.00  0.00     0.381 N 
ATOM     19  H   LIG d   1      -7.893  94.220 119.678  0.00  0.00    -0.090 HD
ATOM     20  H   LIG d   1      -8.849  94.038 118.376  0.00  0.00    -0.090 HD
ATOM     21  H   LIG d   1      -7.511  94.979 118.281  0.00  0.00    -0.090 HD
ENDBRANCH   5  18
BRANCH   3  22
ATOM     22  C   LIG d   1      -7.235  90.915 115.213  0.00  0.00     0.382 C 
ATOM     23  O   LIG d   1      -8.288  91.297 114.648  0.00  0.00    -0.241 OA
ATOM     24  O   LIG d   1      -6.723  89.827 114.887  0.00  0.00    -0.241 OA
ENDBRANCH   3  22
TORSDOF 7
ENDMDL
MODEL 2
REMARK VINA RESULT:      -5.2      0.756      1.635
REMARK  7 active torsions:
REMARK  status: ('A' for Active; 'I' for Inactive)
REMARK    1  A    between atoms: C_2  and  C_3 
REMARK    2  A    between atoms: C_3  and  O_6 
REMARK    3  A    between atoms: C_3  and  C_4 
REMARK    4  A    between atoms: C_7  and  O_6 
REMARK    5  A    between atoms: C_9  and  C_10 
REMARK    6  A    between atoms: N_15  and  C_14 
REMARK    7  A    between atoms: N_20  and  C_19 
REMARK       I    between atoms: C_22  and  N_20 
ROOT
ATOM      1  C   LIG d   1      -4.805  91.861 117.911  0.00  0.00     0.161 C 
ATOM      2  C   LIG d   1      -5.371  91.311 116.749  0.00  0.00     0.016 C 
ATOM      3  C   LIG d   1      -6.644  91.677 116.256  0.00  0.00     0.038 C 
ATOM      4  C   LIG d   1      -7.378  92.736 116.811  0.00  0.00     0.028 C 
ATOM      5  C   LIG d   1      -7.073  92.977 118.286  0.00  0.00    -0.047 C 
ATOM      6  C   LIG d   1      -5.542  93.097 118.468  0.00  0.00     0.091 C 
ENDROOT
BRANCH   1   7
ATOM      7  O   LIG d   1      -3.416  92.169 117.679  0.00  0.00    -0.368 OA
BRANCH   7   8
ATOM      8  C   LIG d   1      -2.480  91.080 117.877  0.00  0.00     0.119 C 
BRANCH   8   9
ATOM      9  C   LIG d   1      -2.823  90.413 119.223  0.00  0.00     0.028 C 
ATOM     10  C   LIG d   1      -2.917  88.882 119.112  0.00  0.00     0.006 C 
ENDBRANCH   8   9
BRANCH   8  11
ATOM     11  C   LIG d   1      -1.047  91.598 118.034  0.00  0.00     0.028 C 
ATOM     12  C   LIG d   1      -0.014  90.724 117.305  0.00  0.00     0.006 C 
ENDBRANCH   8  11
ENDBRANCH   7   8
ENDBRANCH   1   7
BRANCH   6  13
ATOM     13  N   LIG d   1      -5.151  93.249 119.894  0.00  0.00    -0.311 N 
ATOM     14  C   LIG d   1      -4.951  94.430 120.476  0.00  0.00     0.210 C 
ATOM     15  C   LIG d   1      -4.534  94.362 121.949  0.00  0.00     0.109 C 
ATOM     16  O   LIG d   1      -5.109  95.528 119.922  0.00  0.00    -0.276 OA
ATOM     17  H   LIG d   1      -5.031  92.410 120.426  0.00  0.00     0.149 HD
ENDBRANCH   6  13
BRANCH   5  18
ATOM     18  N   LIG d   1      -7.801  94.191 118.699  0.00  0.00     0.381 N 
ATOM     19  H   LIG d   1      -7.170  94.966 118.744  0.00  0.00    -0.090 HD
ATOM     20  H   LIG d   1      -8.185  94.044 119.616  0.00  0.00    -0.090 HD
ATOM     21  H   LIG d   1      -8.533  94.387 118.052  0.00  0.00    -0.090 HD
ENDBRANCH   5  18
BRANCH   3  22
ATOM     22  C   LIG d   1      -7.213  90.954 115.219  0.00  0.00     0.382 C 
ATOM     23  O   LIG d   1      -8.216  91.407 114.615  0.00  0.00    -0.241 OA
ATOM     24  O   LIG d   1      -6.764  89.835 114.908  0.00  0.00    -0.241 OA
ENDBRANCH   3  22
TORSDOF 7
ENDMDL
MODEL 3
REMARK VINA RESULT:      -5.1     13.964     16.365
REMARK  7 active torsions:
REMARK  status: ('A' for Active; 'I' for Inactive)
REMARK    1  A    between atoms: C_2  and  C_3 
REMARK    2  A    between atoms: C_3  and  O_6 
REMARK    3  A    between atoms: C_3  and  C_4 
REMARK    4  A    between atoms: C_7  and  O_6 
REMARK    5  A    between atoms: C_9  and  C_10 
REMARK    6  A    between atoms: N_15  and  C_14 
REMARK    7  A    between atoms: N_20  and  C_19 
REMARK       I    between atoms: C_22  and  N_20 
ROOT
ATOM      1  C   LIG d   1      -3.826  75.895 116.009  0.00  0.00     0.161 C 
ATOM      2  C   LIG d   1      -4.602  74.772 115.675  0.00  0.00     0.016 C 
ATOM      3  C   LIG d   1      -5.978  74.658 115.979  0.00  0.00     0.038 C 
ATOM      4  C   LIG d   1      -6.711  75.730 116.508  0.00  0.00     0.028 C 
ATOM      5  C   LIG d   1      -5.864  76.699 117.325  0.00  0.00    -0.047 C 
ATOM      6  C   LIG d   1      -4.634  77.119 116.488  0.00  0.00     0.091 C 
ENDROOT
BRANCH   1   7
ATOM      7  O   LIG d   1      -2.982  76.254 114.898  0.00  0.00    -0.368 OA
BRANCH   7   8
ATOM      8  C   LIG d   1      -1.561  76.041 115.082  0.00  0.00     0.119 C 
BRANCH   8   9
ATOM      9  C   LIG d   1      -1.359  75.455 116.493  0.00  0.00     0.028 C 
ATOM     10  C   LIG d   1      -0.512  74.172 116.480  0.00  0.00     0.006 C 
ENDBRANCH   8   9
BRANCH   8  11
ATOM     11  C   LIG d   1      -0.793  77.367 115.080  0.00  0.00     0.028 C 
ATOM     12  C   LIG d   1      -0.292  77.767 116.477  0.00  0.00     0.006 C 
ENDBRANCH   8  11
ENDBRANCH   7   8
ENDBRANCH   1   7
BRANCH   6  13
ATOM     13  N   LIG d   1      -3.708  78.002 117.244  0.00  0.00    -0.311 N 
ATOM     14  C   LIG d   1      -3.811  79.330 117.262  0.00  0.00     0.210 C 
ATOM     15  C   LIG d   1      -2.742  80.051 118.088  0.00  0.00     0.109 C 
ATOM     16  O   LIG d   1      -4.707  79.977 116.699  0.00  0.00    -0.276 OA
ATOM     17  H   LIG d   1      -2.970  77.558 117.755  0.00  0.00     0.149 HD
ENDBRANCH   6  13
BRANCH   5  18
ATOM     18  N   LIG d   1      -6.724  77.838 117.700  0.00  0.00     0.381 N 
ATOM     19  H   LIG d   1      -6.183  78.527 118.182  0.00  0.00    -0.090 HD
ATOM     20  H   LIG d   1      -7.443  77.511 118.321  0.00  0.00    -0.090 HD
ATOM     21  H   LIG d   1      -7.135  78.237 116.885  0.00  0.00    -0.090 HD
ENDBRANCH   5  18
BRANCH   3  22
ATOM     22  C   LIG d   1      -6.625  73.446 115.790  0.00  0.00     0.382 C 
ATOM     23  O   LIG d   1      -5.977  72.442 115.409  0.00  0.00    -0.241 OA
ATOM     24  O   LIG d   1      -7.856  73.356 115.953  0.00  0.00    -0.241 OA
ENDBRANCH   3  22
TORSDOF 7
ENDMDL
MODEL 4
REMARK VINA RESULT:      -5.0     12.462     15.001
REMARK  7 active torsions:
REMARK  status: ('A' for Active; 'I' for Inactive)
REMARK    1  A    between atoms: C_2  and  C_3 
REMARK    2  A    between atoms: C_3  and  O_6 
REMARK    3  A    between atoms: C_3  and  C_4 
REMARK    4  A    between atoms: C_7  and  O_6 
REMARK    5  A    between atoms: C_9  and  C_10 
REMARK    6  A    between atoms: N_15  and  C_14 
REMARK    7  A    between atoms: N_20  and  C_19 
REMARK       I    between atoms: C_22  and  N_20 
ROOT
ATOM      1  C   LIG d   1      -5.668  77.829 117.442  0.00  0.00     0.161 C 
ATOM      2  C   LIG d   1      -6.878  78.531 117.566  0.00  0.00     0.016 C 
ATOM      3  C   LIG d   1      -6.963  79.854 118.059  0.00  0.00     0.038 C 
ATOM      4  C   LIG d   1      -5.820  80.622 118.321  0.00  0.00     0.028 C 
ATOM      5  C   LIG d   1      -4.599  79.786 118.690  0.00  0.00    -0.047 C 
ATOM      6  C   LIG d   1      -4.399  78.690 117.619  0.00  0.00     0.091 C 
ENDROOT
BRANCH   1   7
ATOM      7  O   LIG d   1      -5.632  77.137 116.178  0.00  0.00    -0.368 OA
BRANCH   7   8
ATOM      8  C   LIG d   1      -5.364  75.714 116.238  0.00  0.00     0.119 C 
BRANCH   8   9
ATOM      9  C   LIG d   1      -4.592  75.334 114.960  0.00  0.00     0.028 C 
ATOM     10  C   LIG d   1      -3.078  75.212 115.204  0.00  0.00     0.006 C 
ENDBRANCH   8   9
BRANCH   8  11
ATOM     11  C   LIG d   1      -6.661  74.901 116.185  0.00  0.00     0.028 C 
ATOM     12  C   LIG d   1      -6.411  73.386 116.111  0.00  0.00     0.006 C 
ENDBRANCH   8  11
ENDBRANCH   7   8
ENDBRANCH   1   7
BRANCH   6  13
ATOM     13  N   LIG d   1      -3.276  77.773 117.947  0.00  0.00    -0.311 N 
ATOM     14  C   LIG d   1      -2.031  77.953 117.509  0.00  0.00     0.210 C 
ATOM     15  C   LIG d   1      -1.030  76.880 117.949  0.00  0.00     0.109 C 
ATOM     16  O   LIG d   1      -1.655  78.916 116.825  0.00  0.00    -0.276 OA
ATOM     17  H   LIG d   1      -3.487  76.982 118.524  0.00  0.00     0.149 HD
ENDBRANCH   6  13
BRANCH   5  18
ATOM     18  N   LIG d   1      -3.448  80.701 118.802  0.00  0.00     0.381 N 
ATOM     19  H   LIG d   1      -2.608  80.221 118.549  0.00  0.00    -0.090 HD
ATOM     20  H   LIG d   1      -3.364  81.003 119.757  0.00  0.00    -0.090 HD
ATOM     21  H   LIG d   1      -3.581  81.490 118.208  0.00  0.00    -0.090 HD
ENDBRANCH   5  18
BRANCH   3  22
ATOM     22  C   LIG d   1      -8.205  80.407 118.331  0.00  0.00     0.382 C 
ATOM     23  O   LIG d   1      -8.291  81.601 118.705  0.00  0.00    -0.241 OA
ATOM     24  O   LIG d   1      -9.237  79.713 118.251  0.00  0.00    -0.241 OA
ENDBRANCH   3  22
TORSDOF 7
ENDMDL
MODEL 5
REMARK VINA RESULT:      -5.0      2.264      4.455
REMARK  7 active torsions:
REMARK  status: ('A' for Active; 'I' for Inactive)
REMARK    1  A    between atoms: C_2  and  C_3 
REMARK    2  A    between atoms: C_3  and  O_6 
REMARK    3  A    between atoms: C_3  and  C_4 
REMARK    4  A    between atoms: C_7  and  O_6 
REMARK    5  A    between atoms: C_9  and  C_10 
REMARK    6  A    between atoms: N_15  and  C_14 
REMARK    7  A    between atoms: N_20  and  C_19 
REMARK       I    between atoms: C_22  and  N_20 
ROOT
ATOM      1  C   LIG d   1      -6.422  93.513 118.058  0.00  0.00     0.161 C 
ATOM      2  C   LIG d   1      -7.234  92.769 117.187  0.00  0.00     0.016 C 
ATOM      3  C   LIG d   1      -6.784  91.625 116.489  0.00  0.00     0.038 C 
ATOM      4  C   LIG d   1      -5.526  91.055 116.733  0.00  0.00     0.028 C 
ATOM      5  C   LIG d   1      -4.491  92.061 117.227  0.00  0.00    -0.047 C 
ATOM      6  C   LIG d   1      -5.081  92.842 118.423  0.00  0.00     0.091 C 
ENDROOT
BRANCH   1   7
ATOM      7  O   LIG d   1      -7.159  93.841 119.253  0.00  0.00    -0.368 OA
BRANCH   7   8
ATOM      8  C   LIG d   1      -7.713  95.179 119.312  0.00  0.00     0.119 C 
BRANCH   8   9
ATOM      9  C   LIG d   1      -6.870  95.985 120.319  0.00  0.00     0.028 C 
ATOM     10  C   LIG d   1      -5.877  96.933 119.626  0.00  0.00     0.006 C 
ENDBRANCH   8   9
BRANCH   8  11
ATOM     11  C   LIG d   1      -9.133  95.168 119.888  0.00  0.00     0.028 C 
ATOM     12  C   LIG d   1      -9.406  96.359 120.821  0.00  0.00     0.006 C 
ENDBRANCH   8  11
ENDBRANCH   7   8
ENDBRANCH   1   7
BRANCH   6  13
ATOM     13  N   LIG d   1      -4.165  93.905 118.913  0.00  0.00    -0.311 N 
ATOM     14  C   LIG d   1      -3.311  93.730 119.920  0.00  0.00     0.210 C 
ATOM     15  C   LIG d   1      -2.473  94.961 120.279  0.00  0.00     0.109 C 
ATOM     16  O   LIG d   1      -3.146  92.663 120.530  0.00  0.00    -0.276 OA
ATOM     17  H   LIG d   1      -4.211  94.794 118.454  0.00  0.00     0.149 HD
ENDBRANCH   6  13
BRANCH   5  18
ATOM     18  N   LIG d   1      -3.269  91.310 117.573  0.00  0.00     0.381 N 
ATOM     19  H   LIG d   1      -3.272  91.090 118.549  0.00  0.00    -0.090 HD
ATOM     20  H   LIG d   1      -2.468  91.886 117.381  0.00  0.00    -0.090 HD
ATOM     21  H   LIG d   1      -3.221  90.472 117.036  0.00  0.00    -0.090 HD
ENDBRANCH   5  18
BRANCH   3  22
ATOM     22  C   LIG d   1      -7.582  91.062 115.504  0.00  0.00     0.382 C 
ATOM     23  O   LIG d   1      -8.309  91.795 114.791  0.00  0.00    -0.241 OA
ATOM     24  O   LIG d   1      -7.617  89.827 115.350  0.00  0.00    -0.241 OA
ENDBRANCH   3  22
TORSDOF 7
ENDMDL
MODEL 6
REMARK VINA RESULT:      -4.7     23.658     25.986
REMARK  7 active torsions:
REMARK  status: ('A' for Active; 'I' for Inactive)
REMARK    1  A    between atoms: C_2  and  C_3 
REMARK    2  A    between atoms: C_3  and  O_6 
REMARK    3  A    between atoms: C_3  and  C_4 
REMARK    4  A    between atoms: C_7  and  O_6 
REMARK    5  A    between atoms: C_9  and  C_10 
REMARK    6  A    between atoms: N_15  and  C_14 
REMARK    7  A    between atoms: N_20  and  C_19 
REMARK       I    between atoms: C_22  and  N_20 
ROOT
ATOM      1  C   LIG d   1     -15.401  69.441 120.373  0.00  0.00     0.161 C 
ATOM      2  C   LIG d   1     -14.682  70.006 121.440  0.00  0.00     0.016 C 
ATOM      3  C   LIG d   1     -13.520  69.420 121.992  0.00  0.00     0.038 C 
ATOM      4  C   LIG d   1     -12.907  68.300 121.411  0.00  0.00     0.028 C 
ATOM      5  C   LIG d   1     -13.877  67.408 120.645  0.00  0.00    -0.047 C 
ATOM      6  C   LIG d   1     -14.685  68.278 119.655  0.00  0.00     0.091 C 
ENDROOT
BRANCH   1   7
ATOM      7  O   LIG d   1     -15.760  70.468 119.429  0.00  0.00    -0.368 OA
BRANCH   7   8
ATOM      8  C   LIG d   1     -16.394  71.649 119.981  0.00  0.00     0.119 C 
BRANCH   8   9
ATOM      9  C   LIG d   1     -17.862  71.289 120.280  0.00  0.00     0.028 C 
ATOM     10  C   LIG d   1     -18.245  71.558 121.745  0.00  0.00     0.006 C 
ENDBRANCH   8   9
BRANCH   8  11
ATOM     11  C   LIG d   1     -16.455  72.781 118.951  0.00  0.00     0.028 C 
ATOM     12  C   LIG d   1     -16.649  74.163 119.596  0.00  0.00     0.006 C 
ENDBRANCH   8  11
ENDBRANCH   7   8
ENDBRANCH   1   7
BRANCH   6  13
ATOM     13  N   LIG d   1     -15.717  67.498 118.924  0.00  0.00    -0.311 N 
ATOM     14  C   LIG d   1     -15.519  66.971 117.717  0.00  0.00     0.210 C 
ATOM     15  C   LIG d   1     -16.721  66.221 117.134  0.00  0.00     0.109 C 
ATOM     16  O   LIG d   1     -14.452  67.026 117.087  0.00  0.00    -0.276 OA
ATOM     17  H   LIG d   1     -16.602  67.377 119.376  0.00  0.00     0.149 HD
ENDBRANCH   6  13
BRANCH   5  18
ATOM     18  N   LIG d   1     -13.085  66.357 119.977  0.00  0.00     0.381 N 
ATOM     19  H   LIG d   1     -12.202  66.257 120.436  0.00  0.00    -0.090 HD
ATOM     20  H   LIG d   1     -12.918  66.632 119.025  0.00  0.00    -0.090 HD
ATOM     21  H   LIG d   1     -13.579  65.492 119.999  0.00  0.00    -0.090 HD
ENDBRANCH   5  18
BRANCH   3  22
ATOM     22  C   LIG d   1     -12.981  69.933 123.162  0.00  0.00     0.382 C 
ATOM     23  O   LIG d   1     -12.254  69.211 123.887  0.00  0.00    -0.241 OA
ATOM     24  O   LIG d   1     -13.248  71.094 123.525  0.00  0.00    -0.241 OA
ENDBRANCH   3  22
TORSDOF 7
ENDMDL
MODEL 7
REMARK VINA RESULT:      -4.6     25.676     27.659
REMARK  7 active torsions:
REMARK  status: ('A' for Active; 'I' for Inactive)
REMARK    1  A    between atoms: C_2  and  C_3 
REMARK    2  A    between atoms: C_3  and  O_6 
REMARK    3  A    between atoms: C_3  and  C_4 
REMARK    4  A    between atoms: C_7  and  O_6 
REMARK    5  A    between atoms: C_9  and  C_10 
REMARK    6  A    between atoms: N_15  and  C_14 
REMARK    7  A    between atoms: N_20  and  C_19 
REMARK       I    between atoms: C_22  and  N_20 
ROOT
ATOM      1  C   LIG d   1     -14.167  67.401 119.073  0.00  0.00     0.161 C 
ATOM      2  C   LIG d   1     -15.235  67.293 118.167  0.00  0.00     0.016 C 
ATOM      3  C   LIG d   1     -15.922  66.083 117.914  0.00  0.00     0.038 C 
ATOM      4  C   LIG d   1     -15.683  64.924 118.667  0.00  0.00     0.028 C 
ATOM      5  C   LIG d   1     -14.272  64.853 119.240  0.00  0.00    -0.047 C 
ATOM      6  C   LIG d   1     -13.966  66.173 119.985  0.00  0.00     0.091 C 
ENDROOT
BRANCH   1   7
ATOM      7  O   LIG d   1     -14.318  68.595 119.867  0.00  0.00    -0.368 OA
BRANCH   7   8
ATOM      8  C   LIG d   1     -15.166  68.480 121.036  0.00  0.00     0.119 C 
BRANCH   8   9
ATOM      9  C   LIG d   1     -16.373  69.416 120.826  0.00  0.00     0.028 C 
ATOM     10  C   LIG d   1     -16.037  70.612 119.919  0.00  0.00     0.006 C 
ENDBRANCH   8   9
BRANCH   8  11
ATOM     11  C   LIG d   1     -14.461  69.004 122.290  0.00  0.00     0.028 C 
ATOM     12  C   LIG d   1     -13.055  69.551 121.998  0.00  0.00     0.006 C 
ENDBRANCH   8  11
ENDBRANCH   7   8
ENDBRANCH   1   7
BRANCH   6  13
ATOM     13  N   LIG d   1     -12.575  66.221 120.505  0.00  0.00    -0.311 N 
ATOM     14  C   LIG d   1     -12.243  65.873 121.747  0.00  0.00     0.210 C 
ATOM     15  C   LIG d   1     -10.756  66.017 122.084  0.00  0.00     0.109 C 
ATOM     16  O   LIG d   1     -13.035  65.430 122.593  0.00  0.00    -0.276 OA
ATOM     17  H   LIG d   1     -11.864  66.539 119.876  0.00  0.00     0.149 HD
ENDBRANCH   6  13
BRANCH   5  18
ATOM     18  N   LIG d   1     -14.205  63.667 120.114  0.00  0.00     0.381 N 
ATOM     19  H   LIG d   1     -13.713  62.930 119.648  0.00  0.00    -0.090 HD
ATOM     20  H   LIG d   1     -15.139  63.350 120.305  0.00  0.00    -0.090 HD
ATOM     21  H   LIG d   1     -13.743  63.897 120.966  0.00  0.00    -0.090 HD
ENDBRANCH   5  18
BRANCH   3  22
ATOM     22  C   LIG d   1     -16.831  66.015 116.870  0.00  0.00     0.382 C 
ATOM     23  O   LIG d   1     -16.607  65.263 115.891  0.00  0.00    -0.241 OA
ATOM     24  O   LIG d   1     -17.852  66.729 116.873  0.00  0.00    -0.241 OA
ENDBRANCH   3  22
TORSDOF 7
ENDMDL
MODEL 8
REMARK VINA RESULT:      -4.6     24.337     26.626
REMARK  7 active torsions:
REMARK  status: ('A' for Active; 'I' for Inactive)
REMARK    1  A    between atoms: C_2  and  C_3 
REMARK    2  A    between atoms: C_3  and  O_6 
REMARK    3  A    between atoms: C_3  and  C_4 
REMARK    4  A    between atoms: C_7  and  O_6 
REMARK    5  A    between atoms: C_9  and  C_10 
REMARK    6  A    between atoms: N_15  and  C_14 
REMARK    7  A    between atoms: N_20  and  C_19 
REMARK       I    between atoms: C_22  and  N_20 
ROOT
ATOM      1  C   LIG d   1     -14.490  68.566 120.821  0.00  0.00     0.161 C 
ATOM      2  C   LIG d   1     -13.808  69.009 121.966  0.00  0.00     0.016 C 
ATOM      3  C   LIG d   1     -12.689  68.340 122.513  0.00  0.00     0.038 C 
ATOM      4  C   LIG d   1     -12.080  67.258 121.859  0.00  0.00     0.028 C 
ATOM      5  C   LIG d   1     -13.037  66.469 120.972  0.00  0.00    -0.047 C 
ATOM      6  C   LIG d   1     -13.773  67.451 120.031  0.00  0.00     0.091 C 
ENDROOT
BRANCH   1   7
ATOM      7  O   LIG d   1     -14.777  69.685 119.959  0.00  0.00    -0.368 OA
BRANCH   7   8
ATOM      8  C   LIG d   1     -16.175  70.035 119.812  0.00  0.00     0.119 C 
BRANCH   8   9
ATOM      9  C   LIG d   1     -16.348  71.476 120.330  0.00  0.00     0.028 C 
ATOM     10  C   LIG d   1     -16.442  72.503 119.189  0.00  0.00     0.006 C 
ENDBRANCH   8   9
BRANCH   8  11
ATOM     11  C   LIG d   1     -17.063  69.171 120.712  0.00  0.00     0.028 C 
ATOM     12  C   LIG d   1     -18.556  69.292 120.369  0.00  0.00     0.006 C 
ENDBRANCH   8  11
ENDBRANCH   7   8
ENDBRANCH   1   7
BRANCH   6  13
ATOM     13  N   LIG d   1     -14.790  66.772 119.187  0.00  0.00    -0.311 N 
ATOM     14  C   LIG d   1     -14.856  66.910 117.864  0.00  0.00     0.210 C 
ATOM     15  C   LIG d   1     -15.994  66.138 117.189  0.00  0.00     0.109 C 
ATOM     16  O   LIG d   1     -14.060  67.573 117.182  0.00  0.00    -0.276 OA
ATOM     17  H   LIG d   1     -15.457  66.189 119.656  0.00  0.00     0.149 HD
ENDBRANCH   6  13
BRANCH   5  18
ATOM     18  N   LIG d   1     -12.244  65.459 120.248  0.00  0.00     0.381 N 
ATOM     19  H   LIG d   1     -12.047  64.686 120.852  0.00  0.00    -0.090 HD
ATOM     20  H   LIG d   1     -11.370  65.871 119.969  0.00  0.00    -0.090 HD
ATOM     21  H   LIG d   1     -12.743  65.145 119.445  0.00  0.00    -0.090 HD
ENDBRANCH   5  18
BRANCH   3  22
ATOM     22  C   LIG d   1     -12.192  68.728 123.747  0.00  0.00     0.382 C 
ATOM     23  O   LIG d   1     -12.236  69.934 124.090  0.00  0.00    -0.241 OA
ATOM     24  O   LIG d   1     -11.660  67.895 124.505  0.00  0.00    -0.241 OA
ENDBRANCH   3  22
TORSDOF 7
ENDMDL
MODEL 9
REMARK VINA RESULT:      -4.5     26.717     29.004
REMARK  7 active torsions:
REMARK  status: ('A' for Active; 'I' for Inactive)
REMARK    1  A    between atoms: C_2  and  C_3 
REMARK    2  A    between atoms: C_3  and  O_6 
REMARK    3  A    between atoms: C_3  and  C_4 
REMARK    4  A    between atoms: C_7  and  O_6 
REMARK    5  A    between atoms: C_9  and  C_10 
REMARK    6  A    between atoms: N_15  and  C_14 
REMARK    7  A    between atoms: N_20  and  C_19 
REMARK       I    between atoms: C_22  and  N_20 
ROOT
ATOM      1  C   LIG d   1     -14.908  65.376 118.436  0.00  0.00     0.161 C 
ATOM      2  C   LIG d   1     -14.171  65.912 119.505  0.00  0.00     0.016 C 
ATOM      3  C   LIG d   1     -13.972  67.299 119.695  0.00  0.00     0.038 C 
ATOM      4  C   LIG d   1     -14.628  68.257 118.906  0.00  0.00     0.028 C 
ATOM      5  C   LIG d   1     -14.974  67.756 117.508  0.00  0.00    -0.047 C 
ATOM      6  C   LIG d   1     -15.722  66.409 117.629  0.00  0.00     0.091 C 
ENDROOT
BRANCH   1   7
ATOM      7  O   LIG d   1     -15.767  64.323 118.914  0.00  0.00    -0.368 OA
BRANCH   7   8
ATOM      8  C   LIG d   1     -16.202  64.431 120.292  0.00  0.00     0.119 C 
BRANCH   8   9
ATOM      9  C   LIG d   1     -16.133  63.022 120.912  0.00  0.00     0.028 C 
ATOM     10  C   LIG d   1     -14.701  62.461 120.935  0.00  0.00     0.006 C 
ENDBRANCH   8   9
BRANCH   8  11
ATOM     11  C   LIG d   1     -17.675  64.841 120.380  0.00  0.00     0.028 C 
ATOM     12  C   LIG d   1     -17.861  66.337 120.681  0.00  0.00     0.006 C 
ENDBRANCH   8  11
ENDBRANCH   7   8
ENDBRANCH   1   7
BRANCH   6  13
ATOM     13  N   LIG d   1     -16.024  65.807 116.304  0.00  0.00    -0.311 N 
ATOM     14  C   LIG d   1     -17.229  65.355 115.962  0.00  0.00     0.210 C 
ATOM     15  C   LIG d   1     -17.319  64.755 114.555  0.00  0.00     0.109 C 
ATOM     16  O   LIG d   1     -18.240  65.423 116.677  0.00  0.00    -0.276 OA
ATOM     17  H   LIG d   1     -15.269  65.741 115.650  0.00  0.00     0.149 HD
ENDBRANCH   6  13
BRANCH   5  18
ATOM     18  N   LIG d   1     -15.773  68.804 116.845  0.00  0.00     0.381 N 
ATOM     19  H   LIG d   1     -15.171  69.533 116.518  0.00  0.00    -0.090 HD
ATOM     20  H   LIG d   1     -16.412  69.198 117.513  0.00  0.00    -0.090 HD
ATOM     21  H   LIG d   1     -16.279  68.414 116.080  0.00  0.00    -0.090 HD
ENDBRANCH   5  18
BRANCH   3  22
ATOM     22  C   LIG d   1     -13.078  67.740 120.658  0.00  0.00     0.382 C 
ATOM     23  O   LIG d   1     -12.409  66.909 121.319  0.00  0.00    -0.241 OA
ATOM     24  O   LIG d   1     -12.963  68.955 120.905  0.00  0.00    -0.241 OA
ENDBRANCH   3  22
TORSDOF 7
ENDMDL
