MODEL 1
REMARK VINA RESULT:      -5.7      0.000      0.000
REMARK  7 active torsions:
REMARK  status: ('A' for Active; 'I' for Inactive)
REMARK    1  A    between atoms: C_2  and  C_3 
REMARK    2  A    between atoms: C_3  and  O_6 
REMARK    3  A    between atoms: C_3  and  C_4 
REMARK    4  A    between atoms: C_7  and  O_6 
REMARK    5  A    between atoms: C_9  and  C_10 
REMARK    6  A    between atoms: N_15  and  C_14 
REMARK    7  A    between atoms: N_20  and  C_19 
REMARK       I    between atoms: C_22  and  N_20 
ROOT
ATOM      1  C   LIG d   1      -4.436  91.150 118.090  0.00  0.00     0.161 C 
ATOM      2  C   LIG d   1      -4.612  90.655 116.787  0.00  0.00     0.016 C 
ATOM      3  C   LIG d   1      -5.800  90.835 116.041  0.00  0.00     0.038 C 
ATOM      4  C   LIG d   1      -6.843  91.657 116.493  0.00  0.00     0.028 C 
ATOM      5  C   LIG d   1      -6.916  91.762 118.012  0.00  0.00    -0.047 C 
ATOM      6  C   LIG d   1      -5.521  92.143 118.557  0.00  0.00     0.091 C 
ENDROOT
BRANCH   1   7
ATOM      7  O   LIG d   1      -3.128  91.741 118.216  0.00  0.00    -0.368 OA
BRANCH   7   8
ATOM      8  C   LIG d   1      -2.005  90.829 118.126  0.00  0.00     0.119 C 
BRANCH   8   9
ATOM      9  C   LIG d   1      -2.095  89.865 119.324  0.00  0.00     0.028 C 
ATOM     10  C   LIG d   1      -2.049  88.389 118.895  0.00  0.00     0.006 C 
ENDBRANCH   8   9
BRANCH   8  11
ATOM     11  C   LIG d   1      -0.674  91.566 118.297  0.00  0.00     0.028 C 
ATOM     12  C   LIG d   1       0.459  90.953 117.458  0.00  0.00     0.006 C 
ENDBRANCH   8  11
ENDBRANCH   7   8
ENDBRANCH   1   7
BRANCH   6  13
ATOM     13  N   LIG d   1      -5.484  92.185 120.042  0.00  0.00    -0.311 N 
ATOM     14  C   LIG d   1      -5.674  93.297 120.749  0.00  0.00     0.210 C 
ATOM     15  C   LIG d   1      -5.574  93.123 122.268  0.00  0.00     0.109 C 
ATOM     16  O   LIG d   1      -5.947  94.406 120.264  0.00  0.00    -0.276 OA
ATOM     17  H   LIG d   1      -5.299  91.324 120.518  0.00  0.00     0.149 HD
ENDBRANCH   6  13
BRANCH   5  18
ATOM     18  N   LIG d   1      -7.957  92.754 118.340  0.00  0.00     0.381 N 
ATOM     19  H   LIG d   1      -7.664  93.663 118.042  0.00  0.00    -0.090 HD
ATOM     20  H   LIG d   1      -8.083  92.775 119.337  0.00  0.00    -0.090 HD
ATOM     21  H   LIG d   1      -8.813  92.511 117.894  0.00  0.00    -0.090 HD
ENDBRANCH   5  18
BRANCH   3  22
ATOM     22  C   LIG d   1      -5.968  90.155 114.844  0.00  0.00     0.382 C 
ATOM     23  O   LIG d   1      -5.205  89.203 114.551  0.00  0.00    -0.241 OA
ATOM     24  O   LIG d   1      -6.845  90.510 114.033  0.00  0.00    -0.241 OA
ENDBRANCH   3  22
TORSDOF 7
ENDMDL
MODEL 2
REMARK VINA RESULT:      -5.4     15.447     18.048
REMARK  7 active torsions:
REMARK  status: ('A' for Active; 'I' for Inactive)
REMARK    1  A    between atoms: C_2  and  C_3 
REMARK    2  A    between atoms: C_3  and  O_6 
REMARK    3  A    between atoms: C_3  and  C_4 
REMARK    4  A    between atoms: C_7  and  O_6 
REMARK    5  A    between atoms: C_9  and  C_10 
REMARK    6  A    between atoms: N_15  and  C_14 
REMARK    7  A    between atoms: N_20  and  C_19 
REMARK       I    between atoms: C_22  and  N_20 
ROOT
ATOM      1  C   LIG d   1      -3.636  74.323 117.296  0.00  0.00     0.161 C 
ATOM      2  C   LIG d   1      -4.079  75.177 116.273  0.00  0.00     0.016 C 
ATOM      3  C   LIG d   1      -3.207  75.825 115.368  0.00  0.00     0.038 C 
ATOM      4  C   LIG d   1      -1.834  75.542 115.330  0.00  0.00     0.028 C 
ATOM      5  C   LIG d   1      -1.275  75.074 116.670  0.00  0.00    -0.047 C 
ATOM      6  C   LIG d   1      -2.150  73.916 117.201  0.00  0.00     0.091 C 
ENDROOT
BRANCH   1   7
ATOM      7  O   LIG d   1      -4.474  73.151 117.353  0.00  0.00    -0.368 OA
BRANCH   7   8
ATOM      8  C   LIG d   1      -5.784  73.276 116.748  0.00  0.00     0.119 C 
BRANCH   8   9
ATOM      9  C   LIG d   1      -6.809  73.423 117.890  0.00  0.00     0.028 C 
ATOM     10  C   LIG d   1      -7.777  74.596 117.661  0.00  0.00     0.006 C 
ENDBRANCH   8   9
BRANCH   8  11
ATOM     11  C   LIG d   1      -6.181  71.994 116.010  0.00  0.00     0.028 C 
ATOM     12  C   LIG d   1      -6.977  71.020 116.894  0.00  0.00     0.006 C 
ENDBRANCH   8  11
ENDBRANCH   7   8
ENDBRANCH   1   7
BRANCH   6  13
ATOM     13  N   LIG d   1      -1.723  73.454 118.547  0.00  0.00    -0.311 N 
ATOM     14  C   LIG d   1      -0.797  72.516 118.741  0.00  0.00     0.210 C 
ATOM     15  C   LIG d   1      -0.521  72.174 120.208  0.00  0.00     0.109 C 
ATOM     16  O   LIG d   1      -0.156  71.958 117.838  0.00  0.00    -0.276 OA
ATOM     17  H   LIG d   1      -2.170  73.876 119.337  0.00  0.00     0.149 HD
ENDBRANCH   6  13
BRANCH   5  18
ATOM     18  N   LIG d   1       0.131  74.683 116.454  0.00  0.00     0.381 N 
ATOM     19  H   LIG d   1       0.483  74.220 117.268  0.00  0.00    -0.090 HD
ATOM     20  H   LIG d   1       0.679  75.512 116.302  0.00  0.00    -0.090 HD
ATOM     21  H   LIG d   1       0.201  74.081 115.663  0.00  0.00    -0.090 HD
ENDBRANCH   5  18
BRANCH   3  22
ATOM     22  C   LIG d   1      -3.703  76.798 114.514  0.00  0.00     0.382 C 
ATOM     23  O   LIG d   1      -4.423  76.470 113.540  0.00  0.00    -0.241 OA
ATOM     24  O   LIG d   1      -3.404  77.996 114.679  0.00  0.00    -0.241 OA
ENDBRANCH   3  22
TORSDOF 7
ENDMDL
MODEL 3
REMARK VINA RESULT:      -5.3     15.396     17.513
REMARK  7 active torsions:
REMARK  status: ('A' for Active; 'I' for Inactive)
REMARK    1  A    between atoms: C_2  and  C_3 
REMARK    2  A    between atoms: C_3  and  O_6 
REMARK    3  A    between atoms: C_3  and  C_4 
REMARK    4  A    between atoms: C_7  and  O_6 
REMARK    5  A    between atoms: C_9  and  C_10 
REMARK    6  A    between atoms: N_15  and  C_14 
REMARK    7  A    between atoms: N_20  and  C_19 
REMARK       I    between atoms: C_22  and  N_20 
ROOT
ATOM      1  C   LIG d   1      -5.325  73.512 116.460  0.00  0.00     0.161 C 
ATOM      2  C   LIG d   1      -5.103  74.367 115.368  0.00  0.00     0.016 C 
ATOM      3  C   LIG d   1      -5.990  75.404 114.998  0.00  0.00     0.038 C 
ATOM      4  C   LIG d   1      -7.092  75.754 115.792  0.00  0.00     0.028 C 
ATOM      5  C   LIG d   1      -7.633  74.596 116.624  0.00  0.00    -0.047 C 
ATOM      6  C   LIG d   1      -6.465  73.951 117.403  0.00  0.00     0.091 C 
ENDROOT
BRANCH   1   7
ATOM      7  O   LIG d   1      -4.101  73.338 117.201  0.00  0.00    -0.368 OA
BRANCH   7   8
ATOM      8  C   LIG d   1      -3.138  74.417 117.104  0.00  0.00     0.119 C 
BRANCH   8   9
ATOM      9  C   LIG d   1      -1.736  73.781 117.036  0.00  0.00     0.028 C 
ATOM     10  C   LIG d   1      -1.403  72.958 118.291  0.00  0.00     0.006 C 
ENDBRANCH   8   9
BRANCH   8  11
ATOM     11  C   LIG d   1      -3.134  75.274 118.373  0.00  0.00     0.028 C 
ATOM     12  C   LIG d   1      -3.886  76.603 118.198  0.00  0.00     0.006 C 
ENDBRANCH   8  11
ENDBRANCH   7   8
ENDBRANCH   1   7
BRANCH   6  13
ATOM     13  N   LIG d   1      -6.892  72.757 118.178  0.00  0.00    -0.311 N 
ATOM     14  C   LIG d   1      -7.283  71.617 117.612  0.00  0.00     0.210 C 
ATOM     15  C   LIG d   1      -7.701  70.517 118.593  0.00  0.00     0.109 C 
ATOM     16  O   LIG d   1      -7.294  71.401 116.391  0.00  0.00    -0.276 OA
ATOM     17  H   LIG d   1      -6.884  72.834 119.177  0.00  0.00     0.149 HD
ENDBRANCH   6  13
BRANCH   5  18
ATOM     18  N   LIG d   1      -8.688  75.134 117.504  0.00  0.00     0.381 N 
ATOM     19  H   LIG d   1      -9.431  74.469 117.587  0.00  0.00    -0.090 HD
ATOM     20  H   LIG d   1      -9.059  75.972 117.091  0.00  0.00    -0.090 HD
ATOM     21  H   LIG d   1      -8.311  75.337 118.403  0.00  0.00    -0.090 HD
ENDBRANCH   5  18
BRANCH   3  22
ATOM     22  C   LIG d   1      -5.801  76.076 113.800  0.00  0.00     0.382 C 
ATOM     23  O   LIG d   1      -4.646  76.414 113.447  0.00  0.00    -0.241 OA
ATOM     24  O   LIG d   1      -6.776  76.387 113.089  0.00  0.00    -0.241 OA
ENDBRANCH   3  22
TORSDOF 7
ENDMDL
MODEL 4
REMARK VINA RESULT:      -5.2     15.684     17.485
REMARK  7 active torsions:
REMARK  status: ('A' for Active; 'I' for Inactive)
REMARK    1  A    between atoms: C_2  and  C_3 
REMARK    2  A    between atoms: C_3  and  O_6 
REMARK    3  A    between atoms: C_3  and  C_4 
REMARK    4  A    between atoms: C_7  and  O_6 
REMARK    5  A    between atoms: C_9  and  C_10 
REMARK    6  A    between atoms: N_15  and  C_14 
REMARK    7  A    between atoms: N_20  and  C_19 
REMARK       I    between atoms: C_22  and  N_20 
ROOT
ATOM      1  C   LIG d   1      -6.705  74.708 117.606  0.00  0.00     0.161 C 
ATOM      2  C   LIG d   1      -6.689  73.316 117.794  0.00  0.00     0.016 C 
ATOM      3  C   LIG d   1      -7.821  72.491 117.598  0.00  0.00     0.038 C 
ATOM      4  C   LIG d   1      -9.014  72.988 117.053  0.00  0.00     0.028 C 
ATOM      5  C   LIG d   1      -9.233  74.472 117.325  0.00  0.00    -0.047 C 
ATOM      6  C   LIG d   1      -7.967  75.252 116.904  0.00  0.00     0.091 C 
ENDROOT
BRANCH   1   7
ATOM      7  O   LIG d   1      -5.520  75.118 116.896  0.00  0.00    -0.368 OA
BRANCH   7   8
ATOM      8  C   LIG d   1      -4.794  74.071 116.207  0.00  0.00     0.119 C 
BRANCH   8   9
ATOM      9  C   LIG d   1      -3.290  74.350 116.392  0.00  0.00     0.028 C 
ATOM     10  C   LIG d   1      -2.694  73.585 117.586  0.00  0.00     0.006 C 
ENDBRANCH   8   9
BRANCH   8  11
ATOM     11  C   LIG d   1      -5.034  74.128 114.695  0.00  0.00     0.028 C 
ATOM     12  C   LIG d   1      -5.482  75.517 114.215  0.00  0.00     0.006 C 
ENDBRANCH   8  11
ENDBRANCH   7   8
ENDBRANCH   1   7
BRANCH   6  13
ATOM     13  N   LIG d   1      -8.064  76.702 117.215  0.00  0.00    -0.311 N 
ATOM     14  C   LIG d   1      -8.272  77.176 118.442  0.00  0.00     0.210 C 
ATOM     15  C   LIG d   1      -8.360  78.703 118.538  0.00  0.00     0.109 C 
ATOM     16  O   LIG d   1      -8.360  76.480 119.464  0.00  0.00    -0.276 OA
ATOM     17  H   LIG d   1      -7.973  77.339 116.448  0.00  0.00     0.149 HD
ENDBRANCH   6  13
BRANCH   5  18
ATOM     18  N   LIG d   1     -10.440  74.887 116.585  0.00  0.00     0.381 N 
ATOM     19  H   LIG d   1     -10.334  74.670 115.614  0.00  0.00    -0.090 HD
ATOM     20  H   LIG d   1     -10.550  75.882 116.675  0.00  0.00    -0.090 HD
ATOM     21  H   LIG d   1     -11.242  74.422 116.951  0.00  0.00    -0.090 HD
ENDBRANCH   5  18
BRANCH   3  22
ATOM     22  C   LIG d   1      -7.778  71.161 117.988  0.00  0.00     0.382 C 
ATOM     23  O   LIG d   1      -7.164  70.834 119.032  0.00  0.00    -0.241 OA
ATOM     24  O   LIG d   1      -8.308  70.280 117.286  0.00  0.00    -0.241 OA
ENDBRANCH   3  22
TORSDOF 7
ENDMDL
MODEL 5
REMARK VINA RESULT:      -5.2     14.091     16.007
REMARK  7 active torsions:
REMARK  status: ('A' for Active; 'I' for Inactive)
REMARK    1  A    between atoms: C_2  and  C_3 
REMARK    2  A    between atoms: C_3  and  O_6 
REMARK    3  A    between atoms: C_3  and  C_4 
REMARK    4  A    between atoms: C_7  and  O_6 
REMARK    5  A    between atoms: C_9  and  C_10 
REMARK    6  A    between atoms: N_15  and  C_14 
REMARK    7  A    between atoms: N_20  and  C_19 
REMARK       I    between atoms: C_22  and  N_20 
ROOT
ATOM      1  C   LIG d   1      -7.813  76.294 116.994  0.00  0.00     0.161 C 
ATOM      2  C   LIG d   1      -7.143  75.692 115.916  0.00  0.00     0.016 C 
ATOM      3  C   LIG d   1      -5.847  76.072 115.495  0.00  0.00     0.038 C 
ATOM      4  C   LIG d   1      -5.069  76.983 116.224  0.00  0.00     0.028 C 
ATOM      5  C   LIG d   1      -5.896  77.983 117.024  0.00  0.00    -0.047 C 
ATOM      6  C   LIG d   1      -6.936  77.212 117.869  0.00  0.00     0.091 C 
ENDROOT
BRANCH   1   7
ATOM      7  O   LIG d   1      -8.443  75.282 117.804  0.00  0.00    -0.368 OA
BRANCH   7   8
ATOM      8  C   LIG d   1      -9.318  74.361 117.106  0.00  0.00     0.119 C 
BRANCH   8   9
ATOM      9  C   LIG d   1     -10.747  74.588 117.636  0.00  0.00     0.028 C 
ATOM     10  C   LIG d   1     -10.933  75.992 118.237  0.00  0.00     0.006 C 
ENDBRANCH   8   9
BRANCH   8  11
ATOM     11  C   LIG d   1      -8.984  72.906 117.452  0.00  0.00     0.028 C 
ATOM     12  C   LIG d   1      -7.617  72.755 118.137  0.00  0.00     0.006 C 
ENDBRANCH   8  11
ENDBRANCH   7   8
ENDBRANCH   1   7
BRANCH   6  13
ATOM     13  N   LIG d   1      -7.843  78.120 118.618  0.00  0.00    -0.311 N 
ATOM     14  C   LIG d   1      -8.202  77.917 119.885  0.00  0.00     0.210 C 
ATOM     15  C   LIG d   1      -9.161  78.963 120.461  0.00  0.00     0.109 C 
ATOM     16  O   LIG d   1      -7.792  76.987 120.595  0.00  0.00    -0.276 OA
ATOM     17  H   LIG d   1      -8.198  78.918 118.127  0.00  0.00     0.149 HD
ENDBRANCH   6  13
BRANCH   5  18
ATOM     18  N   LIG d   1      -4.963  78.782 117.841  0.00  0.00     0.381 N 
ATOM     19  H   LIG d   1      -5.338  79.698 117.985  0.00  0.00    -0.090 HD
ATOM     20  H   LIG d   1      -4.093  78.870 117.348  0.00  0.00    -0.090 HD
ATOM     21  H   LIG d   1      -4.812  78.336 118.719  0.00  0.00    -0.090 HD
ENDBRANCH   5  18
BRANCH   3  22
ATOM     22  C   LIG d   1      -5.334  75.567 114.310  0.00  0.00     0.382 C 
ATOM     23  O   LIG d   1      -5.152  76.330 113.331  0.00  0.00    -0.241 OA
ATOM     24  O   LIG d   1      -5.092  74.351 114.194  0.00  0.00    -0.241 OA
ENDBRANCH   3  22
TORSDOF 7
ENDMDL
MODEL 6
REMARK VINA RESULT:      -5.1     15.228     17.315
REMARK  7 active torsions:
REMARK  status: ('A' for Active; 'I' for Inactive)
REMARK    1  A    between atoms: C_2  and  C_3 
REMARK    2  A    between atoms: C_3  and  O_6 
REMARK    3  A    between atoms: C_3  and  C_4 
REMARK    4  A    between atoms: C_7  and  O_6 
REMARK    5  A    between atoms: C_9  and  C_10 
REMARK    6  A    between atoms: N_15  and  C_14 
REMARK    7  A    between atoms: N_20  and  C_19 
REMARK       I    between atoms: C_22  and  N_20 
ROOT
ATOM      1  C   LIG d   1      -7.852  74.980 117.317  0.00  0.00     0.161 C 
ATOM      2  C   LIG d   1      -7.858  73.586 117.143  0.00  0.00     0.016 C 
ATOM      3  C   LIG d   1      -6.682  72.807 117.056  0.00  0.00     0.038 C 
ATOM      4  C   LIG d   1      -5.411  73.355 117.291  0.00  0.00     0.028 C 
ATOM      5  C   LIG d   1      -5.324  74.843 116.969  0.00  0.00    -0.047 C 
ATOM      6  C   LIG d   1      -6.479  75.580 117.685  0.00  0.00     0.091 C 
ENDROOT
BRANCH   1   7
ATOM      7  O   LIG d   1      -8.841  75.355 118.296  0.00  0.00    -0.368 OA
BRANCH   7   8
ATOM      8  C   LIG d   1     -10.115  75.808 117.774  0.00  0.00     0.119 C 
BRANCH   8   9
ATOM      9  C   LIG d   1     -10.573  76.997 118.640  0.00  0.00     0.028 C 
ATOM     10  C   LIG d   1      -9.414  77.633 119.425  0.00  0.00     0.006 C 
ENDBRANCH   8   9
BRANCH   8  11
ATOM     11  C   LIG d   1     -11.199  74.740 117.944  0.00  0.00     0.028 C 
ATOM     12  C   LIG d   1     -12.289  75.153 118.946  0.00  0.00     0.006 C 
ENDBRANCH   8  11
ENDBRANCH   7   8
ENDBRANCH   1   7
BRANCH   6  13
ATOM     13  N   LIG d   1      -6.517  77.028 117.356  0.00  0.00    -0.311 N 
ATOM     14  C   LIG d   1      -5.924  77.964 118.096  0.00  0.00     0.210 C 
ATOM     15  C   LIG d   1      -6.104  79.399 117.589  0.00  0.00     0.109 C 
ATOM     16  O   LIG d   1      -5.240  77.740 119.105  0.00  0.00    -0.276 OA
ATOM     17  H   LIG d   1      -7.025  77.296 116.536  0.00  0.00     0.149 HD
ENDBRANCH   6  13
BRANCH   5  18
ATOM     18  N   LIG d   1      -3.990  75.312 117.388  0.00  0.00     0.381 N 
ATOM     19  H   LIG d   1      -3.934  75.327 118.387  0.00  0.00    -0.090 HD
ATOM     20  H   LIG d   1      -3.854  76.249 117.051  0.00  0.00    -0.090 HD
ATOM     21  H   LIG d   1      -3.286  74.713 117.017  0.00  0.00    -0.090 HD
ENDBRANCH   5  18
BRANCH   3  22
ATOM     22  C   LIG d   1      -6.767  71.472 116.693  0.00  0.00     0.382 C 
ATOM     23  O   LIG d   1      -6.377  71.105 115.558  0.00  0.00    -0.241 OA
ATOM     24  O   LIG d   1      -7.268  70.637 117.469  0.00  0.00    -0.241 OA
ENDBRANCH   3  22
TORSDOF 7
ENDMDL
MODEL 7
REMARK VINA RESULT:      -5.1     15.846     18.111
REMARK  7 active torsions:
REMARK  status: ('A' for Active; 'I' for Inactive)
REMARK    1  A    between atoms: C_2  and  C_3 
REMARK    2  A    between atoms: C_3  and  O_6 
REMARK    3  A    between atoms: C_3  and  C_4 
REMARK    4  A    between atoms: C_7  and  O_6 
REMARK    5  A    between atoms: C_9  and  C_10 
REMARK    6  A    between atoms: N_15  and  C_14 
REMARK    7  A    between atoms: N_20  and  C_19 
REMARK       I    between atoms: C_22  and  N_20 
ROOT
ATOM      1  C   LIG d   1      -4.055  73.928 116.874  0.00  0.00     0.161 C 
ATOM      2  C   LIG d   1      -3.081  73.417 117.748  0.00  0.00     0.016 C 
ATOM      3  C   LIG d   1      -1.708  73.743 117.659  0.00  0.00     0.038 C 
ATOM      4  C   LIG d   1      -1.235  74.727 116.778  0.00  0.00     0.028 C 
ATOM      5  C   LIG d   1      -2.105  74.899 115.538  0.00  0.00    -0.047 C 
ATOM      6  C   LIG d   1      -3.575  75.089 115.978  0.00  0.00     0.091 C 
ENDROOT
BRANCH   1   7
ATOM      7  O   LIG d   1      -5.223  74.322 117.621  0.00  0.00    -0.368 OA
BRANCH   7   8
ATOM      8  C   LIG d   1      -6.400  73.495 117.448  0.00  0.00     0.119 C 
BRANCH   8   9
ATOM      9  C   LIG d   1      -6.094  72.485 116.324  0.00  0.00     0.028 C 
ATOM     10  C   LIG d   1      -6.711  71.102 116.595  0.00  0.00     0.006 C 
ENDBRANCH   8   9
BRANCH   8  11
ATOM     11  C   LIG d   1      -7.589  74.317 116.942  0.00  0.00     0.028 C 
ATOM     12  C   LIG d   1      -8.944  73.718 117.351  0.00  0.00     0.006 C 
ENDBRANCH   8  11
ENDBRANCH   7   8
ENDBRANCH   1   7
BRANCH   6  13
ATOM     13  N   LIG d   1      -4.505  75.179 114.823  0.00  0.00    -0.311 N 
ATOM     14  C   LIG d   1      -5.436  76.125 114.703  0.00  0.00     0.210 C 
ATOM     15  C   LIG d   1      -6.303  76.024 113.444  0.00  0.00     0.109 C 
ATOM     16  O   LIG d   1      -5.604  77.056 115.505  0.00  0.00    -0.276 OA
ATOM     17  H   LIG d   1      -4.418  74.481 114.110  0.00  0.00     0.149 HD
ENDBRANCH   6  13
BRANCH   5  18
ATOM     18  N   LIG d   1      -1.576  76.047 114.778  0.00  0.00     0.381 N 
ATOM     19  H   LIG d   1      -1.081  76.661 115.393  0.00  0.00    -0.090 HD
ATOM     20  H   LIG d   1      -2.346  76.554 114.378  0.00  0.00    -0.090 HD
ATOM     21  H   LIG d   1      -0.969  75.727 114.056  0.00  0.00    -0.090 HD
ENDBRANCH   5  18
BRANCH   3  22
ATOM     22  C   LIG d   1      -0.786  73.052 118.430  0.00  0.00     0.382 C 
ATOM     23  O   LIG d   1      -0.974  71.840 118.696  0.00  0.00    -0.241 OA
ATOM     24  O   LIG d   1       0.208  73.636 118.901  0.00  0.00    -0.241 OA
ENDBRANCH   3  22
TORSDOF 7
ENDMDL
MODEL 8
REMARK VINA RESULT:      -5.0     15.460     17.767
REMARK  7 active torsions:
REMARK  status: ('A' for Active; 'I' for Inactive)
REMARK    1  A    between atoms: C_2  and  C_3 
REMARK    2  A    between atoms: C_3  and  O_6 
REMARK    3  A    between atoms: C_3  and  C_4 
REMARK    4  A    between atoms: C_7  and  O_6 
REMARK    5  A    between atoms: C_9  and  C_10 
REMARK    6  A    between atoms: N_15  and  C_14 
REMARK    7  A    between atoms: N_20  and  C_19 
REMARK       I    between atoms: C_22  and  N_20 
ROOT
ATOM      1  C   LIG d   1      -5.552  74.068 117.477  0.00  0.00     0.161 C 
ATOM      2  C   LIG d   1      -4.290  73.467 117.335  0.00  0.00     0.016 C 
ATOM      3  C   LIG d   1      -3.084  74.086 117.737  0.00  0.00     0.038 C 
ATOM      4  C   LIG d   1      -3.072  75.294 118.450  0.00  0.00     0.028 C 
ATOM      5  C   LIG d   1      -4.283  76.176 118.167  0.00  0.00    -0.047 C 
ATOM      6  C   LIG d   1      -5.569  75.338 118.353  0.00  0.00     0.091 C 
ENDROOT
BRANCH   1   7
ATOM      7  O   LIG d   1      -6.500  73.104 117.974  0.00  0.00    -0.368 OA
BRANCH   7   8
ATOM      8  C   LIG d   1      -7.460  72.599 117.013  0.00  0.00     0.119 C 
BRANCH   8   9
ATOM      9  C   LIG d   1      -8.857  72.705 117.655  0.00  0.00     0.028 C 
ATOM     10  C   LIG d   1      -9.624  73.954 117.188  0.00  0.00     0.006 C 
ENDBRANCH   8   9
BRANCH   8  11
ATOM     11  C   LIG d   1      -7.249  71.106 116.746  0.00  0.00     0.028 C 
ATOM     12  C   LIG d   1      -8.185  70.214 117.576  0.00  0.00     0.006 C 
ENDBRANCH   8  11
ENDBRANCH   7   8
ENDBRANCH   1   7
BRANCH   6  13
ATOM     13  N   LIG d   1      -6.798  76.102 118.014  0.00  0.00    -0.311 N 
ATOM     14  C   LIG d   1      -7.592  76.657 118.929  0.00  0.00     0.210 C 
ATOM     15  C   LIG d   1      -8.818  77.383 118.366  0.00  0.00     0.109 C 
ATOM     16  O   LIG d   1      -7.380  76.643 120.151  0.00  0.00    -0.276 OA
ATOM     17  H   LIG d   1      -7.028  76.189 117.044  0.00  0.00     0.149 HD
ENDBRANCH   6  13
BRANCH   5  18
ATOM     18  N   LIG d   1      -4.212  77.335 119.076  0.00  0.00     0.381 N 
ATOM     19  H   LIG d   1      -5.008  77.926 118.936  0.00  0.00    -0.090 HD
ATOM     20  H   LIG d   1      -3.385  77.865 118.864  0.00  0.00    -0.090 HD
ATOM     21  H   LIG d   1      -4.183  77.025 120.023  0.00  0.00    -0.090 HD
ENDBRANCH   5  18
BRANCH   3  22
ATOM     22  C   LIG d   1      -1.870  73.514 117.389  0.00  0.00     0.382 C 
ATOM     23  O   LIG d   1      -1.218  73.967 116.418  0.00  0.00    -0.241 OA
ATOM     24  O   LIG d   1      -1.439  72.522 118.008  0.00  0.00    -0.241 OA
ENDBRANCH   3  22
TORSDOF 7
ENDMDL
MODEL 9
REMARK VINA RESULT:      -5.0     15.242     17.265
REMARK  7 active torsions:
REMARK  status: ('A' for Active; 'I' for Inactive)
REMARK    1  A    between atoms: C_2  and  C_3 
REMARK    2  A    between atoms: C_3  and  O_6 
REMARK    3  A    between atoms: C_3  and  C_4 
REMARK    4  A    between atoms: C_7  and  O_6 
REMARK    5  A    between atoms: C_9  and  C_10 
REMARK    6  A    between atoms: N_15  and  C_14 
REMARK    7  A    between atoms: N_20  and  C_19 
REMARK       I    between atoms: C_22  and  N_20 
ROOT
ATOM      1  C   LIG d   1      -3.933  73.696 116.450  0.00  0.00     0.161 C 
ATOM      2  C   LIG d   1      -3.363  74.764 115.736  0.00  0.00     0.016 C 
ATOM      3  C   LIG d   1      -4.103  75.882 115.286  0.00  0.00     0.038 C 
ATOM      4  C   LIG d   1      -5.443  76.081 115.653  0.00  0.00     0.028 C 
ATOM      5  C   LIG d   1      -6.190  74.784 115.946  0.00  0.00    -0.047 C 
ATOM      6  C   LIG d   1      -5.369  73.949 116.955  0.00  0.00     0.091 C 
ENDROOT
BRANCH   1   7
ATOM      7  O   LIG d   1      -3.073  73.328 117.547  0.00  0.00    -0.368 OA
BRANCH   7   8
ATOM      8  C   LIG d   1      -1.874  74.124 117.711  0.00  0.00     0.119 C 
BRANCH   8   9
ATOM      9  C   LIG d   1      -0.682  73.151 117.801  0.00  0.00     0.028 C 
ATOM     10  C   LIG d   1      -0.725  72.285 119.071  0.00  0.00     0.006 C 
ENDBRANCH   8   9
BRANCH   8  11
ATOM     11  C   LIG d   1      -1.883  74.877 119.045  0.00  0.00     0.028 C 
ATOM     12  C   LIG d   1      -2.155  76.380 118.878  0.00  0.00     0.006 C 
ENDBRANCH   8  11
ENDBRANCH   7   8
ENDBRANCH   1   7
BRANCH   6  13
ATOM     13  N   LIG d   1      -5.987  72.626 117.232  0.00  0.00    -0.311 N 
ATOM     14  C   LIG d   1      -6.866  72.418 118.211  0.00  0.00     0.210 C 
ATOM     15  C   LIG d   1      -7.365  70.976 118.336  0.00  0.00     0.109 C 
ATOM     16  O   LIG d   1      -7.303  73.299 118.968  0.00  0.00    -0.276 OA
ATOM     17  H   LIG d   1      -5.712  71.862 116.646  0.00  0.00     0.149 HD
ENDBRANCH   6  13
BRANCH   5  18
ATOM     18  N   LIG d   1      -7.529  75.144 116.447  0.00  0.00     0.381 N 
ATOM     19  H   LIG d   1      -7.447  75.602 117.333  0.00  0.00    -0.090 HD
ATOM     20  H   LIG d   1      -8.065  74.304 116.575  0.00  0.00    -0.090 HD
ATOM     21  H   LIG d   1      -7.987  75.744 115.797  0.00  0.00    -0.090 HD
ENDBRANCH   5  18
BRANCH   3  22
ATOM     22  C   LIG d   1      -3.513  76.795 114.426  0.00  0.00     0.382 C 
ATOM     23  O   LIG d   1      -3.945  76.923 113.255  0.00  0.00    -0.241 OA
ATOM     24  O   LIG d   1      -2.527  77.462 114.792  0.00  0.00    -0.241 OA
ENDBRANCH   3  22
TORSDOF 7
ENDMDL
