MODEL 1
REMARK VINA RESULT:      -5.3      0.000      0.000
REMARK  7 active torsions:
REMARK  status: ('A' for Active; 'I' for Inactive)
REMARK    1  A    between atoms: C_2  and  C_3 
REMARK    2  A    between atoms: C_3  and  O_6 
REMARK    3  A    between atoms: C_3  and  C_4 
REMARK    4  A    between atoms: C_7  and  O_6 
REMARK    5  A    between atoms: C_9  and  C_10 
REMARK    6  A    between atoms: N_15  and  C_14 
REMARK    7  A    between atoms: N_20  and  C_19 
REMARK       I    between atoms: C_22  and  N_20 
ROOT
ATOM      1  C   LIG d   1      -3.998  92.878 117.510  0.00  0.00     0.161 C 
ATOM      2  C   LIG d   1      -3.373  93.442 118.635  0.00  0.00     0.016 C 
ATOM      3  C   LIG d   1      -4.076  93.848 119.793  0.00  0.00     0.038 C 
ATOM      4  C   LIG d   1      -5.441  93.578 119.965  0.00  0.00     0.028 C 
ATOM      5  C   LIG d   1      -6.207  93.467 118.651  0.00  0.00    -0.047 C 
ATOM      6  C   LIG d   1      -5.472  92.473 117.724  0.00  0.00     0.091 C 
ENDROOT
BRANCH   1   7
ATOM      7  O   LIG d   1      -3.232  91.751 117.039  0.00  0.00    -0.368 OA
BRANCH   7   8
ATOM      8  C   LIG d   1      -2.419  91.075 118.029  0.00  0.00     0.119 C 
BRANCH   8   9
ATOM      9  C   LIG d   1      -1.022  90.864 117.415  0.00  0.00     0.028 C 
ATOM     10  C   LIG d   1      -0.428  89.489 117.765  0.00  0.00     0.006 C 
ENDBRANCH   8   9
BRANCH   8  11
ATOM     11  C   LIG d   1      -2.951  89.668 118.320  0.00  0.00     0.028 C 
ATOM     12  C   LIG d   1      -3.647  89.565 119.686  0.00  0.00     0.006 C 
ENDBRANCH   8  11
ENDBRANCH   7   8
ENDBRANCH   1   7
BRANCH   6  13
ATOM     13  N   LIG d   1      -6.108  92.370 116.385  0.00  0.00    -0.311 N 
ATOM     14  C   LIG d   1      -7.064  91.490 116.093  0.00  0.00     0.210 C 
ATOM     15  C   LIG d   1      -7.570  91.538 114.648  0.00  0.00     0.109 C 
ATOM     16  O   LIG d   1      -7.565  90.695 116.903  0.00  0.00    -0.276 OA
ATOM     17  H   LIG d   1      -5.784  92.998 115.676  0.00  0.00     0.149 HD
ENDBRANCH   6  13
BRANCH   5  18
ATOM     18  N   LIG d   1      -7.585  93.048 118.972  0.00  0.00     0.381 N 
ATOM     19  H   LIG d   1      -7.564  92.277 119.609  0.00  0.00    -0.090 HD
ATOM     20  H   LIG d   1      -8.038  92.747 118.127  0.00  0.00    -0.090 HD
ATOM     21  H   LIG d   1      -8.087  93.808 119.375  0.00  0.00    -0.090 HD
ENDBRANCH   5  18
BRANCH   3  22
ATOM     22  C   LIG d   1      -3.418  94.570 120.777  0.00  0.00     0.382 C 
ATOM     23  O   LIG d   1      -3.667  94.351 121.987  0.00  0.00    -0.241 OA
ATOM     24  O   LIG d   1      -2.610  95.467 120.470  0.00  0.00    -0.241 OA
ENDBRANCH   3  22
TORSDOF 7
ENDMDL
MODEL 2
REMARK VINA RESULT:      -5.2      1.823      4.997
REMARK  7 active torsions:
REMARK  status: ('A' for Active; 'I' for Inactive)
REMARK    1  A    between atoms: C_2  and  C_3 
REMARK    2  A    between atoms: C_3  and  O_6 
REMARK    3  A    between atoms: C_3  and  C_4 
REMARK    4  A    between atoms: C_7  and  O_6 
REMARK    5  A    between atoms: C_9  and  C_10 
REMARK    6  A    between atoms: N_15  and  C_14 
REMARK    7  A    between atoms: N_20  and  C_19 
REMARK       I    between atoms: C_22  and  N_20 
ROOT
ATOM      1  C   LIG d   1      -5.902  92.033 118.571  0.00  0.00     0.161 C 
ATOM      2  C   LIG d   1      -6.256  91.334 117.405  0.00  0.00     0.016 C 
ATOM      3  C   LIG d   1      -6.944  91.927 116.321  0.00  0.00     0.038 C 
ATOM      4  C   LIG d   1      -7.193  93.306 116.267  0.00  0.00     0.028 C 
ATOM      5  C   LIG d   1      -7.303  93.957 117.642  0.00  0.00    -0.047 C 
ATOM      6  C   LIG d   1      -6.067  93.564 118.483  0.00  0.00     0.091 C 
ENDROOT
BRANCH   1   7
ATOM      7  O   LIG d   1      -4.554  91.695 118.953  0.00  0.00    -0.368 OA
BRANCH   7   8
ATOM      8  C   LIG d   1      -3.514  92.069 118.015  0.00  0.00     0.119 C 
BRANCH   8   9
ATOM      9  C   LIG d   1      -2.576  90.856 117.857  0.00  0.00     0.028 C 
ATOM     10  C   LIG d   1      -3.140  89.588 118.520  0.00  0.00     0.006 C 
ENDBRANCH   8   9
BRANCH   8  11
ATOM     11  C   LIG d   1      -2.635  93.191 118.576  0.00  0.00     0.028 C 
ATOM     12  C   LIG d   1      -2.532  93.157 120.109  0.00  0.00     0.006 C 
ENDBRANCH   8  11
ENDBRANCH   7   8
ENDBRANCH   1   7
BRANCH   6  13
ATOM     13  N   LIG d   1      -6.136  94.090 119.871  0.00  0.00    -0.311 N 
ATOM     14  C   LIG d   1      -5.577  95.239 120.249  0.00  0.00     0.210 C 
ATOM     15  C   LIG d   1      -5.750  95.585 121.731  0.00  0.00     0.109 C 
ATOM     16  O   LIG d   1      -4.982  96.018 119.490  0.00  0.00    -0.276 OA
ATOM     17  H   LIG d   1      -6.627  93.536 120.545  0.00  0.00     0.149 HD
ENDBRANCH   6  13
BRANCH   5  18
ATOM     18  N   LIG d   1      -7.426  95.413 117.437  0.00  0.00     0.381 N 
ATOM     19  H   LIG d   1      -7.899  95.595 116.575  0.00  0.00    -0.090 HD
ATOM     20  H   LIG d   1      -6.505  95.811 117.383  0.00  0.00    -0.090 HD
ATOM     21  H   LIG d   1      -7.928  95.822 118.194  0.00  0.00    -0.090 HD
ENDBRANCH   5  18
BRANCH   3  22
ATOM     22  C   LIG d   1      -7.426  91.129 115.294  0.00  0.00     0.382 C 
ATOM     23  O   LIG d   1      -8.298  91.576 114.510  0.00  0.00    -0.241 OA
ATOM     24  O   LIG d   1      -7.033  89.954 115.169  0.00  0.00    -0.241 OA
ENDBRANCH   3  22
TORSDOF 7
ENDMDL
MODEL 3
REMARK VINA RESULT:      -4.9     12.769     15.171
REMARK  7 active torsions:
REMARK  status: ('A' for Active; 'I' for Inactive)
REMARK    1  A    between atoms: C_2  and  C_3 
REMARK    2  A    between atoms: C_3  and  O_6 
REMARK    3  A    between atoms: C_3  and  C_4 
REMARK    4  A    between atoms: C_7  and  O_6 
REMARK    5  A    between atoms: C_9  and  C_10 
REMARK    6  A    between atoms: N_15  and  C_14 
REMARK    7  A    between atoms: N_20  and  C_19 
REMARK       I    between atoms: C_22  and  N_20 
ROOT
ATOM      1  C   LIG d   1      -2.995  78.834 115.914  0.00  0.00     0.161 C 
ATOM      2  C   LIG d   1      -3.045  79.894 114.994  0.00  0.00     0.016 C 
ATOM      3  C   LIG d   1      -2.506  79.817 113.689  0.00  0.00     0.038 C 
ATOM      4  C   LIG d   1      -2.011  78.616 113.161  0.00  0.00     0.028 C 
ATOM      5  C   LIG d   1      -1.481  77.659 114.224  0.00  0.00    -0.047 C 
ATOM      6  C   LIG d   1      -2.558  77.479 115.318  0.00  0.00     0.091 C 
ENDROOT
BRANCH   1   7
ATOM      7  O   LIG d   1      -4.268  78.702 116.577  0.00  0.00    -0.368 OA
BRANCH   7   8
ATOM      8  C   LIG d   1      -4.271  78.944 118.006  0.00  0.00     0.119 C 
BRANCH   8   9
ATOM      9  C   LIG d   1      -5.185  77.885 118.653  0.00  0.00     0.028 C 
ATOM     10  C   LIG d   1      -5.579  76.770 117.669  0.00  0.00     0.006 C 
ENDBRANCH   8   9
BRANCH   8  11
ATOM     11  C   LIG d   1      -4.913  80.293 118.341  0.00  0.00     0.028 C 
ATOM     12  C   LIG d   1      -6.214  80.544 117.563  0.00  0.00     0.006 C 
ENDBRANCH   8  11
ENDBRANCH   7   8
ENDBRANCH   1   7
BRANCH   6  13
ATOM     13  N   LIG d   1      -2.089  76.625 116.440  0.00  0.00    -0.311 N 
ATOM     14  C   LIG d   1      -2.311  75.313 116.505  0.00  0.00     0.210 C 
ATOM     15  C   LIG d   1      -1.759  74.625 117.757  0.00  0.00     0.109 C 
ATOM     16  O   LIG d   1      -2.885  74.649 115.629  0.00  0.00    -0.276 OA
ATOM     17  H   LIG d   1      -1.588  77.077 117.179  0.00  0.00     0.149 HD
ENDBRANCH   6  13
BRANCH   5  18
ATOM     18  N   LIG d   1      -1.125  76.396 113.550  0.00  0.00     0.381 N 
ATOM     19  H   LIG d   1      -0.135  76.257 113.593  0.00  0.00    -0.090 HD
ATOM     20  H   LIG d   1      -1.394  76.457 112.584  0.00  0.00    -0.090 HD
ATOM     21  H   LIG d   1      -1.594  75.633 113.986  0.00  0.00    -0.090 HD
ENDBRANCH   5  18
BRANCH   3  22
ATOM     22  C   LIG d   1      -2.423  80.962 112.911  0.00  0.00     0.382 C 
ATOM     23  O   LIG d   1      -1.539  81.056 112.026  0.00  0.00    -0.241 OA
ATOM     24  O   LIG d   1      -3.192  81.921 113.114  0.00  0.00    -0.241 OA
ENDBRANCH   3  22
TORSDOF 7
ENDMDL
MODEL 4
REMARK VINA RESULT:      -4.8      2.101      2.492
REMARK  7 active torsions:
REMARK  status: ('A' for Active; 'I' for Inactive)
REMARK    1  A    between atoms: C_2  and  C_3 
REMARK    2  A    between atoms: C_3  and  O_6 
REMARK    3  A    between atoms: C_3  and  C_4 
REMARK    4  A    between atoms: C_7  and  O_6 
REMARK    5  A    between atoms: C_9  and  C_10 
REMARK    6  A    between atoms: N_15  and  C_14 
REMARK    7  A    between atoms: N_20  and  C_19 
REMARK       I    between atoms: C_22  and  N_20 
ROOT
ATOM      1  C   LIG d   1      -4.821  93.878 118.567  0.00  0.00     0.161 C 
ATOM      2  C   LIG d   1      -4.816  94.961 119.462  0.00  0.00     0.016 C 
ATOM      3  C   LIG d   1      -5.914  95.836 119.632  0.00  0.00     0.038 C 
ATOM      4  C   LIG d   1      -7.155  95.594 119.024  0.00  0.00     0.028 C 
ATOM      5  C   LIG d   1      -7.050  94.802 117.725  0.00  0.00    -0.047 C 
ATOM      6  C   LIG d   1      -6.205  93.533 117.978  0.00  0.00     0.091 C 
ENDROOT
BRANCH   1   7
ATOM      7  O   LIG d   1      -4.242  92.719 119.199  0.00  0.00    -0.368 OA
BRANCH   7   8
ATOM      8  C   LIG d   1      -2.844  92.469 118.914  0.00  0.00     0.119 C 
BRANCH   8   9
ATOM      9  C   LIG d   1      -2.782  91.388 117.818  0.00  0.00     0.028 C 
ATOM     10  C   LIG d   1      -3.552  90.114 118.206  0.00  0.00     0.006 C 
ENDBRANCH   8   9
BRANCH   8  11
ATOM     11  C   LIG d   1      -2.128  91.862 120.124  0.00  0.00     0.028 C 
ATOM     12  C   LIG d   1      -2.566  92.494 121.454  0.00  0.00     0.006 C 
ENDBRANCH   8  11
ENDBRANCH   7   8
ENDBRANCH   1   7
BRANCH   6  13
ATOM     13  N   LIG d   1      -5.982  92.744 116.738  0.00  0.00    -0.311 N 
ATOM     14  C   LIG d   1      -6.547  91.559 116.512  0.00  0.00     0.210 C 
ATOM     15  C   LIG d   1      -6.167  90.906 115.179  0.00  0.00     0.109 C 
ATOM     16  O   LIG d   1      -7.351  91.002 117.274  0.00  0.00    -0.276 OA
ATOM     17  H   LIG d   1      -5.367  93.136 116.052  0.00  0.00     0.149 HD
ENDBRANCH   6  13
BRANCH   5  18
ATOM     18  N   LIG d   1      -8.422  94.503 117.273  0.00  0.00     0.381 N 
ATOM     19  H   LIG d   1      -9.078  95.045 117.800  0.00  0.00    -0.090 HD
ATOM     20  H   LIG d   1      -8.613  93.530 117.436  0.00  0.00    -0.090 HD
ATOM     21  H   LIG d   1      -8.513  94.709 116.302  0.00  0.00    -0.090 HD
ENDBRANCH   5  18
BRANCH   3  22
ATOM     22  C   LIG d   1      -5.764  96.989 120.386  0.00  0.00     0.382 C 
ATOM     23  O   LIG d   1      -6.770  97.670 120.698  0.00  0.00    -0.241 OA
ATOM     24  O   LIG d   1      -4.630  97.382 120.721  0.00  0.00    -0.241 OA
ENDBRANCH   3  22
TORSDOF 7
ENDMDL
MODEL 5
REMARK VINA RESULT:      -4.7      7.100     10.661
REMARK  7 active torsions:
REMARK  status: ('A' for Active; 'I' for Inactive)
REMARK    1  A    between atoms: C_2  and  C_3 
REMARK    2  A    between atoms: C_3  and  O_6 
REMARK    3  A    between atoms: C_3  and  C_4 
REMARK    4  A    between atoms: C_7  and  O_6 
REMARK    5  A    between atoms: C_9  and  C_10 
REMARK    6  A    between atoms: N_15  and  C_14 
REMARK    7  A    between atoms: N_20  and  C_19 
REMARK       I    between atoms: C_22  and  N_20 
ROOT
ATOM      1  C   LIG d   1       2.926  87.462 115.778  0.00  0.00     0.161 C 
ATOM      2  C   LIG d   1       3.582  88.203 114.781  0.00  0.00     0.016 C 
ATOM      3  C   LIG d   1       4.354  87.613 113.754  0.00  0.00     0.038 C 
ATOM      4  C   LIG d   1       4.399  86.223 113.566  0.00  0.00     0.028 C 
ATOM      5  C   LIG d   1       4.164  85.430 114.847  0.00  0.00    -0.047 C 
ATOM      6  C   LIG d   1       2.872  85.941 115.523  0.00  0.00     0.091 C 
ENDROOT
BRANCH   1   7
ATOM      7  O   LIG d   1       1.597  87.984 115.980  0.00  0.00    -0.368 OA
BRANCH   7   8
ATOM      8  C   LIG d   1       1.392  88.753 117.190  0.00  0.00     0.119 C 
BRANCH   8   9
ATOM      9  C   LIG d   1       0.009  88.371 117.753  0.00  0.00     0.028 C 
ATOM     10  C   LIG d   1       0.093  87.248 118.800  0.00  0.00     0.006 C 
ENDBRANCH   8   9
BRANCH   8  11
ATOM     11  C   LIG d   1       1.306  90.253 116.889  0.00  0.00     0.028 C 
ATOM     12  C   LIG d   1      -0.114  90.814 117.057  0.00  0.00     0.006 C 
ENDBRANCH   8  11
ENDBRANCH   7   8
ENDBRANCH   1   7
BRANCH   6  13
ATOM     13  N   LIG d   1       2.613  85.276 116.827  0.00  0.00    -0.311 N 
ATOM     14  C   LIG d   1       1.885  84.167 116.953  0.00  0.00     0.210 C 
ATOM     15  C   LIG d   1       1.726  83.658 118.389  0.00  0.00     0.109 C 
ATOM     16  O   LIG d   1       1.383  83.540 116.008  0.00  0.00    -0.276 OA
ATOM     17  H   LIG d   1       3.010  85.700 117.642  0.00  0.00     0.149 HD
ENDBRANCH   6  13
BRANCH   5  18
ATOM     18  N   LIG d   1       4.100  84.002 114.482  0.00  0.00     0.381 N 
ATOM     19  H   LIG d   1       3.747  83.906 113.551  0.00  0.00    -0.090 HD
ATOM     20  H   LIG d   1       3.470  83.534 115.108  0.00  0.00    -0.090 HD
ATOM     21  H   LIG d   1       5.007  83.593 114.544  0.00  0.00    -0.090 HD
ENDBRANCH   5  18
BRANCH   3  22
ATOM     22  C   LIG d   1       5.125  88.415 112.927  0.00  0.00     0.382 C 
ATOM     23  O   LIG d   1       6.095  87.922 112.302  0.00  0.00    -0.241 OA
ATOM     24  O   LIG d   1       4.891  89.634 112.832  0.00  0.00    -0.241 OA
ENDBRANCH   3  22
TORSDOF 7
ENDMDL
MODEL 6
REMARK VINA RESULT:      -4.7      2.381      4.834
REMARK  7 active torsions:
REMARK  status: ('A' for Active; 'I' for Inactive)
REMARK    1  A    between atoms: C_2  and  C_3 
REMARK    2  A    between atoms: C_3  and  O_6 
REMARK    3  A    between atoms: C_3  and  C_4 
REMARK    4  A    between atoms: C_7  and  O_6 
REMARK    5  A    between atoms: C_9  and  C_10 
REMARK    6  A    between atoms: N_15  and  C_14 
REMARK    7  A    between atoms: N_20  and  C_19 
REMARK       I    between atoms: C_22  and  N_20 
ROOT
ATOM      1  C   LIG d   1      -6.639  92.582 118.845  0.00  0.00     0.161 C 
ATOM      2  C   LIG d   1      -5.753  92.550 119.935  0.00  0.00     0.016 C 
ATOM      3  C   LIG d   1      -4.460  91.982 119.871  0.00  0.00     0.038 C 
ATOM      4  C   LIG d   1      -3.904  91.540 118.661  0.00  0.00     0.028 C 
ATOM      5  C   LIG d   1      -4.947  91.092 117.643  0.00  0.00    -0.047 C 
ATOM      6  C   LIG d   1      -6.008  92.205 117.488  0.00  0.00     0.091 C 
ENDROOT
BRANCH   1   7
ATOM      7  O   LIG d   1      -7.266  93.878 118.764  0.00  0.00    -0.368 OA
BRANCH   7   8
ATOM      8  C   LIG d   1      -6.701  94.913 119.605  0.00  0.00     0.119 C 
BRANCH   8   9
ATOM      9  C   LIG d   1      -7.864  95.571 120.374  0.00  0.00     0.028 C 
ATOM     10  C   LIG d   1      -7.684  95.481 121.899  0.00  0.00     0.006 C 
ENDBRANCH   8   9
BRANCH   8  11
ATOM     11  C   LIG d   1      -6.082  96.036 118.768  0.00  0.00     0.028 C 
ATOM     12  C   LIG d   1      -7.011  97.251 118.620  0.00  0.00     0.006 C 
ENDBRANCH   8  11
ENDBRANCH   7   8
ENDBRANCH   1   7
BRANCH   6  13
ATOM     13  N   LIG d   1      -7.112  91.814 116.573  0.00  0.00    -0.311 N 
ATOM     14  C   LIG d   1      -7.070  91.998 115.254  0.00  0.00     0.210 C 
ATOM     15  C   LIG d   1      -8.322  91.541 114.498  0.00  0.00     0.109 C 
ATOM     16  O   LIG d   1      -6.103  92.466 114.636  0.00  0.00    -0.276 OA
ATOM     17  H   LIG d   1      -7.922  91.398 116.988  0.00  0.00     0.149 HD
ENDBRANCH   6  13
BRANCH   5  18
ATOM     18  N   LIG d   1      -4.240  90.789 116.384  0.00  0.00     0.381 N 
ATOM     19  H   LIG d   1      -3.388  91.312 116.339  0.00  0.00    -0.090 HD
ATOM     20  H   LIG d   1      -4.820  91.064 115.611  0.00  0.00    -0.090 HD
ATOM     21  H   LIG d   1      -4.042  89.814 116.330  0.00  0.00    -0.090 HD
ENDBRANCH   5  18
BRANCH   3  22
ATOM     22  C   LIG d   1      -3.724  91.815 121.034  0.00  0.00     0.382 C 
ATOM     23  O   LIG d   1      -4.043  90.921 121.855  0.00  0.00    -0.241 OA
ATOM     24  O   LIG d   1      -2.772  92.575 121.293  0.00  0.00    -0.241 OA
ENDBRANCH   3  22
TORSDOF 7
ENDMDL
MODEL 7
REMARK VINA RESULT:      -4.6     29.068     31.432
REMARK  7 active torsions:
REMARK  status: ('A' for Active; 'I' for Inactive)
REMARK    1  A    between atoms: C_2  and  C_3 
REMARK    2  A    between atoms: C_3  and  O_6 
REMARK    3  A    between atoms: C_3  and  C_4 
REMARK    4  A    between atoms: C_7  and  O_6 
REMARK    5  A    between atoms: C_9  and  C_10 
REMARK    6  A    between atoms: N_15  and  C_14 
REMARK    7  A    between atoms: N_20  and  C_19 
REMARK       I    between atoms: C_22  and  N_20 
ROOT
ATOM      1  C   LIG d   1     -17.690  63.741 116.316  0.00  0.00     0.161 C 
ATOM      2  C   LIG d   1     -17.847  62.527 115.627  0.00  0.00     0.016 C 
ATOM      3  C   LIG d   1     -17.537  62.364 114.257  0.00  0.00     0.038 C 
ATOM      4  C   LIG d   1     -16.903  63.371 113.516  0.00  0.00     0.028 C 
ATOM      5  C   LIG d   1     -17.188  64.776 114.034  0.00  0.00    -0.047 C 
ATOM      6  C   LIG d   1     -16.895  64.820 115.551  0.00  0.00     0.091 C 
ENDROOT
BRANCH   1   7
ATOM      7  O   LIG d   1     -17.094  63.498 117.605  0.00  0.00    -0.368 OA
BRANCH   7   8
ATOM      8  C   LIG d   1     -15.651  63.612 117.671  0.00  0.00     0.119 C 
BRANCH   8   9
ATOM      9  C   LIG d   1     -15.087  62.203 117.940  0.00  0.00     0.028 C 
ATOM     10  C   LIG d   1     -15.689  61.561 119.201  0.00  0.00     0.006 C 
ENDBRANCH   8   9
BRANCH   8  11
ATOM     11  C   LIG d   1     -15.213  64.460 118.869  0.00  0.00     0.028 C 
ATOM     12  C   LIG d   1     -16.391  65.156 119.569  0.00  0.00     0.006 C 
ENDBRANCH   8  11
ENDBRANCH   7   8
ENDBRANCH   1   7
BRANCH   6  13
ATOM     13  N   LIG d   1     -17.229  66.137 116.155  0.00  0.00    -0.311 N 
ATOM     14  C   LIG d   1     -16.319  67.072 116.423  0.00  0.00     0.210 C 
ATOM     15  C   LIG d   1     -16.873  68.349 117.063  0.00  0.00     0.109 C 
ATOM     16  O   LIG d   1     -15.110  66.979 116.161  0.00  0.00    -0.276 OA
ATOM     17  H   LIG d   1     -18.191  66.309 116.371  0.00  0.00     0.149 HD
ENDBRANCH   6  13
BRANCH   5  18
ATOM     18  N   LIG d   1     -16.357  65.715 113.257  0.00  0.00     0.381 N 
ATOM     19  H   LIG d   1     -15.865  66.326 113.879  0.00  0.00    -0.090 HD
ATOM     20  H   LIG d   1     -16.956  66.274 112.674  0.00  0.00    -0.090 HD
ATOM     21  H   LIG d   1     -15.709  65.211 112.694  0.00  0.00    -0.090 HD
ENDBRANCH   5  18
BRANCH   3  22
ATOM     22  C   LIG d   1     -17.900  61.195 113.606  0.00  0.00     0.382 C 
ATOM     23  O   LIG d   1     -17.234  60.146 113.783  0.00  0.00    -0.241 OA
ATOM     24  O   LIG d   1     -18.857  61.186 112.808  0.00  0.00    -0.241 OA
ENDBRANCH   3  22
TORSDOF 7
ENDMDL
MODEL 8
REMARK VINA RESULT:      -4.6     27.471     29.745
REMARK  7 active torsions:
REMARK  status: ('A' for Active; 'I' for Inactive)
REMARK    1  A    between atoms: C_2  and  C_3 
REMARK    2  A    between atoms: C_3  and  O_6 
REMARK    3  A    between atoms: C_3  and  C_4 
REMARK    4  A    between atoms: C_7  and  O_6 
REMARK    5  A    between atoms: C_9  and  C_10 
REMARK    6  A    between atoms: N_15  and  C_14 
REMARK    7  A    between atoms: N_20  and  C_19 
REMARK       I    between atoms: C_22  and  N_20 
ROOT
ATOM      1  C   LIG d   1     -14.708  65.809 117.772  0.00  0.00     0.161 C 
ATOM      2  C   LIG d   1     -15.354  65.991 116.538  0.00  0.00     0.016 C 
ATOM      3  C   LIG d   1     -16.128  64.989 115.910  0.00  0.00     0.038 C 
ATOM      4  C   LIG d   1     -16.435  63.779 116.550  0.00  0.00     0.028 C 
ATOM      5  C   LIG d   1     -15.389  63.354 117.576  0.00  0.00    -0.047 C 
ATOM      6  C   LIG d   1     -15.122  64.535 118.537  0.00  0.00     0.091 C 
ENDROOT
BRANCH   1   7
ATOM      7  O   LIG d   1     -14.897  66.974 118.599  0.00  0.00    -0.368 OA
BRANCH   7   8
ATOM      8  C   LIG d   1     -16.155  67.051 119.314  0.00  0.00     0.119 C 
BRANCH   8   9
ATOM      9  C   LIG d   1     -16.909  68.289 118.793  0.00  0.00     0.028 C 
ATOM     10  C   LIG d   1     -18.118  67.916 117.919  0.00  0.00     0.006 C 
ENDBRANCH   8   9
BRANCH   8  11
ATOM     11  C   LIG d   1     -15.932  67.310 120.807  0.00  0.00     0.028 C 
ATOM     12  C   LIG d   1     -16.630  68.587 121.301  0.00  0.00     0.006 C 
ENDBRANCH   8  11
ENDBRANCH   7   8
ENDBRANCH   1   7
BRANCH   6  13
ATOM     13  N   LIG d   1     -14.050  64.233 119.521  0.00  0.00    -0.311 N 
ATOM     14  C   LIG d   1     -14.291  63.808 120.760  0.00  0.00     0.210 C 
ATOM     15  C   LIG d   1     -13.043  63.575 121.618  0.00  0.00     0.109 C 
ATOM     16  O   LIG d   1     -15.418  63.570 121.220  0.00  0.00    -0.276 OA
ATOM     17  H   LIG d   1     -13.104  64.368 119.221  0.00  0.00     0.149 HD
ENDBRANCH   6  13
BRANCH   5  18
ATOM     18  N   LIG d   1     -15.901  62.154 118.263  0.00  0.00     0.381 N 
ATOM     19  H   LIG d   1     -15.881  61.372 117.639  0.00  0.00    -0.090 HD
ATOM     20  H   LIG d   1     -16.855  62.316 118.534  0.00  0.00    -0.090 HD
ATOM     21  H   LIG d   1     -15.348  61.959 119.068  0.00  0.00    -0.090 HD
ENDBRANCH   5  18
BRANCH   3  22
ATOM     22  C   LIG d   1     -16.572  65.177 114.610  0.00  0.00     0.382 C 
ATOM     23  O   LIG d   1     -17.711  64.774 114.271  0.00  0.00    -0.241 OA
ATOM     24  O   LIG d   1     -15.830  65.704 113.759  0.00  0.00    -0.241 OA
ENDBRANCH   3  22
TORSDOF 7
ENDMDL
MODEL 9
REMARK VINA RESULT:      -4.5     13.086     15.792
REMARK  7 active torsions:
REMARK  status: ('A' for Active; 'I' for Inactive)
REMARK    1  A    between atoms: C_2  and  C_3 
REMARK    2  A    between atoms: C_3  and  O_6 
REMARK    3  A    between atoms: C_3  and  C_4 
REMARK    4  A    between atoms: C_7  and  O_6 
REMARK    5  A    between atoms: C_9  and  C_10 
REMARK    6  A    between atoms: N_15  and  C_14 
REMARK    7  A    between atoms: N_20  and  C_19 
REMARK       I    between atoms: C_22  and  N_20 
ROOT
ATOM      1  C   LIG d   1      -3.387  77.836 115.107  0.00  0.00     0.161 C 
ATOM      2  C   LIG d   1      -3.974  76.811 115.869  0.00  0.00     0.016 C 
ATOM      3  C   LIG d   1      -3.306  75.612 116.205  0.00  0.00     0.038 C 
ATOM      4  C   LIG d   1      -1.944  75.419 115.929  0.00  0.00     0.028 C 
ATOM      5  C   LIG d   1      -1.453  76.212 114.723  0.00  0.00    -0.047 C 
ATOM      6  C   LIG d   1      -1.866  77.691 114.892  0.00  0.00     0.091 C 
ENDROOT
BRANCH   1   7
ATOM      7  O   LIG d   1      -3.691  79.116 115.695  0.00  0.00    -0.368 OA
BRANCH   7   8
ATOM      8  C   LIG d   1      -3.960  79.116 117.119  0.00  0.00     0.119 C 
BRANCH   8   9
ATOM      9  C   LIG d   1      -5.127  80.091 117.369  0.00  0.00     0.028 C 
ATOM     10  C   LIG d   1      -4.957  80.887 118.674  0.00  0.00     0.006 C 
ENDBRANCH   8   9
BRANCH   8  11
ATOM     11  C   LIG d   1      -2.779  79.687 117.909  0.00  0.00     0.028 C 
ATOM     12  C   LIG d   1      -1.891  78.595 118.526  0.00  0.00     0.006 C 
ENDBRANCH   8  11
ENDBRANCH   7   8
ENDBRANCH   1   7
BRANCH   6  13
ATOM     13  N   LIG d   1      -1.498  78.521 113.715  0.00  0.00    -0.311 N 
ATOM     14  C   LIG d   1      -0.938  79.726 113.814  0.00  0.00     0.210 C 
ATOM     15  C   LIG d   1      -0.657  80.420 112.478  0.00  0.00     0.109 C 
ATOM     16  O   LIG d   1      -0.617  80.271 114.881  0.00  0.00    -0.276 OA
ATOM     17  H   LIG d   1      -1.694  78.142 112.810  0.00  0.00     0.149 HD
ENDBRANCH   6  13
BRANCH   5  18
ATOM     18  N   LIG d   1       0.008  76.026 114.632  0.00  0.00     0.381 N 
ATOM     19  H   LIG d   1       0.230  75.468 113.832  0.00  0.00    -0.090 HD
ATOM     20  H   LIG d   1       0.326  75.542 115.453  0.00  0.00    -0.090 HD
ATOM     21  H   LIG d   1       0.461  76.911 114.565  0.00  0.00    -0.090 HD
ENDBRANCH   5  18
BRANCH   3  22
ATOM     22  C   LIG d   1      -4.012  74.572 116.791  0.00  0.00     0.382 C 
ATOM     23  O   LIG d   1      -3.405  73.695 117.451  0.00  0.00    -0.241 OA
ATOM     24  O   LIG d   1      -5.244  74.476 116.629  0.00  0.00    -0.241 OA
ENDBRANCH   3  22
TORSDOF 7
ENDMDL
