MODEL 1
REMARK VINA RESULT:      -5.5      0.000      0.000
REMARK  7 active torsions:
REMARK  status: ('A' for Active; 'I' for Inactive)
REMARK    1  A    between atoms: C_2  and  C_3 
REMARK    2  A    between atoms: C_3  and  O_6 
REMARK    3  A    between atoms: C_3  and  C_4 
REMARK    4  A    between atoms: C_7  and  O_6 
REMARK    5  A    between atoms: C_9  and  C_10 
REMARK    6  A    between atoms: N_15  and  C_14 
REMARK    7  A    between atoms: N_20  and  C_19 
REMARK       I    between atoms: C_22  and  N_20 
ROOT
ATOM      1  C   LIG d   1      -5.579  92.220 117.478  0.00  0.00     0.161 C 
ATOM      2  C   LIG d   1      -6.642  91.440 116.992  0.00  0.00     0.016 C 
ATOM      3  C   LIG d   1      -6.468  90.165 116.407  0.00  0.00     0.038 C 
ATOM      4  C   LIG d   1      -5.226  89.513 116.407  0.00  0.00     0.028 C 
ATOM      5  C   LIG d   1      -4.039  90.470 116.430  0.00  0.00    -0.047 C 
ATOM      6  C   LIG d   1      -4.231  91.478 117.587  0.00  0.00     0.091 C 
ENDROOT
BRANCH   1   7
ATOM      7  O   LIG d   1      -5.938  92.796 118.749  0.00  0.00    -0.368 OA
BRANCH   7   8
ATOM      8  C   LIG d   1      -5.991  94.243 118.800  0.00  0.00     0.119 C 
BRANCH   8   9
ATOM      9  C   LIG d   1      -5.270  94.688 120.087  0.00  0.00     0.028 C 
ATOM     10  C   LIG d   1      -4.265  95.824 119.834  0.00  0.00     0.006 C 
ENDBRANCH   8   9
BRANCH   8  11
ATOM     11  C   LIG d   1      -7.431  94.743 118.949  0.00  0.00     0.028 C 
ATOM     12  C   LIG d   1      -8.378  93.672 119.512  0.00  0.00     0.006 C 
ENDBRANCH   8  11
ENDBRANCH   7   8
ENDBRANCH   1   7
BRANCH   6  13
ATOM     13  N   LIG d   1      -3.155  92.503 117.629  0.00  0.00    -0.311 N 
ATOM     14  C   LIG d   1      -2.398  92.728 118.701  0.00  0.00     0.210 C 
ATOM     15  C   LIG d   1      -1.361  93.844 118.538  0.00  0.00     0.109 C 
ATOM     16  O   LIG d   1      -2.464  92.087 119.760  0.00  0.00    -0.276 OA
ATOM     17  H   LIG d   1      -3.012  93.048 116.801  0.00  0.00     0.149 HD
ENDBRANCH   6  13
BRANCH   5  18
ATOM     18  N   LIG d   1      -2.815  89.659 116.566  0.00  0.00     0.381 N 
ATOM     19  H   LIG d   1      -2.310  89.659 115.702  0.00  0.00    -0.090 HD
ATOM     20  H   LIG d   1      -3.074  88.712 116.780  0.00  0.00    -0.090 HD
ATOM     21  H   LIG d   1      -2.242  90.026 117.294  0.00  0.00    -0.090 HD
ENDBRANCH   5  18
BRANCH   3  22
ATOM     22  C   LIG d   1      -7.538  89.545 115.779  0.00  0.00     0.382 C 
ATOM     23  O   LIG d   1      -8.300  88.794 116.434  0.00  0.00    -0.241 OA
ATOM     24  O   LIG d   1      -7.724  89.692 114.557  0.00  0.00    -0.241 OA
ENDBRANCH   3  22
TORSDOF 7
ENDMDL
MODEL 2
REMARK VINA RESULT:      -5.4      2.567      5.557
REMARK  7 active torsions:
REMARK  status: ('A' for Active; 'I' for Inactive)
REMARK    1  A    between atoms: C_2  and  C_3 
REMARK    2  A    between atoms: C_3  and  O_6 
REMARK    3  A    between atoms: C_3  and  C_4 
REMARK    4  A    between atoms: C_7  and  O_6 
REMARK    5  A    between atoms: C_9  and  C_10 
REMARK    6  A    between atoms: N_15  and  C_14 
REMARK    7  A    between atoms: N_20  and  C_19 
REMARK       I    between atoms: C_22  and  N_20 
ROOT
ATOM      1  C   LIG d   1      -5.284  92.136 118.763  0.00  0.00     0.161 C 
ATOM      2  C   LIG d   1      -5.702  93.203 119.576  0.00  0.00     0.016 C 
ATOM      3  C   LIG d   1      -6.806  94.030 119.267  0.00  0.00     0.038 C 
ATOM      4  C   LIG d   1      -7.665  93.750 118.194  0.00  0.00     0.028 C 
ATOM      5  C   LIG d   1      -6.989  92.986 117.060  0.00  0.00    -0.047 C 
ATOM      6  C   LIG d   1      -6.276  91.746 117.647  0.00  0.00     0.091 C 
ENDROOT
BRANCH   1   7
ATOM      7  O   LIG d   1      -4.976  90.990 119.582  0.00  0.00    -0.368 OA
BRANCH   7   8
ATOM      8  C   LIG d   1      -3.597  90.864 120.008  0.00  0.00     0.119 C 
BRANCH   8   9
ATOM      9  C   LIG d   1      -2.707  91.126 118.777  0.00  0.00     0.028 C 
ATOM     10  C   LIG d   1      -2.397  89.840 117.992  0.00  0.00     0.006 C 
ENDBRANCH   8   9
BRANCH   8  11
ATOM     11  C   LIG d   1      -3.277  89.430 120.442  0.00  0.00     0.028 C 
ATOM     12  C   LIG d   1      -2.694  89.354 121.862  0.00  0.00     0.006 C 
ENDBRANCH   8  11
ENDBRANCH   7   8
ENDBRANCH   1   7
BRANCH   6  13
ATOM     13  N   LIG d   1      -5.518  90.988 116.617  0.00  0.00    -0.311 N 
ATOM     14  C   LIG d   1      -5.985  89.891 116.023  0.00  0.00     0.210 C 
ATOM     15  C   LIG d   1      -5.035  89.253 115.005  0.00  0.00     0.109 C 
ATOM     16  O   LIG d   1      -7.109  89.405 116.219  0.00  0.00    -0.276 OA
ATOM     17  H   LIG d   1      -4.609  91.331 116.375  0.00  0.00     0.149 HD
ENDBRANCH   6  13
BRANCH   5  18
ATOM     18  N   LIG d   1      -8.030  92.641 116.073  0.00  0.00     0.381 N 
ATOM     19  H   LIG d   1      -8.076  93.349 115.368  0.00  0.00    -0.090 HD
ATOM     20  H   LIG d   1      -8.919  92.600 116.539  0.00  0.00    -0.090 HD
ATOM     21  H   LIG d   1      -7.825  91.760 115.655  0.00  0.00    -0.090 HD
ENDBRANCH   5  18
BRANCH   3  22
ATOM     22  C   LIG d   1      -7.037  95.176 120.013  0.00  0.00     0.382 C 
ATOM     23  O   LIG d   1      -7.814  95.137 120.997  0.00  0.00    -0.241 OA
ATOM     24  O   LIG d   1      -6.512  96.258 119.688  0.00  0.00    -0.241 OA
ENDBRANCH   3  22
TORSDOF 7
ENDMDL
MODEL 3
REMARK VINA RESULT:      -5.3     31.872     34.035
REMARK  7 active torsions:
REMARK  status: ('A' for Active; 'I' for Inactive)
REMARK    1  A    between atoms: C_2  and  C_3 
REMARK    2  A    between atoms: C_3  and  O_6 
REMARK    3  A    between atoms: C_3  and  C_4 
REMARK    4  A    between atoms: C_7  and  O_6 
REMARK    5  A    between atoms: C_9  and  C_10 
REMARK    6  A    between atoms: N_15  and  C_14 
REMARK    7  A    between atoms: N_20  and  C_19 
REMARK       I    between atoms: C_22  and  N_20 
ROOT
ATOM      1  C   LIG d   1      -1.324  57.677 119.448  0.00  0.00     0.161 C 
ATOM      2  C   LIG d   1      -0.024  57.150 119.524  0.00  0.00     0.016 C 
ATOM      3  C   LIG d   1       0.953  57.343 118.521  0.00  0.00     0.038 C 
ATOM      4  C   LIG d   1       0.743  58.209 117.437  0.00  0.00     0.028 C 
ATOM      5  C   LIG d   1      -0.727  58.361 117.060  0.00  0.00    -0.047 C 
ATOM      6  C   LIG d   1      -1.536  58.717 118.328  0.00  0.00     0.091 C 
ENDROOT
BRANCH   1   7
ATOM      7  O   LIG d   1      -1.701  58.232 120.724  0.00  0.00    -0.368 OA
BRANCH   7   8
ATOM      8  C   LIG d   1      -1.010  59.442 121.122  0.00  0.00     0.119 C 
BRANCH   8   9
ATOM      9  C   LIG d   1      -0.411  59.194 122.520  0.00  0.00     0.028 C 
ATOM     10  C   LIG d   1      -0.926  57.892 123.157  0.00  0.00     0.006 C 
ENDBRANCH   8   9
BRANCH   8  11
ATOM     11  C   LIG d   1      -1.987  60.608 121.300  0.00  0.00     0.028 C 
ATOM     12  C   LIG d   1      -3.444  60.147 121.458  0.00  0.00     0.006 C 
ENDBRANCH   8  11
ENDBRANCH   7   8
ENDBRANCH   1   7
BRANCH   6  13
ATOM     13  N   LIG d   1      -2.996  58.801 118.063  0.00  0.00    -0.311 N 
ATOM     14  C   LIG d   1      -3.624  59.938 117.769  0.00  0.00     0.210 C 
ATOM     15  C   LIG d   1      -5.135  59.806 117.552  0.00  0.00     0.109 C 
ATOM     16  O   LIG d   1      -3.068  61.039 117.636  0.00  0.00    -0.276 OA
ATOM     17  H   LIG d   1      -3.520  57.949 118.119  0.00  0.00     0.149 HD
ENDBRANCH   6  13
BRANCH   5  18
ATOM     18  N   LIG d   1      -0.813  59.394 116.010  0.00  0.00     0.381 N 
ATOM     19  H   LIG d   1      -1.659  59.277 115.488  0.00  0.00    -0.090 HD
ATOM     20  H   LIG d   1      -0.037  59.284 115.381  0.00  0.00    -0.090 HD
ATOM     21  H   LIG d   1      -0.791  60.301 116.421  0.00  0.00    -0.090 HD
ENDBRANCH   5  18
BRANCH   3  22
ATOM     22  C   LIG d   1       2.144  56.634 118.575  0.00  0.00     0.382 C 
ATOM     23  O   LIG d   1       2.563  56.034 117.556  0.00  0.00    -0.241 OA
ATOM     24  O   LIG d   1       2.780  56.549 119.642  0.00  0.00    -0.241 OA
ENDBRANCH   3  22
TORSDOF 7
ENDMDL
MODEL 4
REMARK VINA RESULT:      -5.3      2.268      4.306
REMARK  7 active torsions:
REMARK  status: ('A' for Active; 'I' for Inactive)
REMARK    1  A    between atoms: C_2  and  C_3 
REMARK    2  A    between atoms: C_3  and  O_6 
REMARK    3  A    between atoms: C_3  and  C_4 
REMARK    4  A    between atoms: C_7  and  O_6 
REMARK    5  A    between atoms: C_9  and  C_10 
REMARK    6  A    between atoms: N_15  and  C_14 
REMARK    7  A    between atoms: N_20  and  C_19 
REMARK       I    between atoms: C_22  and  N_20 
ROOT
ATOM      1  C   LIG d   1      -4.746  91.303 118.062  0.00  0.00     0.161 C 
ATOM      2  C   LIG d   1      -4.934  90.507 116.920  0.00  0.00     0.016 C 
ATOM      3  C   LIG d   1      -6.017  90.671 116.027  0.00  0.00     0.038 C 
ATOM      4  C   LIG d   1      -6.910  91.748 116.134  0.00  0.00     0.028 C 
ATOM      5  C   LIG d   1      -7.053  92.276 117.558  0.00  0.00    -0.047 C 
ATOM      6  C   LIG d   1      -5.646  92.553 118.135  0.00  0.00     0.091 C 
ENDROOT
BRANCH   1   7
ATOM      7  O   LIG d   1      -3.358  91.677 118.174  0.00  0.00    -0.368 OA
BRANCH   7   8
ATOM      8  C   LIG d   1      -2.637  91.125 119.303  0.00  0.00     0.119 C 
BRANCH   8   9
ATOM      9  C   LIG d   1      -1.286  90.602 118.778  0.00  0.00     0.028 C 
ATOM     10  C   LIG d   1      -1.453  89.597 117.626  0.00  0.00     0.006 C 
ENDBRANCH   8   9
BRANCH   8  11
ATOM     11  C   LIG d   1      -3.353  89.897 119.874  0.00  0.00     0.028 C 
ATOM     12  C   LIG d   1      -2.728  89.400 121.187  0.00  0.00     0.006 C 
ENDBRANCH   8  11
ENDBRANCH   7   8
ENDBRANCH   1   7
BRANCH   6  13
ATOM     13  N   LIG d   1      -5.692  92.993 119.554  0.00  0.00    -0.311 N 
ATOM     14  C   LIG d   1      -5.752  94.271 119.923  0.00  0.00     0.210 C 
ATOM     15  C   LIG d   1      -5.771  94.506 121.437  0.00  0.00     0.109 C 
ATOM     16  O   LIG d   1      -5.824  95.231 119.141  0.00  0.00    -0.276 OA
ATOM     17  H   LIG d   1      -5.670  92.278 120.254  0.00  0.00     0.149 HD
ENDBRANCH   6  13
BRANCH   5  18
ATOM     18  N   LIG d   1      -7.903  93.481 117.502  0.00  0.00     0.381 N 
ATOM     19  H   LIG d   1      -7.356  94.269 117.219  0.00  0.00    -0.090 HD
ATOM     20  H   LIG d   1      -8.267  93.664 118.421  0.00  0.00    -0.090 HD
ATOM     21  H   LIG d   1      -8.653  93.340 116.862  0.00  0.00    -0.090 HD
ENDBRANCH   5  18
BRANCH   3  22
ATOM     22  C   LIG d   1      -6.240  89.728 115.035  0.00  0.00     0.382 C 
ATOM     23  O   LIG d   1      -7.390  89.582 114.555  0.00  0.00    -0.241 OA
ATOM     24  O   LIG d   1      -5.315  88.990 114.646  0.00  0.00    -0.241 OA
ENDBRANCH   3  22
TORSDOF 7
ENDMDL
MODEL 5
REMARK VINA RESULT:      -5.2      2.503      4.586
REMARK  7 active torsions:
REMARK  status: ('A' for Active; 'I' for Inactive)
REMARK    1  A    between atoms: C_2  and  C_3 
REMARK    2  A    between atoms: C_3  and  O_6 
REMARK    3  A    between atoms: C_3  and  C_4 
REMARK    4  A    between atoms: C_7  and  O_6 
REMARK    5  A    between atoms: C_9  and  C_10 
REMARK    6  A    between atoms: N_15  and  C_14 
REMARK    7  A    between atoms: N_20  and  C_19 
REMARK       I    between atoms: C_22  and  N_20 
ROOT
ATOM      1  C   LIG d   1      -5.402  91.370 118.890  0.00  0.00     0.161 C 
ATOM      2  C   LIG d   1      -4.738  90.516 117.994  0.00  0.00     0.016 C 
ATOM      3  C   LIG d   1      -5.070  90.416 116.623  0.00  0.00     0.038 C 
ATOM      4  C   LIG d   1      -5.995  91.281 116.020  0.00  0.00     0.028 C 
ATOM      5  C   LIG d   1      -7.048  91.812 116.986  0.00  0.00    -0.047 C 
ATOM      6  C   LIG d   1      -6.339  92.401 118.227  0.00  0.00     0.091 C 
ENDROOT
BRANCH   1   7
ATOM      7  O   LIG d   1      -4.441  92.036 119.733  0.00  0.00    -0.368 OA
BRANCH   7   8
ATOM      8  C   LIG d   1      -3.077  91.555 119.648  0.00  0.00     0.119 C 
BRANCH   8   9
ATOM      9  C   LIG d   1      -2.717  90.941 121.015  0.00  0.00     0.028 C 
ATOM     10  C   LIG d   1      -3.044  89.440 121.088  0.00  0.00     0.006 C 
ENDBRANCH   8   9
BRANCH   8  11
ATOM     11  C   LIG d   1      -2.090  92.709 119.450  0.00  0.00     0.028 C 
ATOM     12  C   LIG d   1      -1.523  92.770 118.022  0.00  0.00     0.006 C 
ENDBRANCH   8  11
ENDBRANCH   7   8
ENDBRANCH   1   7
BRANCH   6  13
ATOM     13  N   LIG d   1      -7.299  92.867 119.261  0.00  0.00    -0.311 N 
ATOM     14  C   LIG d   1      -7.676  94.138 119.392  0.00  0.00     0.210 C 
ATOM     15  C   LIG d   1      -8.659  94.406 120.536  0.00  0.00     0.109 C 
ATOM     16  O   LIG d   1      -7.316  95.063 118.649  0.00  0.00    -0.276 OA
ATOM     17  H   LIG d   1      -7.666  92.177 119.887  0.00  0.00     0.149 HD
ENDBRANCH   6  13
BRANCH   5  18
ATOM     18  N   LIG d   1      -7.861  92.804 116.259  0.00  0.00     0.381 N 
ATOM     19  H   LIG d   1      -8.064  92.468 115.339  0.00  0.00    -0.090 HD
ATOM     20  H   LIG d   1      -7.335  93.656 116.174  0.00  0.00    -0.090 HD
ATOM     21  H   LIG d   1      -8.710  92.977 116.751  0.00  0.00    -0.090 HD
ENDBRANCH   5  18
BRANCH   3  22
ATOM     22  C   LIG d   1      -4.502  89.416 115.850  0.00  0.00     0.382 C 
ATOM     23  O   LIG d   1      -5.065  89.044 114.792  0.00  0.00    -0.241 OA
ATOM     24  O   LIG d   1      -3.456  88.849 116.219  0.00  0.00    -0.241 OA
ENDBRANCH   3  22
TORSDOF 7
ENDMDL
MODEL 6
REMARK VINA RESULT:      -5.0      2.439      4.613
REMARK  7 active torsions:
REMARK  status: ('A' for Active; 'I' for Inactive)
REMARK    1  A    between atoms: C_2  and  C_3 
REMARK    2  A    between atoms: C_3  and  O_6 
REMARK    3  A    between atoms: C_3  and  C_4 
REMARK    4  A    between atoms: C_7  and  O_6 
REMARK    5  A    between atoms: C_9  and  C_10 
REMARK    6  A    between atoms: N_15  and  C_14 
REMARK    7  A    between atoms: N_20  and  C_19 
REMARK       I    between atoms: C_22  and  N_20 
ROOT
ATOM      1  C   LIG d   1      -3.532  90.690 117.923  0.00  0.00     0.161 C 
ATOM      2  C   LIG d   1      -4.109  89.998 116.845  0.00  0.00     0.016 C 
ATOM      3  C   LIG d   1      -5.270  90.440 116.169  0.00  0.00     0.038 C 
ATOM      4  C   LIG d   1      -5.850  91.690 116.431  0.00  0.00     0.028 C 
ATOM      5  C   LIG d   1      -5.601  92.188 117.850  0.00  0.00    -0.047 C 
ATOM      6  C   LIG d   1      -4.087  92.112 118.150  0.00  0.00     0.091 C 
ENDROOT
BRANCH   1   7
ATOM      7  O   LIG d   1      -2.100  90.729 117.769  0.00  0.00    -0.368 OA
BRANCH   7   8
ATOM      8  C   LIG d   1      -1.361  89.651 118.395  0.00  0.00     0.119 C 
BRANCH   8   9
ATOM      9  C   LIG d   1      -0.761  90.200 119.703  0.00  0.00     0.028 C 
ATOM     10  C   LIG d   1      -1.532  89.728 120.947  0.00  0.00     0.006 C 
ENDBRANCH   8   9
BRANCH   8  11
ATOM     11  C   LIG d   1      -0.161  89.230 117.542  0.00  0.00     0.028 C 
ATOM     12  C   LIG d   1       0.749  90.411 117.170  0.00  0.00     0.006 C 
ENDBRANCH   8  11
ENDBRANCH   7   8
ENDBRANCH   1   7
BRANCH   6  13
ATOM     13  N   LIG d   1      -3.765  92.502 119.548  0.00  0.00    -0.311 N 
ATOM     14  C   LIG d   1      -2.787  93.347 119.867  0.00  0.00     0.210 C 
ATOM     15  C   LIG d   1      -2.612  93.597 121.368  0.00  0.00     0.109 C 
ATOM     16  O   LIG d   1      -2.069  93.939 119.047  0.00  0.00    -0.276 OA
ATOM     17  H   LIG d   1      -4.320  92.092 120.275  0.00  0.00     0.149 HD
ENDBRANCH   6  13
BRANCH   5  18
ATOM     18  N   LIG d   1      -6.141  93.558 117.943  0.00  0.00     0.381 N 
ATOM     19  H   LIG d   1      -7.022  93.543 118.417  0.00  0.00    -0.090 HD
ATOM     20  H   LIG d   1      -6.287  93.913 117.015  0.00  0.00    -0.090 HD
ATOM     21  H   LIG d   1      -5.501  94.143 118.434  0.00  0.00    -0.090 HD
ENDBRANCH   5  18
BRANCH   3  22
ATOM     22  C   LIG d   1      -5.886  89.608 115.246  0.00  0.00     0.382 C 
ATOM     23  O   LIG d   1      -7.136  89.612 115.135  0.00  0.00    -0.241 OA
ATOM     24  O   LIG d   1      -5.211  88.821 114.555  0.00  0.00    -0.241 OA
ENDBRANCH   3  22
TORSDOF 7
ENDMDL
MODEL 7
REMARK VINA RESULT:      -5.0      3.087      5.503
REMARK  7 active torsions:
REMARK  status: ('A' for Active; 'I' for Inactive)
REMARK    1  A    between atoms: C_2  and  C_3 
REMARK    2  A    between atoms: C_3  and  O_6 
REMARK    3  A    between atoms: C_3  and  C_4 
REMARK    4  A    between atoms: C_7  and  O_6 
REMARK    5  A    between atoms: C_9  and  C_10 
REMARK    6  A    between atoms: N_15  and  C_14 
REMARK    7  A    between atoms: N_20  and  C_19 
REMARK       I    between atoms: C_22  and  N_20 
ROOT
ATOM      1  C   LIG d   1      -2.372  89.834 117.511  0.00  0.00     0.161 C 
ATOM      2  C   LIG d   1      -3.380  89.389 116.639  0.00  0.00     0.016 C 
ATOM      3  C   LIG d   1      -4.591  90.087 116.428  0.00  0.00     0.038 C 
ATOM      4  C   LIG d   1      -4.813  91.365 116.963  0.00  0.00     0.028 C 
ATOM      5  C   LIG d   1      -4.037  91.626 118.250  0.00  0.00    -0.047 C 
ATOM      6  C   LIG d   1      -2.549  91.281 118.017  0.00  0.00     0.091 C 
ENDROOT
BRANCH   1   7
ATOM      7  O   LIG d   1      -1.083  89.675 116.887  0.00  0.00    -0.368 OA
BRANCH   7   8
ATOM      8  C   LIG d   1      -0.135  88.834 117.590  0.00  0.00     0.119 C 
BRANCH   8   9
ATOM      9  C   LIG d   1       1.145  89.663 117.810  0.00  0.00     0.028 C 
ATOM     10  C   LIG d   1       1.160  90.954 116.974  0.00  0.00     0.006 C 
ENDBRANCH   8   9
BRANCH   8  11
ATOM     11  C   LIG d   1       0.297  87.642 116.730  0.00  0.00     0.028 C 
ATOM     12  C   LIG d   1       1.743  87.202 117.005  0.00  0.00     0.006 C 
ENDBRANCH   8  11
ENDBRANCH   7   8
ENDBRANCH   1   7
BRANCH   6  13
ATOM     13  N   LIG d   1      -1.733  91.428 119.251  0.00  0.00    -0.311 N 
ATOM     14  C   LIG d   1      -1.038  92.525 119.544  0.00  0.00     0.210 C 
ATOM     15  C   LIG d   1      -0.250  92.460 120.856  0.00  0.00     0.109 C 
ATOM     16  O   LIG d   1      -1.025  93.558 118.858  0.00  0.00    -0.276 OA
ATOM     17  H   LIG d   1      -1.713  90.649 119.880  0.00  0.00     0.149 HD
ENDBRANCH   6  13
BRANCH   5  18
ATOM     18  N   LIG d   1      -4.252  93.037 118.621  0.00  0.00     0.381 N 
ATOM     19  H   LIG d   1      -4.968  93.434 118.046  0.00  0.00    -0.090 HD
ATOM     20  H   LIG d   1      -3.401  93.548 118.464  0.00  0.00    -0.090 HD
ATOM     21  H   LIG d   1      -4.514  93.101 119.581  0.00  0.00    -0.090 HD
ENDBRANCH   5  18
BRANCH   3  22
ATOM     22  C   LIG d   1      -5.613  89.489 115.706  0.00  0.00     0.382 C 
ATOM     23  O   LIG d   1      -5.389  89.043 114.555  0.00  0.00    -0.241 OA
ATOM     24  O   LIG d   1      -6.766  89.431 116.173  0.00  0.00    -0.241 OA
ENDBRANCH   3  22
TORSDOF 7
ENDMDL
MODEL 8
REMARK VINA RESULT:      -5.0     32.738     35.344
REMARK  7 active torsions:
REMARK  status: ('A' for Active; 'I' for Inactive)
REMARK    1  A    between atoms: C_2  and  C_3 
REMARK    2  A    between atoms: C_3  and  O_6 
REMARK    3  A    between atoms: C_3  and  C_4 
REMARK    4  A    between atoms: C_7  and  O_6 
REMARK    5  A    between atoms: C_9  and  C_10 
REMARK    6  A    between atoms: N_15  and  C_14 
REMARK    7  A    between atoms: N_20  and  C_19 
REMARK       I    between atoms: C_22  and  N_20 
ROOT
ATOM      1  C   LIG d   1       0.213  57.900 116.933  0.00  0.00     0.161 C 
ATOM      2  C   LIG d   1      -0.628  58.991 117.209  0.00  0.00     0.016 C 
ATOM      3  C   LIG d   1      -2.002  58.856 117.517  0.00  0.00     0.038 C 
ATOM      4  C   LIG d   1      -2.597  57.602 117.718  0.00  0.00     0.028 C 
ATOM      5  C   LIG d   1      -1.908  56.475 116.956  0.00  0.00    -0.047 C 
ATOM      6  C   LIG d   1      -0.393  56.518 117.257  0.00  0.00     0.091 C 
ENDROOT
BRANCH   1   7
ATOM      7  O   LIG d   1       1.471  58.068 117.615  0.00  0.00    -0.368 OA
BRANCH   7   8
ATOM      8  C   LIG d   1       1.576  57.451 118.921  0.00  0.00     0.119 C 
BRANCH   8   9
ATOM      9  C   LIG d   1       1.699  58.583 119.960  0.00  0.00     0.028 C 
ATOM     10  C   LIG d   1       0.404  58.785 120.764  0.00  0.00     0.006 C 
ENDBRANCH   8   9
BRANCH   8  11
ATOM     11  C   LIG d   1       2.867  56.638 119.052  0.00  0.00     0.028 C 
ATOM     12  C   LIG d   1       3.668  56.992 120.315  0.00  0.00     0.006 C 
ENDBRANCH   8  11
ENDBRANCH   7   8
ENDBRANCH   1   7
BRANCH   6  13
ATOM     13  N   LIG d   1       0.368  55.501 116.485  0.00  0.00    -0.311 N 
ATOM     14  C   LIG d   1       0.735  54.323 116.987  0.00  0.00     0.210 C 
ATOM     15  C   LIG d   1       1.530  53.431 116.028  0.00  0.00     0.109 C 
ATOM     16  O   LIG d   1       0.451  53.920 118.124  0.00  0.00    -0.276 OA
ATOM     17  H   LIG d   1       0.614  55.734 115.543  0.00  0.00     0.149 HD
ENDBRANCH   6  13
BRANCH   5  18
ATOM     18  N   LIG d   1      -2.543  55.207 117.365  0.00  0.00     0.381 N 
ATOM     19  H   LIG d   1      -3.486  55.178 117.032  0.00  0.00    -0.090 HD
ATOM     20  H   LIG d   1      -2.561  55.162 118.368  0.00  0.00    -0.090 HD
ATOM     21  H   LIG d   1      -2.030  54.436 116.999  0.00  0.00    -0.090 HD
ENDBRANCH   5  18
BRANCH   3  22
ATOM     22  C   LIG d   1      -2.804  59.985 117.586  0.00  0.00     0.382 C 
ATOM     23  O   LIG d   1      -3.760  60.124 116.786  0.00  0.00    -0.241 OA
ATOM     24  O   LIG d   1      -2.557  60.886 118.410  0.00  0.00    -0.241 OA
ENDBRANCH   3  22
TORSDOF 7
ENDMDL
MODEL 9
REMARK VINA RESULT:      -4.9     31.935     33.954
REMARK  7 active torsions:
REMARK  status: ('A' for Active; 'I' for Inactive)
REMARK    1  A    between atoms: C_2  and  C_3 
REMARK    2  A    between atoms: C_3  and  O_6 
REMARK    3  A    between atoms: C_3  and  C_4 
REMARK    4  A    between atoms: C_7  and  O_6 
REMARK    5  A    between atoms: C_9  and  C_10 
REMARK    6  A    between atoms: N_15  and  C_14 
REMARK    7  A    between atoms: N_20  and  C_19 
REMARK       I    between atoms: C_22  and  N_20 
ROOT
ATOM      1  C   LIG d   1      -1.066  57.891 119.486  0.00  0.00     0.161 C 
ATOM      2  C   LIG d   1      -1.584  58.226 118.224  0.00  0.00     0.016 C 
ATOM      3  C   LIG d   1      -2.379  59.372 117.989  0.00  0.00     0.038 C 
ATOM      4  C   LIG d   1      -2.586  60.347 118.976  0.00  0.00     0.028 C 
ATOM      5  C   LIG d   1      -2.503  59.797 120.396  0.00  0.00    -0.047 C 
ATOM      6  C   LIG d   1      -1.188  59.001 120.551  0.00  0.00     0.091 C 
ENDROOT
BRANCH   1   7
ATOM      7  O   LIG d   1       0.306  57.471 119.354  0.00  0.00    -0.368 OA
BRANCH   7   8
ATOM      8  C   LIG d   1       0.965  57.826 118.114  0.00  0.00     0.119 C 
BRANCH   8   9
ATOM      9  C   LIG d   1       1.481  56.522 117.474  0.00  0.00     0.028 C 
ATOM     10  C   LIG d   1       1.643  55.389 118.500  0.00  0.00     0.006 C 
ENDBRANCH   8   9
BRANCH   8  11
ATOM     11  C   LIG d   1       2.215  58.674 118.369  0.00  0.00     0.028 C 
ATOM     12  C   LIG d   1       2.572  58.774 119.861  0.00  0.00     0.006 C 
ENDBRANCH   8  11
ENDBRANCH   7   8
ENDBRANCH   1   7
BRANCH   6  13
ATOM     13  N   LIG d   1      -1.067  58.358 121.885  0.00  0.00    -0.311 N 
ATOM     14  C   LIG d   1      -0.427  58.916 122.912  0.00  0.00     0.210 C 
ATOM     15  C   LIG d   1      -0.404  58.075 124.193  0.00  0.00     0.109 C 
ATOM     16  O   LIG d   1       0.096  60.040 122.893  0.00  0.00    -0.276 OA
ATOM     17  H   LIG d   1      -1.490  57.458 121.998  0.00  0.00     0.149 HD
ENDBRANCH   6  13
BRANCH   5  18
ATOM     18  N   LIG d   1      -2.599  60.941 121.323  0.00  0.00     0.381 N 
ATOM     19  H   LIG d   1      -3.555  61.093 121.575  0.00  0.00    -0.090 HD
ATOM     20  H   LIG d   1      -2.261  61.765 120.858  0.00  0.00    -0.090 HD
ATOM     21  H   LIG d   1      -2.056  60.765 122.139  0.00  0.00    -0.090 HD
ENDBRANCH   5  18
BRANCH   3  22
ATOM     22  C   LIG d   1      -3.011  59.530 116.765  0.00  0.00     0.382 C 
ATOM     23  O   LIG d   1      -2.464  59.109 115.717  0.00  0.00    -0.241 OA
ATOM     24  O   LIG d   1      -4.101  60.129 116.689  0.00  0.00    -0.241 OA
ENDBRANCH   3  22
TORSDOF 7
ENDMDL
