MODEL 1
REMARK VINA RESULT:      -5.5      0.000      0.000
REMARK  7 active torsions:
REMARK  status: ('A' for Active; 'I' for Inactive)
REMARK    1  A    between atoms: C_2  and  C_3 
REMARK    2  A    between atoms: C_3  and  O_6 
REMARK    3  A    between atoms: C_3  and  C_4 
REMARK    4  A    between atoms: C_7  and  O_6 
REMARK    5  A    between atoms: C_9  and  C_10 
REMARK    6  A    between atoms: N_15  and  C_14 
REMARK    7  A    between atoms: N_20  and  C_19 
REMARK       I    between atoms: C_22  and  N_20 
ROOT
ATOM      1  C   LIG d   1      -4.195  90.688 116.950  0.00  0.00     0.161 C 
ATOM      2  C   LIG d   1      -5.225  90.248 116.102  0.00  0.00     0.016 C 
ATOM      3  C   LIG d   1      -6.358  91.032 115.784  0.00  0.00     0.038 C 
ATOM      4  C   LIG d   1      -6.465  92.375 116.175  0.00  0.00     0.028 C 
ATOM      5  C   LIG d   1      -5.691  92.698 117.449  0.00  0.00    -0.047 C 
ATOM      6  C   LIG d   1      -4.239  92.191 117.297  0.00  0.00     0.091 C 
ENDROOT
BRANCH   1   7
ATOM      7  O   LIG d   1      -2.915  90.341 116.384  0.00  0.00    -0.368 OA
BRANCH   7   8
ATOM      8  C   LIG d   1      -2.344  89.084 116.821  0.00  0.00     0.119 C 
BRANCH   8   9
ATOM      9  C   LIG d   1      -2.564  88.979 118.343  0.00  0.00     0.028 C 
ATOM     10  C   LIG d   1      -1.887  87.739 118.950  0.00  0.00     0.006 C 
ENDBRANCH   8   9
BRANCH   8  11
ATOM     11  C   LIG d   1      -0.825  89.064 116.629  0.00  0.00     0.028 C 
ATOM     12  C   LIG d   1      -0.177  90.438 116.865  0.00  0.00     0.006 C 
ENDBRANCH   8  11
ENDBRANCH   7   8
ENDBRANCH   1   7
BRANCH   6  13
ATOM     13  N   LIG d   1      -3.436  92.391 118.531  0.00  0.00    -0.311 N 
ATOM     14  C   LIG d   1      -2.284  93.059 118.556  0.00  0.00     0.210 C 
ATOM     15  C   LIG d   1      -1.608  93.131 119.928  0.00  0.00     0.109 C 
ATOM     16  O   LIG d   1      -1.774  93.625 117.578  0.00  0.00    -0.276 OA
ATOM     17  H   LIG d   1      -3.792  91.991 119.377  0.00  0.00     0.149 HD
ENDBRANCH   6  13
BRANCH   5  18
ATOM     18  N   LIG d   1      -5.775  94.155 117.664  0.00  0.00     0.381 N 
ATOM     19  H   LIG d   1      -6.681  94.485 117.396  0.00  0.00    -0.090 HD
ATOM     20  H   LIG d   1      -5.090  94.609 117.085  0.00  0.00    -0.090 HD
ATOM     21  H   LIG d   1      -5.605  94.368 118.622  0.00  0.00    -0.090 HD
ENDBRANCH   5  18
BRANCH   3  22
ATOM     22  C   LIG d   1      -7.420  90.459 115.100  0.00  0.00     0.382 C 
ATOM     23  O   LIG d   1      -7.938  89.397 115.522  0.00  0.00    -0.241 OA
ATOM     24  O   LIG d   1      -7.837  90.967 114.041  0.00  0.00    -0.241 OA
ENDBRANCH   3  22
TORSDOF 7
ENDMDL
MODEL 2
REMARK VINA RESULT:      -5.3      2.172      4.506
REMARK  7 active torsions:
REMARK  status: ('A' for Active; 'I' for Inactive)
REMARK    1  A    between atoms: C_2  and  C_3 
REMARK    2  A    between atoms: C_3  and  O_6 
REMARK    3  A    between atoms: C_3  and  C_4 
REMARK    4  A    between atoms: C_7  and  O_6 
REMARK    5  A    between atoms: C_9  and  C_10 
REMARK    6  A    between atoms: N_15  and  C_14 
REMARK    7  A    between atoms: N_20  and  C_19 
REMARK       I    between atoms: C_22  and  N_20 
ROOT
ATOM      1  C   LIG d   1      -4.966  92.778 117.138  0.00  0.00     0.161 C 
ATOM      2  C   LIG d   1      -6.157  92.157 116.725  0.00  0.00     0.016 C 
ATOM      3  C   LIG d   1      -6.209  90.843 116.204  0.00  0.00     0.038 C 
ATOM      4  C   LIG d   1      -5.087  90.001 116.201  0.00  0.00     0.028 C 
ATOM      5  C   LIG d   1      -3.764  90.756 116.140  0.00  0.00    -0.047 C 
ATOM      6  C   LIG d   1      -3.750  91.835 117.247  0.00  0.00     0.091 C 
ENDROOT
BRANCH   1   7
ATOM      7  O   LIG d   1      -5.182  93.464 118.387  0.00  0.00    -0.368 OA
BRANCH   7   8
ATOM      8  C   LIG d   1      -6.441  93.199 119.051  0.00  0.00     0.119 C 
BRANCH   8   9
ATOM      9  C   LIG d   1      -7.036  94.555 119.476  0.00  0.00     0.028 C 
ATOM     10  C   LIG d   1      -7.230  95.509 118.285  0.00  0.00     0.006 C 
ENDBRANCH   8   9
BRANCH   8  11
ATOM     11  C   LIG d   1      -6.231  92.422 120.355  0.00  0.00     0.028 C 
ATOM     12  C   LIG d   1      -7.274  92.767 121.429  0.00  0.00     0.006 C 
ENDBRANCH   8  11
ENDBRANCH   7   8
ENDBRANCH   1   7
BRANCH   6  13
ATOM     13  N   LIG d   1      -2.525  92.675 117.203  0.00  0.00    -0.311 N 
ATOM     14  C   LIG d   1      -1.447  92.440 117.950  0.00  0.00     0.210 C 
ATOM     15  C   LIG d   1      -0.301  93.440 117.765  0.00  0.00     0.109 C 
ATOM     16  O   LIG d   1      -1.319  91.480 118.724  0.00  0.00    -0.276 OA
ATOM     17  H   LIG d   1      -2.530  93.458 116.579  0.00  0.00     0.149 HD
ENDBRANCH   6  13
BRANCH   5  18
ATOM     18  N   LIG d   1      -2.679  89.766 116.283  0.00  0.00     0.381 N 
ATOM     19  H   LIG d   1      -2.731  89.335 117.185  0.00  0.00    -0.090 HD
ATOM     20  H   LIG d   1      -1.796  90.239 116.211  0.00  0.00    -0.090 HD
ATOM     21  H   LIG d   1      -2.753  89.074 115.571  0.00  0.00    -0.090 HD
ENDBRANCH   5  18
BRANCH   3  22
ATOM     22  C   LIG d   1      -7.386  90.374 115.640  0.00  0.00     0.382 C 
ATOM     23  O   LIG d   1      -7.875  89.285 116.026  0.00  0.00    -0.241 OA
ATOM     24  O   LIG d   1      -7.942  91.004 114.721  0.00  0.00    -0.241 OA
ENDBRANCH   3  22
TORSDOF 7
ENDMDL
MODEL 3
REMARK VINA RESULT:      -5.0     27.395     29.472
REMARK  7 active torsions:
REMARK  status: ('A' for Active; 'I' for Inactive)
REMARK    1  A    between atoms: C_2  and  C_3 
REMARK    2  A    between atoms: C_3  and  O_6 
REMARK    3  A    between atoms: C_3  and  C_4 
REMARK    4  A    between atoms: C_7  and  O_6 
REMARK    5  A    between atoms: C_9  and  C_10 
REMARK    6  A    between atoms: N_15  and  C_14 
REMARK    7  A    between atoms: N_20  and  C_19 
REMARK       I    between atoms: C_22  and  N_20 
ROOT
ATOM      1  C   LIG d   1     -16.158  64.675 116.277  0.00  0.00     0.161 C 
ATOM      2  C   LIG d   1     -16.092  66.042 115.959  0.00  0.00     0.016 C 
ATOM      3  C   LIG d   1     -15.488  67.008 116.796  0.00  0.00     0.038 C 
ATOM      4  C   LIG d   1     -14.770  66.647 117.946  0.00  0.00     0.028 C 
ATOM      5  C   LIG d   1     -15.242  65.338 118.569  0.00  0.00    -0.047 C 
ATOM      6  C   LIG d   1     -15.283  64.247 117.474  0.00  0.00     0.091 C 
ENDROOT
BRANCH   1   7
ATOM      7  O   LIG d   1     -15.836  63.886 115.114  0.00  0.00    -0.368 OA
BRANCH   7   8
ATOM      8  C   LIG d   1     -16.961  63.318 114.399  0.00  0.00     0.119 C 
BRANCH   8   9
ATOM      9  C   LIG d   1     -17.549  64.427 113.505  0.00  0.00     0.028 C 
ATOM     10  C   LIG d   1     -19.087  64.440 113.521  0.00  0.00     0.006 C 
ENDBRANCH   8   9
BRANCH   8  11
ATOM     11  C   LIG d   1     -18.091  62.928 115.357  0.00  0.00     0.028 C 
ATOM     12  C   LIG d   1     -18.154  61.415 115.618  0.00  0.00     0.006 C 
ENDBRANCH   8  11
ENDBRANCH   7   8
ENDBRANCH   1   7
BRANCH   6  13
ATOM     13  N   LIG d   1     -15.815  62.955 117.981  0.00  0.00    -0.311 N 
ATOM     14  C   LIG d   1     -15.063  61.869 118.150  0.00  0.00     0.210 C 
ATOM     15  C   LIG d   1     -15.814  60.636 118.663  0.00  0.00     0.109 C 
ATOM     16  O   LIG d   1     -13.839  61.818 117.954  0.00  0.00    -0.276 OA
ATOM     17  H   LIG d   1     -16.792  62.916 118.194  0.00  0.00     0.149 HD
ENDBRANCH   6  13
BRANCH   5  18
ATOM     18  N   LIG d   1     -14.321  65.013 119.675  0.00  0.00     0.381 N 
ATOM     19  H   LIG d   1     -14.215  64.020 119.746  0.00  0.00    -0.090 HD
ATOM     20  H   LIG d   1     -14.715  65.350 120.535  0.00  0.00    -0.090 HD
ATOM     21  H   LIG d   1     -13.435  65.439 119.517  0.00  0.00    -0.090 HD
ENDBRANCH   5  18
BRANCH   3  22
ATOM     22  C   LIG d   1     -15.633  68.356 116.506  0.00  0.00     0.382 C 
ATOM     23  O   LIG d   1     -16.309  69.091 117.265  0.00  0.00    -0.241 OA
ATOM     24  O   LIG d   1     -15.133  68.837 115.471  0.00  0.00    -0.241 OA
ENDBRANCH   3  22
TORSDOF 7
ENDMDL
MODEL 4
REMARK VINA RESULT:      -5.0     31.775     34.075
REMARK  7 active torsions:
REMARK  status: ('A' for Active; 'I' for Inactive)
REMARK    1  A    between atoms: C_2  and  C_3 
REMARK    2  A    between atoms: C_3  and  O_6 
REMARK    3  A    between atoms: C_3  and  C_4 
REMARK    4  A    between atoms: C_7  and  O_6 
REMARK    5  A    between atoms: C_9  and  C_10 
REMARK    6  A    between atoms: N_15  and  C_14 
REMARK    7  A    between atoms: N_20  and  C_19 
REMARK       I    between atoms: C_22  and  N_20 
ROOT
ATOM      1  C   LIG d   1       1.648  57.959 118.534  0.00  0.00     0.161 C 
ATOM      2  C   LIG d   1       0.712  58.812 117.927  0.00  0.00     0.016 C 
ATOM      3  C   LIG d   1      -0.229  58.377 116.966  0.00  0.00     0.038 C 
ATOM      4  C   LIG d   1      -0.399  57.019 116.656  0.00  0.00     0.028 C 
ATOM      5  C   LIG d   1       0.861  56.187 116.870  0.00  0.00    -0.047 C 
ATOM      6  C   LIG d   1       1.404  56.455 118.292  0.00  0.00     0.091 C 
ENDROOT
BRANCH   1   7
ATOM      7  O   LIG d   1       1.715  58.234 119.948  0.00  0.00    -0.368 OA
BRANCH   7   8
ATOM      8  C   LIG d   1       1.735  59.633 120.324  0.00  0.00     0.119 C 
BRANCH   8   9
ATOM      9  C   LIG d   1       3.129  59.935 120.906  0.00  0.00     0.028 C 
ATOM     10  C   LIG d   1       4.103  60.477 119.846  0.00  0.00     0.006 C 
ENDBRANCH   8   9
BRANCH   8  11
ATOM     11  C   LIG d   1       0.750  59.918 121.462  0.00  0.00     0.028 C 
ATOM     12  C   LIG d   1      -0.539  60.601 120.978  0.00  0.00     0.006 C 
ENDBRANCH   8  11
ENDBRANCH   7   8
ENDBRANCH   1   7
BRANCH   6  13
ATOM     13  N   LIG d   1       2.683  55.744 118.553  0.00  0.00    -0.311 N 
ATOM     14  C   LIG d   1       2.751  54.546 119.130  0.00  0.00     0.210 C 
ATOM     15  C   LIG d   1       4.169  54.001 119.324  0.00  0.00     0.109 C 
ATOM     16  O   LIG d   1       1.770  53.868 119.471  0.00  0.00    -0.276 OA
ATOM     17  H   LIG d   1       3.527  56.208 118.280  0.00  0.00     0.149 HD
ENDBRANCH   6  13
BRANCH   5  18
ATOM     18  N   LIG d   1       0.505  54.774 116.643  0.00  0.00     0.381 N 
ATOM     19  H   LIG d   1       0.875  54.209 117.381  0.00  0.00    -0.090 HD
ATOM     20  H   LIG d   1       0.916  54.470 115.777  0.00  0.00    -0.090 HD
ATOM     21  H   LIG d   1      -0.485  54.674 116.602  0.00  0.00    -0.090 HD
ENDBRANCH   5  18
BRANCH   3  22
ATOM     22  C   LIG d   1      -0.986  59.310 116.273  0.00  0.00     0.382 C 
ATOM     23  O   LIG d   1      -2.131  59.618 116.684  0.00  0.00    -0.241 OA
ATOM     24  O   LIG d   1      -0.556  59.815 115.219  0.00  0.00    -0.241 OA
ENDBRANCH   3  22
TORSDOF 7
ENDMDL
MODEL 5
REMARK VINA RESULT:      -5.0     12.674     14.539
REMARK  7 active torsions:
REMARK  status: ('A' for Active; 'I' for Inactive)
REMARK    1  A    between atoms: C_2  and  C_3 
REMARK    2  A    between atoms: C_3  and  O_6 
REMARK    3  A    between atoms: C_3  and  C_4 
REMARK    4  A    between atoms: C_7  and  O_6 
REMARK    5  A    between atoms: C_9  and  C_10 
REMARK    6  A    between atoms: N_15  and  C_14 
REMARK    7  A    between atoms: N_20  and  C_19 
REMARK       I    between atoms: C_22  and  N_20 
ROOT
ATOM      1  C   LIG d   1      -2.108  77.492 117.116  0.00  0.00     0.161 C 
ATOM      2  C   LIG d   1      -3.092  76.710 116.490  0.00  0.00     0.016 C 
ATOM      3  C   LIG d   1      -3.298  76.690 115.091  0.00  0.00     0.038 C 
ATOM      4  C   LIG d   1      -2.426  77.340 114.205  0.00  0.00     0.028 C 
ATOM      5  C   LIG d   1      -1.725  78.547 114.820  0.00  0.00    -0.047 C 
ATOM      6  C   LIG d   1      -1.076  78.122 116.157  0.00  0.00     0.091 C 
ENDROOT
BRANCH   1   7
ATOM      7  O   LIG d   1      -1.440  76.717 118.131  0.00  0.00    -0.368 OA
BRANCH   7   8
ATOM      8  C   LIG d   1      -1.404  75.284 117.918  0.00  0.00     0.119 C 
BRANCH   8   9
ATOM      9  C   LIG d   1      -1.276  74.614 119.300  0.00  0.00     0.028 C 
ATOM     10  C   LIG d   1       0.183  74.294 119.664  0.00  0.00     0.006 C 
ENDBRANCH   8   9
BRANCH   8  11
ATOM     11  C   LIG d   1      -0.149  74.866 117.147  0.00  0.00     0.028 C 
ATOM     12  C   LIG d   1      -0.460  74.371 115.726  0.00  0.00     0.006 C 
ENDBRANCH   8  11
ENDBRANCH   7   8
ENDBRANCH   1   7
BRANCH   6  13
ATOM     13  N   LIG d   1      -0.440  79.263 116.866  0.00  0.00    -0.311 N 
ATOM     14  C   LIG d   1       0.769  79.200 117.420  0.00  0.00     0.210 C 
ATOM     15  C   LIG d   1       1.228  80.483 118.120  0.00  0.00     0.109 C 
ATOM     16  O   LIG d   1       1.519  78.213 117.372  0.00  0.00    -0.276 OA
ATOM     17  H   LIG d   1      -0.966  80.113 116.926  0.00  0.00     0.149 HD
ENDBRANCH   6  13
BRANCH   5  18
ATOM     18  N   LIG d   1      -0.747  79.045 113.834  0.00  0.00     0.381 N 
ATOM     19  H   LIG d   1      -0.657  78.388 113.085  0.00  0.00    -0.090 HD
ATOM     20  H   LIG d   1       0.147  79.137 114.282  0.00  0.00    -0.090 HD
ATOM     21  H   LIG d   1      -1.041  79.927 113.478  0.00  0.00    -0.090 HD
ENDBRANCH   5  18
BRANCH   3  22
ATOM     22  C   LIG d   1      -4.409  76.046 114.569  0.00  0.00     0.382 C 
ATOM     23  O   LIG d   1      -4.922  75.081 115.185  0.00  0.00    -0.241 OA
ATOM     24  O   LIG d   1      -4.878  76.389 113.467  0.00  0.00    -0.241 OA
ENDBRANCH   3  22
TORSDOF 7
ENDMDL
MODEL 6
REMARK VINA RESULT:      -5.0     12.852     14.907
REMARK  7 active torsions:
REMARK  status: ('A' for Active; 'I' for Inactive)
REMARK    1  A    between atoms: C_2  and  C_3 
REMARK    2  A    between atoms: C_3  and  O_6 
REMARK    3  A    between atoms: C_3  and  C_4 
REMARK    4  A    between atoms: C_7  and  O_6 
REMARK    5  A    between atoms: C_9  and  C_10 
REMARK    6  A    between atoms: N_15  and  C_14 
REMARK    7  A    between atoms: N_20  and  C_19 
REMARK       I    between atoms: C_22  and  N_20 
ROOT
ATOM      1  C   LIG d   1      -0.742  77.747 117.226  0.00  0.00     0.161 C 
ATOM      2  C   LIG d   1      -1.432  78.304 116.137  0.00  0.00     0.016 C 
ATOM      3  C   LIG d   1      -2.245  77.548 115.261  0.00  0.00     0.038 C 
ATOM      4  C   LIG d   1      -2.545  76.200 115.506  0.00  0.00     0.028 C 
ATOM      5  C   LIG d   1      -1.468  75.476 116.307  0.00  0.00    -0.047 C 
ATOM      6  C   LIG d   1      -1.146  76.299 117.575  0.00  0.00     0.091 C 
ENDROOT
BRANCH   1   7
ATOM      7  O   LIG d   1      -0.882  78.598 118.380  0.00  0.00    -0.368 OA
BRANCH   7   8
ATOM      8  C   LIG d   1      -1.960  78.267 119.290  0.00  0.00     0.119 C 
BRANCH   8   9
ATOM      9  C   LIG d   1      -3.009  79.391 119.194  0.00  0.00     0.028 C 
ATOM     10  C   LIG d   1      -4.284  78.943 118.459  0.00  0.00     0.006 C 
ENDBRANCH   8   9
BRANCH   8  11
ATOM     11  C   LIG d   1      -1.484  78.279 120.746  0.00  0.00     0.028 C 
ATOM     12  C   LIG d   1      -2.368  77.426 121.669  0.00  0.00     0.006 C 
ENDBRANCH   8  11
ENDBRANCH   7   8
ENDBRANCH   1   7
BRANCH   6  13
ATOM     13  N   LIG d   1      -0.042  75.704 118.372  0.00  0.00    -0.311 N 
ATOM     14  C   LIG d   1      -0.242  74.918 119.429  0.00  0.00     0.210 C 
ATOM     15  C   LIG d   1       1.034  74.427 120.120  0.00  0.00     0.109 C 
ATOM     16  O   LIG d   1      -1.354  74.555 119.840  0.00  0.00    -0.276 OA
ATOM     17  H   LIG d   1       0.894  75.922 118.089  0.00  0.00     0.149 HD
ENDBRANCH   6  13
BRANCH   5  18
ATOM     18  N   LIG d   1      -1.971  74.122 116.609  0.00  0.00     0.381 N 
ATOM     19  H   LIG d   1      -2.120  73.619 115.757  0.00  0.00    -0.090 HD
ATOM     20  H   LIG d   1      -2.851  74.202 117.087  0.00  0.00    -0.090 HD
ATOM     21  H   LIG d   1      -1.317  73.635 117.180  0.00  0.00    -0.090 HD
ENDBRANCH   5  18
BRANCH   3  22
ATOM     22  C   LIG d   1      -2.734  78.131 114.102  0.00  0.00     0.382 C 
ATOM     23  O   LIG d   1      -2.732  79.380 113.979  0.00  0.00    -0.241 OA
ATOM     24  O   LIG d   1      -3.220  77.427 113.197  0.00  0.00    -0.241 OA
ENDBRANCH   3  22
TORSDOF 7
ENDMDL
MODEL 7
REMARK VINA RESULT:      -4.9     13.238     15.493
REMARK  7 active torsions:
REMARK  status: ('A' for Active; 'I' for Inactive)
REMARK    1  A    between atoms: C_2  and  C_3 
REMARK    2  A    between atoms: C_3  and  O_6 
REMARK    3  A    between atoms: C_3  and  C_4 
REMARK    4  A    between atoms: C_7  and  O_6 
REMARK    5  A    between atoms: C_9  and  C_10 
REMARK    6  A    between atoms: N_15  and  C_14 
REMARK    7  A    between atoms: N_20  and  C_19 
REMARK       I    between atoms: C_22  and  N_20 
ROOT
ATOM      1  C   LIG d   1      -1.442  76.625 118.098  0.00  0.00     0.161 C 
ATOM      2  C   LIG d   1      -2.545  76.913 117.276  0.00  0.00     0.016 C 
ATOM      3  C   LIG d   1      -2.843  76.196 116.095  0.00  0.00     0.038 C 
ATOM      4  C   LIG d   1      -2.141  75.036 115.734  0.00  0.00     0.028 C 
ATOM      5  C   LIG d   1      -0.710  75.006 116.262  0.00  0.00    -0.047 C 
ATOM      6  C   LIG d   1      -0.729  75.294 117.780  0.00  0.00     0.091 C 
ENDROOT
BRANCH   1   7
ATOM      7  O   LIG d   1      -1.842  76.660 119.483  0.00  0.00    -0.368 OA
BRANCH   7   8
ATOM      8  C   LIG d   1      -1.248  77.705 120.291  0.00  0.00     0.119 C 
BRANCH   8   9
ATOM      9  C   LIG d   1      -2.389  78.615 120.784  0.00  0.00     0.028 C 
ATOM     10  C   LIG d   1      -2.736  79.721 119.773  0.00  0.00     0.006 C 
ENDBRANCH   8   9
BRANCH   8  11
ATOM     11  C   LIG d   1      -0.341  78.611 119.452  0.00  0.00     0.028 C 
ATOM     12  C   LIG d   1       1.065  78.768 120.054  0.00  0.00     0.006 C 
ENDBRANCH   8  11
ENDBRANCH   7   8
ENDBRANCH   1   7
BRANCH   6  13
ATOM     13  N   LIG d   1       0.637  75.366 118.361  0.00  0.00    -0.311 N 
ATOM     14  C   LIG d   1       0.983  74.766 119.499  0.00  0.00     0.210 C 
ATOM     15  C   LIG d   1       2.437  74.984 119.929  0.00  0.00     0.109 C 
ATOM     16  O   LIG d   1       0.232  74.048 120.176  0.00  0.00    -0.276 OA
ATOM     17  H   LIG d   1       1.318  75.902 117.860  0.00  0.00     0.149 HD
ENDBRANCH   6  13
BRANCH   5  18
ATOM     18  N   LIG d   1      -0.141  73.686 115.930  0.00  0.00     0.381 N 
ATOM     19  H   LIG d   1       0.856  73.719 116.002  0.00  0.00    -0.090 HD
ATOM     20  H   LIG d   1      -0.382  73.457 114.982  0.00  0.00    -0.090 HD
ATOM     21  H   LIG d   1      -0.502  72.994 116.549  0.00  0.00    -0.090 HD
ENDBRANCH   5  18
BRANCH   3  22
ATOM     22  C   LIG d   1      -3.830  76.661 115.240  0.00  0.00     0.382 C 
ATOM     23  O   LIG d   1      -4.987  76.877 115.676  0.00  0.00    -0.241 OA
ATOM     24  O   LIG d   1      -3.591  76.824 114.028  0.00  0.00    -0.241 OA
ENDBRANCH   3  22
TORSDOF 7
ENDMDL
MODEL 8
REMARK VINA RESULT:      -4.9      5.238      7.831
REMARK  7 active torsions:
REMARK  status: ('A' for Active; 'I' for Inactive)
REMARK    1  A    between atoms: C_2  and  C_3 
REMARK    2  A    between atoms: C_3  and  O_6 
REMARK    3  A    between atoms: C_3  and  C_4 
REMARK    4  A    between atoms: C_7  and  O_6 
REMARK    5  A    between atoms: C_9  and  C_10 
REMARK    6  A    between atoms: N_15  and  C_14 
REMARK    7  A    between atoms: N_20  and  C_19 
REMARK       I    between atoms: C_22  and  N_20 
ROOT
ATOM      1  C   LIG d   1       2.152  88.002 115.438  0.00  0.00     0.161 C 
ATOM      2  C   LIG d   1       0.907  87.807 116.060  0.00  0.00     0.016 C 
ATOM      3  C   LIG d   1       0.268  88.792 116.848  0.00  0.00     0.038 C 
ATOM      4  C   LIG d   1       0.763  90.101 116.943  0.00  0.00     0.028 C 
ATOM      5  C   LIG d   1       2.272  90.194 116.746  0.00  0.00    -0.047 C 
ATOM      6  C   LIG d   1       2.654  89.461 115.439  0.00  0.00     0.091 C 
ENDROOT
BRANCH   1   7
ATOM      7  O   LIG d   1       2.111  87.487 114.093  0.00  0.00    -0.368 OA
BRANCH   7   8
ATOM      8  C   LIG d   1       2.575  86.125 113.917  0.00  0.00     0.119 C 
BRANCH   8   9
ATOM      9  C   LIG d   1       4.008  86.193 113.355  0.00  0.00     0.028 C 
ATOM     10  C   LIG d   1       4.053  86.770 111.930  0.00  0.00     0.006 C 
ENDBRANCH   8   9
BRANCH   8  11
ATOM     11  C   LIG d   1       1.756  85.391 112.852  0.00  0.00     0.028 C 
ATOM     12  C   LIG d   1       0.257  85.722 112.919  0.00  0.00     0.006 C 
ENDBRANCH   8  11
ENDBRANCH   7   8
ENDBRANCH   1   7
BRANCH   6  13
ATOM     13  N   LIG d   1       4.122  89.431 115.214  0.00  0.00    -0.311 N 
ATOM     14  C   LIG d   1       4.693  89.757 114.055  0.00  0.00     0.210 C 
ATOM     15  C   LIG d   1       6.220  89.638 114.031  0.00  0.00     0.109 C 
ATOM     16  O   LIG d   1       4.082  90.163 113.056  0.00  0.00    -0.276 OA
ATOM     17  H   LIG d   1       4.696  89.143 115.982  0.00  0.00     0.149 HD
ENDBRANCH   6  13
BRANCH   5  18
ATOM     18  N   LIG d   1       2.633  91.624 116.733  0.00  0.00     0.381 N 
ATOM     19  H   LIG d   1       2.050  92.115 116.085  0.00  0.00    -0.090 HD
ATOM     20  H   LIG d   1       3.587  91.716 116.430  0.00  0.00    -0.090 HD
ATOM     21  H   LIG d   1       2.528  92.011 117.645  0.00  0.00    -0.090 HD
ENDBRANCH   5  18
BRANCH   3  22
ATOM     22  C   LIG d   1      -0.859  88.459 117.583  0.00  0.00     0.382 C 
ATOM     23  O   LIG d   1      -1.684  89.349 117.904  0.00  0.00    -0.241 OA
ATOM     24  O   LIG d   1      -1.040  87.289 117.968  0.00  0.00    -0.241 OA
ENDBRANCH   3  22
TORSDOF 7
ENDMDL
MODEL 9
REMARK VINA RESULT:      -4.9     27.280     29.443
REMARK  7 active torsions:
REMARK  status: ('A' for Active; 'I' for Inactive)
REMARK    1  A    between atoms: C_2  and  C_3 
REMARK    2  A    between atoms: C_3  and  O_6 
REMARK    3  A    between atoms: C_3  and  C_4 
REMARK    4  A    between atoms: C_7  and  O_6 
REMARK    5  A    between atoms: C_9  and  C_10 
REMARK    6  A    between atoms: N_15  and  C_14 
REMARK    7  A    between atoms: N_20  and  C_19 
REMARK       I    between atoms: C_22  and  N_20 
ROOT
ATOM      1  C   LIG d   1     -15.771  65.104 117.351  0.00  0.00     0.161 C 
ATOM      2  C   LIG d   1     -14.981  64.754 118.458  0.00  0.00     0.016 C 
ATOM      3  C   LIG d   1     -14.815  63.423 118.905  0.00  0.00     0.038 C 
ATOM      4  C   LIG d   1     -15.310  62.329 118.179  0.00  0.00     0.028 C 
ATOM      5  C   LIG d   1     -16.537  62.667 117.338  0.00  0.00    -0.047 C 
ATOM      6  C   LIG d   1     -16.229  63.916 116.481  0.00  0.00     0.091 C 
ENDROOT
BRANCH   1   7
ATOM      7  O   LIG d   1     -15.078  66.078 116.545  0.00  0.00    -0.368 OA
BRANCH   7   8
ATOM      8  C   LIG d   1     -15.206  67.459 116.963  0.00  0.00     0.119 C 
BRANCH   8   9
ATOM      9  C   LIG d   1     -16.641  67.652 117.492  0.00  0.00     0.028 C 
ATOM     10  C   LIG d   1     -16.675  68.390 118.841  0.00  0.00     0.006 C 
ENDBRANCH   8   9
BRANCH   8  11
ATOM     11  C   LIG d   1     -15.080  68.416 115.774  0.00  0.00     0.028 C 
ATOM     12  C   LIG d   1     -15.189  67.699 114.419  0.00  0.00     0.006 C 
ENDBRANCH   8  11
ENDBRANCH   7   8
ENDBRANCH   1   7
BRANCH   6  13
ATOM     13  N   LIG d   1     -17.405  64.364 115.690  0.00  0.00    -0.311 N 
ATOM     14  C   LIG d   1     -17.579  64.069 114.403  0.00  0.00     0.210 C 
ATOM     15  C   LIG d   1     -18.849  64.648 113.773  0.00  0.00     0.109 C 
ATOM     16  O   LIG d   1     -16.817  63.358 113.732  0.00  0.00    -0.276 OA
ATOM     17  H   LIG d   1     -18.089  64.920 116.165  0.00  0.00     0.149 HD
ENDBRANCH   6  13
BRANCH   5  18
ATOM     18  N   LIG d   1     -16.864  61.477 116.530  0.00  0.00     0.381 N 
ATOM     19  H   LIG d   1     -16.022  61.050 116.199  0.00  0.00    -0.090 HD
ATOM     20  H   LIG d   1     -17.407  61.764 115.735  0.00  0.00    -0.090 HD
ATOM     21  H   LIG d   1     -17.383  60.825 117.077  0.00  0.00    -0.090 HD
ENDBRANCH   5  18
BRANCH   3  22
ATOM     22  C   LIG d   1     -14.180  63.178 120.113  0.00  0.00     0.382 C 
ATOM     23  O   LIG d   1     -13.307  63.974 120.536  0.00  0.00    -0.241 OA
ATOM     24  O   LIG d   1     -14.437  62.147 120.765  0.00  0.00    -0.241 OA
ENDBRANCH   3  22
TORSDOF 7
ENDMDL
