MODEL 1
REMARK VINA RESULT:      -5.7      0.000      0.000
REMARK  7 active torsions:
REMARK  status: ('A' for Active; 'I' for Inactive)
REMARK    1  A    between atoms: C_2  and  C_3 
REMARK    2  A    between atoms: C_3  and  O_6 
REMARK    3  A    between atoms: C_3  and  C_4 
REMARK    4  A    between atoms: C_7  and  O_6 
REMARK    5  A    between atoms: C_9  and  C_10 
REMARK    6  A    between atoms: N_15  and  C_14 
REMARK    7  A    between atoms: N_20  and  C_19 
REMARK       I    between atoms: C_22  and  N_20 
ROOT
ATOM      1  C   LIG d   1      -6.461  79.573 117.603  0.00  0.00     0.161 C 
ATOM      2  C   LIG d   1      -7.793  79.183 117.823  0.00  0.00     0.016 C 
ATOM      3  C   LIG d   1      -8.817  80.085 118.193  0.00  0.00     0.038 C 
ATOM      4  C   LIG d   1      -8.609  81.472 118.222  0.00  0.00     0.028 C 
ATOM      5  C   LIG d   1      -7.161  81.861 118.500  0.00  0.00    -0.047 C 
ATOM      6  C   LIG d   1      -6.239  81.098 117.521  0.00  0.00     0.091 C 
ENDROOT
BRANCH   1   7
ATOM      7  O   LIG d   1      -5.953  78.928 116.419  0.00  0.00    -0.368 OA
BRANCH   7   8
ATOM      8  C   LIG d   1      -5.438  77.585 116.596  0.00  0.00     0.119 C 
BRANCH   8   9
ATOM      9  C   LIG d   1      -3.989  77.572 116.072  0.00  0.00     0.028 C 
ATOM     10  C   LIG d   1      -2.993  78.163 117.084  0.00  0.00     0.006 C 
ENDBRANCH   8   9
BRANCH   8  11
ATOM     11  C   LIG d   1      -6.194  76.579 115.723  0.00  0.00     0.028 C 
ATOM     12  C   LIG d   1      -7.256  75.791 116.505  0.00  0.00     0.006 C 
ENDBRANCH   8  11
ENDBRANCH   7   8
ENDBRANCH   1   7
BRANCH   6  13
ATOM     13  N   LIG d   1      -4.799  81.357 117.780  0.00  0.00    -0.311 N 
ATOM     14  C   LIG d   1      -3.983  81.916 116.889  0.00  0.00     0.210 C 
ATOM     15  C   LIG d   1      -2.531  82.075 117.351  0.00  0.00     0.109 C 
ATOM     16  O   LIG d   1      -4.331  82.326 115.771  0.00  0.00    -0.276 OA
ATOM     17  H   LIG d   1      -4.440  81.084 118.674  0.00  0.00     0.149 HD
ENDBRANCH   6  13
BRANCH   5  18
ATOM     18  N   LIG d   1      -7.060  83.327 118.364  0.00  0.00     0.381 N 
ATOM     19  H   LIG d   1      -6.284  83.664 118.900  0.00  0.00    -0.090 HD
ATOM     20  H   LIG d   1      -7.898  83.745 118.726  0.00  0.00    -0.090 HD
ATOM     21  H   LIG d   1      -6.943  83.574 117.406  0.00  0.00    -0.090 HD
ENDBRANCH   5  18
BRANCH   3  22
ATOM     22  C   LIG d   1     -10.056  79.597 118.579  0.00  0.00     0.382 C 
ATOM     23  O   LIG d   1     -10.590  80.007 119.638  0.00  0.00    -0.241 OA
ATOM     24  O   LIG d   1     -10.627  78.719 117.905  0.00  0.00    -0.241 OA
ENDBRANCH   3  22
TORSDOF 7
ENDMDL
MODEL 2
REMARK VINA RESULT:      -5.3      2.249      4.565
REMARK  7 active torsions:
REMARK  status: ('A' for Active; 'I' for Inactive)
REMARK    1  A    between atoms: C_2  and  C_3 
REMARK    2  A    between atoms: C_3  and  O_6 
REMARK    3  A    between atoms: C_3  and  C_4 
REMARK    4  A    between atoms: C_7  and  O_6 
REMARK    5  A    between atoms: C_9  and  C_10 
REMARK    6  A    between atoms: N_15  and  C_14 
REMARK    7  A    between atoms: N_20  and  C_19 
REMARK       I    between atoms: C_22  and  N_20 
ROOT
ATOM      1  C   LIG d   1      -7.043  80.654 117.870  0.00  0.00     0.161 C 
ATOM      2  C   LIG d   1      -7.003  79.354 117.337  0.00  0.00     0.016 C 
ATOM      3  C   LIG d   1      -8.084  78.447 117.416  0.00  0.00     0.038 C 
ATOM      4  C   LIG d   1      -9.341  78.833 117.903  0.00  0.00     0.028 C 
ATOM      5  C   LIG d   1      -9.276  79.976 118.910  0.00  0.00    -0.047 C 
ATOM      6  C   LIG d   1      -8.445  81.130 118.306  0.00  0.00     0.091 C 
ENDROOT
BRANCH   1   7
ATOM      7  O   LIG d   1      -6.467  81.585 116.932  0.00  0.00    -0.368 OA
BRANCH   7   8
ATOM      8  C   LIG d   1      -5.192  82.160 117.307  0.00  0.00     0.119 C 
BRANCH   8   9
ATOM      9  C   LIG d   1      -4.098  81.416 116.516  0.00  0.00     0.028 C 
ATOM     10  C   LIG d   1      -2.705  82.037 116.714  0.00  0.00     0.006 C 
ENDBRANCH   8   9
BRANCH   8  11
ATOM     11  C   LIG d   1      -4.874  81.898 118.782  0.00  0.00     0.028 C 
ATOM     12  C   LIG d   1      -4.792  83.189 119.612  0.00  0.00     0.006 C 
ENDBRANCH   8  11
ENDBRANCH   7   8
ENDBRANCH   1   7
BRANCH   6  13
ATOM     13  N   LIG d   1      -8.260  82.255 119.260  0.00  0.00    -0.311 N 
ATOM     14  C   LIG d   1      -9.038  83.337 119.276  0.00  0.00     0.210 C 
ATOM     15  C   LIG d   1      -8.662  84.387 120.327  0.00  0.00     0.109 C 
ATOM     16  O   LIG d   1     -10.022  83.511 118.542  0.00  0.00    -0.276 OA
ATOM     17  H   LIG d   1      -7.504  82.182 119.911  0.00  0.00     0.149 HD
ENDBRANCH   6  13
BRANCH   5  18
ATOM     18  N   LIG d   1     -10.662  80.367 119.230  0.00  0.00     0.381 N 
ATOM     19  H   LIG d   1     -10.747  80.540 120.212  0.00  0.00    -0.090 HD
ATOM     20  H   LIG d   1     -11.278  79.611 118.989  0.00  0.00    -0.090 HD
ATOM     21  H   LIG d   1     -10.912  81.185 118.719  0.00  0.00    -0.090 HD
ENDBRANCH   5  18
BRANCH   3  22
ATOM     22  C   LIG d   1      -7.900  77.125 117.040  0.00  0.00     0.382 C 
ATOM     23  O   LIG d   1      -6.742  76.646 116.978  0.00  0.00    -0.241 OA
ATOM     24  O   LIG d   1      -8.874  76.418 116.720  0.00  0.00    -0.241 OA
ENDBRANCH   3  22
TORSDOF 7
ENDMDL
MODEL 3
REMARK VINA RESULT:      -4.9      1.244      2.127
REMARK  7 active torsions:
REMARK  status: ('A' for Active; 'I' for Inactive)
REMARK    1  A    between atoms: C_2  and  C_3 
REMARK    2  A    between atoms: C_3  and  O_6 
REMARK    3  A    between atoms: C_3  and  C_4 
REMARK    4  A    between atoms: C_7  and  O_6 
REMARK    5  A    between atoms: C_9  and  C_10 
REMARK    6  A    between atoms: N_15  and  C_14 
REMARK    7  A    between atoms: N_20  and  C_19 
REMARK       I    between atoms: C_22  and  N_20 
ROOT
ATOM      1  C   LIG d   1      -6.183  79.002 118.315  0.00  0.00     0.161 C 
ATOM      2  C   LIG d   1      -7.542  78.970 118.672  0.00  0.00     0.016 C 
ATOM      3  C   LIG d   1      -8.422  80.060 118.483  0.00  0.00     0.038 C 
ATOM      4  C   LIG d   1      -8.036  81.211 117.780  0.00  0.00     0.028 C 
ATOM      5  C   LIG d   1      -6.538  81.489 117.849  0.00  0.00    -0.047 C 
ATOM      6  C   LIG d   1      -5.771  80.209 117.446  0.00  0.00     0.091 C 
ENDROOT
BRANCH   1   7
ATOM      7  O   LIG d   1      -5.820  77.768 117.664  0.00  0.00    -0.368 OA
BRANCH   7   8
ATOM      8  C   LIG d   1      -6.605  77.405 116.502  0.00  0.00     0.119 C 
BRANCH   8   9
ATOM      9  C   LIG d   1      -7.434  76.160 116.874  0.00  0.00     0.028 C 
ATOM     10  C   LIG d   1      -8.942  76.373 116.657  0.00  0.00     0.006 C 
ENDBRANCH   8   9
BRANCH   8  11
ATOM     11  C   LIG d   1      -5.711  76.965 115.340  0.00  0.00     0.028 C 
ATOM     12  C   LIG d   1      -4.217  76.973 115.702  0.00  0.00     0.006 C 
ENDBRANCH   8  11
ENDBRANCH   7   8
ENDBRANCH   1   7
BRANCH   6  13
ATOM     13  N   LIG d   1      -4.299  80.368 117.568  0.00  0.00    -0.311 N 
ATOM     14  C   LIG d   1      -3.482  80.459 116.519  0.00  0.00     0.210 C 
ATOM     15  C   LIG d   1      -1.997  80.599 116.866  0.00  0.00     0.109 C 
ATOM     16  O   LIG d   1      -3.850  80.469 115.335  0.00  0.00    -0.276 OA
ATOM     17  H   LIG d   1      -3.918  80.401 118.493  0.00  0.00     0.149 HD
ENDBRANCH   6  13
BRANCH   5  18
ATOM     18  N   LIG d   1      -6.256  82.634 116.963  0.00  0.00     0.381 N 
ATOM     19  H   LIG d   1      -6.299  82.342 116.007  0.00  0.00    -0.090 HD
ATOM     20  H   LIG d   1      -5.327  82.968 117.149  0.00  0.00    -0.090 HD
ATOM     21  H   LIG d   1      -6.917  83.362 117.125  0.00  0.00    -0.090 HD
ENDBRANCH   5  18
BRANCH   3  22
ATOM     22  C   LIG d   1      -9.693  80.020 119.035  0.00  0.00     0.382 C 
ATOM     23  O   LIG d   1      -9.836  80.035 120.281  0.00  0.00    -0.241 OA
ATOM     24  O   LIG d   1     -10.697  79.925 118.303  0.00  0.00    -0.241 OA
ENDBRANCH   3  22
TORSDOF 7
ENDMDL
MODEL 4
REMARK VINA RESULT:      -4.8      2.512      3.916
REMARK  7 active torsions:
REMARK  status: ('A' for Active; 'I' for Inactive)
REMARK    1  A    between atoms: C_2  and  C_3 
REMARK    2  A    between atoms: C_3  and  O_6 
REMARK    3  A    between atoms: C_3  and  C_4 
REMARK    4  A    between atoms: C_7  and  O_6 
REMARK    5  A    between atoms: C_9  and  C_10 
REMARK    6  A    between atoms: N_15  and  C_14 
REMARK    7  A    between atoms: N_20  and  C_19 
REMARK       I    between atoms: C_22  and  N_20 
ROOT
ATOM      1  C   LIG d   1      -6.797  81.811 118.048  0.00  0.00     0.161 C 
ATOM      2  C   LIG d   1      -7.449  80.602 117.755  0.00  0.00     0.016 C 
ATOM      3  C   LIG d   1      -8.831  80.391 117.966  0.00  0.00     0.038 C 
ATOM      4  C   LIG d   1      -9.690  81.432 118.347  0.00  0.00     0.028 C 
ATOM      5  C   LIG d   1      -8.992  82.534 119.138  0.00  0.00    -0.047 C 
ATOM      6  C   LIG d   1      -7.738  82.993 118.360  0.00  0.00     0.091 C 
ENDROOT
BRANCH   1   7
ATOM      7  O   LIG d   1      -5.899  82.155 116.975  0.00  0.00    -0.368 OA
BRANCH   7   8
ATOM      8  C   LIG d   1      -4.537  81.677 117.105  0.00  0.00     0.119 C 
BRANCH   8   9
ATOM      9  C   LIG d   1      -3.939  82.324 118.370  0.00  0.00     0.028 C 
ATOM     10  C   LIG d   1      -3.553  81.283 119.434  0.00  0.00     0.006 C 
ENDBRANCH   8   9
BRANCH   8  11
ATOM     11  C   LIG d   1      -3.662  82.164 115.947  0.00  0.00     0.028 C 
ATOM     12  C   LIG d   1      -2.197  81.718 116.078  0.00  0.00     0.006 C 
ENDBRANCH   8  11
ENDBRANCH   7   8
ENDBRANCH   1   7
BRANCH   6  13
ATOM     13  N   LIG d   1      -6.951  84.011 119.104  0.00  0.00    -0.311 N 
ATOM     14  C   LIG d   1      -6.456  83.807 120.323  0.00  0.00     0.210 C 
ATOM     15  C   LIG d   1      -5.692  84.995 120.918  0.00  0.00     0.109 C 
ATOM     16  O   LIG d   1      -6.549  82.745 120.956  0.00  0.00    -0.276 OA
ATOM     17  H   LIG d   1      -6.801  84.892 118.651  0.00  0.00     0.149 HD
ENDBRANCH   6  13
BRANCH   5  18
ATOM     18  N   LIG d   1      -9.971  83.618 119.350  0.00  0.00     0.381 N 
ATOM     19  H   LIG d   1     -10.565  83.391 120.122  0.00  0.00    -0.090 HD
ATOM     20  H   LIG d   1     -10.541  83.706 118.528  0.00  0.00    -0.090 HD
ATOM     21  H   LIG d   1      -9.496  84.475 119.528  0.00  0.00    -0.090 HD
ENDBRANCH   5  18
BRANCH   3  22
ATOM     22  C   LIG d   1      -9.359  79.116 117.835  0.00  0.00     0.382 C 
ATOM     23  O   LIG d   1     -10.520  78.873 118.244  0.00  0.00    -0.241 OA
ATOM     24  O   LIG d   1      -8.674  78.194 117.353  0.00  0.00    -0.241 OA
ENDBRANCH   3  22
TORSDOF 7
ENDMDL
MODEL 5
REMARK VINA RESULT:      -4.8     12.290     14.666
REMARK  7 active torsions:
REMARK  status: ('A' for Active; 'I' for Inactive)
REMARK    1  A    between atoms: C_2  and  C_3 
REMARK    2  A    between atoms: C_3  and  O_6 
REMARK    3  A    between atoms: C_3  and  C_4 
REMARK    4  A    between atoms: C_7  and  O_6 
REMARK    5  A    between atoms: C_9  and  C_10 
REMARK    6  A    between atoms: N_15  and  C_14 
REMARK    7  A    between atoms: N_20  and  C_19 
REMARK       I    between atoms: C_22  and  N_20 
ROOT
ATOM      1  C   LIG d   1       2.299  91.103 117.080  0.00  0.00     0.161 C 
ATOM      2  C   LIG d   1       1.718  92.202 117.734  0.00  0.00     0.016 C 
ATOM      3  C   LIG d   1       0.340  92.289 118.035  0.00  0.00     0.038 C 
ATOM      4  C   LIG d   1      -0.532  91.209 117.834  0.00  0.00     0.028 C 
ATOM      5  C   LIG d   1      -0.089  90.272 116.716  0.00  0.00    -0.047 C 
ATOM      6  C   LIG d   1       1.384  89.868 116.954  0.00  0.00     0.091 C 
ENDROOT
BRANCH   1   7
ATOM      7  O   LIG d   1       3.536  90.746 117.729  0.00  0.00    -0.368 OA
BRANCH   7   8
ATOM      8  C   LIG d   1       4.734  91.370 117.206  0.00  0.00     0.119 C 
BRANCH   8   9
ATOM      9  C   LIG d   1       5.577  90.266 116.538  0.00  0.00     0.028 C 
ATOM     10  C   LIG d   1       5.330  90.174 115.023  0.00  0.00     0.006 C 
ENDBRANCH   8   9
BRANCH   8  11
ATOM     11  C   LIG d   1       5.611  91.925 118.332  0.00  0.00     0.028 C 
ATOM     12  C   LIG d   1       5.284  93.386 118.677  0.00  0.00     0.006 C 
ENDBRANCH   8  11
ENDBRANCH   7   8
ENDBRANCH   1   7
BRANCH   6  13
ATOM     13  N   LIG d   1       1.922  89.018 115.860  0.00  0.00    -0.311 N 
ATOM     14  C   LIG d   1       2.592  87.887 116.072  0.00  0.00     0.210 C 
ATOM     15  C   LIG d   1       3.077  87.175 114.806  0.00  0.00     0.109 C 
ATOM     16  O   LIG d   1       2.802  87.388 117.188  0.00  0.00    -0.276 OA
ATOM     17  H   LIG d   1       1.770  89.333 114.922  0.00  0.00     0.149 HD
ENDBRANCH   6  13
BRANCH   5  18
ATOM     18  N   LIG d   1      -1.011  89.120 116.708  0.00  0.00     0.381 N 
ATOM     19  H   LIG d   1      -0.489  88.268 116.755  0.00  0.00    -0.090 HD
ATOM     20  H   LIG d   1      -1.529  89.125 115.847  0.00  0.00    -0.090 HD
ATOM     21  H   LIG d   1      -1.636  89.178 117.481  0.00  0.00    -0.090 HD
ENDBRANCH   5  18
BRANCH   3  22
ATOM     22  C   LIG d   1      -0.187  93.483 118.505  0.00  0.00     0.382 C 
ATOM     23  O   LIG d   1      -0.035  93.805 119.708  0.00  0.00    -0.241 OA
ATOM     24  O   LIG d   1      -0.852  94.220 117.752  0.00  0.00    -0.241 OA
ENDBRANCH   3  22
TORSDOF 7
ENDMDL
MODEL 6
REMARK VINA RESULT:      -4.7      1.877      2.854
REMARK  7 active torsions:
REMARK  status: ('A' for Active; 'I' for Inactive)
REMARK    1  A    between atoms: C_2  and  C_3 
REMARK    2  A    between atoms: C_3  and  O_6 
REMARK    3  A    between atoms: C_3  and  C_4 
REMARK    4  A    between atoms: C_7  and  O_6 
REMARK    5  A    between atoms: C_9  and  C_10 
REMARK    6  A    between atoms: N_15  and  C_14 
REMARK    7  A    between atoms: N_20  and  C_19 
REMARK       I    between atoms: C_22  and  N_20 
ROOT
ATOM      1  C   LIG d   1      -6.235  79.231 117.319  0.00  0.00     0.161 C 
ATOM      2  C   LIG d   1      -7.344  79.991 117.727  0.00  0.00     0.016 C 
ATOM      3  C   LIG d   1      -7.270  81.364 118.053  0.00  0.00     0.038 C 
ATOM      4  C   LIG d   1      -6.101  82.113 117.847  0.00  0.00     0.028 C 
ATOM      5  C   LIG d   1      -4.827  81.278 117.916  0.00  0.00    -0.047 C 
ATOM      6  C   LIG d   1      -4.976  80.057 116.981  0.00  0.00     0.091 C 
ENDROOT
BRANCH   1   7
ATOM      7  O   LIG d   1      -6.600  78.394 116.204  0.00  0.00    -0.368 OA
BRANCH   7   8
ATOM      8  C   LIG d   1      -6.303  76.983 116.342  0.00  0.00     0.119 C 
BRANCH   8   9
ATOM      9  C   LIG d   1      -6.150  76.401 114.924  0.00  0.00     0.028 C 
ATOM     10  C   LIG d   1      -5.601  74.964 114.935  0.00  0.00     0.006 C 
ENDBRANCH   8   9
BRANCH   8  11
ATOM     11  C   LIG d   1      -7.479  76.225 116.967  0.00  0.00     0.028 C 
ATOM     12  C   LIG d   1      -8.841  76.837 116.605  0.00  0.00     0.006 C 
ENDBRANCH   8  11
ENDBRANCH   7   8
ENDBRANCH   1   7
BRANCH   6  13
ATOM     13  N   LIG d   1      -3.807  79.142 117.052  0.00  0.00    -0.311 N 
ATOM     14  C   LIG d   1      -3.205  78.636 115.977  0.00  0.00     0.210 C 
ATOM     15  C   LIG d   1      -2.030  77.699 116.275  0.00  0.00     0.109 C 
ATOM     16  O   LIG d   1      -3.511  78.900 114.805  0.00  0.00    -0.276 OA
ATOM     17  H   LIG d   1      -3.472  78.900 117.964  0.00  0.00     0.149 HD
ENDBRANCH   6  13
BRANCH   5  18
ATOM     18  N   LIG d   1      -3.699  82.155 117.547  0.00  0.00     0.381 N 
ATOM     19  H   LIG d   1      -4.022  83.096 117.443  0.00  0.00    -0.090 HD
ATOM     20  H   LIG d   1      -3.326  81.850 116.665  0.00  0.00    -0.090 HD
ATOM     21  H   LIG d   1      -2.992  82.114 118.248  0.00  0.00    -0.090 HD
ENDBRANCH   5  18
BRANCH   3  22
ATOM     22  C   LIG d   1      -8.362  81.994 118.631  0.00  0.00     0.382 C 
ATOM     23  O   LIG d   1      -9.312  81.311 119.083  0.00  0.00    -0.241 OA
ATOM     24  O   LIG d   1      -8.429  83.238 118.665  0.00  0.00    -0.241 OA
ENDBRANCH   3  22
TORSDOF 7
ENDMDL
MODEL 7
REMARK VINA RESULT:      -4.7      1.625      5.026
REMARK  7 active torsions:
REMARK  status: ('A' for Active; 'I' for Inactive)
REMARK    1  A    between atoms: C_2  and  C_3 
REMARK    2  A    between atoms: C_3  and  O_6 
REMARK    3  A    between atoms: C_3  and  C_4 
REMARK    4  A    between atoms: C_7  and  O_6 
REMARK    5  A    between atoms: C_9  and  C_10 
REMARK    6  A    between atoms: N_15  and  C_14 
REMARK    7  A    between atoms: N_20  and  C_19 
REMARK       I    between atoms: C_22  and  N_20 
ROOT
ATOM      1  C   LIG d   1      -5.773  79.944 117.124  0.00  0.00     0.161 C 
ATOM      2  C   LIG d   1      -4.464  80.393 116.883  0.00  0.00     0.016 C 
ATOM      3  C   LIG d   1      -3.936  81.584 117.434  0.00  0.00     0.038 C 
ATOM      4  C   LIG d   1      -4.638  82.334 118.389  0.00  0.00     0.028 C 
ATOM      5  C   LIG d   1      -6.153  82.192 118.277  0.00  0.00    -0.047 C 
ATOM      6  C   LIG d   1      -6.516  80.690 118.252  0.00  0.00     0.091 C 
ENDROOT
BRANCH   1   7
ATOM      7  O   LIG d   1      -5.763  78.526 117.382  0.00  0.00    -0.368 OA
BRANCH   7   8
ATOM      8  C   LIG d   1      -6.320  77.685 116.343  0.00  0.00     0.119 C 
BRANCH   8   9
ATOM      9  C   LIG d   1      -7.212  76.631 117.028  0.00  0.00     0.028 C 
ATOM     10  C   LIG d   1      -8.706  76.844 116.732  0.00  0.00     0.006 C 
ENDBRANCH   8   9
BRANCH   8  11
ATOM     11  C   LIG d   1      -5.227  76.887 115.626  0.00  0.00     0.028 C 
ATOM     12  C   LIG d   1      -5.762  75.612 114.954  0.00  0.00     0.006 C 
ENDBRANCH   8  11
ENDBRANCH   7   8
ENDBRANCH   1   7
BRANCH   6  13
ATOM     13  N   LIG d   1      -7.972  80.462 118.059  0.00  0.00    -0.311 N 
ATOM     14  C   LIG d   1      -8.740  79.836 118.949  0.00  0.00     0.210 C 
ATOM     15  C   LIG d   1     -10.210  79.689 118.544  0.00  0.00     0.109 C 
ATOM     16  O   LIG d   1      -8.350  79.416 120.049  0.00  0.00    -0.276 OA
ATOM     17  H   LIG d   1      -8.377  80.798 117.207  0.00  0.00     0.149 HD
ENDBRANCH   6  13
BRANCH   5  18
ATOM     18  N   LIG d   1      -6.753  82.913 119.415  0.00  0.00     0.381 N 
ATOM     19  H   LIG d   1      -6.984  83.847 119.141  0.00  0.00    -0.090 HD
ATOM     20  H   LIG d   1      -6.081  82.961 120.161  0.00  0.00    -0.090 HD
ATOM     21  H   LIG d   1      -7.572  82.438 119.726  0.00  0.00    -0.090 HD
ENDBRANCH   5  18
BRANCH   3  22
ATOM     22  C   LIG d   1      -2.708  82.058 116.997  0.00  0.00     0.382 C 
ATOM     23  O   LIG d   1      -2.466  82.133 115.769  0.00  0.00    -0.241 OA
ATOM     24  O   LIG d   1      -1.824  82.369 117.817  0.00  0.00    -0.241 OA
ENDBRANCH   3  22
TORSDOF 7
ENDMDL
MODEL 8
REMARK VINA RESULT:      -4.6     11.847     14.393
REMARK  7 active torsions:
REMARK  status: ('A' for Active; 'I' for Inactive)
REMARK    1  A    between atoms: C_2  and  C_3 
REMARK    2  A    between atoms: C_3  and  O_6 
REMARK    3  A    between atoms: C_3  and  C_4 
REMARK    4  A    between atoms: C_7  and  O_6 
REMARK    5  A    between atoms: C_9  and  C_10 
REMARK    6  A    between atoms: N_15  and  C_14 
REMARK    7  A    between atoms: N_20  and  C_19 
REMARK       I    between atoms: C_22  and  N_20 
ROOT
ATOM      1  C   LIG d   1       2.823  89.462 118.085  0.00  0.00     0.161 C 
ATOM      2  C   LIG d   1       3.208  88.365 117.295  0.00  0.00     0.016 C 
ATOM      3  C   LIG d   1       2.436  87.874 116.217  0.00  0.00     0.038 C 
ATOM      4  C   LIG d   1       1.293  88.545 115.757  0.00  0.00     0.028 C 
ATOM      5  C   LIG d   1       0.595  89.363 116.839  0.00  0.00    -0.047 C 
ATOM      6  C   LIG d   1       1.635  90.274 117.528  0.00  0.00     0.091 C 
ENDROOT
BRANCH   1   7
ATOM      7  O   LIG d   1       3.957  90.323 118.310  0.00  0.00    -0.368 OA
BRANCH   7   8
ATOM      8  C   LIG d   1       4.255  91.273 117.258  0.00  0.00     0.119 C 
BRANCH   8   9
ATOM      9  C   LIG d   1       5.618  90.883 116.655  0.00  0.00     0.028 C 
ATOM     10  C   LIG d   1       5.479  90.185 115.291  0.00  0.00     0.006 C 
ENDBRANCH   8   9
BRANCH   8  11
ATOM     11  C   LIG d   1       4.449  92.685 117.820  0.00  0.00     0.028 C 
ATOM     12  C   LIG d   1       4.220  92.758 119.338  0.00  0.00     0.006 C 
ENDBRANCH   8  11
ENDBRANCH   7   8
ENDBRANCH   1   7
BRANCH   6  13
ATOM     13  N   LIG d   1       1.052  91.048 118.656  0.00  0.00    -0.311 N 
ATOM     14  C   LIG d   1       0.616  92.301 118.537  0.00  0.00     0.210 C 
ATOM     15  C   LIG d   1       0.070  92.920 119.827  0.00  0.00     0.109 C 
ATOM     16  O   LIG d   1       0.599  92.946 117.478  0.00  0.00    -0.276 OA
ATOM     17  H   LIG d   1       0.999  90.589 119.544  0.00  0.00     0.149 HD
ENDBRANCH   6  13
BRANCH   5  18
ATOM     18  N   LIG d   1      -0.496  90.117 116.192  0.00  0.00     0.381 N 
ATOM     19  H   LIG d   1      -1.379  89.724 116.451  0.00  0.00    -0.090 HD
ATOM     20  H   LIG d   1      -0.397  90.041 115.195  0.00  0.00    -0.090 HD
ATOM     21  H   LIG d   1      -0.457  91.074 116.465  0.00  0.00    -0.090 HD
ENDBRANCH   5  18
BRANCH   3  22
ATOM     22  C   LIG d   1       2.785  86.676 115.612  0.00  0.00     0.382 C 
ATOM     23  O   LIG d   1       3.905  86.160 115.843  0.00  0.00    -0.241 OA
ATOM     24  O   LIG d   1       2.011  86.127 114.805  0.00  0.00    -0.241 OA
ENDBRANCH   3  22
TORSDOF 7
ENDMDL
MODEL 9
REMARK VINA RESULT:      -4.6      2.208      5.397
REMARK  7 active torsions:
REMARK  status: ('A' for Active; 'I' for Inactive)
REMARK    1  A    between atoms: C_2  and  C_3 
REMARK    2  A    between atoms: C_3  and  O_6 
REMARK    3  A    between atoms: C_3  and  C_4 
REMARK    4  A    between atoms: C_7  and  O_6 
REMARK    5  A    between atoms: C_9  and  C_10 
REMARK    6  A    between atoms: N_15  and  C_14 
REMARK    7  A    between atoms: N_20  and  C_19 
REMARK       I    between atoms: C_22  and  N_20 
ROOT
ATOM      1  C   LIG d   1      -6.353  82.314 117.618  0.00  0.00     0.161 C 
ATOM      2  C   LIG d   1      -5.053  82.031 117.166  0.00  0.00     0.016 C 
ATOM      3  C   LIG d   1      -3.894  82.243 117.947  0.00  0.00     0.038 C 
ATOM      4  C   LIG d   1      -3.967  82.615 119.297  0.00  0.00     0.028 C 
ATOM      5  C   LIG d   1      -5.230  83.397 119.643  0.00  0.00    -0.047 C 
ATOM      6  C   LIG d   1      -6.460  82.615 119.128  0.00  0.00     0.091 C 
ENDROOT
BRANCH   1   7
ATOM      7  O   LIG d   1      -7.241  81.239 117.257  0.00  0.00    -0.368 OA
BRANCH   7   8
ATOM      8  C   LIG d   1      -7.167  80.047 118.078  0.00  0.00     0.119 C 
BRANCH   8   9
ATOM      9  C   LIG d   1      -6.873  78.858 117.143  0.00  0.00     0.028 C 
ATOM     10  C   LIG d   1      -5.444  78.315 117.316  0.00  0.00     0.006 C 
ENDBRANCH   8   9
BRANCH   8  11
ATOM     11  C   LIG d   1      -8.519  79.731 118.724  0.00  0.00     0.028 C 
ATOM     12  C   LIG d   1      -9.682  80.501 118.080  0.00  0.00     0.006 C 
ENDBRANCH   8  11
ENDBRANCH   7   8
ENDBRANCH   1   7
BRANCH   6  13
ATOM     13  N   LIG d   1      -7.733  83.351 119.350  0.00  0.00    -0.311 N 
ATOM     14  C   LIG d   1      -8.522  83.149 120.404  0.00  0.00     0.210 C 
ATOM     15  C   LIG d   1      -9.796  83.999 120.429  0.00  0.00     0.109 C 
ATOM     16  O   LIG d   1      -8.271  82.371 121.336  0.00  0.00    -0.276 OA
ATOM     17  H   LIG d   1      -7.997  84.024 118.658  0.00  0.00     0.149 HD
ENDBRANCH   6  13
BRANCH   5  18
ATOM     18  N   LIG d   1      -5.243  83.599 121.104  0.00  0.00     0.381 N 
ATOM     19  H   LIG d   1      -4.317  83.500 121.468  0.00  0.00    -0.090 HD
ATOM     20  H   LIG d   1      -5.824  82.895 121.524  0.00  0.00    -0.090 HD
ATOM     21  H   LIG d   1      -5.598  84.505 121.319  0.00  0.00    -0.090 HD
ENDBRANCH   5  18
BRANCH   3  22
ATOM     22  C   LIG d   1      -2.641  82.122 117.364  0.00  0.00     0.382 C 
ATOM     23  O   LIG d   1      -1.612  82.386 118.031  0.00  0.00    -0.241 OA
ATOM     24  O   LIG d   1      -2.530  81.795 116.167  0.00  0.00    -0.241 OA
ENDBRANCH   3  22
TORSDOF 7
ENDMDL
