MODEL 1
REMARK VINA RESULT:      -5.3      0.000      0.000
REMARK  7 active torsions:
REMARK  status: ('A' for Active; 'I' for Inactive)
REMARK    1  A    between atoms: C_2  and  C_3 
REMARK    2  A    between atoms: C_3  and  O_6 
REMARK    3  A    between atoms: C_3  and  C_4 
REMARK    4  A    between atoms: C_7  and  O_6 
REMARK    5  A    between atoms: C_9  and  C_10 
REMARK    6  A    between atoms: N_15  and  C_14 
REMARK    7  A    between atoms: N_20  and  C_19 
REMARK       I    between atoms: C_22  and  N_20 
ROOT
ATOM      1  C   LIG d   1      -6.032  78.297 117.401  0.00  0.00     0.161 C 
ATOM      2  C   LIG d   1      -7.270  78.960 117.387  0.00  0.00     0.016 C 
ATOM      3  C   LIG d   1      -7.499  80.195 118.035  0.00  0.00     0.038 C 
ATOM      4  C   LIG d   1      -6.457  80.931 118.618  0.00  0.00     0.028 C 
ATOM      5  C   LIG d   1      -5.295  80.065 119.093  0.00  0.00    -0.047 C 
ATOM      6  C   LIG d   1      -4.854  79.139 117.937  0.00  0.00     0.091 C 
ENDROOT
BRANCH   1   7
ATOM      7  O   LIG d   1      -5.731  77.797 116.083  0.00  0.00    -0.368 OA
BRANCH   7   8
ATOM      8  C   LIG d   1      -5.734  76.356 115.932  0.00  0.00     0.119 C 
BRANCH   8   9
ATOM      9  C   LIG d   1      -4.583  75.988 114.977  0.00  0.00     0.028 C 
ATOM     10  C   LIG d   1      -3.557  75.046 115.630  0.00  0.00     0.006 C 
ENDBRANCH   8   9
BRANCH   8  11
ATOM     11  C   LIG d   1      -7.009  75.871 115.236  0.00  0.00     0.028 C 
ATOM     12  C   LIG d   1      -8.143  75.554 116.224  0.00  0.00     0.006 C 
ENDBRANCH   8  11
ENDBRANCH   7   8
ENDBRANCH   1   7
BRANCH   6  13
ATOM     13  N   LIG d   1      -3.778  78.198 118.343  0.00  0.00    -0.311 N 
ATOM     14  C   LIG d   1      -2.673  77.994 117.627  0.00  0.00     0.210 C 
ATOM     15  C   LIG d   1      -1.701  76.968 118.216  0.00  0.00     0.109 C 
ATOM     16  O   LIG d   1      -2.392  78.590 116.576  0.00  0.00    -0.276 OA
ATOM     17  H   LIG d   1      -3.910  77.696 119.199  0.00  0.00     0.149 HD
ENDBRANCH   6  13
BRANCH   5  18
ATOM     18  N   LIG d   1      -4.223  80.968 119.551  0.00  0.00     0.381 N 
ATOM     19  H   LIG d   1      -4.310  81.125 120.536  0.00  0.00    -0.090 HD
ATOM     20  H   LIG d   1      -4.320  81.851 119.082  0.00  0.00    -0.090 HD
ATOM     21  H   LIG d   1      -3.333  80.571 119.348  0.00  0.00    -0.090 HD
ENDBRANCH   5  18
BRANCH   3  22
ATOM     22  C   LIG d   1      -8.791  80.687 118.140  0.00  0.00     0.382 C 
ATOM     23  O   LIG d   1      -9.727  80.129 117.518  0.00  0.00    -0.241 OA
ATOM     24  O   LIG d   1      -9.026  81.709 118.812  0.00  0.00    -0.241 OA
ENDBRANCH   3  22
TORSDOF 7
ENDMDL
MODEL 2
REMARK VINA RESULT:      -5.2      2.182      4.860
REMARK  7 active torsions:
REMARK  status: ('A' for Active; 'I' for Inactive)
REMARK    1  A    between atoms: C_2  and  C_3 
REMARK    2  A    between atoms: C_3  and  O_6 
REMARK    3  A    between atoms: C_3  and  C_4 
REMARK    4  A    between atoms: C_7  and  O_6 
REMARK    5  A    between atoms: C_9  and  C_10 
REMARK    6  A    between atoms: N_15  and  C_14 
REMARK    7  A    between atoms: N_20  and  C_19 
REMARK       I    between atoms: C_22  and  N_20 
ROOT
ATOM      1  C   LIG d   1      -6.715  79.484 118.121  0.00  0.00     0.161 C 
ATOM      2  C   LIG d   1      -6.022  80.443 118.878  0.00  0.00     0.016 C 
ATOM      3  C   LIG d   1      -4.622  80.414 119.076  0.00  0.00     0.038 C 
ATOM      4  C   LIG d   1      -3.796  79.503 118.401  0.00  0.00     0.028 C 
ATOM      5  C   LIG d   1      -4.505  78.205 118.027  0.00  0.00    -0.047 C 
ATOM      6  C   LIG d   1      -5.818  78.547 117.286  0.00  0.00     0.091 C 
ENDROOT
BRANCH   1   7
ATOM      7  O   LIG d   1      -7.683  80.137 117.274  0.00  0.00    -0.368 OA
BRANCH   7   8
ATOM      8  C   LIG d   1      -9.074  79.836 117.548  0.00  0.00     0.119 C 
BRANCH   8   9
ATOM      9  C   LIG d   1      -9.794  81.174 117.805  0.00  0.00     0.028 C 
ATOM     10  C   LIG d   1      -9.685  82.138 116.612  0.00  0.00     0.006 C 
ENDBRANCH   8   9
BRANCH   8  11
ATOM     11  C   LIG d   1      -9.227  79.037 118.845  0.00  0.00     0.028 C 
ATOM     12  C   LIG d   1      -9.852  77.651 118.621  0.00  0.00     0.006 C 
ENDBRANCH   8  11
ENDBRANCH   7   8
ENDBRANCH   1   7
BRANCH   6  13
ATOM     13  N   LIG d   1      -6.615  77.336 116.957  0.00  0.00    -0.311 N 
ATOM     14  C   LIG d   1      -6.443  76.624 115.845  0.00  0.00     0.210 C 
ATOM     15  C   LIG d   1      -7.383  75.425 115.693  0.00  0.00     0.109 C 
ATOM     16  O   LIG d   1      -5.578  76.854 114.985  0.00  0.00    -0.276 OA
ATOM     17  H   LIG d   1      -7.318  77.060 117.615  0.00  0.00     0.149 HD
ENDBRANCH   6  13
BRANCH   5  18
ATOM     18  N   LIG d   1      -3.571  77.407 117.210  0.00  0.00     0.381 N 
ATOM     19  H   LIG d   1      -2.671  77.388 117.647  0.00  0.00    -0.090 HD
ATOM     20  H   LIG d   1      -3.476  77.840 116.309  0.00  0.00    -0.090 HD
ATOM     21  H   LIG d   1      -3.917  76.479 117.106  0.00  0.00    -0.090 HD
ENDBRANCH   5  18
BRANCH   3  22
ATOM     22  C   LIG d   1      -4.040  81.279 119.990  0.00  0.00     0.382 C 
ATOM     23  O   LIG d   1      -4.619  81.529 121.074  0.00  0.00    -0.241 OA
ATOM     24  O   LIG d   1      -2.963  81.847 119.725  0.00  0.00    -0.241 OA
ENDBRANCH   3  22
TORSDOF 7
ENDMDL
MODEL 3
REMARK VINA RESULT:      -5.1      2.274      4.747
REMARK  7 active torsions:
REMARK  status: ('A' for Active; 'I' for Inactive)
REMARK    1  A    between atoms: C_2  and  C_3 
REMARK    2  A    between atoms: C_3  and  O_6 
REMARK    3  A    between atoms: C_3  and  C_4 
REMARK    4  A    between atoms: C_7  and  O_6 
REMARK    5  A    between atoms: C_9  and  C_10 
REMARK    6  A    between atoms: N_15  and  C_14 
REMARK    7  A    between atoms: N_20  and  C_19 
REMARK       I    between atoms: C_22  and  N_20 
ROOT
ATOM      1  C   LIG d   1      -6.096  79.502 117.619  0.00  0.00     0.161 C 
ATOM      2  C   LIG d   1      -5.083  78.814 118.309  0.00  0.00     0.016 C 
ATOM      3  C   LIG d   1      -4.970  78.804 119.718  0.00  0.00     0.038 C 
ATOM      4  C   LIG d   1      -5.957  79.361 120.545  0.00  0.00     0.028 C 
ATOM      5  C   LIG d   1      -6.729  80.499 119.885  0.00  0.00    -0.047 C 
ATOM      6  C   LIG d   1      -7.245  80.023 118.508  0.00  0.00     0.091 C 
ENDROOT
BRANCH   1   7
ATOM      7  O   LIG d   1      -6.617  78.673 116.562  0.00  0.00    -0.368 OA
BRANCH   7   8
ATOM      8  C   LIG d   1      -6.772  77.266 116.872  0.00  0.00     0.119 C 
BRANCH   8   9
ATOM      9  C   LIG d   1      -6.079  76.466 115.752  0.00  0.00     0.028 C 
ATOM     10  C   LIG d   1      -6.823  75.162 115.416  0.00  0.00     0.006 C 
ENDBRANCH   8   9
BRANCH   8  11
ATOM     11  C   LIG d   1      -8.243  76.843 116.822  0.00  0.00     0.028 C 
ATOM     12  C   LIG d   1      -8.902  76.815 118.210  0.00  0.00     0.006 C 
ENDBRANCH   8  11
ENDBRANCH   7   8
ENDBRANCH   1   7
BRANCH   6  13
ATOM     13  N   LIG d   1      -7.939  81.102 117.759  0.00  0.00    -0.311 N 
ATOM     14  C   LIG d   1      -9.208  81.020 117.363  0.00  0.00     0.210 C 
ATOM     15  C   LIG d   1      -9.723  82.236 116.587  0.00  0.00     0.109 C 
ATOM     16  O   LIG d   1      -9.966  80.070 117.610  0.00  0.00    -0.276 OA
ATOM     17  H   LIG d   1      -7.407  81.923 117.544  0.00  0.00     0.149 HD
ENDBRANCH   6  13
BRANCH   5  18
ATOM     18  N   LIG d   1      -7.813  80.893 120.804  0.00  0.00     0.381 N 
ATOM     19  H   LIG d   1      -7.813  80.294 121.605  0.00  0.00    -0.090 HD
ATOM     20  H   LIG d   1      -8.694  80.788 120.332  0.00  0.00    -0.090 HD
ATOM     21  H   LIG d   1      -7.692  81.840 121.089  0.00  0.00    -0.090 HD
ENDBRANCH   5  18
BRANCH   3  22
ATOM     22  C   LIG d   1      -3.839  78.266 120.313  0.00  0.00     0.382 C 
ATOM     23  O   LIG d   1      -2.925  77.784 119.601  0.00  0.00    -0.241 OA
ATOM     24  O   LIG d   1      -3.740  78.217 121.554  0.00  0.00    -0.241 OA
ENDBRANCH   3  22
TORSDOF 7
ENDMDL
MODEL 4
REMARK VINA RESULT:      -5.1      2.264      5.309
REMARK  7 active torsions:
REMARK  status: ('A' for Active; 'I' for Inactive)
REMARK    1  A    between atoms: C_2  and  C_3 
REMARK    2  A    between atoms: C_3  and  O_6 
REMARK    3  A    between atoms: C_3  and  C_4 
REMARK    4  A    between atoms: C_7  and  O_6 
REMARK    5  A    between atoms: C_9  and  C_10 
REMARK    6  A    between atoms: N_15  and  C_14 
REMARK    7  A    between atoms: N_20  and  C_19 
REMARK       I    between atoms: C_22  and  N_20 
ROOT
ATOM      1  C   LIG d   1      -3.799  77.857 116.501  0.00  0.00     0.161 C 
ATOM      2  C   LIG d   1      -3.117  76.725 116.023  0.00  0.00     0.016 C 
ATOM      3  C   LIG d   1      -2.351  75.872 116.850  0.00  0.00     0.038 C 
ATOM      4  C   LIG d   1      -2.338  76.008 118.246  0.00  0.00     0.028 C 
ATOM      5  C   LIG d   1      -2.602  77.433 118.719  0.00  0.00    -0.047 C 
ATOM      6  C   LIG d   1      -3.888  77.957 118.038  0.00  0.00     0.091 C 
ENDROOT
BRANCH   1   7
ATOM      7  O   LIG d   1      -5.116  77.915 115.918  0.00  0.00    -0.368 OA
BRANCH   7   8
ATOM      8  C   LIG d   1      -6.088  76.979 116.444  0.00  0.00     0.119 C 
BRANCH   8   9
ATOM      9  C   LIG d   1      -6.640  76.168 115.256  0.00  0.00     0.028 C 
ATOM     10  C   LIG d   1      -6.132  74.716 115.250  0.00  0.00     0.006 C 
ENDBRANCH   8   9
BRANCH   8  11
ATOM     11  C   LIG d   1      -7.299  77.706 117.036  0.00  0.00     0.028 C 
ATOM     12  C   LIG d   1      -8.510  76.780 117.238  0.00  0.00     0.006 C 
ENDBRANCH   8  11
ENDBRANCH   7   8
ENDBRANCH   1   7
BRANCH   6  13
ATOM     13  N   LIG d   1      -4.173  79.375 118.380  0.00  0.00    -0.311 N 
ATOM     14  C   LIG d   1      -5.002  79.742 119.356  0.00  0.00     0.210 C 
ATOM     15  C   LIG d   1      -5.169  81.254 119.529  0.00  0.00     0.109 C 
ATOM     16  O   LIG d   1      -5.589  78.957 120.116  0.00  0.00    -0.276 OA
ATOM     17  H   LIG d   1      -3.714  80.077 117.834  0.00  0.00     0.149 HD
ENDBRANCH   6  13
BRANCH   5  18
ATOM     18  N   LIG d   1      -2.698  77.405 120.190  0.00  0.00     0.381 N 
ATOM     19  H   LIG d   1      -3.608  77.705 120.477  0.00  0.00    -0.090 HD
ATOM     20  H   LIG d   1      -2.021  78.042 120.572  0.00  0.00    -0.090 HD
ATOM     21  H   LIG d   1      -2.523  76.483 120.526  0.00  0.00    -0.090 HD
ENDBRANCH   5  18
BRANCH   3  22
ATOM     22  C   LIG d   1      -1.554  74.893 116.276  0.00  0.00     0.382 C 
ATOM     23  O   LIG d   1      -0.712  74.281 116.976  0.00  0.00    -0.241 OA
ATOM     24  O   LIG d   1      -1.637  74.645 115.058  0.00  0.00    -0.241 OA
ENDBRANCH   3  22
TORSDOF 7
ENDMDL
MODEL 5
REMARK VINA RESULT:      -5.0     11.711     13.817
REMARK  7 active torsions:
REMARK  status: ('A' for Active; 'I' for Inactive)
REMARK    1  A    between atoms: C_2  and  C_3 
REMARK    2  A    between atoms: C_3  and  O_6 
REMARK    3  A    between atoms: C_3  and  C_4 
REMARK    4  A    between atoms: C_7  and  O_6 
REMARK    5  A    between atoms: C_9  and  C_10 
REMARK    6  A    between atoms: N_15  and  C_14 
REMARK    7  A    between atoms: N_20  and  C_19 
REMARK       I    between atoms: C_22  and  N_20 
ROOT
ATOM      1  C   LIG d   1      -2.368  90.914 117.768  0.00  0.00     0.161 C 
ATOM      2  C   LIG d   1      -3.237  90.139 116.982  0.00  0.00     0.016 C 
ATOM      3  C   LIG d   1      -4.513  90.582 116.564  0.00  0.00     0.038 C 
ATOM      4  C   LIG d   1      -4.947  91.899 116.778  0.00  0.00     0.028 C 
ATOM      5  C   LIG d   1      -4.315  92.554 118.001  0.00  0.00    -0.047 C 
ATOM      6  C   LIG d   1      -2.779  92.394 117.918  0.00  0.00     0.091 C 
ENDROOT
BRANCH   1   7
ATOM      7  O   LIG d   1      -1.026  90.817 117.254  0.00  0.00    -0.368 OA
BRANCH   7   8
ATOM      8  C   LIG d   1      -0.133  89.925 117.967  0.00  0.00     0.119 C 
BRANCH   8   9
ATOM      9  C   LIG d   1       1.040  90.771 118.498  0.00  0.00     0.028 C 
ATOM     10  C   LIG d   1       1.449  91.886 117.521  0.00  0.00     0.006 C 
ENDBRANCH   8   9
BRANCH   8  11
ATOM     11  C   LIG d   1       0.501  88.900 117.023  0.00  0.00     0.028 C 
ATOM     12  C   LIG d   1      -0.366  87.644 116.837  0.00  0.00     0.006 C 
ENDBRANCH   8  11
ENDBRANCH   7   8
ENDBRANCH   1   7
BRANCH   6  13
ATOM     13  N   LIG d   1      -2.088  92.934 119.118  0.00  0.00    -0.311 N 
ATOM     14  C   LIG d   1      -1.214  93.938 119.071  0.00  0.00     0.210 C 
ATOM     15  C   LIG d   1      -0.601  94.326 120.420  0.00  0.00     0.109 C 
ATOM     16  O   LIG d   1      -0.913  94.566 118.044  0.00  0.00    -0.276 OA
ATOM     17  H   LIG d   1      -2.297  92.503 119.997  0.00  0.00     0.149 HD
ENDBRANCH   6  13
BRANCH   5  18
ATOM     18  N   LIG d   1      -4.749  93.963 118.026  0.00  0.00     0.381 N 
ATOM     19  H   LIG d   1      -4.309  94.467 117.282  0.00  0.00    -0.090 HD
ATOM     20  H   LIG d   1      -4.464  94.376 118.897  0.00  0.00    -0.090 HD
ATOM     21  H   LIG d   1      -5.739  94.017 117.933  0.00  0.00    -0.090 HD
ENDBRANCH   5  18
BRANCH   3  22
ATOM     22  C   LIG d   1      -5.385  89.691 115.957  0.00  0.00     0.382 C 
ATOM     23  O   LIG d   1      -5.138  89.258 114.806  0.00  0.00    -0.241 OA
ATOM     24  O   LIG d   1      -6.437  89.349 116.529  0.00  0.00    -0.241 OA
ENDBRANCH   3  22
TORSDOF 7
ENDMDL
MODEL 6
REMARK VINA RESULT:      -4.9     11.491     14.126
REMARK  7 active torsions:
REMARK  status: ('A' for Active; 'I' for Inactive)
REMARK    1  A    between atoms: C_2  and  C_3 
REMARK    2  A    between atoms: C_3  and  O_6 
REMARK    3  A    between atoms: C_3  and  C_4 
REMARK    4  A    between atoms: C_7  and  O_6 
REMARK    5  A    between atoms: C_9  and  C_10 
REMARK    6  A    between atoms: N_15  and  C_14 
REMARK    7  A    between atoms: N_20  and  C_19 
REMARK       I    between atoms: C_22  and  N_20 
ROOT
ATOM      1  C   LIG d   1      -3.980  92.374 117.324  0.00  0.00     0.161 C 
ATOM      2  C   LIG d   1      -5.183  91.793 116.888  0.00  0.00     0.016 C 
ATOM      3  C   LIG d   1      -5.300  90.435 116.513  0.00  0.00     0.038 C 
ATOM      4  C   LIG d   1      -4.249  89.523 116.693  0.00  0.00     0.028 C 
ATOM      5  C   LIG d   1      -2.870  90.172 116.655  0.00  0.00    -0.047 C 
ATOM      6  C   LIG d   1      -2.851  91.369 117.633  0.00  0.00     0.091 C 
ENDROOT
BRANCH   1   7
ATOM      7  O   LIG d   1      -4.230  93.214 118.468  0.00  0.00    -0.368 OA
BRANCH   7   8
ATOM      8  C   LIG d   1      -5.622  93.483 118.770  0.00  0.00     0.119 C 
BRANCH   8   9
ATOM      9  C   LIG d   1      -5.783  95.011 118.888  0.00  0.00     0.028 C 
ATOM     10  C   LIG d   1      -7.218  95.475 118.588  0.00  0.00     0.006 C 
ENDBRANCH   8   9
BRANCH   8  11
ATOM     11  C   LIG d   1      -6.012  92.927 120.142  0.00  0.00     0.028 C 
ATOM     12  C   LIG d   1      -4.999  91.905 120.681  0.00  0.00     0.006 C 
ENDBRANCH   8  11
ENDBRANCH   7   8
ENDBRANCH   1   7
BRANCH   6  13
ATOM     13  N   LIG d   1      -1.565  92.112 117.595  0.00  0.00    -0.311 N 
ATOM     14  C   LIG d   1      -0.556  91.873 118.431  0.00  0.00     0.210 C 
ATOM     15  C   LIG d   1       0.673  92.767 118.233  0.00  0.00     0.109 C 
ATOM     16  O   LIG d   1      -0.549  90.985 119.296  0.00  0.00    -0.276 OA
ATOM     17  H   LIG d   1      -1.473  92.830 116.903  0.00  0.00     0.149 HD
ENDBRANCH   6  13
BRANCH   5  18
ATOM     18  N   LIG d   1      -1.879  89.133 116.993  0.00  0.00     0.381 N 
ATOM     19  H   LIG d   1      -1.721  89.125 117.981  0.00  0.00    -0.090 HD
ATOM     20  H   LIG d   1      -1.011  89.351 116.536  0.00  0.00    -0.090 HD
ATOM     21  H   LIG d   1      -2.205  88.241 116.694  0.00  0.00    -0.090 HD
ENDBRANCH   5  18
BRANCH   3  22
ATOM     22  C   LIG d   1      -6.466  89.986 115.912  0.00  0.00     0.382 C 
ATOM     23  O   LIG d   1      -6.825  90.459 114.807  0.00  0.00    -0.241 OA
ATOM     24  O   LIG d   1      -7.187  89.146 116.483  0.00  0.00    -0.241 OA
ENDBRANCH   3  22
TORSDOF 7
ENDMDL
MODEL 7
REMARK VINA RESULT:      -4.9      2.081      5.166
REMARK  7 active torsions:
REMARK  status: ('A' for Active; 'I' for Inactive)
REMARK    1  A    between atoms: C_2  and  C_3 
REMARK    2  A    between atoms: C_3  and  O_6 
REMARK    3  A    between atoms: C_3  and  C_4 
REMARK    4  A    between atoms: C_7  and  O_6 
REMARK    5  A    between atoms: C_9  and  C_10 
REMARK    6  A    between atoms: N_15  and  C_14 
REMARK    7  A    between atoms: N_20  and  C_19 
REMARK       I    between atoms: C_22  and  N_20 
ROOT
ATOM      1  C   LIG d   1      -4.859  78.289 117.381  0.00  0.00     0.161 C 
ATOM      2  C   LIG d   1      -4.704  77.137 116.591  0.00  0.00     0.016 C 
ATOM      3  C   LIG d   1      -3.493  76.412 116.501  0.00  0.00     0.038 C 
ATOM      4  C   LIG d   1      -2.391  76.706 117.318  0.00  0.00     0.028 C 
ATOM      5  C   LIG d   1      -2.335  78.165 117.758  0.00  0.00    -0.047 C 
ATOM      6  C   LIG d   1      -3.701  78.560 118.364  0.00  0.00     0.091 C 
ENDROOT
BRANCH   1   7
ATOM      7  O   LIG d   1      -6.114  78.231 118.088  0.00  0.00    -0.368 OA
BRANCH   7   8
ATOM      8  C   LIG d   1      -7.293  78.577 117.321  0.00  0.00     0.119 C 
BRANCH   8   9
ATOM      9  C   LIG d   1      -7.848  79.895 117.895  0.00  0.00     0.028 C 
ATOM     10  C   LIG d   1      -7.012  81.115 117.476  0.00  0.00     0.006 C 
ENDBRANCH   8   9
BRANCH   8  11
ATOM     11  C   LIG d   1      -8.409  77.546 117.521  0.00  0.00     0.028 C 
ATOM     12  C   LIG d   1      -8.214  76.284 116.665  0.00  0.00     0.006 C 
ENDBRANCH   8  11
ENDBRANCH   7   8
ENDBRANCH   1   7
BRANCH   6  13
ATOM     13  N   LIG d   1      -3.760  79.995 118.743  0.00  0.00    -0.311 N 
ATOM     14  C   LIG d   1      -4.125  80.420 119.951  0.00  0.00     0.210 C 
ATOM     15  C   LIG d   1      -4.136  81.942 120.126  0.00  0.00     0.109 C 
ATOM     16  O   LIG d   1      -4.409  79.680 120.905  0.00  0.00    -0.276 OA
ATOM     17  H   LIG d   1      -3.515  80.664 118.039  0.00  0.00     0.149 HD
ENDBRANCH   6  13
BRANCH   5  18
ATOM     18  N   LIG d   1      -1.218  78.300 118.712  0.00  0.00     0.381 N 
ATOM     19  H   LIG d   1      -0.444  78.751 118.267  0.00  0.00    -0.090 HD
ATOM     20  H   LIG d   1      -0.925  77.384 119.002  0.00  0.00    -0.090 HD
ATOM     21  H   LIG d   1      -1.509  78.830 119.505  0.00  0.00    -0.090 HD
ENDBRANCH   5  18
BRANCH   3  22
ATOM     22  C   LIG d   1      -3.363  75.405 115.557  0.00  0.00     0.382 C 
ATOM     23  O   LIG d   1      -2.268  74.806 115.426  0.00  0.00    -0.241 OA
ATOM     24  O   LIG d   1      -4.313  75.118 114.805  0.00  0.00    -0.241 OA
ENDBRANCH   3  22
TORSDOF 7
ENDMDL
MODEL 8
REMARK VINA RESULT:      -4.7      3.142      5.852
REMARK  7 active torsions:
REMARK  status: ('A' for Active; 'I' for Inactive)
REMARK    1  A    between atoms: C_2  and  C_3 
REMARK    2  A    between atoms: C_3  and  O_6 
REMARK    3  A    between atoms: C_3  and  C_4 
REMARK    4  A    between atoms: C_7  and  O_6 
REMARK    5  A    between atoms: C_9  and  C_10 
REMARK    6  A    between atoms: N_15  and  C_14 
REMARK    7  A    between atoms: N_20  and  C_19 
REMARK       I    between atoms: C_22  and  N_20 
ROOT
ATOM      1  C   LIG d   1      -2.143  77.953 116.444  0.00  0.00     0.161 C 
ATOM      2  C   LIG d   1      -3.450  77.583 116.088  0.00  0.00     0.016 C 
ATOM      3  C   LIG d   1      -3.816  76.265 115.732  0.00  0.00     0.038 C 
ATOM      4  C   LIG d   1      -2.924  75.189 115.856  0.00  0.00     0.028 C 
ATOM      5  C   LIG d   1      -1.461  75.598 115.727  0.00  0.00    -0.047 C 
ATOM      6  C   LIG d   1      -1.181  76.773 116.691  0.00  0.00     0.091 C 
ENDROOT
BRANCH   1   7
ATOM      7  O   LIG d   1      -2.177  78.822 117.594  0.00  0.00    -0.368 OA
BRANCH   7   8
ATOM      8  C   LIG d   1      -2.974  78.365 118.714  0.00  0.00     0.119 C 
BRANCH   8   9
ATOM      9  C   LIG d   1      -3.723  79.587 119.278  0.00  0.00     0.028 C 
ATOM     10  C   LIG d   1      -5.102  79.783 118.625  0.00  0.00     0.006 C 
ENDBRANCH   8   9
BRANCH   8  11
ATOM     11  C   LIG d   1      -2.089  77.867 119.861  0.00  0.00     0.028 C 
ATOM     12  C   LIG d   1      -2.421  76.428 120.287  0.00  0.00     0.006 C 
ENDBRANCH   8  11
ENDBRANCH   7   8
ENDBRANCH   1   7
BRANCH   6  13
ATOM     13  N   LIG d   1       0.207  77.289 116.568  0.00  0.00    -0.311 N 
ATOM     14  C   LIG d   1       1.194  76.945 117.393  0.00  0.00     0.210 C 
ATOM     15  C   LIG d   1       2.543  77.608 117.101  0.00  0.00     0.109 C 
ATOM     16  O   LIG d   1       1.088  76.128 118.321  0.00  0.00    -0.276 OA
ATOM     17  H   LIG d   1       0.389  77.934 115.823  0.00  0.00     0.149 HD
ENDBRANCH   6  13
BRANCH   5  18
ATOM     18  N   LIG d   1      -0.638  74.407 116.012  0.00  0.00     0.381 N 
ATOM     19  H   LIG d   1      -0.282  74.028 115.157  0.00  0.00    -0.090 HD
ATOM     20  H   LIG d   1      -1.216  73.710 116.450  0.00  0.00    -0.090 HD
ATOM     21  H   LIG d   1       0.116  74.650 116.616  0.00  0.00    -0.090 HD
ENDBRANCH   5  18
BRANCH   3  22
ATOM     22  C   LIG d   1      -5.076  76.018 115.209  0.00  0.00     0.382 C 
ATOM     23  O   LIG d   1      -5.933  76.934 115.181  0.00  0.00    -0.241 OA
ATOM     24  O   LIG d   1      -5.381  74.880 114.805  0.00  0.00    -0.241 OA
ENDBRANCH   3  22
TORSDOF 7
ENDMDL
MODEL 9
REMARK VINA RESULT:      -4.4      2.586      5.851
REMARK  7 active torsions:
REMARK  status: ('A' for Active; 'I' for Inactive)
REMARK    1  A    between atoms: C_2  and  C_3 
REMARK    2  A    between atoms: C_3  and  O_6 
REMARK    3  A    between atoms: C_3  and  C_4 
REMARK    4  A    between atoms: C_7  and  O_6 
REMARK    5  A    between atoms: C_9  and  C_10 
REMARK    6  A    between atoms: N_15  and  C_14 
REMARK    7  A    between atoms: N_20  and  C_19 
REMARK       I    between atoms: C_22  and  N_20 
ROOT
ATOM      1  C   LIG d   1      -6.635  80.846 119.284  0.00  0.00     0.161 C 
ATOM      2  C   LIG d   1      -5.682  81.699 119.865  0.00  0.00     0.016 C 
ATOM      3  C   LIG d   1      -4.297  81.413 119.896  0.00  0.00     0.038 C 
ATOM      4  C   LIG d   1      -3.751  80.318 119.210  0.00  0.00     0.028 C 
ATOM      5  C   LIG d   1      -4.730  79.161 119.038  0.00  0.00    -0.047 C 
ATOM      6  C   LIG d   1      -6.045  79.702 118.433  0.00  0.00     0.091 C 
ENDROOT
BRANCH   1   7
ATOM      7  O   LIG d   1      -7.571  81.618 118.505  0.00  0.00    -0.368 OA
BRANCH   7   8
ATOM      8  C   LIG d   1      -8.927  81.673 119.012  0.00  0.00     0.119 C 
BRANCH   8   9
ATOM      9  C   LIG d   1      -9.850  81.084 117.927  0.00  0.00     0.028 C 
ATOM     10  C   LIG d   1      -9.927  81.973 116.675  0.00  0.00     0.006 C 
ENDBRANCH   8   9
BRANCH   8  11
ATOM     11  C   LIG d   1      -9.394  83.119 119.199  0.00  0.00     0.028 C 
ATOM     12  C   LIG d   1      -9.626  83.484 120.674  0.00  0.00     0.006 C 
ENDBRANCH   8  11
ENDBRANCH   7   8
ENDBRANCH   1   7
BRANCH   6  13
ATOM     13  N   LIG d   1      -7.087  78.649 118.310  0.00  0.00    -0.311 N 
ATOM     14  C   LIG d   1      -7.233  77.884 117.230  0.00  0.00     0.210 C 
ATOM     15  C   LIG d   1      -8.383  76.874 117.303  0.00  0.00     0.109 C 
ATOM     16  O   LIG d   1      -6.499  77.923 116.231  0.00  0.00    -0.276 OA
ATOM     17  H   LIG d   1      -7.707  78.528 119.087  0.00  0.00     0.149 HD
ENDBRANCH   6  13
BRANCH   5  18
ATOM     18  N   LIG d   1      -4.076  78.147 118.190  0.00  0.00     0.381 N 
ATOM     19  H   LIG d   1      -3.145  77.982 118.515  0.00  0.00    -0.090 HD
ATOM     20  H   LIG d   1      -4.025  78.495 117.248  0.00  0.00    -0.090 HD
ATOM     21  H   LIG d   1      -4.598  77.298 118.210  0.00  0.00    -0.090 HD
ENDBRANCH   5  18
BRANCH   3  22
ATOM     22  C   LIG d   1      -3.449  82.205 120.653  0.00  0.00     0.382 C 
ATOM     23  O   LIG d   1      -3.917  82.943 121.554  0.00  0.00    -0.241 OA
ATOM     24  O   LIG d   1      -2.226  82.225 120.418  0.00  0.00    -0.241 OA
ENDBRANCH   3  22
TORSDOF 7
ENDMDL
