MODEL 1
REMARK VINA RESULT:      -5.4      0.000      0.000
REMARK  7 active torsions:
REMARK  status: ('A' for Active; 'I' for Inactive)
REMARK    1  A    between atoms: C_2  and  C_3 
REMARK    2  A    between atoms: C_3  and  O_6 
REMARK    3  A    between atoms: C_3  and  C_4 
REMARK    4  A    between atoms: C_7  and  O_6 
REMARK    5  A    between atoms: C_9  and  C_10 
REMARK    6  A    between atoms: N_15  and  C_14 
REMARK    7  A    between atoms: N_20  and  C_19 
REMARK       I    between atoms: C_22  and  N_20 
ROOT
ATOM      1  C   LIG d   1      -6.191  92.666 119.242  0.00  0.00     0.161 C 
ATOM      2  C   LIG d   1      -6.240  91.681 118.243  0.00  0.00     0.016 C 
ATOM      3  C   LIG d   1      -6.727  91.920 116.937  0.00  0.00     0.038 C 
ATOM      4  C   LIG d   1      -7.058  93.209 116.494  0.00  0.00     0.028 C 
ATOM      5  C   LIG d   1      -7.502  94.140 117.618  0.00  0.00    -0.047 C 
ATOM      6  C   LIG d   1      -6.445  94.105 118.745  0.00  0.00     0.091 C 
ENDROOT
BRANCH   1   7
ATOM      7  O   LIG d   1      -4.932  92.592 119.940  0.00  0.00    -0.368 OA
BRANCH   7   8
ATOM      8  C   LIG d   1      -3.885  91.834 119.286  0.00  0.00     0.119 C 
BRANCH   8   9
ATOM      9  C   LIG d   1      -3.365  90.794 120.298  0.00  0.00     0.028 C 
ATOM     10  C   LIG d   1      -3.446  89.357 119.756  0.00  0.00     0.006 C 
ENDBRANCH   8   9
BRANCH   8  11
ATOM     11  C   LIG d   1      -2.678  92.719 118.958  0.00  0.00     0.028 C 
ATOM     12  C   LIG d   1      -2.805  93.418 117.596  0.00  0.00     0.006 C 
ENDBRANCH   8  11
ENDBRANCH   7   8
ENDBRANCH   1   7
BRANCH   6  13
ATOM     13  N   LIG d   1      -6.842  94.924 119.920  0.00  0.00    -0.311 N 
ATOM     14  C   LIG d   1      -6.471  96.192 120.089  0.00  0.00     0.210 C 
ATOM     15  C   LIG d   1      -6.973  96.846 121.380  0.00  0.00     0.109 C 
ATOM     16  O   LIG d   1      -5.800  96.847 119.277  0.00  0.00    -0.276 OA
ATOM     17  H   LIG d   1      -7.412  94.480 120.613  0.00  0.00     0.149 HD
ENDBRANCH   6  13
BRANCH   5  18
ATOM     18  N   LIG d   1      -7.683  95.484 117.037  0.00  0.00     0.381 N 
ATOM     19  H   LIG d   1      -7.945  96.130 117.755  0.00  0.00    -0.090 HD
ATOM     20  H   LIG d   1      -8.424  95.448 116.360  0.00  0.00    -0.090 HD
ATOM     21  H   LIG d   1      -6.839  95.785 116.602  0.00  0.00    -0.090 HD
ENDBRANCH   5  18
BRANCH   3  22
ATOM     22  C   LIG d   1      -6.923  90.855 116.071  0.00  0.00     0.382 C 
ATOM     23  O   LIG d   1      -7.965  90.162 116.156  0.00  0.00    -0.241 OA
ATOM     24  O   LIG d   1      -6.051  90.553 115.234  0.00  0.00    -0.241 OA
ENDBRANCH   3  22
TORSDOF 7
ENDMDL
MODEL 2
REMARK VINA RESULT:      -5.1      2.180      5.032
REMARK  7 active torsions:
REMARK  status: ('A' for Active; 'I' for Inactive)
REMARK    1  A    between atoms: C_2  and  C_3 
REMARK    2  A    between atoms: C_3  and  O_6 
REMARK    3  A    between atoms: C_3  and  C_4 
REMARK    4  A    between atoms: C_7  and  O_6 
REMARK    5  A    between atoms: C_9  and  C_10 
REMARK    6  A    between atoms: N_15  and  C_14 
REMARK    7  A    between atoms: N_20  and  C_19 
REMARK       I    between atoms: C_22  and  N_20 
ROOT
ATOM      1  C   LIG d   1      -4.128  93.119 117.530  0.00  0.00     0.161 C 
ATOM      2  C   LIG d   1      -3.483  93.722 118.622  0.00  0.00     0.016 C 
ATOM      3  C   LIG d   1      -4.158  94.137 119.793  0.00  0.00     0.038 C 
ATOM      4  C   LIG d   1      -5.510  93.836 120.015  0.00  0.00     0.028 C 
ATOM      5  C   LIG d   1      -6.314  93.678 118.729  0.00  0.00    -0.047 C 
ATOM      6  C   LIG d   1      -5.583  92.682 117.799  0.00  0.00     0.091 C 
ENDROOT
BRANCH   1   7
ATOM      7  O   LIG d   1      -3.349  92.002 117.058  0.00  0.00    -0.368 OA
BRANCH   7   8
ATOM      8  C   LIG d   1      -2.675  91.220 118.076  0.00  0.00     0.119 C 
BRANCH   8   9
ATOM      9  C   LIG d   1      -1.227  90.992 117.600  0.00  0.00     0.028 C 
ATOM     10  C   LIG d   1      -0.212  91.067 118.753  0.00  0.00     0.006 C 
ENDBRANCH   8   9
BRANCH   8  11
ATOM     11  C   LIG d   1      -3.287  89.821 118.200  0.00  0.00     0.028 C 
ATOM     12  C   LIG d   1      -3.474  89.380 119.660  0.00  0.00     0.006 C 
ENDBRANCH   8  11
ENDBRANCH   7   8
ENDBRANCH   1   7
BRANCH   6  13
ATOM     13  N   LIG d   1      -6.259  92.534 116.484  0.00  0.00    -0.311 N 
ATOM     14  C   LIG d   1      -7.178  91.603 116.233  0.00  0.00     0.210 C 
ATOM     15  C   LIG d   1      -7.734  91.612 114.805  0.00  0.00     0.109 C 
ATOM     16  O   LIG d   1      -7.609  90.792 117.066  0.00  0.00    -0.276 OA
ATOM     17  H   LIG d   1      -5.992  93.171 115.759  0.00  0.00     0.149 HD
ENDBRANCH   6  13
BRANCH   5  18
ATOM     18  N   LIG d   1      -7.670  93.232 119.102  0.00  0.00     0.381 N 
ATOM     19  H   LIG d   1      -8.087  92.739 118.338  0.00  0.00    -0.090 HD
ATOM     20  H   LIG d   1      -8.234  94.039 119.303  0.00  0.00    -0.090 HD
ATOM     21  H   LIG d   1      -7.625  92.641 119.903  0.00  0.00    -0.090 HD
ENDBRANCH   5  18
BRANCH   3  22
ATOM     22  C   LIG d   1      -3.488  94.896 120.741  0.00  0.00     0.382 C 
ATOM     23  O   LIG d   1      -2.272  94.686 120.966  0.00  0.00    -0.241 OA
ATOM     24  O   LIG d   1      -4.095  95.757 121.404  0.00  0.00    -0.241 OA
ENDBRANCH   3  22
TORSDOF 7
ENDMDL
MODEL 3
REMARK VINA RESULT:      -4.9      1.913      4.682
REMARK  7 active torsions:
REMARK  status: ('A' for Active; 'I' for Inactive)
REMARK    1  A    between atoms: C_2  and  C_3 
REMARK    2  A    between atoms: C_3  and  O_6 
REMARK    3  A    between atoms: C_3  and  C_4 
REMARK    4  A    between atoms: C_7  and  O_6 
REMARK    5  A    between atoms: C_9  and  C_10 
REMARK    6  A    between atoms: N_15  and  C_14 
REMARK    7  A    between atoms: N_20  and  C_19 
REMARK       I    between atoms: C_22  and  N_20 
ROOT
ATOM      1  C   LIG d   1      -5.094  92.105 118.055  0.00  0.00     0.161 C 
ATOM      2  C   LIG d   1      -4.299  93.107 118.637  0.00  0.00     0.016 C 
ATOM      3  C   LIG d   1      -4.784  94.395 118.961  0.00  0.00     0.038 C 
ATOM      4  C   LIG d   1      -6.145  94.721 118.864  0.00  0.00     0.028 C 
ATOM      5  C   LIG d   1      -6.889  93.907 117.811  0.00  0.00    -0.047 C 
ATOM      6  C   LIG d   1      -6.607  92.406 118.045  0.00  0.00     0.091 C 
ENDROOT
BRANCH   1   7
ATOM      7  O   LIG d   1      -4.838  90.842 118.701  0.00  0.00    -0.368 OA
BRANCH   7   8
ATOM      8  C   LIG d   1      -3.520  90.679 119.281  0.00  0.00     0.119 C 
BRANCH   8   9
ATOM      9  C   LIG d   1      -2.682  89.840 118.297  0.00  0.00     0.028 C 
ATOM     10  C   LIG d   1      -1.449  90.601 117.780  0.00  0.00     0.006 C 
ENDBRANCH   8   9
BRANCH   8  11
ATOM     11  C   LIG d   1      -3.578  89.853 120.570  0.00  0.00     0.028 C 
ATOM     12  C   LIG d   1      -2.875  88.493 120.438  0.00  0.00     0.006 C 
ENDBRANCH   8  11
ENDBRANCH   7   8
ENDBRANCH   1   7
BRANCH   6  13
ATOM     13  N   LIG d   1      -7.230  91.543 117.006  0.00  0.00    -0.311 N 
ATOM     14  C   LIG d   1      -6.958  91.649 115.707  0.00  0.00     0.210 C 
ATOM     15  C   LIG d   1      -7.725  90.676 114.805  0.00  0.00     0.109 C 
ATOM     16  O   LIG d   1      -6.132  92.434 115.218  0.00  0.00    -0.276 OA
ATOM     17  H   LIG d   1      -7.889  90.858 117.318  0.00  0.00     0.149 HD
ENDBRANCH   6  13
BRANCH   5  18
ATOM     18  N   LIG d   1      -8.320  94.250 117.912  0.00  0.00     0.381 N 
ATOM     19  H   LIG d   1      -8.421  95.205 118.191  0.00  0.00    -0.090 HD
ATOM     20  H   LIG d   1      -8.745  93.669 118.614  0.00  0.00    -0.090 HD
ATOM     21  H   LIG d   1      -8.769  94.104 117.034  0.00  0.00    -0.090 HD
ENDBRANCH   5  18
BRANCH   3  22
ATOM     22  C   LIG d   1      -3.896  95.386 119.351  0.00  0.00     0.382 C 
ATOM     23  O   LIG d   1      -4.231  96.593 119.277  0.00  0.00    -0.241 OA
ATOM     24  O   LIG d   1      -2.748  95.090 119.734  0.00  0.00    -0.241 OA
ENDBRANCH   3  22
TORSDOF 7
ENDMDL
MODEL 4
REMARK VINA RESULT:      -4.7     13.126     15.355
REMARK  7 active torsions:
REMARK  status: ('A' for Active; 'I' for Inactive)
REMARK    1  A    between atoms: C_2  and  C_3 
REMARK    2  A    between atoms: C_3  and  O_6 
REMARK    3  A    between atoms: C_3  and  C_4 
REMARK    4  A    between atoms: C_7  and  O_6 
REMARK    5  A    between atoms: C_9  and  C_10 
REMARK    6  A    between atoms: N_15  and  C_14 
REMARK    7  A    between atoms: N_20  and  C_19 
REMARK       I    between atoms: C_22  and  N_20 
ROOT
ATOM      1  C   LIG d   1      -6.285  77.968 117.378  0.00  0.00     0.161 C 
ATOM      2  C   LIG d   1      -7.650  77.724 117.607  0.00  0.00     0.016 C 
ATOM      3  C   LIG d   1      -8.544  78.703 118.097  0.00  0.00     0.038 C 
ATOM      4  C   LIG d   1      -8.164  80.045 118.249  0.00  0.00     0.028 C 
ATOM      5  C   LIG d   1      -6.672  80.226 118.511  0.00  0.00    -0.047 C 
ATOM      6  C   LIG d   1      -5.877  79.455 117.433  0.00  0.00     0.091 C 
ENDROOT
BRANCH   1   7
ATOM      7  O   LIG d   1      -5.889  77.386 116.120  0.00  0.00    -0.368 OA
BRANCH   7   8
ATOM      8  C   LIG d   1      -5.362  76.038 116.180  0.00  0.00     0.119 C 
BRANCH   8   9
ATOM      9  C   LIG d   1      -3.825  76.142 116.218  0.00  0.00     0.028 C 
ATOM     10  C   LIG d   1      -3.243  76.711 114.913  0.00  0.00     0.006 C 
ENDBRANCH   8   9
BRANCH   8  11
ATOM     11  C   LIG d   1      -5.684  75.257 114.902  0.00  0.00     0.028 C 
ATOM     12  C   LIG d   1      -5.773  73.740 115.137  0.00  0.00     0.006 C 
ENDBRANCH   8  11
ENDBRANCH   7   8
ENDBRANCH   1   7
BRANCH   6  13
ATOM     13  N   LIG d   1      -4.410  79.510 117.663  0.00  0.00    -0.311 N 
ATOM     14  C   LIG d   1      -3.529  79.817 116.712  0.00  0.00     0.210 C 
ATOM     15  C   LIG d   1      -2.063  79.797 117.158  0.00  0.00     0.109 C 
ATOM     16  O   LIG d   1      -3.824  80.135 115.551  0.00  0.00    -0.276 OA
ATOM     17  H   LIG d   1      -4.085  79.297 118.586  0.00  0.00     0.149 HD
ENDBRANCH   6  13
BRANCH   5  18
ATOM     18  N   LIG d   1      -6.393  81.674 118.512  0.00  0.00     0.381 N 
ATOM     19  H   LIG d   1      -7.114  82.158 119.008  0.00  0.00    -0.090 HD
ATOM     20  H   LIG d   1      -6.386  82.004 117.563  0.00  0.00    -0.090 HD
ATOM     21  H   LIG d   1      -5.510  81.850 118.939  0.00  0.00    -0.090 HD
ENDBRANCH   5  18
BRANCH   3  22
ATOM     22  C   LIG d   1      -9.825  78.334 118.478  0.00  0.00     0.382 C 
ATOM     23  O   LIG d   1     -10.292  77.227 118.118  0.00  0.00    -0.241 OA
ATOM     24  O   LIG d   1     -10.536  79.113 119.141  0.00  0.00    -0.241 OA
ENDBRANCH   3  22
TORSDOF 7
ENDMDL
MODEL 5
REMARK VINA RESULT:      -4.6      2.300      4.257
REMARK  7 active torsions:
REMARK  status: ('A' for Active; 'I' for Inactive)
REMARK    1  A    between atoms: C_2  and  C_3 
REMARK    2  A    between atoms: C_3  and  O_6 
REMARK    3  A    between atoms: C_3  and  C_4 
REMARK    4  A    between atoms: C_7  and  O_6 
REMARK    5  A    between atoms: C_9  and  C_10 
REMARK    6  A    between atoms: N_15  and  C_14 
REMARK    7  A    between atoms: N_20  and  C_19 
REMARK       I    between atoms: C_22  and  N_20 
ROOT
ATOM      1  C   LIG d   1      -6.164  93.347 118.284  0.00  0.00     0.161 C 
ATOM      2  C   LIG d   1      -6.884  92.544 117.383  0.00  0.00     0.016 C 
ATOM      3  C   LIG d   1      -6.271  91.635 116.490  0.00  0.00     0.038 C 
ATOM      4  C   LIG d   1      -4.898  91.355 116.543  0.00  0.00     0.028 C 
ATOM      5  C   LIG d   1      -4.065  92.509 117.091  0.00  0.00    -0.047 C 
ATOM      6  C   LIG d   1      -4.674  92.975 118.433  0.00  0.00     0.091 C 
ENDROOT
BRANCH   1   7
ATOM      7  O   LIG d   1      -6.813  93.341 119.571  0.00  0.00    -0.368 OA
BRANCH   7   8
ATOM      8  C   LIG d   1      -7.834  94.349 119.774  0.00  0.00     0.119 C 
BRANCH   8   9
ATOM      9  C   LIG d   1      -7.207  95.716 119.439  0.00  0.00     0.028 C 
ATOM     10  C   LIG d   1      -6.546  96.374 120.662  0.00  0.00     0.006 C 
ENDBRANCH   8   9
BRANCH   8  11
ATOM     11  C   LIG d   1      -8.241  94.440 121.248  0.00  0.00     0.028 C 
ATOM     12  C   LIG d   1      -9.745  94.693 121.436  0.00  0.00     0.006 C 
ENDBRANCH   8  11
ENDBRANCH   7   8
ENDBRANCH   1   7
BRANCH   6  13
ATOM     13  N   LIG d   1      -3.970  94.156 118.996  0.00  0.00    -0.311 N 
ATOM     14  C   LIG d   1      -3.587  94.244 120.269  0.00  0.00     0.210 C 
ATOM     15  C   LIG d   1      -2.894  95.557 120.646  0.00  0.00     0.109 C 
ATOM     16  O   LIG d   1      -3.727  93.347 121.113  0.00  0.00    -0.276 OA
ATOM     17  H   LIG d   1      -3.787  94.918 118.372  0.00  0.00     0.149 HD
ENDBRANCH   6  13
BRANCH   5  18
ATOM     18  N   LIG d   1      -2.675  92.034 117.220  0.00  0.00     0.381 N 
ATOM     19  H   LIG d   1      -2.645  91.040 117.107  0.00  0.00    -0.090 HD
ATOM     20  H   LIG d   1      -2.339  92.257 118.140  0.00  0.00    -0.090 HD
ATOM     21  H   LIG d   1      -2.100  92.471 116.534  0.00  0.00    -0.090 HD
ENDBRANCH   5  18
BRANCH   3  22
ATOM     22  C   LIG d   1      -7.030  91.024 115.504  0.00  0.00     0.382 C 
ATOM     23  O   LIG d   1      -8.106  91.547 115.126  0.00  0.00    -0.241 OA
ATOM     24  O   LIG d   1      -6.675  89.933 115.018  0.00  0.00    -0.241 OA
ENDBRANCH   3  22
TORSDOF 7
ENDMDL
MODEL 6
REMARK VINA RESULT:      -4.4      3.193      5.408
REMARK  7 active torsions:
REMARK  status: ('A' for Active; 'I' for Inactive)
REMARK    1  A    between atoms: C_2  and  C_3 
REMARK    2  A    between atoms: C_3  and  O_6 
REMARK    3  A    between atoms: C_3  and  C_4 
REMARK    4  A    between atoms: C_7  and  O_6 
REMARK    5  A    between atoms: C_9  and  C_10 
REMARK    6  A    between atoms: N_15  and  C_14 
REMARK    7  A    between atoms: N_20  and  C_19 
REMARK       I    between atoms: C_22  and  N_20 
ROOT
ATOM      1  C   LIG d   1      -2.682  93.015 117.956  0.00  0.00     0.161 C 
ATOM      2  C   LIG d   1      -3.886  92.806 117.263  0.00  0.00     0.016 C 
ATOM      3  C   LIG d   1      -4.497  91.538 117.130  0.00  0.00     0.038 C 
ATOM      4  C   LIG d   1      -4.021  90.410 117.814  0.00  0.00     0.028 C 
ATOM      5  C   LIG d   1      -2.527  90.469 118.114  0.00  0.00    -0.047 C 
ATOM      6  C   LIG d   1      -2.206  91.816 118.802  0.00  0.00     0.091 C 
ENDROOT
BRANCH   1   7
ATOM      7  O   LIG d   1      -2.789  94.196 118.775  0.00  0.00    -0.368 OA
BRANCH   7   8
ATOM      8  C   LIG d   1      -4.125  94.556 119.202  0.00  0.00     0.119 C 
BRANCH   8   9
ATOM      9  C   LIG d   1      -4.196  96.095 119.254  0.00  0.00     0.028 C 
ATOM     10  C   LIG d   1      -5.621  96.625 119.020  0.00  0.00     0.006 C 
ENDBRANCH   8   9
BRANCH   8  11
ATOM     11  C   LIG d   1      -4.397  94.090 120.636  0.00  0.00     0.028 C 
ATOM     12  C   LIG d   1      -5.480  93.002 120.714  0.00  0.00     0.006 C 
ENDBRANCH   8  11
ENDBRANCH   7   8
ENDBRANCH   1   7
BRANCH   6  13
ATOM     13  N   LIG d   1      -0.752  91.992 119.055  0.00  0.00    -0.311 N 
ATOM     14  C   LIG d   1      -0.164  91.672 120.206  0.00  0.00     0.210 C 
ATOM     15  C   LIG d   1       1.341  91.953 120.263  0.00  0.00     0.109 C 
ATOM     16  O   LIG d   1      -0.740  91.153 121.174  0.00  0.00    -0.276 OA
ATOM     17  H   LIG d   1      -0.204  92.379 118.311  0.00  0.00     0.149 HD
ENDBRANCH   6  13
BRANCH   5  18
ATOM     18  N   LIG d   1      -2.192  89.300 118.948  0.00  0.00     0.381 N 
ATOM     19  H   LIG d   1      -2.881  88.585 118.821  0.00  0.00    -0.090 HD
ATOM     20  H   LIG d   1      -2.200  89.577 119.914  0.00  0.00    -0.090 HD
ATOM     21  H   LIG d   1      -1.292  88.951 118.702  0.00  0.00    -0.090 HD
ENDBRANCH   5  18
BRANCH   3  22
ATOM     22  C   LIG d   1      -5.575  91.381 116.272  0.00  0.00     0.382 C 
ATOM     23  O   LIG d   1      -5.588  91.972 115.166  0.00  0.00    -0.241 OA
ATOM     24  O   LIG d   1      -6.556  90.691 116.610  0.00  0.00    -0.241 OA
ENDBRANCH   3  22
TORSDOF 7
ENDMDL
MODEL 7
REMARK VINA RESULT:      -4.2     12.476     14.949
REMARK  7 active torsions:
REMARK  status: ('A' for Active; 'I' for Inactive)
REMARK    1  A    between atoms: C_2  and  C_3 
REMARK    2  A    between atoms: C_3  and  O_6 
REMARK    3  A    between atoms: C_3  and  C_4 
REMARK    4  A    between atoms: C_7  and  O_6 
REMARK    5  A    between atoms: C_9  and  C_10 
REMARK    6  A    between atoms: N_15  and  C_14 
REMARK    7  A    between atoms: N_20  and  C_19 
REMARK       I    between atoms: C_22  and  N_20 
ROOT
ATOM      1  C   LIG d   1      -4.692  78.367 116.932  0.00  0.00     0.161 C 
ATOM      2  C   LIG d   1      -4.543  77.124 116.294  0.00  0.00     0.016 C 
ATOM      3  C   LIG d   1      -5.599  76.198 116.139  0.00  0.00     0.038 C 
ATOM      4  C   LIG d   1      -6.922  76.517 116.480  0.00  0.00     0.028 C 
ATOM      5  C   LIG d   1      -7.026  77.561 117.587  0.00  0.00    -0.047 C 
ATOM      6  C   LIG d   1      -6.152  78.779 117.212  0.00  0.00     0.091 C 
ENDROOT
BRANCH   1   7
ATOM      7  O   LIG d   1      -4.019  79.390 116.172  0.00  0.00    -0.368 OA
BRANCH   7   8
ATOM      8  C   LIG d   1      -2.814  79.936 116.764  0.00  0.00     0.119 C 
BRANCH   8   9
ATOM      9  C   LIG d   1      -1.616  79.382 115.970  0.00  0.00     0.028 C 
ATOM     10  C   LIG d   1      -0.927  78.210 116.688  0.00  0.00     0.006 C 
ENDBRANCH   8   9
BRANCH   8  11
ATOM     11  C   LIG d   1      -2.620  79.431 118.197  0.00  0.00     0.028 C 
ATOM     12  C   LIG d   1      -2.664  80.560 119.238  0.00  0.00     0.006 C 
ENDBRANCH   8  11
ENDBRANCH   7   8
ENDBRANCH   1   7
BRANCH   6  13
ATOM     13  N   LIG d   1      -6.131  79.813 118.280  0.00  0.00    -0.311 N 
ATOM     14  C   LIG d   1      -6.395  81.099 118.060  0.00  0.00     0.210 C 
ATOM     15  C   LIG d   1      -6.298  81.999 119.296  0.00  0.00     0.109 C 
ATOM     16  O   LIG d   1      -6.732  81.576 116.966  0.00  0.00    -0.276 OA
ATOM     17  H   LIG d   1      -5.897  79.508 119.204  0.00  0.00     0.149 HD
ENDBRANCH   6  13
BRANCH   5  18
ATOM     18  N   LIG d   1      -8.453  77.901 117.746  0.00  0.00     0.381 N 
ATOM     19  H   LIG d   1      -8.619  78.830 117.414  0.00  0.00    -0.090 HD
ATOM     20  H   LIG d   1      -8.688  77.868 118.722  0.00  0.00    -0.090 HD
ATOM     21  H   LIG d   1      -9.016  77.253 117.239  0.00  0.00    -0.090 HD
ENDBRANCH   5  18
BRANCH   3  22
ATOM     22  C   LIG d   1      -5.330  74.920 115.673  0.00  0.00     0.382 C 
ATOM     23  O   LIG d   1      -4.160  74.605 115.346  0.00  0.00    -0.241 OA
ATOM     24  O   LIG d   1      -6.249  74.091 115.535  0.00  0.00    -0.241 OA
ENDBRANCH   3  22
TORSDOF 7
ENDMDL
MODEL 8
REMARK VINA RESULT:      -4.2      2.081      2.725
REMARK  7 active torsions:
REMARK  status: ('A' for Active; 'I' for Inactive)
REMARK    1  A    between atoms: C_2  and  C_3 
REMARK    2  A    between atoms: C_3  and  O_6 
REMARK    3  A    between atoms: C_3  and  C_4 
REMARK    4  A    between atoms: C_7  and  O_6 
REMARK    5  A    between atoms: C_9  and  C_10 
REMARK    6  A    between atoms: N_15  and  C_14 
REMARK    7  A    between atoms: N_20  and  C_19 
REMARK       I    between atoms: C_22  and  N_20 
ROOT
ATOM      1  C   LIG d   1      -4.877  91.745 117.642  0.00  0.00     0.161 C 
ATOM      2  C   LIG d   1      -5.640  91.119 116.643  0.00  0.00     0.016 C 
ATOM      3  C   LIG d   1      -6.769  91.716 116.036  0.00  0.00     0.038 C 
ATOM      4  C   LIG d   1      -7.124  93.050 116.283  0.00  0.00     0.028 C 
ATOM      5  C   LIG d   1      -6.686  93.550 117.656  0.00  0.00    -0.047 C 
ATOM      6  C   LIG d   1      -5.183  93.244 117.845  0.00  0.00     0.091 C 
ENDROOT
BRANCH   1   7
ATOM      7  O   LIG d   1      -3.473  91.552 117.379  0.00  0.00    -0.368 OA
BRANCH   7   8
ATOM      8  C   LIG d   1      -2.681  91.048 118.483  0.00  0.00     0.119 C 
BRANCH   8   9
ATOM      9  C   LIG d   1      -1.233  91.528 118.270  0.00  0.00     0.028 C 
ATOM     10  C   LIG d   1      -0.434  90.592 117.348  0.00  0.00     0.006 C 
ENDBRANCH   8   9
BRANCH   8  11
ATOM     11  C   LIG d   1      -2.609  89.518 118.464  0.00  0.00     0.028 C 
ATOM     12  C   LIG d   1      -3.230  88.877 119.715  0.00  0.00     0.006 C 
ENDBRANCH   8  11
ENDBRANCH   7   8
ENDBRANCH   1   7
BRANCH   6  13
ATOM     13  N   LIG d   1      -4.692  93.625 119.195  0.00  0.00    -0.311 N 
ATOM     14  C   LIG d   1      -3.656  94.437 119.397  0.00  0.00     0.210 C 
ATOM     15  C   LIG d   1      -3.304  94.683 120.867  0.00  0.00     0.109 C 
ATOM     16  O   LIG d   1      -3.016  95.003 118.498  0.00  0.00    -0.276 OA
ATOM     17  H   LIG d   1      -5.174  93.236 119.982  0.00  0.00     0.149 HD
ENDBRANCH   6  13
BRANCH   5  18
ATOM     18  N   LIG d   1      -6.997  94.990 117.726  0.00  0.00     0.381 N 
ATOM     19  H   LIG d   1      -7.871  95.170 117.273  0.00  0.00    -0.090 HD
ATOM     20  H   LIG d   1      -6.280  95.501 117.241  0.00  0.00    -0.090 HD
ATOM     21  H   LIG d   1      -7.040  95.284 118.676  0.00  0.00    -0.090 HD
ENDBRANCH   5  18
BRANCH   3  22
ATOM     22  C   LIG d   1      -7.580  90.962 115.202  0.00  0.00     0.382 C 
ATOM     23  O   LIG d   1      -7.196  89.835 114.805  0.00  0.00    -0.241 OA
ATOM     24  O   LIG d   1      -8.671  91.412 114.805  0.00  0.00    -0.241 OA
ENDBRANCH   3  22
TORSDOF 7
ENDMDL
MODEL 9
REMARK VINA RESULT:      -4.2     11.756     13.877
REMARK  7 active torsions:
REMARK  status: ('A' for Active; 'I' for Inactive)
REMARK    1  A    between atoms: C_2  and  C_3 
REMARK    2  A    between atoms: C_3  and  O_6 
REMARK    3  A    between atoms: C_3  and  C_4 
REMARK    4  A    between atoms: C_7  and  O_6 
REMARK    5  A    between atoms: C_9  and  C_10 
REMARK    6  A    between atoms: N_15  and  C_14 
REMARK    7  A    between atoms: N_20  and  C_19 
REMARK       I    between atoms: C_22  and  N_20 
ROOT
ATOM      1  C   LIG d   1     -17.605  97.160 116.858  0.00  0.00     0.161 C 
ATOM      2  C   LIG d   1     -18.785  97.300 116.108  0.00  0.00     0.016 C 
ATOM      3  C   LIG d   1     -20.065  96.952 116.599  0.00  0.00     0.038 C 
ATOM      4  C   LIG d   1     -20.270  96.579 117.936  0.00  0.00     0.028 C 
ATOM      5  C   LIG d   1     -19.044  95.940 118.581  0.00  0.00    -0.047 C 
ATOM      6  C   LIG d   1     -17.822  96.859 118.355  0.00  0.00     0.091 C 
ENDROOT
BRANCH   1   7
ATOM      7  O   LIG d   1     -16.781  98.331 116.696  0.00  0.00    -0.368 OA
BRANCH   7   8
ATOM      8  C   LIG d   1     -17.434  99.497 116.134  0.00  0.00     0.119 C 
BRANCH   8   9
ATOM      9  C   LIG d   1     -16.516 100.053 115.028  0.00  0.00     0.028 C 
ATOM     10  C   LIG d   1     -15.026  99.949 115.395  0.00  0.00     0.006 C 
ENDBRANCH   8   9
BRANCH   8  11
ATOM     11  C   LIG d   1     -17.551 100.621 117.167  0.00  0.00     0.028 C 
ATOM     12  C   LIG d   1     -18.840 100.533 118.000  0.00  0.00     0.006 C 
ENDBRANCH   8  11
ENDBRANCH   7   8
ENDBRANCH   1   7
BRANCH   6  13
ATOM     13  N   LIG d   1     -16.564  96.269 118.882  0.00  0.00    -0.311 N 
ATOM     14  C   LIG d   1     -15.758  96.900 119.735  0.00  0.00     0.210 C 
ATOM     15  C   LIG d   1     -14.503  96.119 120.137  0.00  0.00     0.109 C 
ATOM     16  O   LIG d   1     -15.981  98.019 120.221  0.00  0.00    -0.276 OA
ATOM     17  H   LIG d   1     -16.323  95.351 118.564  0.00  0.00     0.149 HD
ENDBRANCH   6  13
BRANCH   5  18
ATOM     18  N   LIG d   1     -19.352  95.728 120.008  0.00  0.00     0.381 N 
ATOM     19  H   LIG d   1     -18.512  95.790 120.549  0.00  0.00    -0.090 HD
ATOM     20  H   LIG d   1     -19.734  94.806 120.124  0.00  0.00    -0.090 HD
ATOM     21  H   LIG d   1     -20.008  96.409 120.321  0.00  0.00    -0.090 HD
ENDBRANCH   5  18
BRANCH   3  22
ATOM     22  C   LIG d   1     -21.151  96.938 115.738  0.00  0.00     0.382 C 
ATOM     23  O   LIG d   1     -21.373  95.929 115.026  0.00  0.00    -0.241 OA
ATOM     24  O   LIG d   1     -21.886  97.938 115.630  0.00  0.00    -0.241 OA
ENDBRANCH   3  22
TORSDOF 7
ENDMDL
