MODEL 1
REMARK VINA RESULT:      -5.9      0.000      0.000
REMARK  7 active torsions:
REMARK  status: ('A' for Active; 'I' for Inactive)
REMARK    1  A    between atoms: C_2  and  C_3 
REMARK    2  A    between atoms: C_3  and  O_6 
REMARK    3  A    between atoms: C_3  and  C_4 
REMARK    4  A    between atoms: C_7  and  O_6 
REMARK    5  A    between atoms: C_9  and  C_10 
REMARK    6  A    between atoms: N_15  and  C_14 
REMARK    7  A    between atoms: N_20  and  C_19 
REMARK       I    between atoms: C_22  and  N_20 
ROOT
ATOM      1  C   LIG d   1      -8.570  74.201 117.566  0.00  0.00     0.161 C 
ATOM      2  C   LIG d   1      -8.238  72.958 117.001  0.00  0.00     0.016 C 
ATOM      3  C   LIG d   1      -9.074  71.820 117.079  0.00  0.00     0.038 C 
ATOM      4  C   LIG d   1     -10.375  71.890 117.599  0.00  0.00     0.028 C 
ATOM      5  C   LIG d   1     -10.555  72.997 118.633  0.00  0.00    -0.047 C 
ATOM      6  C   LIG d   1     -10.033  74.326 118.041  0.00  0.00     0.091 C 
ENDROOT
BRANCH   1   7
ATOM      7  O   LIG d   1      -8.252  75.259 116.640  0.00  0.00    -0.368 OA
BRANCH   7   8
ATOM      8  C   LIG d   1      -6.843  75.517 116.427  0.00  0.00     0.119 C 
BRANCH   8   9
ATOM      9  C   LIG d   1      -6.607  77.022 116.662  0.00  0.00     0.028 C 
ATOM     10  C   LIG d   1      -7.592  77.618 117.681  0.00  0.00     0.006 C 
ENDBRANCH   8   9
BRANCH   8  11
ATOM     11  C   LIG d   1      -6.445  75.267 114.969  0.00  0.00     0.028 C 
ATOM     12  C   LIG d   1      -5.512  74.056 114.805  0.00  0.00     0.006 C 
ENDBRANCH   8  11
ENDBRANCH   7   8
ENDBRANCH   1   7
BRANCH   6  13
ATOM     13  N   LIG d   1     -10.095  75.444 119.017  0.00  0.00    -0.311 N 
ATOM     14  C   LIG d   1     -11.092  76.327 119.059  0.00  0.00     0.210 C 
ATOM     15  C   LIG d   1     -10.950  77.413 120.130  0.00  0.00     0.109 C 
ATOM     16  O   LIG d   1     -12.096  76.295 118.331  0.00  0.00    -0.276 OA
ATOM     17  H   LIG d   1      -9.337  75.527 119.666  0.00  0.00     0.149 HD
ENDBRANCH   6  13
BRANCH   5  18
ATOM     18  N   LIG d   1     -11.986  73.045 118.989  0.00  0.00     0.381 N 
ATOM     19  H   LIG d   1     -12.189  72.343 119.672  0.00  0.00    -0.090 HD
ATOM     20  H   LIG d   1     -12.532  72.852 118.167  0.00  0.00    -0.090 HD
ATOM     21  H   LIG d   1     -12.218  73.945 119.348  0.00  0.00    -0.090 HD
ENDBRANCH   5  18
BRANCH   3  22
ATOM     22  C   LIG d   1      -8.594  70.586 116.668  0.00  0.00     0.382 C 
ATOM     23  O   LIG d   1      -9.166  69.534 117.043  0.00  0.00    -0.241 OA
ATOM     24  O   LIG d   1      -7.570  70.509 115.963  0.00  0.00    -0.241 OA
ENDBRANCH   3  22
TORSDOF 7
ENDMDL
MODEL 2
REMARK VINA RESULT:      -5.6     16.427     19.724
REMARK  7 active torsions:
REMARK  status: ('A' for Active; 'I' for Inactive)
REMARK    1  A    between atoms: C_2  and  C_3 
REMARK    2  A    between atoms: C_3  and  O_6 
REMARK    3  A    between atoms: C_3  and  C_4 
REMARK    4  A    between atoms: C_7  and  O_6 
REMARK    5  A    between atoms: C_9  and  C_10 
REMARK    6  A    between atoms: N_15  and  C_14 
REMARK    7  A    between atoms: N_20  and  C_19 
REMARK       I    between atoms: C_22  and  N_20 
ROOT
ATOM      1  C   LIG d   1      -6.729  92.762 118.552  0.00  0.00     0.161 C 
ATOM      2  C   LIG d   1      -5.676  93.529 119.078  0.00  0.00     0.016 C 
ATOM      3  C   LIG d   1      -4.314  93.276 118.796  0.00  0.00     0.038 C 
ATOM      4  C   LIG d   1      -3.918  92.327 117.842  0.00  0.00     0.028 C 
ATOM      5  C   LIG d   1      -4.920  91.191 117.665  0.00  0.00    -0.047 C 
ATOM      6  C   LIG d   1      -6.323  91.793 117.422  0.00  0.00     0.091 C 
ENDROOT
BRANCH   1   7
ATOM      7  O   LIG d   1      -7.792  93.630 118.109  0.00  0.00    -0.368 OA
BRANCH   7   8
ATOM      8  C   LIG d   1      -8.123  94.732 118.990  0.00  0.00     0.119 C 
BRANCH   8   9
ATOM      9  C   LIG d   1      -9.172  94.220 119.996  0.00  0.00     0.028 C 
ATOM     10  C   LIG d   1      -8.614  94.122 121.426  0.00  0.00     0.006 C 
ENDBRANCH   8   9
BRANCH   8  11
ATOM     11  C   LIG d   1      -8.814  95.867 118.227  0.00  0.00     0.028 C 
ATOM     12  C   LIG d   1      -9.191  97.050 119.132  0.00  0.00     0.006 C 
ENDBRANCH   8  11
ENDBRANCH   7   8
ENDBRANCH   1   7
BRANCH   6  13
ATOM     13  N   LIG d   1      -7.377  90.751 117.323  0.00  0.00    -0.311 N 
ATOM     14  C   LIG d   1      -7.731  90.173 116.176  0.00  0.00     0.210 C 
ATOM     15  C   LIG d   1      -8.854  89.137 116.294  0.00  0.00     0.109 C 
ATOM     16  O   LIG d   1      -7.200  90.396 115.078  0.00  0.00    -0.276 OA
ATOM     17  H   LIG d   1      -7.839  90.486 118.171  0.00  0.00     0.149 HD
ENDBRANCH   6  13
BRANCH   5  18
ATOM     18  N   LIG d   1      -4.449  90.351 116.548  0.00  0.00     0.381 N 
ATOM     19  H   LIG d   1      -4.667  89.392 116.730  0.00  0.00    -0.090 HD
ATOM     20  H   LIG d   1      -3.451  90.439 116.473  0.00  0.00    -0.090 HD
ATOM     21  H   LIG d   1      -4.881  90.642 115.698  0.00  0.00    -0.090 HD
ENDBRANCH   5  18
BRANCH   3  22
ATOM     22  C   LIG d   1      -3.329  93.951 119.502  0.00  0.00     0.382 C 
ATOM     23  O   LIG d   1      -3.636  94.633 120.509  0.00  0.00    -0.241 OA
ATOM     24  O   LIG d   1      -2.145  93.922 119.118  0.00  0.00    -0.241 OA
ENDBRANCH   3  22
TORSDOF 7
ENDMDL
MODEL 3
REMARK VINA RESULT:      -5.5     16.980     19.892
REMARK  7 active torsions:
REMARK  status: ('A' for Active; 'I' for Inactive)
REMARK    1  A    between atoms: C_2  and  C_3 
REMARK    2  A    between atoms: C_3  and  O_6 
REMARK    3  A    between atoms: C_3  and  C_4 
REMARK    4  A    between atoms: C_7  and  O_6 
REMARK    5  A    between atoms: C_9  and  C_10 
REMARK    6  A    between atoms: N_15  and  C_14 
REMARK    7  A    between atoms: N_20  and  C_19 
REMARK       I    between atoms: C_22  and  N_20 
ROOT
ATOM      1  C   LIG d   1      -6.156  93.376 118.366  0.00  0.00     0.161 C 
ATOM      2  C   LIG d   1      -6.972  92.510 117.619  0.00  0.00     0.016 C 
ATOM      3  C   LIG d   1      -6.485  91.357 116.960  0.00  0.00     0.038 C 
ATOM      4  C   LIG d   1      -5.168  90.906 117.131  0.00  0.00     0.028 C 
ATOM      5  C   LIG d   1      -4.184  92.022 117.466  0.00  0.00    -0.047 C 
ATOM      6  C   LIG d   1      -4.738  92.840 118.655  0.00  0.00     0.091 C 
ENDROOT
BRANCH   1   7
ATOM      7  O   LIG d   1      -6.818  93.731 119.596  0.00  0.00    -0.368 OA
BRANCH   7   8
ATOM      8  C   LIG d   1      -7.302  95.093 119.689  0.00  0.00     0.119 C 
BRANCH   8   9
ATOM      9  C   LIG d   1      -8.812  95.070 119.381  0.00  0.00     0.028 C 
ATOM     10  C   LIG d   1      -9.133  95.615 117.979  0.00  0.00     0.006 C 
ENDBRANCH   8   9
BRANCH   8  11
ATOM     11  C   LIG d   1      -6.681  95.980 118.606  0.00  0.00     0.028 C 
ATOM     12  C   LIG d   1      -5.818  97.113 119.186  0.00  0.00     0.006 C 
ENDBRANCH   8  11
ENDBRANCH   7   8
ENDBRANCH   1   7
BRANCH   6  13
ATOM     13  N   LIG d   1      -3.878  94.003 118.994  0.00  0.00    -0.311 N 
ATOM     14  C   LIG d   1      -3.436  94.255 120.225  0.00  0.00     0.210 C 
ATOM     15  C   LIG d   1      -2.579  95.518 120.358  0.00  0.00     0.109 C 
ATOM     16  O   LIG d   1      -3.647  93.536 121.213  0.00  0.00    -0.276 OA
ATOM     17  H   LIG d   1      -3.633  94.622 118.246  0.00  0.00     0.149 HD
ENDBRANCH   6  13
BRANCH   5  18
ATOM     18  N   LIG d   1      -2.880  91.396 117.753  0.00  0.00     0.381 N 
ATOM     19  H   LIG d   1      -2.141  92.023 117.504  0.00  0.00    -0.090 HD
ATOM     20  H   LIG d   1      -2.789  90.564 117.196  0.00  0.00    -0.090 HD
ATOM     21  H   LIG d   1      -2.817  91.165 118.720  0.00  0.00    -0.090 HD
ENDBRANCH   5  18
BRANCH   3  22
ATOM     22  C   LIG d   1      -7.310  90.664 116.088  0.00  0.00     0.382 C 
ATOM     23  O   LIG d   1      -8.276  91.249 115.541  0.00  0.00    -0.241 OA
ATOM     24  O   LIG d   1      -7.128  89.450 115.875  0.00  0.00    -0.241 OA
ENDBRANCH   3  22
TORSDOF 7
ENDMDL
MODEL 4
REMARK VINA RESULT:      -5.4      2.134      4.372
REMARK  7 active torsions:
REMARK  status: ('A' for Active; 'I' for Inactive)
REMARK    1  A    between atoms: C_2  and  C_3 
REMARK    2  A    between atoms: C_3  and  O_6 
REMARK    3  A    between atoms: C_3  and  C_4 
REMARK    4  A    between atoms: C_7  and  O_6 
REMARK    5  A    between atoms: C_9  and  C_10 
REMARK    6  A    between atoms: N_15  and  C_14 
REMARK    7  A    between atoms: N_20  and  C_19 
REMARK       I    between atoms: C_22  and  N_20 
ROOT
ATOM      1  C   LIG d   1      -9.534  74.019 117.992  0.00  0.00     0.161 C 
ATOM      2  C   LIG d   1      -9.437  72.654 117.677  0.00  0.00     0.016 C 
ATOM      3  C   LIG d   1      -8.354  72.096 116.959  0.00  0.00     0.038 C 
ATOM      4  C   LIG d   1      -7.213  72.846 116.637  0.00  0.00     0.028 C 
ATOM      5  C   LIG d   1      -7.491  74.339 116.492  0.00  0.00    -0.047 C 
ATOM      6  C   LIG d   1      -8.247  74.833 117.746  0.00  0.00     0.091 C 
ENDROOT
BRANCH   1   7
ATOM      7  O   LIG d   1      -9.973  74.175 119.356  0.00  0.00    -0.368 OA
BRANCH   7   8
ATOM      8  C   LIG d   1     -11.298  74.732 119.540  0.00  0.00     0.119 C 
BRANCH   8   9
ATOM      9  C   LIG d   1     -12.268  73.554 119.761  0.00  0.00     0.028 C 
ATOM     10  C   LIG d   1     -13.088  73.705 121.053  0.00  0.00     0.006 C 
ENDBRANCH   8   9
BRANCH   8  11
ATOM     11  C   LIG d   1     -11.791  75.429 118.268  0.00  0.00     0.028 C 
ATOM     12  C   LIG d   1     -13.093  74.822 117.722  0.00  0.00     0.006 C 
ENDBRANCH   8  11
ENDBRANCH   7   8
ENDBRANCH   1   7
BRANCH   6  13
ATOM     13  N   LIG d   1      -8.631  76.265 117.649  0.00  0.00    -0.311 N 
ATOM     14  C   LIG d   1      -8.364  77.162 118.596  0.00  0.00     0.210 C 
ATOM     15  C   LIG d   1      -8.867  78.580 118.305  0.00  0.00     0.109 C 
ATOM     16  O   LIG d   1      -7.731  76.926 119.636  0.00  0.00    -0.276 OA
ATOM     17  H   LIG d   1      -9.122  76.551 116.824  0.00  0.00     0.149 HD
ENDBRANCH   6  13
BRANCH   5  18
ATOM     18  N   LIG d   1      -6.195  75.016 116.293  0.00  0.00     0.381 N 
ATOM     19  H   LIG d   1      -5.450  74.411 116.577  0.00  0.00    -0.090 HD
ATOM     20  H   LIG d   1      -6.168  75.840 116.867  0.00  0.00    -0.090 HD
ATOM     21  H   LIG d   1      -6.084  75.265 115.335  0.00  0.00    -0.090 HD
ENDBRANCH   5  18
BRANCH   3  22
ATOM     22  C   LIG d   1      -8.424  70.783 116.520  0.00  0.00     0.382 C 
ATOM     23  O   LIG d   1      -9.527  70.185 116.504  0.00  0.00    -0.241 OA
ATOM     24  O   LIG d   1      -7.391  70.174 116.183  0.00  0.00    -0.241 OA
ENDBRANCH   3  22
TORSDOF 7
ENDMDL
MODEL 5
REMARK VINA RESULT:      -5.2     16.439     18.687
REMARK  7 active torsions:
REMARK  status: ('A' for Active; 'I' for Inactive)
REMARK    1  A    between atoms: C_2  and  C_3 
REMARK    2  A    between atoms: C_3  and  O_6 
REMARK    3  A    between atoms: C_3  and  C_4 
REMARK    4  A    between atoms: C_7  and  O_6 
REMARK    5  A    between atoms: C_9  and  C_10 
REMARK    6  A    between atoms: N_15  and  C_14 
REMARK    7  A    between atoms: N_20  and  C_19 
REMARK       I    between atoms: C_22  and  N_20 
ROOT
ATOM      1  C   LIG d   1      -4.322  91.551 118.202  0.00  0.00     0.161 C 
ATOM      2  C   LIG d   1      -5.069  90.768 117.306  0.00  0.00     0.016 C 
ATOM      3  C   LIG d   1      -6.297  91.186 116.744  0.00  0.00     0.038 C 
ATOM      4  C   LIG d   1      -6.790  92.487 116.924  0.00  0.00     0.028 C 
ATOM      5  C   LIG d   1      -6.326  93.136 118.223  0.00  0.00    -0.047 C 
ATOM      6  C   LIG d   1      -4.788  93.017 118.323  0.00  0.00     0.091 C 
ENDROOT
BRANCH   1   7
ATOM      7  O   LIG d   1      -2.925  91.497 117.851  0.00  0.00    -0.368 OA
BRANCH   7   8
ATOM      8  C   LIG d   1      -2.058  90.814 118.790  0.00  0.00     0.119 C 
BRANCH   8   9
ATOM      9  C   LIG d   1      -1.604  89.499 118.128  0.00  0.00     0.028 C 
ATOM     10  C   LIG d   1      -2.439  88.292 118.586  0.00  0.00     0.006 C 
ENDBRANCH   8   9
BRANCH   8  11
ATOM     11  C   LIG d   1      -2.822  90.392 120.048  0.00  0.00     0.028 C 
ATOM     12  C   LIG d   1      -2.171  90.906 121.342  0.00  0.00     0.006 C 
ENDBRANCH   8  11
ENDBRANCH   7   8
ENDBRANCH   1   7
BRANCH   6  13
ATOM     13  N   LIG d   1      -4.260  93.553 119.605  0.00  0.00    -0.311 N 
ATOM     14  C   LIG d   1      -3.193  94.346 119.683  0.00  0.00     0.210 C 
ATOM     15  C   LIG d   1      -2.806  94.769 121.104  0.00  0.00     0.109 C 
ATOM     16  O   LIG d   1      -2.550  94.765 118.709  0.00  0.00    -0.276 OA
ATOM     17  H   LIG d   1      -4.741  93.288 120.442  0.00  0.00     0.149 HD
ENDBRANCH   6  13
BRANCH   5  18
ATOM     18  N   LIG d   1      -6.799  94.533 118.217  0.00  0.00     0.381 N 
ATOM     19  H   LIG d   1      -6.329  95.053 118.930  0.00  0.00    -0.090 HD
ATOM     20  H   LIG d   1      -7.784  94.544 118.416  0.00  0.00    -0.090 HD
ATOM     21  H   LIG d   1      -6.628  94.947 117.326  0.00  0.00    -0.090 HD
ENDBRANCH   5  18
BRANCH   3  22
ATOM     22  C   LIG d   1      -7.065  90.284 116.024  0.00  0.00     0.382 C 
ATOM     23  O   LIG d   1      -6.509  89.415 115.311  0.00  0.00    -0.241 OA
ATOM     24  O   LIG d   1      -8.309  90.356 116.045  0.00  0.00    -0.241 OA
ENDBRANCH   3  22
TORSDOF 7
ENDMDL
MODEL 6
REMARK VINA RESULT:      -5.2      2.161      4.814
REMARK  7 active torsions:
REMARK  status: ('A' for Active; 'I' for Inactive)
REMARK    1  A    between atoms: C_2  and  C_3 
REMARK    2  A    between atoms: C_3  and  O_6 
REMARK    3  A    between atoms: C_3  and  C_4 
REMARK    4  A    between atoms: C_7  and  O_6 
REMARK    5  A    between atoms: C_9  and  C_10 
REMARK    6  A    between atoms: N_15  and  C_14 
REMARK    7  A    between atoms: N_20  and  C_19 
REMARK       I    between atoms: C_22  and  N_20 
ROOT
ATOM      1  C   LIG d   1      -9.520  75.506 117.515  0.00  0.00     0.161 C 
ATOM      2  C   LIG d   1     -10.769  75.527 118.157  0.00  0.00     0.016 C 
ATOM      3  C   LIG d   1     -11.565  74.374 118.350  0.00  0.00     0.038 C 
ATOM      4  C   LIG d   1     -11.094  73.089 118.045  0.00  0.00     0.028 C 
ATOM      5  C   LIG d   1     -10.049  73.074 116.934  0.00  0.00    -0.047 C 
ATOM      6  C   LIG d   1      -8.940  74.096 117.275  0.00  0.00     0.091 C 
ENDROOT
BRANCH   1   7
ATOM      7  O   LIG d   1      -8.580  76.316 118.248  0.00  0.00    -0.368 OA
BRANCH   7   8
ATOM      8  C   LIG d   1      -8.249  77.598 117.659  0.00  0.00     0.119 C 
BRANCH   8   9
ATOM      9  C   LIG d   1      -6.775  77.537 117.214  0.00  0.00     0.028 C 
ATOM     10  C   LIG d   1      -5.919  76.655 118.139  0.00  0.00     0.006 C 
ENDBRANCH   8   9
BRANCH   8  11
ATOM     11  C   LIG d   1      -8.313  78.721 118.699  0.00  0.00     0.028 C 
ATOM     12  C   LIG d   1      -9.505  79.667 118.482  0.00  0.00     0.006 C 
ENDBRANCH   8  11
ENDBRANCH   7   8
ENDBRANCH   1   7
BRANCH   6  13
ATOM     13  N   LIG d   1      -7.921  74.206 116.199  0.00  0.00    -0.311 N 
ATOM     14  C   LIG d   1      -6.764  73.546 116.214  0.00  0.00     0.210 C 
ATOM     15  C   LIG d   1      -5.848  73.818 115.017  0.00  0.00     0.109 C 
ATOM     16  O   LIG d   1      -6.424  72.737 117.090  0.00  0.00    -0.276 OA
ATOM     17  H   LIG d   1      -8.129  74.818 115.434  0.00  0.00     0.149 HD
ENDBRANCH   6  13
BRANCH   5  18
ATOM     18  N   LIG d   1      -9.545  71.693 116.814  0.00  0.00     0.381 N 
ATOM     19  H   LIG d   1      -8.553  71.683 116.938  0.00  0.00    -0.090 HD
ATOM     20  H   LIG d   1      -9.752  71.351 115.892  0.00  0.00    -0.090 HD
ATOM     21  H   LIG d   1      -9.979  71.111 117.497  0.00  0.00    -0.090 HD
ENDBRANCH   5  18
BRANCH   3  22
ATOM     22  C   LIG d   1     -12.864  74.506 118.816  0.00  0.00     0.382 C 
ATOM     23  O   LIG d   1     -13.263  73.795 119.770  0.00  0.00    -0.241 OA
ATOM     24  O   LIG d   1     -13.656  75.295 118.267  0.00  0.00    -0.241 OA
ENDBRANCH   3  22
TORSDOF 7
ENDMDL
MODEL 7
REMARK VINA RESULT:      -5.2     16.707     19.044
REMARK  7 active torsions:
REMARK  status: ('A' for Active; 'I' for Inactive)
REMARK    1  A    between atoms: C_2  and  C_3 
REMARK    2  A    between atoms: C_3  and  O_6 
REMARK    3  A    between atoms: C_3  and  C_4 
REMARK    4  A    between atoms: C_7  and  O_6 
REMARK    5  A    between atoms: C_9  and  C_10 
REMARK    6  A    between atoms: N_15  and  C_14 
REMARK    7  A    between atoms: N_20  and  C_19 
REMARK       I    between atoms: C_22  and  N_20 
ROOT
ATOM      1  C   LIG d   1      -4.947  91.983 118.539  0.00  0.00     0.161 C 
ATOM      2  C   LIG d   1      -5.187  91.001 117.563  0.00  0.00     0.016 C 
ATOM      3  C   LIG d   1      -6.269  91.055 116.654  0.00  0.00     0.038 C 
ATOM      4  C   LIG d   1      -7.103  92.179 116.560  0.00  0.00     0.028 C 
ATOM      5  C   LIG d   1      -7.206  92.968 117.862  0.00  0.00    -0.047 C 
ATOM      6  C   LIG d   1      -5.781  93.271 118.378  0.00  0.00     0.091 C 
ENDROOT
BRANCH   1   7
ATOM      7  O   LIG d   1      -3.541  92.297 118.580  0.00  0.00    -0.368 OA
BRANCH   7   8
ATOM      8  C   LIG d   1      -2.866  92.037 119.835  0.00  0.00     0.119 C 
BRANCH   8   9
ATOM      9  C   LIG d   1      -2.273  93.372 120.327  0.00  0.00     0.028 C 
ATOM     10  C   LIG d   1      -2.182  94.421 119.207  0.00  0.00     0.006 C 
ENDBRANCH   8   9
BRANCH   8  11
ATOM     11  C   LIG d   1      -1.665  91.107 119.639  0.00  0.00     0.028 C 
ATOM     12  C   LIG d   1      -1.425  90.746 118.165  0.00  0.00     0.006 C 
ENDBRANCH   8  11
ENDBRANCH   7   8
ENDBRANCH   1   7
BRANCH   6  13
ATOM     13  N   LIG d   1      -5.790  93.967 119.692  0.00  0.00    -0.311 N 
ATOM     14  C   LIG d   1      -5.785  95.293 119.819  0.00  0.00     0.210 C 
ATOM     15  C   LIG d   1      -5.776  95.804 121.263  0.00  0.00     0.109 C 
ATOM     16  O   LIG d   1      -5.820  96.094 118.873  0.00  0.00    -0.276 OA
ATOM     17  H   LIG d   1      -5.794  93.393 120.512  0.00  0.00     0.149 HD
ENDBRANCH   6  13
BRANCH   5  18
ATOM     18  N   LIG d   1      -7.992  94.185 117.585  0.00  0.00     0.381 N 
ATOM     19  H   LIG d   1      -8.316  94.171 116.638  0.00  0.00    -0.090 HD
ATOM     20  H   LIG d   1      -7.400  94.988 117.704  0.00  0.00    -0.090 HD
ATOM     21  H   LIG d   1      -8.767  94.239 118.208  0.00  0.00    -0.090 HD
ENDBRANCH   5  18
BRANCH   3  22
ATOM     22  C   LIG d   1      -6.550  89.958 115.854  0.00  0.00     0.382 C 
ATOM     23  O   LIG d   1      -5.667  89.496 115.092  0.00  0.00    -0.241 OA
ATOM     24  O   LIG d   1      -7.688  89.453 115.851  0.00  0.00    -0.241 OA
ENDBRANCH   3  22
TORSDOF 7
ENDMDL
MODEL 8
REMARK VINA RESULT:      -5.1     17.704     20.635
REMARK  7 active torsions:
REMARK  status: ('A' for Active; 'I' for Inactive)
REMARK    1  A    between atoms: C_2  and  C_3 
REMARK    2  A    between atoms: C_3  and  O_6 
REMARK    3  A    between atoms: C_3  and  C_4 
REMARK    4  A    between atoms: C_7  and  O_6 
REMARK    5  A    between atoms: C_9  and  C_10 
REMARK    6  A    between atoms: N_15  and  C_14 
REMARK    7  A    between atoms: N_20  and  C_19 
REMARK       I    between atoms: C_22  and  N_20 
ROOT
ATOM      1  C   LIG d   1      -6.308  93.263 119.407  0.00  0.00     0.161 C 
ATOM      2  C   LIG d   1      -7.585  93.770 119.115  0.00  0.00     0.016 C 
ATOM      3  C   LIG d   1      -7.832  95.129 118.812  0.00  0.00     0.038 C 
ATOM      4  C   LIG d   1      -6.789  96.050 118.632  0.00  0.00     0.028 C 
ATOM      5  C   LIG d   1      -5.527  95.696 119.411  0.00  0.00    -0.047 C 
ATOM      6  C   LIG d   1      -5.144  94.230 119.106  0.00  0.00     0.091 C 
ENDROOT
BRANCH   1   7
ATOM      7  O   LIG d   1      -6.110  92.012 118.720  0.00  0.00    -0.368 OA
BRANCH   7   8
ATOM      8  C   LIG d   1      -5.506  92.095 117.405  0.00  0.00     0.119 C 
BRANCH   8   9
ATOM      9  C   LIG d   1      -6.640  91.988 116.367  0.00  0.00     0.028 C 
ATOM     10  C   LIG d   1      -7.337  90.618 116.399  0.00  0.00     0.006 C 
ENDBRANCH   8   9
BRANCH   8  11
ATOM     11  C   LIG d   1      -4.594  90.895 117.134  0.00  0.00     0.028 C 
ATOM     12  C   LIG d   1      -3.772  90.481 118.365  0.00  0.00     0.006 C 
ENDBRANCH   8  11
ENDBRANCH   7   8
ENDBRANCH   1   7
BRANCH   6  13
ATOM     13  N   LIG d   1      -3.967  93.776 119.893  0.00  0.00    -0.311 N 
ATOM     14  C   LIG d   1      -2.720  93.796 119.426  0.00  0.00     0.210 C 
ATOM     15  C   LIG d   1      -1.658  93.266 120.394  0.00  0.00     0.109 C 
ATOM     16  O   LIG d   1      -2.389  94.233 118.313  0.00  0.00    -0.276 OA
ATOM     17  H   LIG d   1      -4.142  93.435 120.818  0.00  0.00     0.149 HD
ENDBRANCH   6  13
BRANCH   5  18
ATOM     18  N   LIG d   1      -4.480  96.660 119.024  0.00  0.00     0.381 N 
ATOM     19  H   LIG d   1      -4.643  96.982 118.091  0.00  0.00    -0.090 HD
ATOM     20  H   LIG d   1      -3.588  96.198 119.047  0.00  0.00    -0.090 HD
ATOM     21  H   LIG d   1      -4.478  97.432 119.654  0.00  0.00    -0.090 HD
ENDBRANCH   5  18
BRANCH   3  22
ATOM     22  C   LIG d   1      -9.138  95.587 118.726  0.00  0.00     0.382 C 
ATOM     23  O   LIG d   1      -9.363  96.801 118.498  0.00  0.00    -0.241 OA
ATOM     24  O   LIG d   1     -10.094  94.812 118.916  0.00  0.00    -0.241 OA
ENDBRANCH   3  22
TORSDOF 7
ENDMDL
MODEL 9
REMARK VINA RESULT:      -5.1      2.306      5.036
REMARK  7 active torsions:
REMARK  status: ('A' for Active; 'I' for Inactive)
REMARK    1  A    between atoms: C_2  and  C_3 
REMARK    2  A    between atoms: C_3  and  O_6 
REMARK    3  A    between atoms: C_3  and  C_4 
REMARK    4  A    between atoms: C_7  and  O_6 
REMARK    5  A    between atoms: C_9  and  C_10 
REMARK    6  A    between atoms: N_15  and  C_14 
REMARK    7  A    between atoms: N_20  and  C_19 
REMARK       I    between atoms: C_22  and  N_20 
ROOT
ATOM      1  C   LIG d   1      -9.190  73.837 119.150  0.00  0.00     0.161 C 
ATOM      2  C   LIG d   1     -10.590  73.864 119.044  0.00  0.00     0.016 C 
ATOM      3  C   LIG d   1     -11.319  75.007 118.642  0.00  0.00     0.038 C 
ATOM      4  C   LIG d   1     -10.681  76.163 118.169  0.00  0.00     0.028 C 
ATOM      5  C   LIG d   1      -9.279  76.357 118.736  0.00  0.00    -0.047 C 
ATOM      6  C   LIG d   1      -8.471  75.054 118.532  0.00  0.00     0.091 C 
ENDROOT
BRANCH   1   7
ATOM      7  O   LIG d   1      -8.680  72.613 118.583  0.00  0.00    -0.368 OA
BRANCH   7   8
ATOM      8  C   LIG d   1      -8.691  72.528 117.136  0.00  0.00     0.119 C 
BRANCH   8   9
ATOM      9  C   LIG d   1      -9.750  71.480 116.742  0.00  0.00     0.028 C 
ATOM     10  C   LIG d   1      -9.239  70.039 116.911  0.00  0.00     0.006 C 
ENDBRANCH   8   9
BRANCH   8  11
ATOM     11  C   LIG d   1      -7.363  71.985 116.600  0.00  0.00     0.028 C 
ATOM     12  C   LIG d   1      -6.544  73.049 115.852  0.00  0.00     0.006 C 
ENDBRANCH   8  11
ENDBRANCH   7   8
ENDBRANCH   1   7
BRANCH   6  13
ATOM     13  N   LIG d   1      -7.114  75.129 119.133  0.00  0.00    -0.311 N 
ATOM     14  C   LIG d   1      -6.051  75.606 118.487  0.00  0.00     0.210 C 
ATOM     15  C   LIG d   1      -4.743  75.574 119.284  0.00  0.00     0.109 C 
ATOM     16  O   LIG d   1      -6.074  76.082 117.342  0.00  0.00    -0.276 OA
ATOM     17  H   LIG d   1      -7.011  74.793 120.070  0.00  0.00     0.149 HD
ENDBRANCH   6  13
BRANCH   5  18
ATOM     18  N   LIG d   1      -8.680  77.521 118.056  0.00  0.00     0.381 N 
ATOM     19  H   LIG d   1      -7.867  77.235 117.547  0.00  0.00    -0.090 HD
ATOM     20  H   LIG d   1      -8.398  78.192 118.748  0.00  0.00    -0.090 HD
ATOM     21  H   LIG d   1      -9.342  77.931 117.435  0.00  0.00    -0.090 HD
ENDBRANCH   5  18
BRANCH   3  22
ATOM     22  C   LIG d   1     -12.701  75.013 118.748  0.00  0.00     0.382 C 
ATOM     23  O   LIG d   1     -13.284  74.116 119.404  0.00  0.00    -0.241 OA
ATOM     24  O   LIG d   1     -13.376  75.879 118.160  0.00  0.00    -0.241 OA
ENDBRANCH   3  22
TORSDOF 7
ENDMDL
