MODEL 1
REMARK VINA RESULT:      -5.3      0.000      0.000
REMARK  7 active torsions:
REMARK  status: ('A' for Active; 'I' for Inactive)
REMARK    1  A    between atoms: C_2  and  C_3 
REMARK    2  A    between atoms: C_3  and  O_6 
REMARK    3  A    between atoms: C_3  and  C_4 
REMARK    4  A    between atoms: C_7  and  O_6 
REMARK    5  A    between atoms: C_9  and  C_10 
REMARK    6  A    between atoms: N_15  and  C_14 
REMARK    7  A    between atoms: N_20  and  C_19 
REMARK       I    between atoms: C_22  and  N_20 
ROOT
ATOM      1  C   LIG d   1      -4.108  91.883 117.576  0.00  0.00     0.161 C 
ATOM      2  C   LIG d   1      -4.950  91.504 116.517  0.00  0.00     0.016 C 
ATOM      3  C   LIG d   1      -6.302  91.902 116.417  0.00  0.00     0.038 C 
ATOM      4  C   LIG d   1      -6.867  92.837 117.297  0.00  0.00     0.028 C 
ATOM      5  C   LIG d   1      -6.203  92.855 118.670  0.00  0.00    -0.047 C 
ATOM      6  C   LIG d   1      -4.675  92.993 118.486  0.00  0.00     0.091 C 
ENDROOT
BRANCH   1   7
ATOM      7  O   LIG d   1      -2.818  92.267 117.062  0.00  0.00    -0.368 OA
BRANCH   7   8
ATOM      8  C   LIG d   1      -1.741  91.322 117.272  0.00  0.00     0.119 C 
BRANCH   8   9
ATOM      9  C   LIG d   1      -2.223  90.295 118.315  0.00  0.00     0.028 C 
ATOM     10  C   LIG d   1      -1.945  88.845 117.884  0.00  0.00     0.006 C 
ENDBRANCH   8   9
BRANCH   8  11
ATOM     11  C   LIG d   1      -0.520  91.998 117.902  0.00  0.00     0.028 C 
ATOM     12  C   LIG d   1      -0.088  93.267 117.151  0.00  0.00     0.006 C 
ENDBRANCH   8  11
ENDBRANCH   7   8
ENDBRANCH   1   7
BRANCH   6  13
ATOM     13  N   LIG d   1      -3.941  92.934 119.778  0.00  0.00    -0.311 N 
ATOM     14  C   LIG d   1      -2.956  93.771 120.100  0.00  0.00     0.210 C 
ATOM     15  C   LIG d   1      -2.321  93.523 121.472  0.00  0.00     0.109 C 
ATOM     16  O   LIG d   1      -2.570  94.715 119.394  0.00  0.00    -0.276 OA
ATOM     17  H   LIG d   1      -4.211  92.218 120.423  0.00  0.00     0.149 HD
ENDBRANCH   6  13
BRANCH   5  18
ATOM     18  N   LIG d   1      -6.796  93.967 119.437  0.00  0.00     0.381 N 
ATOM     19  H   LIG d   1      -6.296  94.813 119.250  0.00  0.00    -0.090 HD
ATOM     20  H   LIG d   1      -6.716  93.764 120.418  0.00  0.00    -0.090 HD
ATOM     21  H   LIG d   1      -7.755  94.077 119.191  0.00  0.00    -0.090 HD
ENDBRANCH   5  18
BRANCH   3  22
ATOM     22  C   LIG d   1      -7.117  91.332 115.451  0.00  0.00     0.382 C 
ATOM     23  O   LIG d   1      -7.019  90.108 115.190  0.00  0.00    -0.241 OA
ATOM     24  O   LIG d   1      -7.918  92.034 114.805  0.00  0.00    -0.241 OA
ENDBRANCH   3  22
TORSDOF 7
ENDMDL
MODEL 2
REMARK VINA RESULT:      -5.2      2.089      4.126
REMARK  7 active torsions:
REMARK  status: ('A' for Active; 'I' for Inactive)
REMARK    1  A    between atoms: C_2  and  C_3 
REMARK    2  A    between atoms: C_3  and  O_6 
REMARK    3  A    between atoms: C_3  and  C_4 
REMARK    4  A    between atoms: C_7  and  O_6 
REMARK    5  A    between atoms: C_9  and  C_10 
REMARK    6  A    between atoms: N_15  and  C_14 
REMARK    7  A    between atoms: N_20  and  C_19 
REMARK       I    between atoms: C_22  and  N_20 
ROOT
ATOM      1  C   LIG d   1      -5.481  93.093 118.460  0.00  0.00     0.161 C 
ATOM      2  C   LIG d   1      -6.452  92.562 117.595  0.00  0.00     0.016 C 
ATOM      3  C   LIG d   1      -6.150  91.677 116.534  0.00  0.00     0.038 C 
ATOM      4  C   LIG d   1      -4.865  91.142 116.359  0.00  0.00     0.028 C 
ATOM      5  C   LIG d   1      -3.756  92.040 116.896  0.00  0.00    -0.047 C 
ATOM      6  C   LIG d   1      -4.090  92.433 118.353  0.00  0.00     0.091 C 
ENDROOT
BRANCH   1   7
ATOM      7  O   LIG d   1      -5.957  93.042 119.819  0.00  0.00    -0.368 OA
BRANCH   7   8
ATOM      8  C   LIG d   1      -6.158  94.319 120.472  0.00  0.00     0.119 C 
BRANCH   8   9
ATOM      9  C   LIG d   1      -5.925  95.420 119.419  0.00  0.00     0.028 C 
ATOM     10  C   LIG d   1      -7.214  96.184 119.073  0.00  0.00     0.006 C 
ENDBRANCH   8   9
BRANCH   8  11
ATOM     11  C   LIG d   1      -5.103  94.565 121.555  0.00  0.00     0.028 C 
ATOM     12  C   LIG d   1      -4.309  95.861 121.330  0.00  0.00     0.006 C 
ENDBRANCH   8  11
ENDBRANCH   7   8
ENDBRANCH   1   7
BRANCH   6  13
ATOM     13  N   LIG d   1      -3.098  93.379 118.926  0.00  0.00    -0.311 N 
ATOM     14  C   LIG d   1      -2.047  92.992 119.647  0.00  0.00     0.210 C 
ATOM     15  C   LIG d   1      -1.160  94.131 120.160  0.00  0.00     0.109 C 
ATOM     16  O   LIG d   1      -1.746  91.812 119.882  0.00  0.00    -0.276 OA
ATOM     17  H   LIG d   1      -3.247  94.355 118.757  0.00  0.00     0.149 HD
ENDBRANCH   6  13
BRANCH   5  18
ATOM     18  N   LIG d   1      -2.485  91.300 116.773  0.00  0.00     0.381 N 
ATOM     19  H   LIG d   1      -2.669  90.318 116.718  0.00  0.00    -0.090 HD
ATOM     20  H   LIG d   1      -1.929  91.471 117.593  0.00  0.00    -0.090 HD
ATOM     21  H   LIG d   1      -1.993  91.600 115.961  0.00  0.00    -0.090 HD
ENDBRANCH   5  18
BRANCH   3  22
ATOM     22  C   LIG d   1      -7.131  91.351 115.610  0.00  0.00     0.382 C 
ATOM     23  O   LIG d   1      -7.560  90.175 115.540  0.00  0.00    -0.241 OA
ATOM     24  O   LIG d   1      -7.561  92.209 114.816  0.00  0.00    -0.241 OA
ENDBRANCH   3  22
TORSDOF 7
ENDMDL
MODEL 3
REMARK VINA RESULT:      -5.1      2.348      3.983
REMARK  7 active torsions:
REMARK  status: ('A' for Active; 'I' for Inactive)
REMARK    1  A    between atoms: C_2  and  C_3 
REMARK    2  A    between atoms: C_3  and  O_6 
REMARK    3  A    between atoms: C_3  and  C_4 
REMARK    4  A    between atoms: C_7  and  O_6 
REMARK    5  A    between atoms: C_9  and  C_10 
REMARK    6  A    between atoms: N_15  and  C_14 
REMARK    7  A    between atoms: N_20  and  C_19 
REMARK       I    between atoms: C_22  and  N_20 
ROOT
ATOM      1  C   LIG d   1      -4.534  92.787 118.821  0.00  0.00     0.161 C 
ATOM      2  C   LIG d   1      -5.773  93.447 118.863  0.00  0.00     0.016 C 
ATOM      3  C   LIG d   1      -6.788  93.257 117.897  0.00  0.00     0.038 C 
ATOM      4  C   LIG d   1      -6.690  92.274 116.901  0.00  0.00     0.028 C 
ATOM      5  C   LIG d   1      -5.251  91.940 116.520  0.00  0.00    -0.047 C 
ATOM      6  C   LIG d   1      -4.451  91.629 117.806  0.00  0.00     0.091 C 
ENDROOT
BRANCH   1   7
ATOM      7  O   LIG d   1      -4.183  92.323 120.140  0.00  0.00    -0.368 OA
BRANCH   7   8
ATOM      8  C   LIG d   1      -3.057  92.982 120.770  0.00  0.00     0.119 C 
BRANCH   8   9
ATOM      9  C   LIG d   1      -2.510  94.019 119.770  0.00  0.00     0.028 C 
ATOM     10  C   LIG d   1      -1.020  93.801 119.455  0.00  0.00     0.006 C 
ENDBRANCH   8   9
BRANCH   8  11
ATOM     11  C   LIG d   1      -1.903  92.004 121.012  0.00  0.00     0.028 C 
ATOM     12  C   LIG d   1      -2.377  90.646 121.555  0.00  0.00     0.006 C 
ENDBRANCH   8  11
ENDBRANCH   7   8
ENDBRANCH   1   7
BRANCH   6  13
ATOM     13  N   LIG d   1      -3.013  91.373 117.530  0.00  0.00    -0.311 N 
ATOM     14  C   LIG d   1      -2.398  90.235 117.845  0.00  0.00     0.210 C 
ATOM     15  C   LIG d   1      -0.908  90.187 117.492  0.00  0.00     0.109 C 
ATOM     16  O   LIG d   1      -2.951  89.249 118.354  0.00  0.00    -0.276 OA
ATOM     17  H   LIG d   1      -2.495  92.109 117.091  0.00  0.00     0.149 HD
ENDBRANCH   6  13
BRANCH   5  18
ATOM     18  N   LIG d   1      -5.292  90.807 115.576  0.00  0.00     0.381 N 
ATOM     19  H   LIG d   1      -5.200  91.144 114.638  0.00  0.00    -0.090 HD
ATOM     20  H   LIG d   1      -6.181  90.346 115.659  0.00  0.00    -0.090 HD
ATOM     21  H   LIG d   1      -4.557  90.166 115.780  0.00  0.00    -0.090 HD
ENDBRANCH   5  18
BRANCH   3  22
ATOM     22  C   LIG d   1      -7.901  94.085 117.898  0.00  0.00     0.382 C 
ATOM     23  O   LIG d   1      -7.769  95.313 118.117  0.00  0.00    -0.241 OA
ATOM     24  O   LIG d   1      -9.040  93.611 117.726  0.00  0.00    -0.241 OA
ENDBRANCH   3  22
TORSDOF 7
ENDMDL
MODEL 4
REMARK VINA RESULT:      -5.0      2.555      5.797
REMARK  7 active torsions:
REMARK  status: ('A' for Active; 'I' for Inactive)
REMARK    1  A    between atoms: C_2  and  C_3 
REMARK    2  A    between atoms: C_3  and  O_6 
REMARK    3  A    between atoms: C_3  and  C_4 
REMARK    4  A    between atoms: C_7  and  O_6 
REMARK    5  A    between atoms: C_9  and  C_10 
REMARK    6  A    between atoms: N_15  and  C_14 
REMARK    7  A    between atoms: N_20  and  C_19 
REMARK       I    between atoms: C_22  and  N_20 
ROOT
ATOM      1  C   LIG d   1      -0.882  91.222 117.101  0.00  0.00     0.161 C 
ATOM      2  C   LIG d   1       0.332  91.733 117.587  0.00  0.00     0.016 C 
ATOM      3  C   LIG d   1       0.454  93.004 118.193  0.00  0.00     0.038 C 
ATOM      4  C   LIG d   1      -0.666  93.794 118.492  0.00  0.00     0.028 C 
ATOM      5  C   LIG d   1      -1.850  93.540 117.565  0.00  0.00    -0.047 C 
ATOM      6  C   LIG d   1      -2.134  92.022 117.518  0.00  0.00     0.091 C 
ENDROOT
BRANCH   1   7
ATOM      7  O   LIG d   1      -1.020  89.839 117.486  0.00  0.00    -0.368 OA
BRANCH   7   8
ATOM      8  C   LIG d   1      -0.629  89.514 118.842  0.00  0.00     0.119 C 
BRANCH   8   9
ATOM      9  C   LIG d   1       0.223  88.231 118.783  0.00  0.00     0.028 C 
ATOM     10  C   LIG d   1       0.188  87.566 117.396  0.00  0.00     0.006 C 
ENDBRANCH   8   9
BRANCH   8  11
ATOM     11  C   LIG d   1      -1.845  89.154 119.701  0.00  0.00     0.028 C 
ATOM     12  C   LIG d   1      -3.060  88.726 118.864  0.00  0.00     0.006 C 
ENDBRANCH   8  11
ENDBRANCH   7   8
ENDBRANCH   1   7
BRANCH   6  13
ATOM     13  N   LIG d   1      -3.225  91.678 116.568  0.00  0.00    -0.311 N 
ATOM     14  C   LIG d   1      -4.508  91.613 116.918  0.00  0.00     0.210 C 
ATOM     15  C   LIG d   1      -5.467  91.222 115.789  0.00  0.00     0.109 C 
ATOM     16  O   LIG d   1      -4.947  91.873 118.049  0.00  0.00    -0.276 OA
ATOM     17  H   LIG d   1      -2.961  91.483 115.622  0.00  0.00     0.149 HD
ENDBRANCH   6  13
BRANCH   5  18
ATOM     18  N   LIG d   1      -2.990  94.326 118.073  0.00  0.00     0.381 N 
ATOM     19  H   LIG d   1      -2.819  95.302 117.932  0.00  0.00    -0.090 HD
ATOM     20  H   LIG d   1      -3.084  94.162 119.060  0.00  0.00    -0.090 HD
ATOM     21  H   LIG d   1      -3.827  94.057 117.604  0.00  0.00    -0.090 HD
ENDBRANCH   5  18
BRANCH   3  22
ATOM     22  C   LIG d   1       1.713  93.515 118.471  0.00  0.00     0.382 C 
ATOM     23  O   LIG d   1       2.718  93.070 117.866  0.00  0.00    -0.241 OA
ATOM     24  O   LIG d   1       1.862  94.385 119.350  0.00  0.00    -0.241 OA
ENDBRANCH   3  22
TORSDOF 7
ENDMDL
MODEL 5
REMARK VINA RESULT:      -5.0     13.210     15.243
REMARK  7 active torsions:
REMARK  status: ('A' for Active; 'I' for Inactive)
REMARK    1  A    between atoms: C_2  and  C_3 
REMARK    2  A    between atoms: C_3  and  O_6 
REMARK    3  A    between atoms: C_3  and  C_4 
REMARK    4  A    between atoms: C_7  and  O_6 
REMARK    5  A    between atoms: C_9  and  C_10 
REMARK    6  A    between atoms: N_15  and  C_14 
REMARK    7  A    between atoms: N_20  and  C_19 
REMARK       I    between atoms: C_22  and  N_20 
ROOT
ATOM      1  C   LIG d   1      -7.526  77.213 117.737  0.00  0.00     0.161 C 
ATOM      2  C   LIG d   1      -8.699  76.455 117.587  0.00  0.00     0.016 C 
ATOM      3  C   LIG d   1      -9.948  76.837 118.129  0.00  0.00     0.038 C 
ATOM      4  C   LIG d   1     -10.142  78.089 118.732  0.00  0.00     0.028 C 
ATOM      5  C   LIG d   1      -8.873  78.666 119.350  0.00  0.00    -0.047 C 
ATOM      6  C   LIG d   1      -7.742  78.634 118.297  0.00  0.00     0.091 C 
ENDROOT
BRANCH   1   7
ATOM      7  O   LIG d   1      -6.818  77.271 116.483  0.00  0.00    -0.368 OA
BRANCH   7   8
ATOM      8  C   LIG d   1      -5.710  76.350 116.333  0.00  0.00     0.119 C 
BRANCH   8   9
ATOM      9  C   LIG d   1      -4.413  77.139 116.598  0.00  0.00     0.028 C 
ATOM     10  C   LIG d   1      -3.753  76.753 117.933  0.00  0.00     0.006 C 
ENDBRANCH   8   9
BRANCH   8  11
ATOM     11  C   LIG d   1      -5.592  75.849 114.891  0.00  0.00     0.028 C 
ATOM     12  C   LIG d   1      -5.252  74.352 114.806  0.00  0.00     0.006 C 
ENDBRANCH   8  11
ENDBRANCH   7   8
ENDBRANCH   1   7
BRANCH   6  13
ATOM     13  N   LIG d   1      -6.443  79.104 118.845  0.00  0.00    -0.311 N 
ATOM     14  C   LIG d   1      -5.749  80.113 118.322  0.00  0.00     0.210 C 
ATOM     15  C   LIG d   1      -4.425  80.422 119.029  0.00  0.00     0.109 C 
ATOM     16  O   LIG d   1      -6.119  80.803 117.360  0.00  0.00    -0.276 OA
ATOM     17  H   LIG d   1      -6.084  78.621 119.645  0.00  0.00     0.149 HD
ENDBRANCH   6  13
BRANCH   5  18
ATOM     18  N   LIG d   1      -9.186  80.029 119.821  0.00  0.00     0.381 N 
ATOM     19  H   LIG d   1      -8.747  80.191 120.705  0.00  0.00    -0.090 HD
ATOM     20  H   LIG d   1     -10.180  80.109 119.944  0.00  0.00    -0.090 HD
ATOM     21  H   LIG d   1      -8.871  80.700 119.156  0.00  0.00    -0.090 HD
ENDBRANCH   5  18
BRANCH   3  22
ATOM     22  C   LIG d   1     -11.010  75.946 118.104  0.00  0.00     0.382 C 
ATOM     23  O   LIG d   1     -10.958  74.929 117.372  0.00  0.00    -0.241 OA
ATOM     24  O   LIG d   1     -12.038  76.170 118.771  0.00  0.00    -0.241 OA
ENDBRANCH   3  22
TORSDOF 7
ENDMDL
MODEL 6
REMARK VINA RESULT:      -4.9     12.405     14.572
REMARK  7 active torsions:
REMARK  status: ('A' for Active; 'I' for Inactive)
REMARK    1  A    between atoms: C_2  and  C_3 
REMARK    2  A    between atoms: C_3  and  O_6 
REMARK    3  A    between atoms: C_3  and  C_4 
REMARK    4  A    between atoms: C_7  and  O_6 
REMARK    5  A    between atoms: C_9  and  C_10 
REMARK    6  A    between atoms: N_15  and  C_14 
REMARK    7  A    between atoms: N_20  and  C_19 
REMARK       I    between atoms: C_22  and  N_20 
ROOT
ATOM      1  C   LIG d   1      -8.106  78.766 119.677  0.00  0.00     0.161 C 
ATOM      2  C   LIG d   1      -8.930  79.660 118.973  0.00  0.00     0.016 C 
ATOM      3  C   LIG d   1      -8.430  80.728 118.193  0.00  0.00     0.038 C 
ATOM      4  C   LIG d   1      -7.059  80.884 117.940  0.00  0.00     0.028 C 
ATOM      5  C   LIG d   1      -6.171  80.308 119.038  0.00  0.00    -0.047 C 
ATOM      6  C   LIG d   1      -6.607  78.852 119.323  0.00  0.00     0.091 C 
ENDROOT
BRANCH   1   7
ATOM      7  O   LIG d   1      -8.586  77.418 119.500  0.00  0.00    -0.368 OA
BRANCH   7   8
ATOM      8  C   LIG d   1      -9.265  77.142 118.251  0.00  0.00     0.119 C 
BRANCH   8   9
ATOM      9  C   LIG d   1     -10.664  76.594 118.595  0.00  0.00     0.028 C 
ATOM     10  C   LIG d   1     -11.061  75.402 117.710  0.00  0.00     0.006 C 
ENDBRANCH   8   9
BRANCH   8  11
ATOM     11  C   LIG d   1      -8.570  76.019 117.475  0.00  0.00     0.028 C 
ATOM     12  C   LIG d   1      -7.365  76.516 116.659  0.00  0.00     0.006 C 
ENDBRANCH   8  11
ENDBRANCH   7   8
ENDBRANCH   1   7
BRANCH   6  13
ATOM     13  N   LIG d   1      -5.844  78.242 120.444  0.00  0.00    -0.311 N 
ATOM     14  C   LIG d   1      -4.788  77.450 120.266  0.00  0.00     0.210 C 
ATOM     15  C   LIG d   1      -4.161  76.910 121.555  0.00  0.00     0.109 C 
ATOM     16  O   LIG d   1      -4.292  77.169 119.165  0.00  0.00    -0.276 OA
ATOM     17  H   LIG d   1      -6.160  78.442 121.372  0.00  0.00     0.149 HD
ENDBRANCH   6  13
BRANCH   5  18
ATOM     18  N   LIG d   1      -4.773  80.414 118.582  0.00  0.00     0.381 N 
ATOM     19  H   LIG d   1      -4.520  81.377 118.485  0.00  0.00    -0.090 HD
ATOM     20  H   LIG d   1      -4.690  79.974 117.682  0.00  0.00    -0.090 HD
ATOM     21  H   LIG d   1      -4.166  79.968 119.235  0.00  0.00    -0.090 HD
ENDBRANCH   5  18
BRANCH   3  22
ATOM     22  C   LIG d   1      -9.305  81.679 117.689  0.00  0.00     0.382 C 
ATOM     23  O   LIG d   1     -10.444  81.815 118.197  0.00  0.00    -0.241 OA
ATOM     24  O   LIG d   1      -8.986  82.372 116.705  0.00  0.00    -0.241 OA
ENDBRANCH   3  22
TORSDOF 7
ENDMDL
MODEL 7
REMARK VINA RESULT:      -4.9     13.089     15.171
REMARK  7 active torsions:
REMARK  status: ('A' for Active; 'I' for Inactive)
REMARK    1  A    between atoms: C_2  and  C_3 
REMARK    2  A    between atoms: C_3  and  O_6 
REMARK    3  A    between atoms: C_3  and  C_4 
REMARK    4  A    between atoms: C_7  and  O_6 
REMARK    5  A    between atoms: C_9  and  C_10 
REMARK    6  A    between atoms: N_15  and  C_14 
REMARK    7  A    between atoms: N_20  and  C_19 
REMARK       I    between atoms: C_22  and  N_20 
ROOT
ATOM      1  C   LIG d   1      -8.357  78.500 118.375  0.00  0.00     0.161 C 
ATOM      2  C   LIG d   1      -9.560  77.797 118.547  0.00  0.00     0.016 C 
ATOM      3  C   LIG d   1      -9.796  76.512 118.005  0.00  0.00     0.038 C 
ATOM      4  C   LIG d   1      -8.781  75.776 117.376  0.00  0.00     0.028 C 
ATOM      5  C   LIG d   1      -7.705  76.648 116.739  0.00  0.00    -0.047 C 
ATOM      6  C   LIG d   1      -7.199  77.666 117.787  0.00  0.00     0.091 C 
ENDROOT
BRANCH   1   7
ATOM      7  O   LIG d   1      -7.958  79.100 119.624  0.00  0.00    -0.368 OA
BRANCH   7   8
ATOM      8  C   LIG d   1      -8.090  80.540 119.710  0.00  0.00     0.119 C 
BRANCH   8   9
ATOM      9  C   LIG d   1      -9.206  80.843 120.729  0.00  0.00     0.028 C 
ATOM     10  C   LIG d   1     -10.441  81.484 120.073  0.00  0.00     0.006 C 
ENDBRANCH   8   9
BRANCH   8  11
ATOM     11  C   LIG d   1      -8.577  81.135 118.386  0.00  0.00     0.028 C 
ATOM     12  C   LIG d   1      -7.527  82.034 117.714  0.00  0.00     0.006 C 
ENDBRANCH   8  11
ENDBRANCH   7   8
ENDBRANCH   1   7
BRANCH   6  13
ATOM     13  N   LIG d   1      -6.204  78.614 117.222  0.00  0.00    -0.311 N 
ATOM     14  C   LIG d   1      -4.888  78.412 117.270  0.00  0.00     0.210 C 
ATOM     15  C   LIG d   1      -4.039  79.524 116.646  0.00  0.00     0.109 C 
ATOM     16  O   LIG d   1      -4.345  77.402 117.743  0.00  0.00    -0.276 OA
ATOM     17  H   LIG d   1      -6.559  79.446 116.792  0.00  0.00     0.149 HD
ENDBRANCH   6  13
BRANCH   5  18
ATOM     18  N   LIG d   1      -6.642  75.754 116.242  0.00  0.00     0.381 N 
ATOM     19  H   LIG d   1      -5.775  75.979 116.687  0.00  0.00    -0.090 HD
ATOM     20  H   LIG d   1      -6.535  75.895 115.253  0.00  0.00    -0.090 HD
ATOM     21  H   LIG d   1      -6.882  74.805 116.426  0.00  0.00    -0.090 HD
ENDBRANCH   5  18
BRANCH   3  22
ATOM     22  C   LIG d   1     -11.070  75.969 118.054  0.00  0.00     0.382 C 
ATOM     23  O   LIG d   1     -11.970  76.539 118.716  0.00  0.00    -0.241 OA
ATOM     24  O   LIG d   1     -11.320  74.891 117.481  0.00  0.00    -0.241 OA
ENDBRANCH   3  22
TORSDOF 7
ENDMDL
MODEL 8
REMARK VINA RESULT:      -4.8      3.121      6.484
REMARK  7 active torsions:
REMARK  status: ('A' for Active; 'I' for Inactive)
REMARK    1  A    between atoms: C_2  and  C_3 
REMARK    2  A    between atoms: C_3  and  O_6 
REMARK    3  A    between atoms: C_3  and  C_4 
REMARK    4  A    between atoms: C_7  and  O_6 
REMARK    5  A    between atoms: C_9  and  C_10 
REMARK    6  A    between atoms: N_15  and  C_14 
REMARK    7  A    between atoms: N_20  and  C_19 
REMARK       I    between atoms: C_22  and  N_20 
ROOT
ATOM      1  C   LIG d   1      -0.361  90.396 117.755  0.00  0.00     0.161 C 
ATOM      2  C   LIG d   1       1.022  90.544 117.952  0.00  0.00     0.016 C 
ATOM      3  C   LIG d   1       1.719  91.749 117.708  0.00  0.00     0.038 C 
ATOM      4  C   LIG d   1       1.050  92.941 117.392  0.00  0.00     0.028 C 
ATOM      5  C   LIG d   1      -0.286  92.719 116.691  0.00  0.00    -0.047 C 
ATOM      6  C   LIG d   1      -1.125  91.716 117.517  0.00  0.00     0.091 C 
ENDROOT
BRANCH   1   7
ATOM      7  O   LIG d   1      -0.939  89.676 118.862  0.00  0.00    -0.368 OA
BRANCH   7   8
ATOM      8  C   LIG d   1      -1.630  88.447 118.531  0.00  0.00     0.119 C 
BRANCH   8   9
ATOM      9  C   LIG d   1      -3.066  88.561 119.079  0.00  0.00     0.028 C 
ATOM     10  C   LIG d   1      -3.276  87.725 120.352  0.00  0.00     0.006 C 
ENDBRANCH   8   9
BRANCH   8  11
ATOM     11  C   LIG d   1      -1.014  87.247 119.256  0.00  0.00     0.028 C 
ATOM     12  C   LIG d   1       0.204  86.667 118.520  0.00  0.00     0.006 C 
ENDBRANCH   8  11
ENDBRANCH   7   8
ENDBRANCH   1   7
BRANCH   6  13
ATOM     13  N   LIG d   1      -2.413  91.378 116.859  0.00  0.00    -0.311 N 
ATOM     14  C   LIG d   1      -3.570  91.963 117.167  0.00  0.00     0.210 C 
ATOM     15  C   LIG d   1      -4.782  91.452 116.382  0.00  0.00     0.109 C 
ATOM     16  O   LIG d   1      -3.701  92.878 117.993  0.00  0.00    -0.276 OA
ATOM     17  H   LIG d   1      -2.393  90.667 116.154  0.00  0.00     0.149 HD
ENDBRANCH   6  13
BRANCH   5  18
ATOM     18  N   LIG d   1      -0.937  94.034 116.545  0.00  0.00     0.381 N 
ATOM     19  H   LIG d   1      -0.423  94.725 117.053  0.00  0.00    -0.090 HD
ATOM     20  H   LIG d   1      -1.864  93.983 116.932  0.00  0.00    -0.090 HD
ATOM     21  H   LIG d   1      -0.985  94.286 115.582  0.00  0.00    -0.090 HD
ENDBRANCH   5  18
BRANCH   3  22
ATOM     22  C   LIG d   1       3.105  91.761 117.740  0.00  0.00     0.382 C 
ATOM     23  O   LIG d   1       3.743  92.556 117.009  0.00  0.00    -0.241 OA
ATOM     24  O   LIG d   1       3.727  90.955 118.459  0.00  0.00    -0.241 OA
ENDBRANCH   3  22
TORSDOF 7
ENDMDL
MODEL 9
REMARK VINA RESULT:      -4.7     12.227     14.132
REMARK  7 active torsions:
REMARK  status: ('A' for Active; 'I' for Inactive)
REMARK    1  A    between atoms: C_2  and  C_3 
REMARK    2  A    between atoms: C_3  and  O_6 
REMARK    3  A    between atoms: C_3  and  C_4 
REMARK    4  A    between atoms: C_7  and  O_6 
REMARK    5  A    between atoms: C_9  and  C_10 
REMARK    6  A    between atoms: N_15  and  C_14 
REMARK    7  A    between atoms: N_20  and  C_19 
REMARK       I    between atoms: C_22  and  N_20 
ROOT
ATOM      1  C   LIG d   1      -9.332  79.677 119.205  0.00  0.00     0.161 C 
ATOM      2  C   LIG d   1     -10.242  78.644 118.925  0.00  0.00     0.016 C 
ATOM      3  C   LIG d   1      -9.856  77.296 118.738  0.00  0.00     0.038 C 
ATOM      4  C   LIG d   1      -8.543  76.863 118.969  0.00  0.00     0.028 C 
ATOM      5  C   LIG d   1      -7.499  77.954 118.760  0.00  0.00    -0.047 C 
ATOM      6  C   LIG d   1      -7.910  79.204 119.571  0.00  0.00     0.091 C 
ENDROOT
BRANCH   1   7
ATOM      7  O   LIG d   1      -9.861  80.525 120.244  0.00  0.00    -0.368 OA
BRANCH   7   8
ATOM      8  C   LIG d   1     -10.382  81.808 119.816  0.00  0.00     0.119 C 
BRANCH   8   9
ATOM      9  C   LIG d   1      -9.798  82.102 118.420  0.00  0.00     0.028 C 
ATOM     10  C   LIG d   1     -10.891  82.282 117.353  0.00  0.00     0.006 C 
ENDBRANCH   8   9
BRANCH   8  11
ATOM     11  C   LIG d   1      -9.878  82.942 120.713  0.00  0.00     0.028 C 
ATOM     12  C   LIG d   1      -8.856  83.849 120.010  0.00  0.00     0.006 C 
ENDBRANCH   8  11
ENDBRANCH   7   8
ENDBRANCH   1   7
BRANCH   6  13
ATOM     13  N   LIG d   1      -6.986  80.349 119.355  0.00  0.00    -0.311 N 
ATOM     14  C   LIG d   1      -6.439  81.046 120.349  0.00  0.00     0.210 C 
ATOM     15  C   LIG d   1      -5.532  82.199 119.907  0.00  0.00     0.109 C 
ATOM     16  O   LIG d   1      -6.593  80.799 121.555  0.00  0.00    -0.276 OA
ATOM     17  H   LIG d   1      -6.782  80.598 118.407  0.00  0.00     0.149 HD
ENDBRANCH   6  13
BRANCH   5  18
ATOM     18  N   LIG d   1      -6.192  77.405 119.167  0.00  0.00     0.381 N 
ATOM     19  H   LIG d   1      -5.781  77.990 119.867  0.00  0.00    -0.090 HD
ATOM     20  H   LIG d   1      -5.581  77.392 118.369  0.00  0.00    -0.090 HD
ATOM     21  H   LIG d   1      -6.306  76.481 119.521  0.00  0.00    -0.090 HD
ENDBRANCH   5  18
BRANCH   3  22
ATOM     22  C   LIG d   1     -10.783  76.374 118.276  0.00  0.00     0.382 C 
ATOM     23  O   LIG d   1     -12.000  76.520 118.545  0.00  0.00    -0.241 OA
ATOM     24  O   LIG d   1     -10.412  75.375 117.632  0.00  0.00    -0.241 OA
ENDBRANCH   3  22
TORSDOF 7
ENDMDL
