MODEL 1
REMARK VINA RESULT:      -5.8      0.000      0.000
REMARK  7 active torsions:
REMARK  status: ('A' for Active; 'I' for Inactive)
REMARK    1  A    between atoms: C_2  and  C_3 
REMARK    2  A    between atoms: C_3  and  O_6 
REMARK    3  A    between atoms: C_3  and  C_4 
REMARK    4  A    between atoms: C_7  and  O_6 
REMARK    5  A    between atoms: C_9  and  C_10 
REMARK    6  A    between atoms: N_15  and  C_14 
REMARK    7  A    between atoms: N_20  and  C_19 
REMARK       I    between atoms: C_22  and  N_20 
ROOT
ATOM      1  C   LIG d   1      -7.708  75.695 117.607  0.00  0.00     0.161 C 
ATOM      2  C   LIG d   1      -8.945  76.203 118.038  0.00  0.00     0.016 C 
ATOM      3  C   LIG d   1      -9.195  77.581 118.233  0.00  0.00     0.038 C 
ATOM      4  C   LIG d   1      -8.265  78.563 117.861  0.00  0.00     0.028 C 
ATOM      5  C   LIG d   1      -6.821  78.074 117.896  0.00  0.00    -0.047 C 
ATOM      6  C   LIG d   1      -6.717  76.759 117.090  0.00  0.00     0.091 C 
ENDROOT
BRANCH   1   7
ATOM      7  O   LIG d   1      -7.919  74.679 116.607  0.00  0.00    -0.368 OA
BRANCH   7   8
ATOM      8  C   LIG d   1      -8.035  73.319 117.093  0.00  0.00     0.119 C 
BRANCH   8   9
ATOM      9  C   LIG d   1      -6.965  72.477 116.372  0.00  0.00     0.028 C 
ATOM     10  C   LIG d   1      -6.227  73.273 115.283  0.00  0.00     0.006 C 
ENDBRANCH   8   9
BRANCH   8  11
ATOM     11  C   LIG d   1      -9.377  72.698 116.695  0.00  0.00     0.028 C 
ATOM     12  C   LIG d   1      -9.337  71.162 116.668  0.00  0.00     0.006 C 
ENDBRANCH   8  11
ENDBRANCH   7   8
ENDBRANCH   1   7
BRANCH   6  13
ATOM     13  N   LIG d   1      -5.354  76.167 117.144  0.00  0.00    -0.311 N 
ATOM     14  C   LIG d   1      -4.416  76.403 116.228  0.00  0.00     0.210 C 
ATOM     15  C   LIG d   1      -3.087  75.678 116.462  0.00  0.00     0.109 C 
ATOM     16  O   LIG d   1      -4.548  77.169 115.261  0.00  0.00    -0.276 OA
ATOM     17  H   LIG d   1      -5.151  75.558 117.912  0.00  0.00     0.149 HD
ENDBRANCH   6  13
BRANCH   5  18
ATOM     18  N   LIG d   1      -5.972  79.152 117.355  0.00  0.00     0.381 N 
ATOM     19  H   LIG d   1      -5.053  79.089 117.747  0.00  0.00    -0.090 HD
ATOM     20  H   LIG d   1      -6.366  80.038 117.617  0.00  0.00    -0.090 HD
ATOM     21  H   LIG d   1      -5.923  79.082 116.363  0.00  0.00    -0.090 HD
ENDBRANCH   5  18
BRANCH   3  22
ATOM     22  C   LIG d   1     -10.373  77.986 118.842  0.00  0.00     0.382 C 
ATOM     23  O   LIG d   1     -10.376  78.990 119.595  0.00  0.00    -0.241 OA
ATOM     24  O   LIG d   1     -11.423  77.334 118.683  0.00  0.00    -0.241 OA
ENDBRANCH   3  22
TORSDOF 7
ENDMDL
MODEL 2
REMARK VINA RESULT:      -5.4      2.134      5.365
REMARK  7 active torsions:
REMARK  status: ('A' for Active; 'I' for Inactive)
REMARK    1  A    between atoms: C_2  and  C_3 
REMARK    2  A    between atoms: C_3  and  O_6 
REMARK    3  A    between atoms: C_3  and  C_4 
REMARK    4  A    between atoms: C_7  and  O_6 
REMARK    5  A    between atoms: C_9  and  C_10 
REMARK    6  A    between atoms: N_15  and  C_14 
REMARK    7  A    between atoms: N_20  and  C_19 
REMARK       I    between atoms: C_22  and  N_20 
ROOT
ATOM      1  C   LIG d   1      -5.597  75.153 116.565  0.00  0.00     0.161 C 
ATOM      2  C   LIG d   1      -4.462  74.381 116.266  0.00  0.00     0.016 C 
ATOM      3  C   LIG d   1      -3.139  74.822 116.498  0.00  0.00     0.038 C 
ATOM      4  C   LIG d   1      -2.864  76.011 117.190  0.00  0.00     0.028 C 
ATOM      5  C   LIG d   1      -3.966  77.056 117.059  0.00  0.00    -0.047 C 
ATOM      6  C   LIG d   1      -5.320  76.406 117.422  0.00  0.00     0.091 C 
ENDROOT
BRANCH   1   7
ATOM      7  O   LIG d   1      -6.598  74.327 117.193  0.00  0.00    -0.368 OA
BRANCH   7   8
ATOM      8  C   LIG d   1      -7.614  73.779 116.318  0.00  0.00     0.119 C 
BRANCH   8   9
ATOM      9  C   LIG d   1      -8.953  73.826 117.078  0.00  0.00     0.028 C 
ATOM     10  C   LIG d   1      -9.307  75.244 117.557  0.00  0.00     0.006 C 
ENDBRANCH   8   9
BRANCH   8  11
ATOM     11  C   LIG d   1      -7.361  72.296 116.031  0.00  0.00     0.028 C 
ATOM     12  C   LIG d   1      -8.593  71.419 116.303  0.00  0.00     0.006 C 
ENDBRANCH   8  11
ENDBRANCH   7   8
ENDBRANCH   1   7
BRANCH   6  13
ATOM     13  N   LIG d   1      -6.464  77.338 117.239  0.00  0.00    -0.311 N 
ATOM     14  C   LIG d   1      -6.975  78.074 118.224  0.00  0.00     0.210 C 
ATOM     15  C   LIG d   1      -8.164  78.953 117.825  0.00  0.00     0.109 C 
ATOM     16  O   LIG d   1      -6.536  78.106 119.384  0.00  0.00    -0.276 OA
ATOM     17  H   LIG d   1      -6.861  77.397 116.322  0.00  0.00     0.149 HD
ENDBRANCH   6  13
BRANCH   5  18
ATOM     18  N   LIG d   1      -3.614  78.188 117.938  0.00  0.00     0.381 N 
ATOM     19  H   LIG d   1      -2.767  78.614 117.619  0.00  0.00    -0.090 HD
ATOM     20  H   LIG d   1      -3.461  77.841 118.869  0.00  0.00    -0.090 HD
ATOM     21  H   LIG d   1      -4.351  78.858 117.943  0.00  0.00    -0.090 HD
ENDBRANCH   5  18
BRANCH   3  22
ATOM     22  C   LIG d   1      -2.073  74.087 116.001  0.00  0.00     0.382 C 
ATOM     23  O   LIG d   1      -1.470  73.276 116.744  0.00  0.00    -0.241 OA
ATOM     24  O   LIG d   1      -1.678  74.259 114.832  0.00  0.00    -0.241 OA
ENDBRANCH   3  22
TORSDOF 7
ENDMDL
MODEL 3
REMARK VINA RESULT:      -5.4      1.908      5.086
REMARK  7 active torsions:
REMARK  status: ('A' for Active; 'I' for Inactive)
REMARK    1  A    between atoms: C_2  and  C_3 
REMARK    2  A    between atoms: C_3  and  O_6 
REMARK    3  A    between atoms: C_3  and  C_4 
REMARK    4  A    between atoms: C_7  and  O_6 
REMARK    5  A    between atoms: C_9  and  C_10 
REMARK    6  A    between atoms: N_15  and  C_14 
REMARK    7  A    between atoms: N_20  and  C_19 
REMARK       I    between atoms: C_22  and  N_20 
ROOT
ATOM      1  C   LIG d   1      -7.959  75.710 117.161  0.00  0.00     0.161 C 
ATOM      2  C   LIG d   1      -8.553  74.440 117.065  0.00  0.00     0.016 C 
ATOM      3  C   LIG d   1      -7.836  73.269 116.728  0.00  0.00     0.038 C 
ATOM      4  C   LIG d   1      -6.438  73.264 116.611  0.00  0.00     0.028 C 
ATOM      5  C   LIG d   1      -5.859  74.614 116.203  0.00  0.00    -0.047 C 
ATOM      6  C   LIG d   1      -6.416  75.705 117.146  0.00  0.00     0.091 C 
ENDROOT
BRANCH   1   7
ATOM      7  O   LIG d   1      -8.447  76.389 118.334  0.00  0.00    -0.368 OA
BRANCH   7   8
ATOM      8  C   LIG d   1      -9.346  77.501 118.100  0.00  0.00     0.119 C 
BRANCH   8   9
ATOM      9  C   LIG d   1      -8.713  78.752 118.739  0.00  0.00     0.028 C 
ATOM     10  C   LIG d   1      -8.530  79.898 117.731  0.00  0.00     0.006 C 
ENDBRANCH   8   9
BRANCH   8  11
ATOM     11  C   LIG d   1     -10.679  77.304 118.828  0.00  0.00     0.028 C 
ATOM     12  C   LIG d   1     -10.851  78.254 120.023  0.00  0.00     0.006 C 
ENDBRANCH   8  11
ENDBRANCH   7   8
ENDBRANCH   1   7
BRANCH   6  13
ATOM     13  N   LIG d   1      -5.966  77.069 116.765  0.00  0.00    -0.311 N 
ATOM     14  C   LIG d   1      -5.252  77.856 117.567  0.00  0.00     0.210 C 
ATOM     15  C   LIG d   1      -4.909  79.231 116.985  0.00  0.00     0.109 C 
ATOM     16  O   LIG d   1      -4.842  77.534 118.692  0.00  0.00    -0.276 OA
ATOM     17  H   LIG d   1      -6.228  77.398 115.856  0.00  0.00     0.149 HD
ENDBRANCH   6  13
BRANCH   5  18
ATOM     18  N   LIG d   1      -4.389  74.503 116.254  0.00  0.00     0.381 N 
ATOM     19  H   LIG d   1      -3.985  75.408 116.388  0.00  0.00    -0.090 HD
ATOM     20  H   LIG d   1      -4.060  74.137 115.378  0.00  0.00    -0.090 HD
ATOM     21  H   LIG d   1      -4.118  73.897 116.998  0.00  0.00    -0.090 HD
ENDBRANCH   5  18
BRANCH   3  22
ATOM     22  C   LIG d   1      -8.523  72.094 116.464  0.00  0.00     0.382 C 
ATOM     23  O   LIG d   1      -9.712  72.139 116.066  0.00  0.00    -0.241 OA
ATOM     24  O   LIG d   1      -7.984  70.989 116.662  0.00  0.00    -0.241 OA
ENDBRANCH   3  22
TORSDOF 7
ENDMDL
MODEL 4
REMARK VINA RESULT:      -5.2     14.426     16.778
REMARK  7 active torsions:
REMARK  status: ('A' for Active; 'I' for Inactive)
REMARK    1  A    between atoms: C_2  and  C_3 
REMARK    2  A    between atoms: C_3  and  O_6 
REMARK    3  A    between atoms: C_3  and  C_4 
REMARK    4  A    between atoms: C_7  and  O_6 
REMARK    5  A    between atoms: C_9  and  C_10 
REMARK    6  A    between atoms: N_15  and  C_14 
REMARK    7  A    between atoms: N_20  and  C_19 
REMARK       I    between atoms: C_22  and  N_20 
ROOT
ATOM      1  C   LIG d   1      -4.185  91.525 117.776  0.00  0.00     0.161 C 
ATOM      2  C   LIG d   1      -4.874  90.948 116.696  0.00  0.00     0.016 C 
ATOM      3  C   LIG d   1      -6.163  91.360 116.285  0.00  0.00     0.038 C 
ATOM      4  C   LIG d   1      -6.791  92.487 116.837  0.00  0.00     0.028 C 
ATOM      5  C   LIG d   1      -6.352  92.787 118.266  0.00  0.00    -0.047 C 
ATOM      6  C   LIG d   1      -4.808  92.828 118.318  0.00  0.00     0.091 C 
ENDROOT
BRANCH   1   7
ATOM      7  O   LIG d   1      -2.806  91.740 117.416  0.00  0.00    -0.368 OA
BRANCH   7   8
ATOM      8  C   LIG d   1      -1.879  90.691 117.790  0.00  0.00     0.119 C 
BRANCH   8   9
ATOM      9  C   LIG d   1      -2.420  90.030 119.072  0.00  0.00     0.028 C 
ATOM     10  C   LIG d   1      -2.431  88.495 118.982  0.00  0.00     0.006 C 
ENDBRANCH   8   9
BRANCH   8  11
ATOM     11  C   LIG d   1      -0.513  91.266 118.175  0.00  0.00     0.028 C 
ATOM     12  C   LIG d   1      -0.407  91.598 119.672  0.00  0.00     0.006 C 
ENDBRANCH   8  11
ENDBRANCH   7   8
ENDBRANCH   1   7
BRANCH   6  13
ATOM     13  N   LIG d   1      -4.293  93.033 119.697  0.00  0.00    -0.311 N 
ATOM     14  C   LIG d   1      -3.316  93.888 119.995  0.00  0.00     0.210 C 
ATOM     15  C   LIG d   1      -2.923  93.930 121.475  0.00  0.00     0.109 C 
ATOM     16  O   LIG d   1      -2.760  94.639 119.180  0.00  0.00    -0.276 OA
ATOM     17  H   LIG d   1      -4.709  92.486 120.425  0.00  0.00     0.149 HD
ENDBRANCH   6  13
BRANCH   5  18
ATOM     18  N   LIG d   1      -6.979  94.061 118.666  0.00  0.00     0.381 N 
ATOM     19  H   LIG d   1      -7.898  93.889 119.023  0.00  0.00    -0.090 HD
ATOM     20  H   LIG d   1      -7.059  94.652 117.858  0.00  0.00    -0.090 HD
ATOM     21  H   LIG d   1      -6.424  94.510 119.361  0.00  0.00    -0.090 HD
ENDBRANCH   5  18
BRANCH   3  22
ATOM     22  C   LIG d   1      -6.853  90.618 115.340  0.00  0.00     0.382 C 
ATOM     23  O   LIG d   1      -8.001  90.973 114.979  0.00  0.00    -0.241 OA
ATOM     24  O   LIG d   1      -6.361  89.572 114.875  0.00  0.00    -0.241 OA
ENDBRANCH   3  22
TORSDOF 7
ENDMDL
MODEL 5
REMARK VINA RESULT:      -5.2     15.060     17.612
REMARK  7 active torsions:
REMARK  status: ('A' for Active; 'I' for Inactive)
REMARK    1  A    between atoms: C_2  and  C_3 
REMARK    2  A    between atoms: C_3  and  O_6 
REMARK    3  A    between atoms: C_3  and  C_4 
REMARK    4  A    between atoms: C_7  and  O_6 
REMARK    5  A    between atoms: C_9  and  C_10 
REMARK    6  A    between atoms: N_15  and  C_14 
REMARK    7  A    between atoms: N_20  and  C_19 
REMARK       I    between atoms: C_22  and  N_20 
ROOT
ATOM      1  C   LIG d   1      -5.152  92.201 118.067  0.00  0.00     0.161 C 
ATOM      2  C   LIG d   1      -5.288  91.313 116.987  0.00  0.00     0.016 C 
ATOM      3  C   LIG d   1      -6.436  91.259 116.164  0.00  0.00     0.038 C 
ATOM      4  C   LIG d   1      -7.471  92.199 116.272  0.00  0.00     0.028 C 
ATOM      5  C   LIG d   1      -7.605  92.794 117.670  0.00  0.00    -0.047 C 
ATOM      6  C   LIG d   1      -6.223  93.310 118.131  0.00  0.00     0.091 C 
ENDROOT
BRANCH   1   7
ATOM      7  O   LIG d   1      -3.832  92.780 118.059  0.00  0.00    -0.368 OA
BRANCH   7   8
ATOM      8  C   LIG d   1      -2.732  91.863 118.284  0.00  0.00     0.119 C 
BRANCH   8   9
ATOM      9  C   LIG d   1      -2.780  91.437 119.764  0.00  0.00     0.028 C 
ATOM     10  C   LIG d   1      -2.680  92.635 120.723  0.00  0.00     0.006 C 
ENDBRANCH   8   9
BRANCH   8  11
ATOM     11  C   LIG d   1      -1.380  92.561 118.106  0.00  0.00     0.028 C 
ATOM     12  C   LIG d   1      -1.511  93.973 117.515  0.00  0.00     0.006 C 
ENDBRANCH   8  11
ENDBRANCH   7   8
ENDBRANCH   1   7
BRANCH   6  13
ATOM     13  N   LIG d   1      -6.248  93.831 119.523  0.00  0.00    -0.311 N 
ATOM     14  C   LIG d   1      -6.454  95.112 119.822  0.00  0.00     0.210 C 
ATOM     15  C   LIG d   1      -6.420  95.440 121.318  0.00  0.00     0.109 C 
ATOM     16  O   LIG d   1      -6.694  96.002 118.993  0.00  0.00    -0.276 OA
ATOM     17  H   LIG d   1      -6.093  93.171 120.260  0.00  0.00     0.149 HD
ENDBRANCH   6  13
BRANCH   5  18
ATOM     18  N   LIG d   1      -8.627  93.856 117.607  0.00  0.00     0.381 N 
ATOM     19  H   LIG d   1      -8.207  94.742 117.803  0.00  0.00    -0.090 HD
ATOM     20  H   LIG d   1      -9.326  93.676 118.306  0.00  0.00    -0.090 HD
ATOM     21  H   LIG d   1      -9.047  93.871 116.704  0.00  0.00    -0.090 HD
ENDBRANCH   5  18
BRANCH   3  22
ATOM     22  C   LIG d   1      -6.575  90.229 115.245  0.00  0.00     0.382 C 
ATOM     23  O   LIG d   1      -7.712  89.928 114.808  0.00  0.00    -0.241 OA
ATOM     24  O   LIG d   1      -5.584  89.569 114.881  0.00  0.00    -0.241 OA
ENDBRANCH   3  22
TORSDOF 7
ENDMDL
MODEL 6
REMARK VINA RESULT:      -5.0     15.311     18.121
REMARK  7 active torsions:
REMARK  status: ('A' for Active; 'I' for Inactive)
REMARK    1  A    between atoms: C_2  and  C_3 
REMARK    2  A    between atoms: C_3  and  O_6 
REMARK    3  A    between atoms: C_3  and  C_4 
REMARK    4  A    between atoms: C_7  and  O_6 
REMARK    5  A    between atoms: C_9  and  C_10 
REMARK    6  A    between atoms: N_15  and  C_14 
REMARK    7  A    between atoms: N_20  and  C_19 
REMARK       I    between atoms: C_22  and  N_20 
ROOT
ATOM      1  C   LIG d   1      -5.836  93.258 118.359  0.00  0.00     0.161 C 
ATOM      2  C   LIG d   1      -6.613  92.527 117.444  0.00  0.00     0.016 C 
ATOM      3  C   LIG d   1      -6.088  91.508 116.618  0.00  0.00     0.038 C 
ATOM      4  C   LIG d   1      -4.772  91.043 116.759  0.00  0.00     0.028 C 
ATOM      5  C   LIG d   1      -3.815  92.092 117.316  0.00  0.00    -0.047 C 
ATOM      6  C   LIG d   1      -4.423  92.690 118.606  0.00  0.00     0.091 C 
ENDROOT
BRANCH   1   7
ATOM      7  O   LIG d   1      -6.547  93.393 119.605  0.00  0.00    -0.368 OA
BRANCH   7   8
ATOM      8  C   LIG d   1      -7.132  94.692 119.868  0.00  0.00     0.119 C 
BRANCH   8   9
ATOM      9  C   LIG d   1      -7.194  95.451 118.528  0.00  0.00     0.028 C 
ATOM     10  C   LIG d   1      -8.638  95.737 118.082  0.00  0.00     0.006 C 
ENDBRANCH   8   9
BRANCH   8  11
ATOM     11  C   LIG d   1      -6.230  95.537 120.771  0.00  0.00     0.028 C 
ATOM     12  C   LIG d   1      -5.528  96.676 120.015  0.00  0.00     0.006 C 
ENDBRANCH   8  11
ENDBRANCH   7   8
ENDBRANCH   1   7
BRANCH   6  13
ATOM     13  N   LIG d   1      -3.591  93.784 119.170  0.00  0.00    -0.311 N 
ATOM     14  C   LIG d   1      -3.013  93.722 120.369  0.00  0.00     0.210 C 
ATOM     15  C   LIG d   1      -2.215  94.967 120.767  0.00  0.00     0.109 C 
ATOM     16  O   LIG d   1      -3.059  92.741 121.126  0.00  0.00    -0.276 OA
ATOM     17  H   LIG d   1      -3.475  94.605 118.609  0.00  0.00     0.149 HD
ENDBRANCH   6  13
BRANCH   5  18
ATOM     18  N   LIG d   1      -2.514  91.434 117.541  0.00  0.00     0.381 N 
ATOM     19  H   LIG d   1      -2.156  91.087 116.674  0.00  0.00    -0.090 HD
ATOM     20  H   LIG d   1      -2.647  90.656 118.163  0.00  0.00    -0.090 HD
ATOM     21  H   LIG d   1      -1.870  92.081 117.940  0.00  0.00    -0.090 HD
ENDBRANCH   5  18
BRANCH   3  22
ATOM     22  C   LIG d   1      -6.872  90.969 115.609  0.00  0.00     0.382 C 
ATOM     23  O   LIG d   1      -7.770  91.662 115.075  0.00  0.00    -0.241 OA
ATOM     24  O   LIG d   1      -6.721  89.783 115.257  0.00  0.00    -0.241 OA
ENDBRANCH   3  22
TORSDOF 7
ENDMDL
MODEL 7
REMARK VINA RESULT:      -4.9      2.505      6.925
REMARK  7 active torsions:
REMARK  status: ('A' for Active; 'I' for Inactive)
REMARK    1  A    between atoms: C_2  and  C_3 
REMARK    2  A    between atoms: C_3  and  O_6 
REMARK    3  A    between atoms: C_3  and  C_4 
REMARK    4  A    between atoms: C_7  and  O_6 
REMARK    5  A    between atoms: C_9  and  C_10 
REMARK    6  A    between atoms: N_15  and  C_14 
REMARK    7  A    between atoms: N_20  and  C_19 
REMARK       I    between atoms: C_22  and  N_20 
ROOT
ATOM      1  C   LIG d   1      -7.327  78.516 117.804  0.00  0.00     0.161 C 
ATOM      2  C   LIG d   1      -6.314  78.038 116.954  0.00  0.00     0.016 C 
ATOM      3  C   LIG d   1      -6.290  76.723 116.436  0.00  0.00     0.038 C 
ATOM      4  C   LIG d   1      -7.362  75.837 116.612  0.00  0.00     0.028 C 
ATOM      5  C   LIG d   1      -8.168  76.104 117.879  0.00  0.00    -0.047 C 
ATOM      6  C   LIG d   1      -8.562  77.598 117.917  0.00  0.00     0.091 C 
ENDROOT
BRANCH   1   7
ATOM      7  O   LIG d   1      -7.722  79.840 117.397  0.00  0.00    -0.368 OA
BRANCH   7   8
ATOM      8  C   LIG d   1      -7.696  80.858 118.427  0.00  0.00     0.119 C 
BRANCH   8   9
ATOM      9  C   LIG d   1      -9.125  81.421 118.557  0.00  0.00     0.028 C 
ATOM     10  C   LIG d   1      -9.959  81.205 117.284  0.00  0.00     0.006 C 
ENDBRANCH   8   9
BRANCH   8  11
ATOM     11  C   LIG d   1      -6.827  82.049 118.013  0.00  0.00     0.028 C 
ATOM     12  C   LIG d   1      -6.488  82.977 119.190  0.00  0.00     0.006 C 
ENDBRANCH   8  11
ENDBRANCH   7   8
ENDBRANCH   1   7
BRANCH   6  13
ATOM     13  N   LIG d   1      -9.281  77.963 119.165  0.00  0.00    -0.311 N 
ATOM     14  C   LIG d   1     -10.598  77.838 119.316  0.00  0.00     0.210 C 
ATOM     15  C   LIG d   1     -11.139  78.291 120.676  0.00  0.00     0.109 C 
ATOM     16  O   LIG d   1     -11.366  77.364 118.465  0.00  0.00    -0.276 OA
ATOM     17  H   LIG d   1      -8.731  78.326 119.919  0.00  0.00     0.149 HD
ENDBRANCH   6  13
BRANCH   5  18
ATOM     18  N   LIG d   1      -9.333  75.199 117.866  0.00  0.00     0.381 N 
ATOM     19  H   LIG d   1      -9.889  75.374 117.052  0.00  0.00    -0.090 HD
ATOM     20  H   LIG d   1      -9.895  75.382 118.678  0.00  0.00    -0.090 HD
ATOM     21  H   LIG d   1      -9.028  74.250 117.870  0.00  0.00    -0.090 HD
ENDBRANCH   5  18
BRANCH   3  22
ATOM     22  C   LIG d   1      -5.164  76.270 115.766  0.00  0.00     0.382 C 
ATOM     23  O   LIG d   1      -4.425  77.083 115.159  0.00  0.00    -0.241 OA
ATOM     24  O   LIG d   1      -4.901  75.053 115.722  0.00  0.00    -0.241 OA
ENDBRANCH   3  22
TORSDOF 7
ENDMDL
MODEL 8
REMARK VINA RESULT:      -4.8      2.145      5.117
REMARK  7 active torsions:
REMARK  status: ('A' for Active; 'I' for Inactive)
REMARK    1  A    between atoms: C_2  and  C_3 
REMARK    2  A    between atoms: C_3  and  O_6 
REMARK    3  A    between atoms: C_3  and  C_4 
REMARK    4  A    between atoms: C_7  and  O_6 
REMARK    5  A    between atoms: C_9  and  C_10 
REMARK    6  A    between atoms: N_15  and  C_14 
REMARK    7  A    between atoms: N_20  and  C_19 
REMARK       I    between atoms: C_22  and  N_20 
ROOT
ATOM      1  C   LIG d   1      -6.466  77.528 117.133  0.00  0.00     0.161 C 
ATOM      2  C   LIG d   1      -5.198  77.767 116.576  0.00  0.00     0.016 C 
ATOM      3  C   LIG d   1      -4.512  78.996 116.704  0.00  0.00     0.038 C 
ATOM      4  C   LIG d   1      -4.983  80.026 117.532  0.00  0.00     0.028 C 
ATOM      5  C   LIG d   1      -6.498  80.018 117.706  0.00  0.00    -0.047 C 
ATOM      6  C   LIG d   1      -6.946  78.601 118.132  0.00  0.00     0.091 C 
ENDROOT
BRANCH   1   7
ATOM      7  O   LIG d   1      -6.491  76.224 117.747  0.00  0.00    -0.368 OA
BRANCH   7   8
ATOM      8  C   LIG d   1      -7.153  75.178 116.995  0.00  0.00     0.119 C 
BRANCH   8   9
ATOM      9  C   LIG d   1      -8.441  74.805 117.755  0.00  0.00     0.028 C 
ATOM     10  C   LIG d   1      -9.711  75.255 117.013  0.00  0.00     0.006 C 
ENDBRANCH   8   9
BRANCH   8  11
ATOM     11  C   LIG d   1      -6.314  73.897 116.966  0.00  0.00     0.028 C 
ATOM     12  C   LIG d   1      -6.928  72.803 116.077  0.00  0.00     0.006 C 
ENDBRANCH   8  11
ENDBRANCH   7   8
ENDBRANCH   1   7
BRANCH   6  13
ATOM     13  N   LIG d   1      -8.424  78.483 118.243  0.00  0.00    -0.311 N 
ATOM     14  C   LIG d   1      -9.057  78.260 119.393  0.00  0.00     0.210 C 
ATOM     15  C   LIG d   1     -10.581  78.153 119.281  0.00  0.00     0.109 C 
ATOM     16  O   LIG d   1      -8.504  78.172 120.499  0.00  0.00    -0.276 OA
ATOM     17  H   LIG d   1      -8.953  78.573 117.398  0.00  0.00     0.149 HD
ENDBRANCH   6  13
BRANCH   5  18
ATOM     18  N   LIG d   1      -6.838  81.055 118.698  0.00  0.00     0.381 N 
ATOM     19  H   LIG d   1      -6.219  80.991 119.481  0.00  0.00    -0.090 HD
ATOM     20  H   LIG d   1      -7.776  80.898 119.024  0.00  0.00    -0.090 HD
ATOM     21  H   LIG d   1      -6.770  81.958 118.284  0.00  0.00    -0.090 HD
ENDBRANCH   5  18
BRANCH   3  22
ATOM     22  C   LIG d   1      -3.358  79.219 115.967  0.00  0.00     0.382 C 
ATOM     23  O   LIG d   1      -3.437  79.684 114.805  0.00  0.00    -0.241 OA
ATOM     24  O   LIG d   1      -2.243  78.919 116.434  0.00  0.00    -0.241 OA
ENDBRANCH   3  22
TORSDOF 7
ENDMDL
MODEL 9
REMARK VINA RESULT:      -4.7      2.298      5.270
REMARK  7 active torsions:
REMARK  status: ('A' for Active; 'I' for Inactive)
REMARK    1  A    between atoms: C_2  and  C_3 
REMARK    2  A    between atoms: C_3  and  O_6 
REMARK    3  A    between atoms: C_3  and  C_4 
REMARK    4  A    between atoms: C_7  and  O_6 
REMARK    5  A    between atoms: C_9  and  C_10 
REMARK    6  A    between atoms: N_15  and  C_14 
REMARK    7  A    between atoms: N_20  and  C_19 
REMARK       I    between atoms: C_22  and  N_20 
ROOT
ATOM      1  C   LIG d   1      -6.154  76.439 115.887  0.00  0.00     0.161 C 
ATOM      2  C   LIG d   1      -6.966  75.296 115.977  0.00  0.00     0.016 C 
ATOM      3  C   LIG d   1      -6.457  73.997 116.204  0.00  0.00     0.038 C 
ATOM      4  C   LIG d   1      -5.106  73.772 116.508  0.00  0.00     0.028 C 
ATOM      5  C   LIG d   1      -4.171  74.829 115.930  0.00  0.00    -0.047 C 
ATOM      6  C   LIG d   1      -4.690  76.230 116.327  0.00  0.00     0.091 C 
ENDROOT
BRANCH   1   7
ATOM      7  O   LIG d   1      -6.750  77.521 116.630  0.00  0.00    -0.368 OA
BRANCH   7   8
ATOM      8  C   LIG d   1      -6.563  77.488 118.066  0.00  0.00     0.119 C 
BRANCH   8   9
ATOM      9  C   LIG d   1      -7.938  77.218 118.707  0.00  0.00     0.028 C 
ATOM     10  C   LIG d   1      -9.069  78.001 118.019  0.00  0.00     0.006 C 
ENDBRANCH   8   9
BRANCH   8  11
ATOM     11  C   LIG d   1      -6.126  78.854 118.604  0.00  0.00     0.028 C 
ATOM     12  C   LIG d   1      -5.851  79.873 117.487  0.00  0.00     0.006 C 
ENDBRANCH   8  11
ENDBRANCH   7   8
ENDBRANCH   1   7
BRANCH   6  13
ATOM     13  N   LIG d   1      -3.880  77.324 115.732  0.00  0.00    -0.311 N 
ATOM     14  C   LIG d   1      -2.905  77.953 116.385  0.00  0.00     0.210 C 
ATOM     15  C   LIG d   1      -2.209  79.065 115.594  0.00  0.00     0.109 C 
ATOM     16  O   LIG d   1      -2.528  77.675 117.533  0.00  0.00    -0.276 OA
ATOM     17  H   LIG d   1      -4.098  77.593 114.792  0.00  0.00     0.149 HD
ENDBRANCH   6  13
BRANCH   5  18
ATOM     18  N   LIG d   1      -2.814  74.550 116.438  0.00  0.00     0.381 N 
ATOM     19  H   LIG d   1      -2.201  75.303 116.197  0.00  0.00    -0.090 HD
ATOM     20  H   LIG d   1      -2.470  73.712 116.002  0.00  0.00    -0.090 HD
ATOM     21  H   LIG d   1      -2.838  74.434 117.427  0.00  0.00    -0.090 HD
ENDBRANCH   5  18
BRANCH   3  22
ATOM     22  C   LIG d   1      -7.297  72.900 116.087  0.00  0.00     0.382 C 
ATOM     23  O   LIG d   1      -8.462  72.951 116.548  0.00  0.00    -0.241 OA
ATOM     24  O   LIG d   1      -6.889  71.844 115.566  0.00  0.00    -0.241 OA
ENDBRANCH   3  22
TORSDOF 7
ENDMDL
