MODEL 1
REMARK VINA RESULT:      -4.8      0.000      0.000
REMARK  7 active torsions:
REMARK  status: ('A' for Active; 'I' for Inactive)
REMARK    1  A    between atoms: C_2  and  C_3 
REMARK    2  A    between atoms: C_3  and  O_6 
REMARK    3  A    between atoms: C_3  and  C_4 
REMARK    4  A    between atoms: C_7  and  O_6 
REMARK    5  A    between atoms: C_9  and  C_10 
REMARK    6  A    between atoms: N_15  and  C_14 
REMARK    7  A    between atoms: N_20  and  C_19 
REMARK       I    between atoms: C_22  and  N_20 
ROOT
ATOM      1  C   LIG d   1      -5.923  76.928 116.826  0.00  0.00     0.161 C 
ATOM      2  C   LIG d   1      -7.283  76.707 117.098  0.00  0.00     0.016 C 
ATOM      3  C   LIG d   1      -8.102  77.638 117.779  0.00  0.00     0.038 C 
ATOM      4  C   LIG d   1      -7.649  78.925 118.103  0.00  0.00     0.028 C 
ATOM      5  C   LIG d   1      -6.139  79.006 118.298  0.00  0.00    -0.047 C 
ATOM      6  C   LIG d   1      -5.440  78.373 117.073  0.00  0.00     0.091 C 
ENDROOT
BRANCH   1   7
ATOM      7  O   LIG d   1      -5.623  76.524 115.475  0.00  0.00    -0.368 OA
BRANCH   7   8
ATOM      8  C   LIG d   1      -4.805  75.337 115.332  0.00  0.00     0.119 C 
BRANCH   8   9
ATOM      9  C   LIG d   1      -5.714  74.209 114.805  0.00  0.00     0.028 C 
ATOM     10  C   LIG d   1      -6.227  73.295 115.930  0.00  0.00     0.006 C 
ENDBRANCH   8   9
BRANCH   8  11
ATOM     11  C   LIG d   1      -4.294  74.845 116.689  0.00  0.00     0.028 C 
ATOM     12  C   LIG d   1      -2.763  74.897 116.804  0.00  0.00     0.006 C 
ENDBRANCH   8  11
ENDBRANCH   7   8
ENDBRANCH   1   7
BRANCH   6  13
ATOM     13  N   LIG d   1      -3.962  78.334 117.221  0.00  0.00    -0.311 N 
ATOM     14  C   LIG d   1      -3.120  78.767 116.284  0.00  0.00     0.210 C 
ATOM     15  C   LIG d   1      -1.635  78.618 116.630  0.00  0.00     0.109 C 
ATOM     16  O   LIG d   1      -3.462  79.290 115.212  0.00  0.00    -0.276 OA
ATOM     17  H   LIG d   1      -3.599  77.954 118.072  0.00  0.00     0.149 HD
ENDBRANCH   6  13
BRANCH   5  18
ATOM     18  N   LIG d   1      -5.790  80.425 118.494  0.00  0.00     0.381 N 
ATOM     19  H   LIG d   1      -5.416  80.559 119.412  0.00  0.00    -0.090 HD
ATOM     20  H   LIG d   1      -6.623  80.980 118.408  0.00  0.00    -0.090 HD
ATOM     21  H   LIG d   1      -5.122  80.709 117.811  0.00  0.00    -0.090 HD
ENDBRANCH   5  18
BRANCH   3  22
ATOM     22  C   LIG d   1      -9.377  77.268 118.178  0.00  0.00     0.382 C 
ATOM     23  O   LIG d   1      -9.724  76.063 118.132  0.00  0.00    -0.241 OA
ATOM     24  O   LIG d   1     -10.200  78.129 118.543  0.00  0.00    -0.241 OA
ENDBRANCH   3  22
TORSDOF 7
ENDMDL
MODEL 2
REMARK VINA RESULT:      -4.8      0.448      1.711
REMARK  7 active torsions:
REMARK  status: ('A' for Active; 'I' for Inactive)
REMARK    1  A    between atoms: C_2  and  C_3 
REMARK    2  A    between atoms: C_3  and  O_6 
REMARK    3  A    between atoms: C_3  and  C_4 
REMARK    4  A    between atoms: C_7  and  O_6 
REMARK    5  A    between atoms: C_9  and  C_10 
REMARK    6  A    between atoms: N_15  and  C_14 
REMARK    7  A    between atoms: N_20  and  C_19 
REMARK       I    between atoms: C_22  and  N_20 
ROOT
ATOM      1  C   LIG d   1      -5.899  76.912 116.919  0.00  0.00     0.161 C 
ATOM      2  C   LIG d   1      -7.260  76.666 117.164  0.00  0.00     0.016 C 
ATOM      3  C   LIG d   1      -8.134  77.620 117.733  0.00  0.00     0.038 C 
ATOM      4  C   LIG d   1      -7.737  78.947 117.958  0.00  0.00     0.028 C 
ATOM      5  C   LIG d   1      -6.239  79.099 118.197  0.00  0.00    -0.047 C 
ATOM      6  C   LIG d   1      -5.475  78.390 117.055  0.00  0.00     0.091 C 
ENDROOT
BRANCH   1   7
ATOM      7  O   LIG d   1      -5.536  76.405 115.620  0.00  0.00    -0.368 OA
BRANCH   7   8
ATOM      8  C   LIG d   1      -4.916  75.096 115.597  0.00  0.00     0.119 C 
BRANCH   8   9
ATOM      9  C   LIG d   1      -3.594  75.224 114.816  0.00  0.00     0.028 C 
ATOM     10  C   LIG d   1      -2.371  75.323 115.743  0.00  0.00     0.006 C 
ENDBRANCH   8   9
BRANCH   8  11
ATOM     11  C   LIG d   1      -5.759  74.092 114.806  0.00  0.00     0.028 C 
ATOM     12  C   LIG d   1      -6.361  72.990 115.691  0.00  0.00     0.006 C 
ENDBRANCH   8  11
ENDBRANCH   7   8
ENDBRANCH   1   7
BRANCH   6  13
ATOM     13  N   LIG d   1      -4.002  78.418 117.256  0.00  0.00    -0.311 N 
ATOM     14  C   LIG d   1      -3.156  78.976 116.392  0.00  0.00     0.210 C 
ATOM     15  C   LIG d   1      -1.677  78.877 116.781  0.00  0.00     0.109 C 
ATOM     16  O   LIG d   1      -3.491  79.572 115.358  0.00  0.00    -0.276 OA
ATOM     17  H   LIG d   1      -3.646  77.984 118.085  0.00  0.00     0.149 HD
ENDBRANCH   6  13
BRANCH   5  18
ATOM     18  N   LIG d   1      -5.945  80.542 118.279  0.00  0.00     0.381 N 
ATOM     19  H   LIG d   1      -6.315  80.915 119.131  0.00  0.00    -0.090 HD
ATOM     20  H   LIG d   1      -6.391  81.009 117.510  0.00  0.00    -0.090 HD
ATOM     21  H   LIG d   1      -4.961  80.692 118.243  0.00  0.00    -0.090 HD
ENDBRANCH   5  18
BRANCH   3  22
ATOM     22  C   LIG d   1      -9.410  77.240 118.120  0.00  0.00     0.382 C 
ATOM     23  O   LIG d   1     -10.229  78.104 118.517  0.00  0.00    -0.241 OA
ATOM     24  O   LIG d   1      -9.738  76.038 118.121  0.00  0.00    -0.241 OA
ENDBRANCH   3  22
TORSDOF 7
ENDMDL
MODEL 3
REMARK VINA RESULT:      -4.8      2.686      4.446
REMARK  7 active torsions:
REMARK  status: ('A' for Active; 'I' for Inactive)
REMARK    1  A    between atoms: C_2  and  C_3 
REMARK    2  A    between atoms: C_3  and  O_6 
REMARK    3  A    between atoms: C_3  and  C_4 
REMARK    4  A    between atoms: C_7  and  O_6 
REMARK    5  A    between atoms: C_9  and  C_10 
REMARK    6  A    between atoms: N_15  and  C_14 
REMARK    7  A    between atoms: N_20  and  C_19 
REMARK       I    between atoms: C_22  and  N_20 
ROOT
ATOM      1  C   LIG d   1      -6.897  77.086 117.183  0.00  0.00     0.161 C 
ATOM      2  C   LIG d   1      -6.469  78.423 117.245  0.00  0.00     0.016 C 
ATOM      3  C   LIG d   1      -7.201  79.444 117.893  0.00  0.00     0.038 C 
ATOM      4  C   LIG d   1      -8.344  79.167 118.657  0.00  0.00     0.028 C 
ATOM      5  C   LIG d   1      -9.088  77.916 118.202  0.00  0.00    -0.047 C 
ATOM      6  C   LIG d   1      -8.085  76.743 118.106  0.00  0.00     0.091 C 
ENDROOT
BRANCH   1   7
ATOM      7  O   LIG d   1      -5.787  76.205 117.447  0.00  0.00    -0.368 OA
BRANCH   7   8
ATOM      8  C   LIG d   1      -5.006  75.800 116.296  0.00  0.00     0.119 C 
BRANCH   8   9
ATOM      9  C   LIG d   1      -5.941  75.018 115.354  0.00  0.00     0.028 C 
ATOM     10  C   LIG d   1      -6.104  73.548 115.777  0.00  0.00     0.006 C 
ENDBRANCH   8   9
BRANCH   8  11
ATOM     11  C   LIG d   1      -3.905  74.811 116.689  0.00  0.00     0.028 C 
ATOM     12  C   LIG d   1      -2.647  74.942 115.817  0.00  0.00     0.006 C 
ENDBRANCH   8  11
ENDBRANCH   7   8
ENDBRANCH   1   7
BRANCH   6  13
ATOM     13  N   LIG d   1      -8.714  75.501 117.586  0.00  0.00    -0.311 N 
ATOM     14  C   LIG d   1      -8.811  74.377 118.295  0.00  0.00     0.210 C 
ATOM     15  C   LIG d   1      -9.477  73.208 117.564  0.00  0.00     0.109 C 
ATOM     16  O   LIG d   1      -8.438  74.248 119.470  0.00  0.00    -0.276 OA
ATOM     17  H   LIG d   1      -9.072  75.527 116.652  0.00  0.00     0.149 HD
ENDBRANCH   6  13
BRANCH   5  18
ATOM     18  N   LIG d   1     -10.175  77.668 119.168  0.00  0.00     0.381 N 
ATOM     19  H   LIG d   1      -9.790  77.501 120.076  0.00  0.00    -0.090 HD
ATOM     20  H   LIG d   1     -10.681  76.848 118.884  0.00  0.00    -0.090 HD
ATOM     21  H   LIG d   1     -10.789  78.452 119.198  0.00  0.00    -0.090 HD
ENDBRANCH   5  18
BRANCH   3  22
ATOM     22  C   LIG d   1      -6.812  80.767 117.746  0.00  0.00     0.382 C 
ATOM     23  O   LIG d   1      -7.391  81.502 116.910  0.00  0.00    -0.241 OA
ATOM     24  O   LIG d   1      -5.860  81.223 118.407  0.00  0.00    -0.241 OA
ENDBRANCH   3  22
TORSDOF 7
ENDMDL
MODEL 4
REMARK VINA RESULT:      -4.6      1.927      3.182
REMARK  7 active torsions:
REMARK  status: ('A' for Active; 'I' for Inactive)
REMARK    1  A    between atoms: C_2  and  C_3 
REMARK    2  A    between atoms: C_3  and  O_6 
REMARK    3  A    between atoms: C_3  and  C_4 
REMARK    4  A    between atoms: C_7  and  O_6 
REMARK    5  A    between atoms: C_9  and  C_10 
REMARK    6  A    between atoms: N_15  and  C_14 
REMARK    7  A    between atoms: N_20  and  C_19 
REMARK       I    between atoms: C_22  and  N_20 
ROOT
ATOM      1  C   LIG d   1      -6.691  77.321 117.416  0.00  0.00     0.161 C 
ATOM      2  C   LIG d   1      -7.497  76.171 117.397  0.00  0.00     0.016 C 
ATOM      3  C   LIG d   1      -8.849  76.161 117.812  0.00  0.00     0.038 C 
ATOM      4  C   LIG d   1      -9.534  77.342 118.133  0.00  0.00     0.028 C 
ATOM      5  C   LIG d   1      -8.622  78.450 118.650  0.00  0.00    -0.047 C 
ATOM      6  C   LIG d   1      -7.453  78.641 117.658  0.00  0.00     0.091 C 
ENDROOT
BRANCH   1   7
ATOM      7  O   LIG d   1      -5.925  77.401 116.198  0.00  0.00    -0.368 OA
BRANCH   7   8
ATOM      8  C   LIG d   1      -4.887  76.404 116.031  0.00  0.00     0.119 C 
BRANCH   8   9
ATOM      9  C   LIG d   1      -3.574  77.150 115.722  0.00  0.00     0.028 C 
ATOM     10  C   LIG d   1      -3.505  78.525 116.407  0.00  0.00     0.006 C 
ENDBRANCH   8   9
BRANCH   8  11
ATOM     11  C   LIG d   1      -5.151  75.524 114.806  0.00  0.00     0.028 C 
ATOM     12  C   LIG d   1      -5.533  74.083 115.179  0.00  0.00     0.006 C 
ENDBRANCH   8  11
ENDBRANCH   7   8
ENDBRANCH   1   7
BRANCH   6  13
ATOM     13  N   LIG d   1      -6.468  79.649 118.130  0.00  0.00    -0.311 N 
ATOM     14  C   LIG d   1      -6.482  80.924 117.746  0.00  0.00     0.210 C 
ATOM     15  C   LIG d   1      -5.364  81.789 118.337  0.00  0.00     0.109 C 
ATOM     16  O   LIG d   1      -7.333  81.427 116.998  0.00  0.00    -0.276 OA
ATOM     17  H   LIG d   1      -5.760  79.333 118.765  0.00  0.00     0.149 HD
ENDBRANCH   6  13
BRANCH   5  18
ATOM     18  N   LIG d   1      -9.445  79.663 118.815  0.00  0.00     0.381 N 
ATOM     19  H   LIG d   1      -9.693  80.029 117.917  0.00  0.00    -0.090 HD
ATOM     20  H   LIG d   1      -8.906  80.358 119.301  0.00  0.00    -0.090 HD
ATOM     21  H   LIG d   1     -10.268  79.449 119.333  0.00  0.00    -0.090 HD
ENDBRANCH   5  18
BRANCH   3  22
ATOM     22  C   LIG d   1      -9.517  74.954 117.946  0.00  0.00     0.382 C 
ATOM     23  O   LIG d   1      -8.944  73.976 118.483  0.00  0.00    -0.241 OA
ATOM     24  O   LIG d   1     -10.671  74.817 117.498  0.00  0.00    -0.241 OA
ENDBRANCH   3  22
TORSDOF 7
ENDMDL
MODEL 5
REMARK VINA RESULT:      -4.6     13.535     15.361
REMARK  7 active torsions:
REMARK  status: ('A' for Active; 'I' for Inactive)
REMARK    1  A    between atoms: C_2  and  C_3 
REMARK    2  A    between atoms: C_3  and  O_6 
REMARK    3  A    between atoms: C_3  and  C_4 
REMARK    4  A    between atoms: C_7  and  O_6 
REMARK    5  A    between atoms: C_9  and  C_10 
REMARK    6  A    between atoms: N_15  and  C_14 
REMARK    7  A    between atoms: N_20  and  C_19 
REMARK       I    between atoms: C_22  and  N_20 
ROOT
ATOM      1  C   LIG d   1      -2.675  91.402 117.993  0.00  0.00     0.161 C 
ATOM      2  C   LIG d   1      -3.657  90.895 117.125  0.00  0.00     0.016 C 
ATOM      3  C   LIG d   1      -5.037  91.168 117.267  0.00  0.00     0.038 C 
ATOM      4  C   LIG d   1      -5.517  92.096 118.203  0.00  0.00     0.028 C 
ATOM      5  C   LIG d   1      -4.617  92.245 119.425  0.00  0.00    -0.047 C 
ATOM      6  C   LIG d   1      -3.168  92.505 118.953  0.00  0.00     0.091 C 
ENDROOT
BRANCH   1   7
ATOM      7  O   LIG d   1      -1.544  91.868 117.232  0.00  0.00    -0.368 OA
BRANCH   7   8
ATOM      8  C   LIG d   1      -0.275  91.232 117.521  0.00  0.00     0.119 C 
BRANCH   8   9
ATOM      9  C   LIG d   1       0.700  92.333 117.983  0.00  0.00     0.028 C 
ATOM     10  C   LIG d   1       1.807  91.788 118.901  0.00  0.00     0.006 C 
ENDBRANCH   8   9
BRANCH   8  11
ATOM     11  C   LIG d   1       0.352  90.640 116.255  0.00  0.00     0.028 C 
ATOM     12  C   LIG d   1       0.824  89.189 116.447  0.00  0.00     0.006 C 
ENDBRANCH   8  11
ENDBRANCH   7   8
ENDBRANCH   1   7
BRANCH   6  13
ATOM     13  N   LIG d   1      -2.207  92.579 120.084  0.00  0.00    -0.311 N 
ATOM     14  C   LIG d   1      -1.475  93.658 120.355  0.00  0.00     0.210 C 
ATOM     15  C   LIG d   1      -0.533  93.515 121.555  0.00  0.00     0.109 C 
ATOM     16  O   LIG d   1      -1.540  94.730 119.735  0.00  0.00    -0.276 OA
ATOM     17  H   LIG d   1      -2.115  91.763 120.658  0.00  0.00     0.149 HD
ENDBRANCH   6  13
BRANCH   5  18
ATOM     18  N   LIG d   1      -5.162  93.339 120.250  0.00  0.00     0.381 N 
ATOM     19  H   LIG d   1      -6.159  93.270 120.288  0.00  0.00    -0.090 HD
ATOM     20  H   LIG d   1      -4.923  94.217 119.823  0.00  0.00    -0.090 HD
ATOM     21  H   LIG d   1      -4.782  93.295 121.170  0.00  0.00    -0.090 HD
ENDBRANCH   5  18
BRANCH   3  22
ATOM     22  C   LIG d   1      -5.957  90.479 116.492  0.00  0.00     0.382 C 
ATOM     23  O   LIG d   1      -7.184  90.698 116.633  0.00  0.00    -0.241 OA
ATOM     24  O   LIG d   1      -5.578  89.609 115.685  0.00  0.00    -0.241 OA
ENDBRANCH   3  22
TORSDOF 7
ENDMDL
MODEL 6
REMARK VINA RESULT:      -4.5      2.782      5.151
REMARK  7 active torsions:
REMARK  status: ('A' for Active; 'I' for Inactive)
REMARK    1  A    between atoms: C_2  and  C_3 
REMARK    2  A    between atoms: C_3  and  O_6 
REMARK    3  A    between atoms: C_3  and  C_4 
REMARK    4  A    between atoms: C_7  and  O_6 
REMARK    5  A    between atoms: C_9  and  C_10 
REMARK    6  A    between atoms: N_15  and  C_14 
REMARK    7  A    between atoms: N_20  and  C_19 
REMARK       I    between atoms: C_22  and  N_20 
ROOT
ATOM      1  C   LIG d   1      -7.748  75.013 117.868  0.00  0.00     0.161 C 
ATOM      2  C   LIG d   1      -8.334  73.742 117.752  0.00  0.00     0.016 C 
ATOM      3  C   LIG d   1      -7.859  72.744 116.869  0.00  0.00     0.038 C 
ATOM      4  C   LIG d   1      -6.666  72.898 116.149  0.00  0.00     0.028 C 
ATOM      5  C   LIG d   1      -6.320  74.354 115.854  0.00  0.00    -0.047 C 
ATOM      6  C   LIG d   1      -6.379  75.161 117.171  0.00  0.00     0.091 C 
ENDROOT
BRANCH   1   7
ATOM      7  O   LIG d   1      -7.644  75.378 119.259  0.00  0.00    -0.368 OA
BRANCH   7   8
ATOM      8  C   LIG d   1      -8.478  76.480 119.692  0.00  0.00     0.119 C 
BRANCH   8   9
ATOM      9  C   LIG d   1      -9.217  77.018 118.451  0.00  0.00     0.028 C 
ATOM     10  C   LIG d   1      -9.538  78.518 118.564  0.00  0.00     0.006 C 
ENDBRANCH   8   9
BRANCH   8  11
ATOM     11  C   LIG d   1      -7.633  77.652 120.200  0.00  0.00     0.028 C 
ATOM     12  C   LIG d   1      -6.365  77.196 120.940  0.00  0.00     0.006 C 
ENDBRANCH   8  11
ENDBRANCH   7   8
ENDBRANCH   1   7
BRANCH   6  13
ATOM     13  N   LIG d   1      -6.136  76.611 116.959  0.00  0.00    -0.311 N 
ATOM     14  C   LIG d   1      -5.095  77.263 117.474  0.00  0.00     0.210 C 
ATOM     15  C   LIG d   1      -5.045  78.760 117.150  0.00  0.00     0.109 C 
ATOM     16  O   LIG d   1      -4.192  76.738 118.142  0.00  0.00    -0.276 OA
ATOM     17  H   LIG d   1      -6.804  77.109 116.403  0.00  0.00     0.149 HD
ENDBRANCH   6  13
BRANCH   5  18
ATOM     18  N   LIG d   1      -4.988  74.377 115.221  0.00  0.00     0.381 N 
ATOM     19  H   LIG d   1      -5.086  74.418 114.226  0.00  0.00    -0.090 HD
ATOM     20  H   LIG d   1      -4.502  73.529 115.455  0.00  0.00    -0.090 HD
ATOM     21  H   LIG d   1      -4.471  75.165 115.544  0.00  0.00    -0.090 HD
ENDBRANCH   5  18
BRANCH   3  22
ATOM     22  C   LIG d   1      -8.603  71.591 116.672  0.00  0.00     0.382 C 
ATOM     23  O   LIG d   1      -8.147  70.665 115.959  0.00  0.00    -0.241 OA
ATOM     24  O   LIG d   1      -9.744  71.483 117.161  0.00  0.00    -0.241 OA
ENDBRANCH   3  22
TORSDOF 7
ENDMDL
MODEL 7
REMARK VINA RESULT:      -4.3      2.501      6.213
REMARK  7 active torsions:
REMARK  status: ('A' for Active; 'I' for Inactive)
REMARK    1  A    between atoms: C_2  and  C_3 
REMARK    2  A    between atoms: C_3  and  O_6 
REMARK    3  A    between atoms: C_3  and  C_4 
REMARK    4  A    between atoms: C_7  and  O_6 
REMARK    5  A    between atoms: C_9  and  C_10 
REMARK    6  A    between atoms: N_15  and  C_14 
REMARK    7  A    between atoms: N_20  and  C_19 
REMARK       I    between atoms: C_22  and  N_20 
ROOT
ATOM      1  C   LIG d   1      -6.608  78.178 117.767  0.00  0.00     0.161 C 
ATOM      2  C   LIG d   1      -5.657  77.697 116.851  0.00  0.00     0.016 C 
ATOM      3  C   LIG d   1      -5.695  76.395 116.301  0.00  0.00     0.038 C 
ATOM      4  C   LIG d   1      -6.779  75.531 116.516  0.00  0.00     0.028 C 
ATOM      5  C   LIG d   1      -7.505  75.786 117.832  0.00  0.00    -0.047 C 
ATOM      6  C   LIG d   1      -7.858  77.288 117.927  0.00  0.00     0.091 C 
ENDROOT
BRANCH   1   7
ATOM      7  O   LIG d   1      -6.991  79.522 117.413  0.00  0.00    -0.368 OA
BRANCH   7   8
ATOM      8  C   LIG d   1      -6.718  80.544 118.404  0.00  0.00     0.119 C 
BRANCH   8   9
ATOM      9  C   LIG d   1      -8.041  81.283 118.683  0.00  0.00     0.028 C 
ATOM     10  C   LIG d   1      -9.035  81.169 117.515  0.00  0.00     0.006 C 
ENDBRANCH   8   9
BRANCH   8  11
ATOM     11  C   LIG d   1      -5.765  81.610 117.855  0.00  0.00     0.028 C 
ATOM     12  C   LIG d   1      -4.953  82.307 118.958  0.00  0.00     0.006 C 
ENDBRANCH   8  11
ENDBRANCH   7   8
ENDBRANCH   1   7
BRANCH   6  13
ATOM     13  N   LIG d   1      -8.497  77.640 119.222  0.00  0.00    -0.311 N 
ATOM     14  C   LIG d   1      -9.816  77.674 119.404  0.00  0.00     0.210 C 
ATOM     15  C   LIG d   1     -10.265  78.080 120.811  0.00  0.00     0.109 C 
ATOM     16  O   LIG d   1     -10.657  77.375 118.542  0.00  0.00    -0.276 OA
ATOM     17  H   LIG d   1      -7.888  77.866 119.984  0.00  0.00     0.149 HD
ENDBRANCH   6  13
BRANCH   5  18
ATOM     18  N   LIG d   1      -8.692  74.911 117.863  0.00  0.00     0.381 N 
ATOM     19  H   LIG d   1      -8.796  74.514 118.776  0.00  0.00    -0.090 HD
ATOM     20  H   LIG d   1      -8.560  74.161 117.207  0.00  0.00    -0.090 HD
ATOM     21  H   LIG d   1      -9.507  75.432 117.625  0.00  0.00    -0.090 HD
ENDBRANCH   5  18
BRANCH   3  22
ATOM     22  C   LIG d   1      -4.620  75.932 115.558  0.00  0.00     0.382 C 
ATOM     23  O   LIG d   1      -3.993  76.716 114.805  0.00  0.00    -0.241 OA
ATOM     24  O   LIG d   1      -4.296  74.729 115.598  0.00  0.00    -0.241 OA
ENDBRANCH   3  22
TORSDOF 7
ENDMDL
MODEL 8
REMARK VINA RESULT:      -4.2     21.790     24.236
REMARK  7 active torsions:
REMARK  status: ('A' for Active; 'I' for Inactive)
REMARK    1  A    between atoms: C_2  and  C_3 
REMARK    2  A    between atoms: C_3  and  O_6 
REMARK    3  A    between atoms: C_3  and  C_4 
REMARK    4  A    between atoms: C_7  and  O_6 
REMARK    5  A    between atoms: C_9  and  C_10 
REMARK    6  A    between atoms: N_15  and  C_14 
REMARK    7  A    between atoms: N_20  and  C_19 
REMARK       I    between atoms: C_22  and  N_20 
ROOT
ATOM      1  C   LIG d   1     -19.848  96.694 119.758  0.00  0.00     0.161 C 
ATOM      2  C   LIG d   1     -19.282  95.471 120.153  0.00  0.00     0.016 C 
ATOM      3  C   LIG d   1     -20.000  94.253 120.183  0.00  0.00     0.038 C 
ATOM      4  C   LIG d   1     -21.303  94.149 119.672  0.00  0.00     0.028 C 
ATOM      5  C   LIG d   1     -22.084  95.457 119.732  0.00  0.00    -0.047 C 
ATOM      6  C   LIG d   1     -21.235  96.579 119.091  0.00  0.00     0.091 C 
ENDROOT
BRANCH   1   7
ATOM      7  O   LIG d   1     -18.935  97.399 118.894  0.00  0.00    -0.368 OA
BRANCH   7   8
ATOM      8  C   LIG d   1     -18.094  96.577 118.048  0.00  0.00     0.119 C 
BRANCH   8   9
ATOM      9  C   LIG d   1     -16.661  97.137 118.136  0.00  0.00     0.028 C 
ATOM     10  C   LIG d   1     -15.765  96.314 119.077  0.00  0.00     0.006 C 
ENDBRANCH   8   9
BRANCH   8  11
ATOM     11  C   LIG d   1     -18.490  96.706 116.575  0.00  0.00     0.028 C 
ATOM     12  C   LIG d   1     -18.998  98.111 116.215  0.00  0.00     0.006 C 
ENDBRANCH   8  11
ENDBRANCH   7   8
ENDBRANCH   1   7
BRANCH   6  13
ATOM     13  N   LIG d   1     -21.891  97.909 119.185  0.00  0.00    -0.311 N 
ATOM     14  C   LIG d   1     -22.399  98.551 118.134  0.00  0.00     0.210 C 
ATOM     15  C   LIG d   1     -23.012  99.920 118.447  0.00  0.00     0.109 C 
ATOM     16  O   LIG d   1     -22.428  98.104 116.978  0.00  0.00    -0.276 OA
ATOM     17  H   LIG d   1     -21.939  98.332 120.091  0.00  0.00     0.149 HD
ENDBRANCH   6  13
BRANCH   5  18
ATOM     18  N   LIG d   1     -23.371  95.240 119.044  0.00  0.00     0.381 N 
ATOM     19  H   LIG d   1     -23.238  95.292 118.054  0.00  0.00    -0.090 HD
ATOM     20  H   LIG d   1     -24.011  95.965 119.315  0.00  0.00    -0.090 HD
ATOM     21  H   LIG d   1     -23.743  94.349 119.290  0.00  0.00    -0.090 HD
ENDBRANCH   5  18
BRANCH   3  22
ATOM     22  C   LIG d   1     -19.430  93.132 120.766  0.00  0.00     0.382 C 
ATOM     23  O   LIG d   1     -19.905  91.995 120.534  0.00  0.00    -0.241 OA
ATOM     24  O   LIG d   1     -18.473  93.248 121.555  0.00  0.00    -0.241 OA
ENDBRANCH   3  22
TORSDOF 7
ENDMDL
MODEL 9
REMARK VINA RESULT:      -4.1      1.284      2.000
REMARK  7 active torsions:
REMARK  status: ('A' for Active; 'I' for Inactive)
REMARK    1  A    between atoms: C_2  and  C_3 
REMARK    2  A    between atoms: C_3  and  O_6 
REMARK    3  A    between atoms: C_3  and  C_4 
REMARK    4  A    between atoms: C_7  and  O_6 
REMARK    5  A    between atoms: C_9  and  C_10 
REMARK    6  A    between atoms: N_15  and  C_14 
REMARK    7  A    between atoms: N_20  and  C_19 
REMARK       I    between atoms: C_22  and  N_20 
ROOT
ATOM      1  C   LIG d   1      -5.983  78.104 117.452  0.00  0.00     0.161 C 
ATOM      2  C   LIG d   1      -7.351  78.180 117.765  0.00  0.00     0.016 C 
ATOM      3  C   LIG d   1      -8.029  79.398 117.998  0.00  0.00     0.038 C 
ATOM      4  C   LIG d   1      -7.416  80.641 117.785  0.00  0.00     0.028 C 
ATOM      5  C   LIG d   1      -5.901  80.607 117.960  0.00  0.00    -0.047 C 
ATOM      6  C   LIG d   1      -5.323  79.455 117.106  0.00  0.00     0.091 C 
ENDROOT
BRANCH   1   7
ATOM      7  O   LIG d   1      -5.778  77.158 116.385  0.00  0.00    -0.368 OA
BRANCH   7   8
ATOM      8  C   LIG d   1      -5.275  75.856 116.774  0.00  0.00     0.119 C 
BRANCH   8   9
ATOM      9  C   LIG d   1      -3.917  75.656 116.074  0.00  0.00     0.028 C 
ATOM     10  C   LIG d   1      -2.870  75.013 116.998  0.00  0.00     0.006 C 
ENDBRANCH   8   9
BRANCH   8  11
ATOM     11  C   LIG d   1      -6.173  74.732 116.248  0.00  0.00     0.028 C 
ATOM     12  C   LIG d   1      -5.833  74.324 114.806  0.00  0.00     0.006 C 
ENDBRANCH   8  11
ENDBRANCH   7   8
ENDBRANCH   1   7
BRANCH   6  13
ATOM     13  N   LIG d   1      -3.856  79.298 117.285  0.00  0.00    -0.311 N 
ATOM     14  C   LIG d   1      -2.996  79.239 116.269  0.00  0.00     0.210 C 
ATOM     15  C   LIG d   1      -1.530  79.055 116.674  0.00  0.00     0.109 C 
ATOM     16  O   LIG d   1      -3.305  79.354 115.074  0.00  0.00    -0.276 OA
ATOM     17  H   LIG d   1      -3.516  79.228 118.224  0.00  0.00     0.149 HD
ENDBRANCH   6  13
BRANCH   5  18
ATOM     18  N   LIG d   1      -5.378  81.931 117.574  0.00  0.00     0.381 N 
ATOM     19  H   LIG d   1      -5.453  82.563 118.346  0.00  0.00    -0.090 HD
ATOM     20  H   LIG d   1      -5.932  82.292 116.817  0.00  0.00    -0.090 HD
ATOM     21  H   LIG d   1      -4.426  81.853 117.291  0.00  0.00    -0.090 HD
ENDBRANCH   5  18
BRANCH   3  22
ATOM     22  C   LIG d   1      -9.326  79.379 118.489  0.00  0.00     0.382 C 
ATOM     23  O   LIG d   1      -9.613  78.660 119.476  0.00  0.00    -0.241 OA
ATOM     24  O   LIG d   1     -10.223  80.039 117.930  0.00  0.00    -0.241 OA
ENDBRANCH   3  22
TORSDOF 7
ENDMDL
