MODEL 1
REMARK VINA RESULT:      -5.4      0.000      0.000
REMARK  7 active torsions:
REMARK  status: ('A' for Active; 'I' for Inactive)
REMARK    1  A    between atoms: C_2  and  C_3 
REMARK    2  A    between atoms: C_3  and  O_6 
REMARK    3  A    between atoms: C_3  and  C_4 
REMARK    4  A    between atoms: C_7  and  O_6 
REMARK    5  A    between atoms: C_9  and  C_10 
REMARK    6  A    between atoms: N_15  and  C_14 
REMARK    7  A    between atoms: N_20  and  C_19 
REMARK       I    between atoms: C_22  and  N_20 
ROOT
ATOM      1  C   LIG d   1      -5.519  92.845 118.660  0.00  0.00     0.161 C 
ATOM      2  C   LIG d   1      -6.388  92.185 117.775  0.00  0.00     0.016 C 
ATOM      3  C   LIG d   1      -5.943  91.341 116.732  0.00  0.00     0.038 C 
ATOM      4  C   LIG d   1      -4.595  90.978 116.596  0.00  0.00     0.028 C 
ATOM      5  C   LIG d   1      -3.629  92.018 117.153  0.00  0.00    -0.047 C 
ATOM      6  C   LIG d   1      -4.052  92.373 118.597  0.00  0.00     0.091 C 
ENDROOT
BRANCH   1   7
ATOM      7  O   LIG d   1      -6.022  92.741 120.007  0.00  0.00    -0.368 OA
BRANCH   7   8
ATOM      8  C   LIG d   1      -6.240  93.991 120.704  0.00  0.00     0.119 C 
BRANCH   8   9
ATOM      9  C   LIG d   1      -7.637  93.923 121.351  0.00  0.00     0.028 C 
ATOM     10  C   LIG d   1      -8.745  94.430 120.412  0.00  0.00     0.006 C 
ENDBRANCH   8   9
BRANCH   8  11
ATOM     11  C   LIG d   1      -6.303  95.170 119.728  0.00  0.00     0.028 C 
ATOM     12  C   LIG d   1      -5.327  96.300 120.095  0.00  0.00     0.006 C 
ENDBRANCH   8  11
ENDBRANCH   7   8
ENDBRANCH   1   7
BRANCH   6  13
ATOM     13  N   LIG d   1      -3.209  93.446 119.187  0.00  0.00    -0.311 N 
ATOM     14  C   LIG d   1      -2.150  93.206 119.959  0.00  0.00     0.210 C 
ATOM     15  C   LIG d   1      -1.433  94.455 120.480  0.00  0.00     0.109 C 
ATOM     16  O   LIG d   1      -1.718  92.076 120.235  0.00  0.00    -0.276 OA
ATOM     17  H   LIG d   1      -3.469  94.392 118.988  0.00  0.00     0.149 HD
ENDBRANCH   6  13
BRANCH   5  18
ATOM     18  N   LIG d   1      -2.269  91.452 117.072  0.00  0.00     0.381 N 
ATOM     19  H   LIG d   1      -1.736  91.734 117.871  0.00  0.00    -0.090 HD
ATOM     20  H   LIG d   1      -1.817  91.810 116.249  0.00  0.00    -0.090 HD
ATOM     21  H   LIG d   1      -2.316  90.458 117.029  0.00  0.00    -0.090 HD
ENDBRANCH   5  18
BRANCH   3  22
ATOM     22  C   LIG d   1      -6.847  90.883 115.785  0.00  0.00     0.382 C 
ATOM     23  O   LIG d   1      -7.149  91.606 114.805  0.00  0.00    -0.241 OA
ATOM     24  O   LIG d   1      -7.398  89.774 115.923  0.00  0.00    -0.241 OA
ENDBRANCH   3  22
TORSDOF 7
ENDMDL
MODEL 2
REMARK VINA RESULT:      -5.3     16.739     19.000
REMARK  7 active torsions:
REMARK  status: ('A' for Active; 'I' for Inactive)
REMARK    1  A    between atoms: C_2  and  C_3 
REMARK    2  A    between atoms: C_3  and  O_6 
REMARK    3  A    between atoms: C_3  and  C_4 
REMARK    4  A    between atoms: C_7  and  O_6 
REMARK    5  A    between atoms: C_9  and  C_10 
REMARK    6  A    between atoms: N_15  and  C_14 
REMARK    7  A    between atoms: N_20  and  C_19 
REMARK       I    between atoms: C_22  and  N_20 
ROOT
ATOM      1  C   LIG d   1      -7.632  74.413 118.694  0.00  0.00     0.161 C 
ATOM      2  C   LIG d   1      -7.786  73.056 118.366  0.00  0.00     0.016 C 
ATOM      3  C   LIG d   1      -8.891  72.551 117.642  0.00  0.00     0.038 C 
ATOM      4  C   LIG d   1      -9.847  73.398 117.062  0.00  0.00     0.028 C 
ATOM      5  C   LIG d   1     -10.003  74.726 117.795  0.00  0.00    -0.047 C 
ATOM      6  C   LIG d   1      -8.608  75.367 117.975  0.00  0.00     0.091 C 
ENDROOT
BRANCH   1   7
ATOM      7  O   LIG d   1      -6.269  74.820 118.460  0.00  0.00    -0.368 OA
BRANCH   7   8
ATOM      8  C   LIG d   1      -5.594  74.179 117.350  0.00  0.00     0.119 C 
BRANCH   8   9
ATOM      9  C   LIG d   1      -4.118  73.989 117.753  0.00  0.00     0.028 C 
ATOM     10  C   LIG d   1      -3.630  75.079 118.722  0.00  0.00     0.006 C 
ENDBRANCH   8   9
BRANCH   8  11
ATOM     11  C   LIG d   1      -5.564  75.086 116.116  0.00  0.00     0.028 C 
ATOM     12  C   LIG d   1      -5.393  74.302 114.805  0.00  0.00     0.006 C 
ENDBRANCH   8  11
ENDBRANCH   7   8
ENDBRANCH   1   7
BRANCH   6  13
ATOM     13  N   LIG d   1      -8.661  76.630 118.757  0.00  0.00    -0.311 N 
ATOM     14  C   LIG d   1      -8.001  77.734 118.412  0.00  0.00     0.210 C 
ATOM     15  C   LIG d   1      -8.177  78.918 119.368  0.00  0.00     0.109 C 
ATOM     16  O   LIG d   1      -7.312  77.856 117.387  0.00  0.00    -0.276 OA
ATOM     17  H   LIG d   1      -9.221  76.629 119.586  0.00  0.00     0.149 HD
ENDBRANCH   6  13
BRANCH   5  18
ATOM     18  N   LIG d   1     -10.927  75.564 117.007  0.00  0.00     0.381 N 
ATOM     19  H   LIG d   1     -11.524  76.081 117.622  0.00  0.00    -0.090 HD
ATOM     20  H   LIG d   1     -11.501  74.968 116.438  0.00  0.00    -0.090 HD
ATOM     21  H   LIG d   1     -10.411  76.191 116.430  0.00  0.00    -0.090 HD
ENDBRANCH   5  18
BRANCH   3  22
ATOM     22  C   LIG d   1      -9.068  71.181 117.525  0.00  0.00     0.382 C 
ATOM     23  O   LIG d   1      -9.965  70.606 118.189  0.00  0.00    -0.241 OA
ATOM     24  O   LIG d   1      -8.314  70.505 116.799  0.00  0.00    -0.241 OA
ENDBRANCH   3  22
TORSDOF 7
ENDMDL
MODEL 3
REMARK VINA RESULT:      -5.2     16.646     18.891
REMARK  7 active torsions:
REMARK  status: ('A' for Active; 'I' for Inactive)
REMARK    1  A    between atoms: C_2  and  C_3 
REMARK    2  A    between atoms: C_3  and  O_6 
REMARK    3  A    between atoms: C_3  and  C_4 
REMARK    4  A    between atoms: C_7  and  O_6 
REMARK    5  A    between atoms: C_9  and  C_10 
REMARK    6  A    between atoms: N_15  and  C_14 
REMARK    7  A    between atoms: N_20  and  C_19 
REMARK       I    between atoms: C_22  and  N_20 
ROOT
ATOM      1  C   LIG d   1      -6.417  74.529 117.719  0.00  0.00     0.161 C 
ATOM      2  C   LIG d   1      -5.222  73.999 117.204  0.00  0.00     0.016 C 
ATOM      3  C   LIG d   1      -3.943  74.506 117.528  0.00  0.00     0.038 C 
ATOM      4  C   LIG d   1      -3.762  75.487 118.515  0.00  0.00     0.028 C 
ATOM      5  C   LIG d   1      -4.972  76.398 118.692  0.00  0.00    -0.047 C 
ATOM      6  C   LIG d   1      -6.234  75.526 118.882  0.00  0.00     0.091 C 
ENDROOT
BRANCH   1   7
ATOM      7  O   LIG d   1      -7.297  73.457 118.112  0.00  0.00    -0.368 OA
BRANCH   7   8
ATOM      8  C   LIG d   1      -8.126  72.896 117.064  0.00  0.00     0.119 C 
BRANCH   8   9
ATOM      9  C   LIG d   1      -9.591  72.996 117.529  0.00  0.00     0.028 C 
ATOM     10  C   LIG d   1     -10.164  74.414 117.363  0.00  0.00     0.006 C 
ENDBRANCH   8   9
BRANCH   8  11
ATOM     11  C   LIG d   1      -7.859  71.398 116.884  0.00  0.00     0.028 C 
ATOM     12  C   LIG d   1      -9.136  70.549 116.985  0.00  0.00     0.006 C 
ENDBRANCH   8  11
ENDBRANCH   7   8
ENDBRANCH   1   7
BRANCH   6  13
ATOM     13  N   LIG d   1      -7.475  76.338 118.978  0.00  0.00    -0.311 N 
ATOM     14  C   LIG d   1      -8.227  76.401 120.076  0.00  0.00     0.210 C 
ATOM     15  C   LIG d   1      -9.475  77.281 119.955  0.00  0.00     0.109 C 
ATOM     16  O   LIG d   1      -7.962  75.837 121.148  0.00  0.00    -0.276 OA
ATOM     17  H   LIG d   1      -7.748  76.852 118.163  0.00  0.00     0.149 HD
ENDBRANCH   6  13
BRANCH   5  18
ATOM     18  N   LIG d   1      -4.701  77.281 119.842  0.00  0.00     0.381 N 
ATOM     19  H   LIG d   1      -3.779  77.661 119.766  0.00  0.00    -0.090 HD
ATOM     20  H   LIG d   1      -4.751  76.739 120.686  0.00  0.00    -0.090 HD
ATOM     21  H   LIG d   1      -5.371  78.018 119.871  0.00  0.00    -0.090 HD
ENDBRANCH   5  18
BRANCH   3  22
ATOM     22  C   LIG d   1      -2.830  74.058 116.833  0.00  0.00     0.382 C 
ATOM     23  O   LIG d   1      -2.707  74.318 115.612  0.00  0.00    -0.241 OA
ATOM     24  O   LIG d   1      -1.968  73.361 117.402  0.00  0.00    -0.241 OA
ENDBRANCH   3  22
TORSDOF 7
ENDMDL
MODEL 4
REMARK VINA RESULT:      -4.8     15.855     17.748
REMARK  7 active torsions:
REMARK  status: ('A' for Active; 'I' for Inactive)
REMARK    1  A    between atoms: C_2  and  C_3 
REMARK    2  A    between atoms: C_3  and  O_6 
REMARK    3  A    between atoms: C_3  and  C_4 
REMARK    4  A    between atoms: C_7  and  O_6 
REMARK    5  A    between atoms: C_9  and  C_10 
REMARK    6  A    between atoms: N_15  and  C_14 
REMARK    7  A    between atoms: N_20  and  C_19 
REMARK       I    between atoms: C_22  and  N_20 
ROOT
ATOM      1  C   LIG d   1      -8.373  75.294 117.697  0.00  0.00     0.161 C 
ATOM      2  C   LIG d   1      -8.990  74.034 117.639  0.00  0.00     0.016 C 
ATOM      3  C   LIG d   1      -8.286  72.833 117.390  0.00  0.00     0.038 C 
ATOM      4  C   LIG d   1      -6.885  72.794 117.333  0.00  0.00     0.028 C 
ATOM      5  C   LIG d   1      -6.260  74.110 116.884  0.00  0.00    -0.047 C 
ATOM      6  C   LIG d   1      -6.831  75.258 117.747  0.00  0.00     0.091 C 
ENDROOT
BRANCH   1   7
ATOM      7  O   LIG d   1      -8.893  76.042 118.814  0.00  0.00    -0.368 OA
BRANCH   7   8
ATOM      8  C   LIG d   1      -9.644  77.237 118.487  0.00  0.00     0.119 C 
BRANCH   8   9
ATOM      9  C   LIG d   1      -8.875  78.440 119.067  0.00  0.00     0.028 C 
ATOM     10  C   LIG d   1      -8.538  79.492 117.997  0.00  0.00     0.006 C 
ENDBRANCH   8   9
BRANCH   8  11
ATOM     11  C   LIG d   1     -11.006  77.249 119.188  0.00  0.00     0.028 C 
ATOM     12  C   LIG d   1     -10.958  77.918 120.571  0.00  0.00     0.006 C 
ENDBRANCH   8  11
ENDBRANCH   7   8
ENDBRANCH   1   7
BRANCH   6  13
ATOM     13  N   LIG d   1      -6.335  76.591 117.318  0.00  0.00    -0.311 N 
ATOM     14  C   LIG d   1      -5.288  77.198 117.874  0.00  0.00     0.210 C 
ATOM     15  C   LIG d   1      -4.957  78.577 117.294  0.00  0.00     0.109 C 
ATOM     16  O   LIG d   1      -4.582  76.711 118.770  0.00  0.00    -0.276 OA
ATOM     17  H   LIG d   1      -6.830  77.045 116.575  0.00  0.00     0.149 HD
ENDBRANCH   6  13
BRANCH   5  18
ATOM     18  N   LIG d   1      -4.796  73.972 117.001  0.00  0.00     0.381 N 
ATOM     19  H   LIG d   1      -4.477  74.434 117.829  0.00  0.00    -0.090 HD
ATOM     20  H   LIG d   1      -4.363  74.411 116.208  0.00  0.00    -0.090 HD
ATOM     21  H   LIG d   1      -4.546  73.008 117.034  0.00  0.00    -0.090 HD
ENDBRANCH   5  18
BRANCH   3  22
ATOM     22  C   LIG d   1      -8.988  71.661 117.157  0.00  0.00     0.382 C 
ATOM     23  O   LIG d   1      -8.818  71.031 116.085  0.00  0.00    -0.241 OA
ATOM     24  O   LIG d   1      -9.822  71.248 117.985  0.00  0.00    -0.241 OA
ENDBRANCH   3  22
TORSDOF 7
ENDMDL
MODEL 5
REMARK VINA RESULT:      -4.7     15.183     17.579
REMARK  7 active torsions:
REMARK  status: ('A' for Active; 'I' for Inactive)
REMARK    1  A    between atoms: C_2  and  C_3 
REMARK    2  A    between atoms: C_3  and  O_6 
REMARK    3  A    between atoms: C_3  and  C_4 
REMARK    4  A    between atoms: C_7  and  O_6 
REMARK    5  A    between atoms: C_9  and  C_10 
REMARK    6  A    between atoms: N_15  and  C_14 
REMARK    7  A    between atoms: N_20  and  C_19 
REMARK       I    between atoms: C_22  and  N_20 
ROOT
ATOM      1  C   LIG d   1      -7.082  75.942 117.845  0.00  0.00     0.161 C 
ATOM      2  C   LIG d   1      -8.133  76.865 117.977  0.00  0.00     0.016 C 
ATOM      3  C   LIG d   1      -7.956  78.265 117.878  0.00  0.00     0.038 C 
ATOM      4  C   LIG d   1      -6.734  78.832 117.486  0.00  0.00     0.028 C 
ATOM      5  C   LIG d   1      -5.526  77.969 117.836  0.00  0.00    -0.047 C 
ATOM      6  C   LIG d   1      -5.763  76.536 117.308  0.00  0.00     0.091 C 
ENDROOT
BRANCH   1   7
ATOM      7  O   LIG d   1      -7.505  74.835 117.024  0.00  0.00    -0.368 OA
BRANCH   7   8
ATOM      8  C   LIG d   1      -7.360  73.517 117.607  0.00  0.00     0.119 C 
BRANCH   8   9
ATOM      9  C   LIG d   1      -6.898  72.564 116.489  0.00  0.00     0.028 C 
ATOM     10  C   LIG d   1      -7.423  71.132 116.683  0.00  0.00     0.006 C 
ENDBRANCH   8   9
BRANCH   8  11
ATOM     11  C   LIG d   1      -8.709  72.965 118.078  0.00  0.00     0.028 C 
ATOM     12  C   LIG d   1      -9.902  73.613 117.357  0.00  0.00     0.006 C 
ENDBRANCH   8  11
ENDBRANCH   7   8
ENDBRANCH   1   7
BRANCH   6  13
ATOM     13  N   LIG d   1      -4.666  75.605 117.681  0.00  0.00    -0.311 N 
ATOM     14  C   LIG d   1      -3.960  74.910 116.791  0.00  0.00     0.210 C 
ATOM     15  C   LIG d   1      -2.888  73.994 117.390  0.00  0.00     0.109 C 
ATOM     16  O   LIG d   1      -4.097  74.989 115.561  0.00  0.00    -0.276 OA
ATOM     17  H   LIG d   1      -4.467  75.504 118.657  0.00  0.00     0.149 HD
ENDBRANCH   6  13
BRANCH   5  18
ATOM     18  N   LIG d   1      -4.335  78.611 117.250  0.00  0.00     0.381 N 
ATOM     19  H   LIG d   1      -3.973  79.296 117.884  0.00  0.00    -0.090 HD
ATOM     20  H   LIG d   1      -4.601  79.077 116.401  0.00  0.00    -0.090 HD
ATOM     21  H   LIG d   1      -3.638  77.926 117.057  0.00  0.00    -0.090 HD
ENDBRANCH   5  18
BRANCH   3  22
ATOM     22  C   LIG d   1      -9.000  79.115 118.210  0.00  0.00     0.382 C 
ATOM     23  O   LIG d   1     -10.172  78.833 117.864  0.00  0.00    -0.241 OA
ATOM     24  O   LIG d   1      -8.778  80.181 118.814  0.00  0.00    -0.241 OA
ENDBRANCH   3  22
TORSDOF 7
ENDMDL
MODEL 6
REMARK VINA RESULT:      -4.7      3.041      5.306
REMARK  7 active torsions:
REMARK  status: ('A' for Active; 'I' for Inactive)
REMARK    1  A    between atoms: C_2  and  C_3 
REMARK    2  A    between atoms: C_3  and  O_6 
REMARK    3  A    between atoms: C_3  and  C_4 
REMARK    4  A    between atoms: C_7  and  O_6 
REMARK    5  A    between atoms: C_9  and  C_10 
REMARK    6  A    between atoms: N_15  and  C_14 
REMARK    7  A    between atoms: N_20  and  C_19 
REMARK       I    between atoms: C_22  and  N_20 
ROOT
ATOM      1  C   LIG d   1      -5.149  94.322 120.625  0.00  0.00     0.161 C 
ATOM      2  C   LIG d   1      -6.484  93.904 120.499  0.00  0.00     0.016 C 
ATOM      3  C   LIG d   1      -7.571  94.800 120.375  0.00  0.00     0.038 C 
ATOM      4  C   LIG d   1      -7.380  96.180 120.216  0.00  0.00     0.028 C 
ATOM      5  C   LIG d   1      -6.086  96.689 120.843  0.00  0.00    -0.047 C 
ATOM      6  C   LIG d   1      -4.910  95.820 120.342  0.00  0.00     0.091 C 
ENDROOT
BRANCH   1   7
ATOM      7  O   LIG d   1      -4.302  93.512 119.785  0.00  0.00    -0.368 OA
BRANCH   7   8
ATOM      8  C   LIG d   1      -3.424  92.586 120.470  0.00  0.00     0.119 C 
BRANCH   8   9
ATOM      9  C   LIG d   1      -2.037  92.687 119.807  0.00  0.00     0.028 C 
ATOM     10  C   LIG d   1      -1.977  93.789 118.736  0.00  0.00     0.006 C 
ENDBRANCH   8   9
BRANCH   8  11
ATOM     11  C   LIG d   1      -3.870  91.136 120.259  0.00  0.00     0.028 C 
ATOM     12  C   LIG d   1      -4.651  90.937 118.950  0.00  0.00     0.006 C 
ENDBRANCH   8  11
ENDBRANCH   7   8
ENDBRANCH   1   7
BRANCH   6  13
ATOM     13  N   LIG d   1      -3.618  96.197 120.972  0.00  0.00    -0.311 N 
ATOM     14  C   LIG d   1      -2.746  97.034 120.412  0.00  0.00     0.210 C 
ATOM     15  C   LIG d   1      -1.467  97.271 121.221  0.00  0.00     0.109 C 
ATOM     16  O   LIG d   1      -2.925  97.627 119.338  0.00  0.00    -0.276 OA
ATOM     17  H   LIG d   1      -3.406  95.785 121.860  0.00  0.00     0.149 HD
ENDBRANCH   6  13
BRANCH   5  18
ATOM     18  N   LIG d   1      -5.947  98.113 120.484  0.00  0.00     0.381 N 
ATOM     19  H   LIG d   1      -6.294  98.264 119.558  0.00  0.00    -0.090 HD
ATOM     20  H   LIG d   1      -4.972  98.358 120.500  0.00  0.00    -0.090 HD
ATOM     21  H   LIG d   1      -6.450  98.679 121.132  0.00  0.00    -0.090 HD
ENDBRANCH   5  18
BRANCH   3  22
ATOM     22  C   LIG d   1      -8.869  94.319 120.450  0.00  0.00     0.382 C 
ATOM     23  O   LIG d   1      -9.508  94.072 119.399  0.00  0.00    -0.241 OA
ATOM     24  O   LIG d   1      -9.426  94.171 121.555  0.00  0.00    -0.241 OA
ENDBRANCH   3  22
TORSDOF 7
ENDMDL
MODEL 7
REMARK VINA RESULT:      -4.6     16.338     18.631
REMARK  7 active torsions:
REMARK  status: ('A' for Active; 'I' for Inactive)
REMARK    1  A    between atoms: C_2  and  C_3 
REMARK    2  A    between atoms: C_3  and  O_6 
REMARK    3  A    between atoms: C_3  and  C_4 
REMARK    4  A    between atoms: C_7  and  O_6 
REMARK    5  A    between atoms: C_9  and  C_10 
REMARK    6  A    between atoms: N_15  and  C_14 
REMARK    7  A    between atoms: N_20  and  C_19 
REMARK       I    between atoms: C_22  and  N_20 
ROOT
ATOM      1  C   LIG d   1      -6.483  74.390 117.595  0.00  0.00     0.161 C 
ATOM      2  C   LIG d   1      -7.083  73.155 117.297  0.00  0.00     0.016 C 
ATOM      3  C   LIG d   1      -8.483  72.959 117.258  0.00  0.00     0.038 C 
ATOM      4  C   LIG d   1      -9.384  74.028 117.368  0.00  0.00     0.028 C 
ATOM      5  C   LIG d   1      -8.836  75.203 118.171  0.00  0.00    -0.047 C 
ATOM      6  C   LIG d   1      -7.450  75.592 117.607  0.00  0.00     0.091 C 
ENDROOT
BRANCH   1   7
ATOM      7  O   LIG d   1      -5.391  74.634 116.686  0.00  0.00    -0.368 OA
BRANCH   7   8
ATOM      8  C   LIG d   1      -4.129  75.008 117.292  0.00  0.00     0.119 C 
BRANCH   8   9
ATOM      9  C   LIG d   1      -3.275  75.684 116.202  0.00  0.00     0.028 C 
ATOM     10  C   LIG d   1      -4.102  76.074 114.965  0.00  0.00     0.006 C 
ENDBRANCH   8   9
BRANCH   8  11
ATOM     11  C   LIG d   1      -3.332  73.774 117.725  0.00  0.00     0.028 C 
ATOM     12  C   LIG d   1      -1.852  73.849 117.321  0.00  0.00     0.006 C 
ENDBRANCH   8  11
ENDBRANCH   7   8
ENDBRANCH   1   7
BRANCH   6  13
ATOM     13  N   LIG d   1      -6.805  76.679 118.389  0.00  0.00    -0.311 N 
ATOM     14  C   LIG d   1      -6.304  77.782 117.836  0.00  0.00     0.210 C 
ATOM     15  C   LIG d   1      -5.665  78.767 118.820  0.00  0.00     0.109 C 
ATOM     16  O   LIG d   1      -6.355  78.053 116.627  0.00  0.00    -0.276 OA
ATOM     17  H   LIG d   1      -6.749  76.556 119.381  0.00  0.00     0.149 HD
ENDBRANCH   6  13
BRANCH   5  18
ATOM     18  N   LIG d   1      -9.821  76.297 118.089  0.00  0.00     0.381 N 
ATOM     19  H   LIG d   1      -9.372  77.172 118.270  0.00  0.00    -0.090 HD
ATOM     20  H   LIG d   1     -10.526  76.154 118.791  0.00  0.00    -0.090 HD
ATOM     21  H   LIG d   1     -10.241  76.312 117.185  0.00  0.00    -0.090 HD
ENDBRANCH   5  18
BRANCH   3  22
ATOM     22  C   LIG d   1      -8.994  71.675 117.149  0.00  0.00     0.382 C 
ATOM     23  O   LIG d   1      -8.742  70.985 116.132  0.00  0.00    -0.241 OA
ATOM     24  O   LIG d   1      -9.740  71.214 118.033  0.00  0.00    -0.241 OA
ENDBRANCH   3  22
TORSDOF 7
ENDMDL
MODEL 8
REMARK VINA RESULT:      -4.5     15.556     18.134
REMARK  7 active torsions:
REMARK  status: ('A' for Active; 'I' for Inactive)
REMARK    1  A    between atoms: C_2  and  C_3 
REMARK    2  A    between atoms: C_3  and  O_6 
REMARK    3  A    between atoms: C_3  and  C_4 
REMARK    4  A    between atoms: C_7  and  O_6 
REMARK    5  A    between atoms: C_9  and  C_10 
REMARK    6  A    between atoms: N_15  and  C_14 
REMARK    7  A    between atoms: N_20  and  C_19 
REMARK       I    between atoms: C_22  and  N_20 
ROOT
ATOM      1  C   LIG d   1      -7.153  75.730 117.376  0.00  0.00     0.161 C 
ATOM      2  C   LIG d   1      -6.756  77.074 117.478  0.00  0.00     0.016 C 
ATOM      3  C   LIG d   1      -7.649  78.128 117.776  0.00  0.00     0.038 C 
ATOM      4  C   LIG d   1      -8.982  77.890 118.143  0.00  0.00     0.028 C 
ATOM      5  C   LIG d   1      -9.549  76.598 117.562  0.00  0.00    -0.047 C 
ATOM      6  C   LIG d   1      -8.580  75.437 117.883  0.00  0.00     0.091 C 
ENDROOT
BRANCH   1   7
ATOM      7  O   LIG d   1      -6.198  74.886 118.051  0.00  0.00    -0.368 OA
BRANCH   7   8
ATOM      8  C   LIG d   1      -5.381  74.043 117.202  0.00  0.00     0.119 C 
BRANCH   8   9
ATOM      9  C   LIG d   1      -3.955  74.628 117.204  0.00  0.00     0.028 C 
ATOM     10  C   LIG d   1      -2.993  73.827 118.097  0.00  0.00     0.006 C 
ENDBRANCH   8   9
BRANCH   8  11
ATOM     11  C   LIG d   1      -5.843  74.106 115.743  0.00  0.00     0.028 C 
ATOM     12  C   LIG d   1      -4.837  74.824 114.830  0.00  0.00     0.006 C 
ENDBRANCH   8  11
ENDBRANCH   7   8
ENDBRANCH   1   7
BRANCH   6  13
ATOM     13  N   LIG d   1      -9.017  74.151 117.278  0.00  0.00    -0.311 N 
ATOM     14  C   LIG d   1      -8.773  72.963 117.827  0.00  0.00     0.210 C 
ATOM     15  C   LIG d   1      -9.293  71.763 117.029  0.00  0.00     0.109 C 
ATOM     16  O   LIG d   1      -8.203  72.789 118.914  0.00  0.00    -0.276 OA
ATOM     17  H   LIG d   1      -9.514  74.201 116.410  0.00  0.00     0.149 HD
ENDBRANCH   6  13
BRANCH   5  18
ATOM     18  N   LIG d   1     -10.894  76.404 118.135  0.00  0.00     0.381 N 
ATOM     19  H   LIG d   1     -11.064  75.429 118.278  0.00  0.00    -0.090 HD
ATOM     20  H   LIG d   1     -11.577  76.752 117.485  0.00  0.00    -0.090 HD
ATOM     21  H   LIG d   1     -10.970  76.892 119.001  0.00  0.00    -0.090 HD
ENDBRANCH   5  18
BRANCH   3  22
ATOM     22  C   LIG d   1      -7.221  79.443 117.668  0.00  0.00     0.382 C 
ATOM     23  O   LIG d   1      -8.004  80.382 117.950  0.00  0.00    -0.241 OA
ATOM     24  O   LIG d   1      -6.077  79.702 117.251  0.00  0.00    -0.241 OA
ENDBRANCH   3  22
TORSDOF 7
ENDMDL
MODEL 9
REMARK VINA RESULT:      -4.5      8.396     10.671
REMARK  7 active torsions:
REMARK  status: ('A' for Active; 'I' for Inactive)
REMARK    1  A    between atoms: C_2  and  C_3 
REMARK    2  A    between atoms: C_3  and  O_6 
REMARK    3  A    between atoms: C_3  and  C_4 
REMARK    4  A    between atoms: C_7  and  O_6 
REMARK    5  A    between atoms: C_9  and  C_10 
REMARK    6  A    between atoms: N_15  and  C_14 
REMARK    7  A    between atoms: N_20  and  C_19 
REMARK       I    between atoms: C_22  and  N_20 
ROOT
ATOM      1  C   LIG d   1       2.647  86.924 116.819  0.00  0.00     0.161 C 
ATOM      2  C   LIG d   1       1.910  88.116 116.717  0.00  0.00     0.016 C 
ATOM      3  C   LIG d   1       2.410  89.291 116.110  0.00  0.00     0.038 C 
ATOM      4  C   LIG d   1       3.634  89.308 115.425  0.00  0.00     0.028 C 
ATOM      5  C   LIG d   1       4.630  88.274 115.939  0.00  0.00    -0.047 C 
ATOM      6  C   LIG d   1       3.941  86.891 115.980  0.00  0.00     0.091 C 
ENDROOT
BRANCH   1   7
ATOM      7  O   LIG d   1       1.807  85.800 116.490  0.00  0.00    -0.368 OA
BRANCH   7   8
ATOM      8  C   LIG d   1       0.382  86.057 116.457  0.00  0.00     0.119 C 
BRANCH   8   9
ATOM      9  C   LIG d   1      -0.293  85.047 117.405  0.00  0.00     0.028 C 
ATOM     10  C   LIG d   1       0.208  85.175 118.853  0.00  0.00     0.006 C 
ENDBRANCH   8   9
BRANCH   8  11
ATOM     11  C   LIG d   1      -0.205  85.769 115.072  0.00  0.00     0.028 C 
ATOM     12  C   LIG d   1      -1.724  85.541 115.104  0.00  0.00     0.006 C 
ENDBRANCH   8  11
ENDBRANCH   7   8
ENDBRANCH   1   7
BRANCH   6  13
ATOM     13  N   LIG d   1       4.820  85.837 116.550  0.00  0.00    -0.311 N 
ATOM     14  C   LIG d   1       5.080  84.685 115.933  0.00  0.00     0.210 C 
ATOM     15  C   LIG d   1       5.995  83.730 116.705  0.00  0.00     0.109 C 
ATOM     16  O   LIG d   1       4.665  84.378 114.805  0.00  0.00    -0.276 OA
ATOM     17  H   LIG d   1       5.224  86.016 117.449  0.00  0.00     0.149 HD
ENDBRANCH   6  13
BRANCH   5  18
ATOM     18  N   LIG d   1       5.806  88.308 115.049  0.00  0.00     0.381 N 
ATOM     19  H   LIG d   1       5.593  87.847 114.188  0.00  0.00    -0.090 HD
ATOM     20  H   LIG d   1       6.562  87.816 115.491  0.00  0.00    -0.090 HD
ATOM     21  H   LIG d   1       6.073  89.252 114.873  0.00  0.00    -0.090 HD
ENDBRANCH   5  18
BRANCH   3  22
ATOM     22  C   LIG d   1       1.699  90.476 116.220  0.00  0.00     0.382 C 
ATOM     23  O   LIG d   1       2.310  91.560 116.386  0.00  0.00    -0.241 OA
ATOM     24  O   LIG d   1       0.454  90.471 116.199  0.00  0.00    -0.241 OA
ENDBRANCH   3  22
TORSDOF 7
ENDMDL
