MODEL 1
REMARK VINA RESULT:      -5.4      0.000      0.000
REMARK  7 active torsions:
REMARK  status: ('A' for Active; 'I' for Inactive)
REMARK    1  A    between atoms: C_2  and  C_3 
REMARK    2  A    between atoms: C_3  and  O_6 
REMARK    3  A    between atoms: C_3  and  C_4 
REMARK    4  A    between atoms: C_7  and  O_6 
REMARK    5  A    between atoms: C_9  and  C_10 
REMARK    6  A    between atoms: N_15  and  C_14 
REMARK    7  A    between atoms: N_20  and  C_19 
REMARK       I    between atoms: C_22  and  N_20 
ROOT
ATOM      1  C   LIG d   1      -9.050  76.162 119.193  0.00  0.00     0.161 C 
ATOM      2  C   LIG d   1      -8.872  74.911 118.579  0.00  0.00     0.016 C 
ATOM      3  C   LIG d   1      -9.896  74.238 117.874  0.00  0.00     0.038 C 
ATOM      4  C   LIG d   1     -11.132  74.843 117.604  0.00  0.00     0.028 C 
ATOM      5  C   LIG d   1     -11.529  75.895 118.634  0.00  0.00    -0.047 C 
ATOM      6  C   LIG d   1     -10.358  76.888 118.815  0.00  0.00     0.091 C 
ENDROOT
BRANCH   1   7
ATOM      7  O   LIG d   1      -7.913  77.005 118.923  0.00  0.00    -0.368 OA
BRANCH   7   8
ATOM      8  C   LIG d   1      -7.899  77.662 117.631  0.00  0.00     0.119 C 
BRANCH   8   9
ATOM      9  C   LIG d   1      -6.763  77.031 116.803  0.00  0.00     0.028 C 
ATOM     10  C   LIG d   1      -7.291  76.125 115.678  0.00  0.00     0.006 C 
ENDBRANCH   8   9
BRANCH   8  11
ATOM     11  C   LIG d   1      -7.531  79.142 117.763  0.00  0.00     0.028 C 
ATOM     12  C   LIG d   1      -6.018  79.392 117.649  0.00  0.00     0.006 C 
ENDBRANCH   8  11
ENDBRANCH   7   8
ENDBRANCH   1   7
BRANCH   6  13
ATOM     13  N   LIG d   1     -10.631  77.901 119.867  0.00  0.00    -0.311 N 
ATOM     14  C   LIG d   1     -10.819  79.194 119.609  0.00  0.00     0.210 C 
ATOM     15  C   LIG d   1     -11.066  80.070 120.841  0.00  0.00     0.109 C 
ATOM     16  O   LIG d   1     -10.836  79.693 118.474  0.00  0.00    -0.276 OA
ATOM     17  H   LIG d   1     -10.665  77.577 120.814  0.00  0.00     0.149 HD
ENDBRANCH   6  13
BRANCH   5  18
ATOM     18  N   LIG d   1     -12.767  76.541 118.158  0.00  0.00     0.381 N 
ATOM     19  H   LIG d   1     -13.557  75.976 118.395  0.00  0.00    -0.090 HD
ATOM     20  H   LIG d   1     -12.726  76.623 117.157  0.00  0.00    -0.090 HD
ATOM     21  H   LIG d   1     -12.860  77.444 118.569  0.00  0.00    -0.090 HD
ENDBRANCH   5  18
BRANCH   3  22
ATOM     22  C   LIG d   1      -9.701  72.927 117.465  0.00  0.00     0.382 C 
ATOM     23  O   LIG d   1     -10.429  72.013 117.921  0.00  0.00    -0.241 OA
ATOM     24  O   LIG d   1      -8.778  72.642 116.679  0.00  0.00    -0.241 OA
ENDBRANCH   3  22
TORSDOF 7
ENDMDL
MODEL 2
REMARK VINA RESULT:      -5.4     14.939     17.523
REMARK  7 active torsions:
REMARK  status: ('A' for Active; 'I' for Inactive)
REMARK    1  A    between atoms: C_2  and  C_3 
REMARK    2  A    between atoms: C_3  and  O_6 
REMARK    3  A    between atoms: C_3  and  C_4 
REMARK    4  A    between atoms: C_7  and  O_6 
REMARK    5  A    between atoms: C_9  and  C_10 
REMARK    6  A    between atoms: N_15  and  C_14 
REMARK    7  A    between atoms: N_20  and  C_19 
REMARK       I    between atoms: C_22  and  N_20 
ROOT
ATOM      1  C   LIG d   1      -6.147  93.289 117.948  0.00  0.00     0.161 C 
ATOM      2  C   LIG d   1      -6.886  92.429 117.119  0.00  0.00     0.016 C 
ATOM      3  C   LIG d   1      -6.317  91.331 116.433  0.00  0.00     0.038 C 
ATOM      4  C   LIG d   1      -4.992  90.927 116.651  0.00  0.00     0.028 C 
ATOM      5  C   LIG d   1      -4.076  92.064 117.089  0.00  0.00    -0.047 C 
ATOM      6  C   LIG d   1      -4.724  92.798 118.286  0.00  0.00     0.091 C 
ENDROOT
BRANCH   1   7
ATOM      7  O   LIG d   1      -6.885  93.555 119.158  0.00  0.00    -0.368 OA
BRANCH   7   8
ATOM      8  C   LIG d   1      -7.473  94.874 119.269  0.00  0.00     0.119 C 
BRANCH   8   9
ATOM      9  C   LIG d   1      -8.982  94.734 118.987  0.00  0.00     0.028 C 
ATOM     10  C   LIG d   1      -9.818  94.693 120.277  0.00  0.00     0.006 C 
ENDBRANCH   8   9
BRANCH   8  11
ATOM     11  C   LIG d   1      -6.943  95.814 118.181  0.00  0.00     0.028 C 
ATOM     12  C   LIG d   1      -7.941  96.923 117.814  0.00  0.00     0.006 C 
ENDBRANCH   8  11
ENDBRANCH   7   8
ENDBRANCH   1   7
BRANCH   6  13
ATOM     13  N   LIG d   1      -3.933  93.977 118.724  0.00  0.00    -0.311 N 
ATOM     14  C   LIG d   1      -3.004  93.924 119.676  0.00  0.00     0.210 C 
ATOM     15  C   LIG d   1      -2.320  95.259 119.988  0.00  0.00     0.109 C 
ATOM     16  O   LIG d   1      -2.658  92.892 120.270  0.00  0.00    -0.276 OA
ATOM     17  H   LIG d   1      -4.127  94.850 118.272  0.00  0.00     0.149 HD
ENDBRANCH   6  13
BRANCH   5  18
ATOM     18  N   LIG d   1      -2.762  91.478 117.413  0.00  0.00     0.381 N 
ATOM     19  H   LIG d   1      -2.209  91.405 116.582  0.00  0.00    -0.090 HD
ATOM     20  H   LIG d   1      -2.900  90.554 117.783  0.00  0.00    -0.090 HD
ATOM     21  H   LIG d   1      -2.291  92.046 118.084  0.00  0.00    -0.090 HD
ENDBRANCH   5  18
BRANCH   3  22
ATOM     22  C   LIG d   1      -7.067  90.649 115.486  0.00  0.00     0.382 C 
ATOM     23  O   LIG d   1      -6.856  89.430 115.280  0.00  0.00    -0.241 OA
ATOM     24  O   LIG d   1      -7.921  91.248 114.805  0.00  0.00    -0.241 OA
ENDBRANCH   3  22
TORSDOF 7
ENDMDL
MODEL 3
REMARK VINA RESULT:      -5.3     14.649     16.796
REMARK  7 active torsions:
REMARK  status: ('A' for Active; 'I' for Inactive)
REMARK    1  A    between atoms: C_2  and  C_3 
REMARK    2  A    between atoms: C_3  and  O_6 
REMARK    3  A    between atoms: C_3  and  C_4 
REMARK    4  A    between atoms: C_7  and  O_6 
REMARK    5  A    between atoms: C_9  and  C_10 
REMARK    6  A    between atoms: N_15  and  C_14 
REMARK    7  A    between atoms: N_20  and  C_19 
REMARK       I    between atoms: C_22  and  N_20 
ROOT
ATOM      1  C   LIG d   1      -4.670  92.145 117.773  0.00  0.00     0.161 C 
ATOM      2  C   LIG d   1      -4.825  91.186 116.758  0.00  0.00     0.016 C 
ATOM      3  C   LIG d   1      -6.019  91.022 116.019  0.00  0.00     0.038 C 
ATOM      4  C   LIG d   1      -7.096  91.913 116.142  0.00  0.00     0.028 C 
ATOM      5  C   LIG d   1      -7.173  92.584 117.509  0.00  0.00    -0.047 C 
ATOM      6  C   LIG d   1      -5.795  93.198 117.845  0.00  0.00     0.091 C 
ENDROOT
BRANCH   1   7
ATOM      7  O   LIG d   1      -3.387  92.789 117.644  0.00  0.00    -0.368 OA
BRANCH   7   8
ATOM      8  C   LIG d   1      -2.400  92.452 118.649  0.00  0.00     0.119 C 
BRANCH   8   9
ATOM      9  C   LIG d   1      -1.505  93.690 118.853  0.00  0.00     0.028 C 
ATOM     10  C   LIG d   1      -2.302  95.004 118.804  0.00  0.00     0.006 C 
ENDBRANCH   8   9
BRANCH   8  11
ATOM     11  C   LIG d   1      -1.459  91.348 118.157  0.00  0.00     0.028 C 
ATOM     12  C   LIG d   1      -1.594  90.047 118.964  0.00  0.00     0.006 C 
ENDBRANCH   8  11
ENDBRANCH   7   8
ENDBRANCH   1   7
BRANCH   6  13
ATOM     13  N   LIG d   1      -5.760  93.802 119.203  0.00  0.00    -0.311 N 
ATOM     14  C   LIG d   1      -5.994  95.092 119.438  0.00  0.00     0.210 C 
ATOM     15  C   LIG d   1      -5.887  95.511 120.907  0.00  0.00     0.109 C 
ATOM     16  O   LIG d   1      -6.312  95.922 118.573  0.00  0.00    -0.276 OA
ATOM     17  H   LIG d   1      -5.540  93.193 119.967  0.00  0.00     0.149 HD
ENDBRANCH   6  13
BRANCH   5  18
ATOM     18  N   LIG d   1      -8.254  93.586 117.453  0.00  0.00     0.381 N 
ATOM     19  H   LIG d   1      -7.978  94.411 117.947  0.00  0.00    -0.090 HD
ATOM     20  H   LIG d   1      -9.071  93.209 117.901  0.00  0.00    -0.090 HD
ATOM     21  H   LIG d   1      -8.461  93.812 116.505  0.00  0.00    -0.090 HD
ENDBRANCH   5  18
BRANCH   3  22
ATOM     22  C   LIG d   1      -6.159  89.933 115.172  0.00  0.00     0.382 C 
ATOM     23  O   LIG d   1      -7.302  89.567 114.805  0.00  0.00    -0.241 OA
ATOM     24  O   LIG d   1      -5.161  89.284 114.807  0.00  0.00    -0.241 OA
ENDBRANCH   3  22
TORSDOF 7
ENDMDL
MODEL 4
REMARK VINA RESULT:      -5.2      1.518      2.369
REMARK  7 active torsions:
REMARK  status: ('A' for Active; 'I' for Inactive)
REMARK    1  A    between atoms: C_2  and  C_3 
REMARK    2  A    between atoms: C_3  and  O_6 
REMARK    3  A    between atoms: C_3  and  C_4 
REMARK    4  A    between atoms: C_7  and  O_6 
REMARK    5  A    between atoms: C_9  and  C_10 
REMARK    6  A    between atoms: N_15  and  C_14 
REMARK    7  A    between atoms: N_20  and  C_19 
REMARK       I    between atoms: C_22  and  N_20 
ROOT
ATOM      1  C   LIG d   1      -8.894  75.598 117.522  0.00  0.00     0.161 C 
ATOM      2  C   LIG d   1      -8.651  74.227 117.341  0.00  0.00     0.016 C 
ATOM      3  C   LIG d   1      -9.676  73.255 117.289  0.00  0.00     0.038 C 
ATOM      4  C   LIG d   1     -11.033  73.609 117.262  0.00  0.00     0.028 C 
ATOM      5  C   LIG d   1     -11.325  74.939 117.949  0.00  0.00    -0.047 C 
ATOM      6  C   LIG d   1     -10.373  76.017 117.383  0.00  0.00     0.091 C 
ENDROOT
BRANCH   1   7
ATOM      7  O   LIG d   1      -8.070  76.364 116.620  0.00  0.00    -0.368 OA
BRANCH   7   8
ATOM      8  C   LIG d   1      -6.639  76.174 116.748  0.00  0.00     0.119 C 
BRANCH   8   9
ATOM      9  C   LIG d   1      -6.031  77.520 117.187  0.00  0.00     0.028 C 
ATOM     10  C   LIG d   1      -7.106  78.574 117.504  0.00  0.00     0.006 C 
ENDBRANCH   8   9
BRANCH   8  11
ATOM     11  C   LIG d   1      -5.996  75.861 115.394  0.00  0.00     0.028 C 
ATOM     12  C   LIG d   1      -5.550  74.395 115.271  0.00  0.00     0.006 C 
ENDBRANCH   8  11
ENDBRANCH   7   8
ENDBRANCH   1   7
BRANCH   6  13
ATOM     13  N   LIG d   1     -10.535  77.329 118.061  0.00  0.00    -0.311 N 
ATOM     14  C   LIG d   1     -10.743  77.457 119.371  0.00  0.00     0.210 C 
ATOM     15  C   LIG d   1     -10.902  78.899 119.862  0.00  0.00     0.109 C 
ATOM     16  O   LIG d   1     -10.778  76.515 120.176  0.00  0.00    -0.276 OA
ATOM     17  H   LIG d   1     -10.488  78.148 117.487  0.00  0.00     0.149 HD
ENDBRANCH   6  13
BRANCH   5  18
ATOM     18  N   LIG d   1     -12.750  75.252 117.727  0.00  0.00     0.381 N 
ATOM     19  H   LIG d   1     -12.980  75.115 116.763  0.00  0.00    -0.090 HD
ATOM     20  H   LIG d   1     -12.910  76.217 117.955  0.00  0.00    -0.090 HD
ATOM     21  H   LIG d   1     -13.320  74.669 118.298  0.00  0.00    -0.090 HD
ENDBRANCH   5  18
BRANCH   3  22
ATOM     22  C   LIG d   1      -9.348  71.908 117.303  0.00  0.00     0.382 C 
ATOM     23  O   LIG d   1      -9.160  71.319 118.395  0.00  0.00    -0.241 OA
ATOM     24  O   LIG d   1      -9.193  71.284 116.235  0.00  0.00    -0.241 OA
ENDBRANCH   3  22
TORSDOF 7
ENDMDL
MODEL 5
REMARK VINA RESULT:      -5.1      2.108      5.125
REMARK  7 active torsions:
REMARK  status: ('A' for Active; 'I' for Inactive)
REMARK    1  A    between atoms: C_2  and  C_3 
REMARK    2  A    between atoms: C_3  and  O_6 
REMARK    3  A    between atoms: C_3  and  C_4 
REMARK    4  A    between atoms: C_7  and  O_6 
REMARK    5  A    between atoms: C_9  and  C_10 
REMARK    6  A    between atoms: N_15  and  C_14 
REMARK    7  A    between atoms: N_20  and  C_19 
REMARK       I    between atoms: C_22  and  N_20 
ROOT
ATOM      1  C   LIG d   1      -7.942  77.208 117.330  0.00  0.00     0.161 C 
ATOM      2  C   LIG d   1      -7.519  78.541 117.461  0.00  0.00     0.016 C 
ATOM      3  C   LIG d   1      -8.269  79.532 118.135  0.00  0.00     0.038 C 
ATOM      4  C   LIG d   1      -9.430  79.220 118.858  0.00  0.00     0.028 C 
ATOM      5  C   LIG d   1     -10.159  77.989 118.331  0.00  0.00    -0.047 C 
ATOM      6  C   LIG d   1      -9.151  76.823 118.207  0.00  0.00     0.091 C 
ENDROOT
BRANCH   1   7
ATOM      7  O   LIG d   1      -6.836  76.317 117.582  0.00  0.00    -0.368 OA
BRANCH   7   8
ATOM      8  C   LIG d   1      -5.903  76.134 116.489  0.00  0.00     0.119 C 
BRANCH   8   9
ATOM      9  C   LIG d   1      -6.608  75.280 115.417  0.00  0.00     0.028 C 
ATOM     10  C   LIG d   1      -6.891  73.848 115.901  0.00  0.00     0.006 C 
ENDBRANCH   8   9
BRANCH   8  11
ATOM     11  C   LIG d   1      -4.687  75.313 116.927  0.00  0.00     0.028 C 
ATOM     12  C   LIG d   1      -3.940  75.942 118.114  0.00  0.00     0.006 C 
ENDBRANCH   8  11
ENDBRANCH   7   8
ENDBRANCH   1   7
BRANCH   6  13
ATOM     13  N   LIG d   1      -9.764  75.604 117.619  0.00  0.00    -0.311 N 
ATOM     14  C   LIG d   1      -9.791  74.425 118.238  0.00  0.00     0.210 C 
ATOM     15  C   LIG d   1     -10.454  73.293 117.446  0.00  0.00     0.109 C 
ATOM     16  O   LIG d   1      -9.357  74.216 119.381  0.00  0.00    -0.276 OA
ATOM     17  H   LIG d   1     -10.168  75.691 116.706  0.00  0.00     0.149 HD
ENDBRANCH   6  13
BRANCH   5  18
ATOM     18  N   LIG d   1     -11.269  77.697 119.258  0.00  0.00     0.381 N 
ATOM     19  H   LIG d   1     -11.902  77.048 118.835  0.00  0.00    -0.090 HD
ATOM     20  H   LIG d   1     -11.769  78.549 119.444  0.00  0.00    -0.090 HD
ATOM     21  H   LIG d   1     -10.913  77.319 120.108  0.00  0.00    -0.090 HD
ENDBRANCH   5  18
BRANCH   3  22
ATOM     22  C   LIG d   1      -7.880  80.861 118.055  0.00  0.00     0.382 C 
ATOM     23  O   LIG d   1      -8.251  81.566 117.086  0.00  0.00    -0.241 OA
ATOM     24  O   LIG d   1      -7.126  81.351 118.917  0.00  0.00    -0.241 OA
ENDBRANCH   3  22
TORSDOF 7
ENDMDL
MODEL 6
REMARK VINA RESULT:      -5.1      1.995      2.986
REMARK  7 active torsions:
REMARK  status: ('A' for Active; 'I' for Inactive)
REMARK    1  A    between atoms: C_2  and  C_3 
REMARK    2  A    between atoms: C_3  and  O_6 
REMARK    3  A    between atoms: C_3  and  C_4 
REMARK    4  A    between atoms: C_7  and  O_6 
REMARK    5  A    between atoms: C_9  and  C_10 
REMARK    6  A    between atoms: N_15  and  C_14 
REMARK    7  A    between atoms: N_20  and  C_19 
REMARK       I    between atoms: C_22  and  N_20 
ROOT
ATOM      1  C   LIG d   1      -8.220  76.700 117.238  0.00  0.00     0.161 C 
ATOM      2  C   LIG d   1      -9.174  75.678 117.107  0.00  0.00     0.016 C 
ATOM      3  C   LIG d   1     -10.495  75.778 117.602  0.00  0.00     0.038 C 
ATOM      4  C   LIG d   1     -10.999  76.975 118.133  0.00  0.00     0.028 C 
ATOM      5  C   LIG d   1      -9.923  77.867 118.743  0.00  0.00    -0.047 C 
ATOM      6  C   LIG d   1      -8.784  78.055 117.715  0.00  0.00     0.091 C 
ENDROOT
BRANCH   1   7
ATOM      7  O   LIG d   1      -7.506  76.864 115.996  0.00  0.00    -0.368 OA
BRANCH   7   8
ATOM      8  C   LIG d   1      -6.114  76.463 116.004  0.00  0.00     0.119 C 
BRANCH   8   9
ATOM      9  C   LIG d   1      -5.969  75.275 115.033  0.00  0.00     0.028 C 
ATOM     10  C   LIG d   1      -6.245  73.924 115.714  0.00  0.00     0.006 C 
ENDBRANCH   8   9
BRANCH   8  11
ATOM     11  C   LIG d   1      -5.698  75.921 117.374  0.00  0.00     0.028 C 
ATOM     12  C   LIG d   1      -4.614  76.776 118.049  0.00  0.00     0.006 C 
ENDBRANCH   8  11
ENDBRANCH   7   8
ENDBRANCH   1   7
BRANCH   6  13
ATOM     13  N   LIG d   1      -7.652  78.846 118.262  0.00  0.00    -0.311 N 
ATOM     14  C   LIG d   1      -7.499  80.152 118.047  0.00  0.00     0.210 C 
ATOM     15  C   LIG d   1      -6.251  80.770 118.686  0.00  0.00     0.109 C 
ATOM     16  O   LIG d   1      -8.295  80.863 117.416  0.00  0.00    -0.276 OA
ATOM     17  H   LIG d   1      -6.975  78.355 118.812  0.00  0.00     0.149 HD
ENDBRANCH   6  13
BRANCH   5  18
ATOM     18  N   LIG d   1     -10.566  79.137 119.132  0.00  0.00     0.381 N 
ATOM     19  H   LIG d   1     -11.303  79.353 118.492  0.00  0.00    -0.090 HD
ATOM     20  H   LIG d   1      -9.883  79.873 119.088  0.00  0.00    -0.090 HD
ATOM     21  H   LIG d   1     -10.929  79.065 120.057  0.00  0.00    -0.090 HD
ENDBRANCH   5  18
BRANCH   3  22
ATOM     22  C   LIG d   1     -11.314  74.659 117.606  0.00  0.00     0.382 C 
ATOM     23  O   LIG d   1     -12.543  74.783 117.824  0.00  0.00    -0.241 OA
ATOM     24  O   LIG d   1     -10.832  73.523 117.437  0.00  0.00    -0.241 OA
ENDBRANCH   3  22
TORSDOF 7
ENDMDL
MODEL 7
REMARK VINA RESULT:      -5.0      2.548      5.944
REMARK  7 active torsions:
REMARK  status: ('A' for Active; 'I' for Inactive)
REMARK    1  A    between atoms: C_2  and  C_3 
REMARK    2  A    between atoms: C_3  and  O_6 
REMARK    3  A    between atoms: C_3  and  C_4 
REMARK    4  A    between atoms: C_7  and  O_6 
REMARK    5  A    between atoms: C_9  and  C_10 
REMARK    6  A    between atoms: N_15  and  C_14 
REMARK    7  A    between atoms: N_20  and  C_19 
REMARK       I    between atoms: C_22  and  N_20 
ROOT
ATOM      1  C   LIG d   1      -8.486  76.281 117.934  0.00  0.00     0.161 C 
ATOM      2  C   LIG d   1      -9.551  77.152 118.218  0.00  0.00     0.016 C 
ATOM      3  C   LIG d   1      -9.420  78.559 118.245  0.00  0.00     0.038 C 
ATOM      4  C   LIG d   1      -8.241  79.202 117.841  0.00  0.00     0.028 C 
ATOM      5  C   LIG d   1      -6.990  78.351 118.033  0.00  0.00    -0.047 C 
ATOM      6  C   LIG d   1      -7.219  76.968 117.382  0.00  0.00     0.091 C 
ENDROOT
BRANCH   1   7
ATOM      7  O   LIG d   1      -8.927  75.245 117.035  0.00  0.00    -0.368 OA
BRANCH   7   8
ATOM      8  C   LIG d   1      -8.961  73.902 117.577  0.00  0.00     0.119 C 
BRANCH   8   9
ATOM      9  C   LIG d   1      -8.564  72.935 116.445  0.00  0.00     0.028 C 
ATOM     10  C   LIG d   1      -8.955  71.480 116.752  0.00  0.00     0.006 C 
ENDBRANCH   8   9
BRANCH   8  11
ATOM     11  C   LIG d   1     -10.384  73.498 117.975  0.00  0.00     0.028 C 
ATOM     12  C   LIG d   1     -11.462  74.280 117.208  0.00  0.00     0.006 C 
ENDBRANCH   8  11
ENDBRANCH   7   8
ENDBRANCH   1   7
BRANCH   6  13
ATOM     13  N   LIG d   1      -6.076  76.044 117.598  0.00  0.00    -0.311 N 
ATOM     14  C   LIG d   1      -5.137  75.813 116.682  0.00  0.00     0.210 C 
ATOM     15  C   LIG d   1      -4.058  74.809 117.101  0.00  0.00     0.109 C 
ATOM     16  O   LIG d   1      -5.077  76.368 115.574  0.00  0.00    -0.276 OA
ATOM     17  H   LIG d   1      -6.029  75.574 118.481  0.00  0.00     0.149 HD
ENDBRANCH   6  13
BRANCH   5  18
ATOM     18  N   LIG d   1      -5.855  79.087 117.445  0.00  0.00     0.381 N 
ATOM     19  H   LIG d   1      -6.072  79.347 116.503  0.00  0.00    -0.090 HD
ATOM     20  H   LIG d   1      -5.051  78.485 117.428  0.00  0.00    -0.090 HD
ATOM     21  H   LIG d   1      -5.659  79.900 117.985  0.00  0.00    -0.090 HD
ENDBRANCH   5  18
BRANCH   3  22
ATOM     22  C   LIG d   1     -10.465  79.338 118.720  0.00  0.00     0.382 C 
ATOM     23  O   LIG d   1     -10.567  80.536 118.363  0.00  0.00    -0.241 OA
ATOM     24  O   LIG d   1     -11.281  78.870 119.536  0.00  0.00    -0.241 OA
ENDBRANCH   3  22
TORSDOF 7
ENDMDL
MODEL 8
REMARK VINA RESULT:      -5.0      2.285      4.659
REMARK  7 active torsions:
REMARK  status: ('A' for Active; 'I' for Inactive)
REMARK    1  A    between atoms: C_2  and  C_3 
REMARK    2  A    between atoms: C_3  and  O_6 
REMARK    3  A    between atoms: C_3  and  C_4 
REMARK    4  A    between atoms: C_7  and  O_6 
REMARK    5  A    between atoms: C_9  and  C_10 
REMARK    6  A    between atoms: N_15  and  C_14 
REMARK    7  A    between atoms: N_20  and  C_19 
REMARK       I    between atoms: C_22  and  N_20 
ROOT
ATOM      1  C   LIG d   1      -8.670  76.372 117.045  0.00  0.00     0.161 C 
ATOM      2  C   LIG d   1      -7.863  75.375 116.473  0.00  0.00     0.016 C 
ATOM      3  C   LIG d   1      -6.460  75.489 116.342  0.00  0.00     0.038 C 
ATOM      4  C   LIG d   1      -5.746  76.551 116.915  0.00  0.00     0.028 C 
ATOM      5  C   LIG d   1      -6.569  77.827 117.059  0.00  0.00    -0.047 C 
ATOM      6  C   LIG d   1      -7.896  77.489 117.776  0.00  0.00     0.091 C 
ENDROOT
BRANCH   1   7
ATOM      7  O   LIG d   1      -9.637  75.771 117.929  0.00  0.00    -0.368 OA
BRANCH   7   8
ATOM      8  C   LIG d   1     -11.005  75.744 117.453  0.00  0.00     0.119 C 
BRANCH   8   9
ATOM      9  C   LIG d   1     -11.869  76.496 118.484  0.00  0.00     0.028 C 
ATOM     10  C   LIG d   1     -11.208  76.554 119.872  0.00  0.00     0.006 C 
ENDBRANCH   8   9
BRANCH   8  11
ATOM     11  C   LIG d   1     -11.557  74.316 117.426  0.00  0.00     0.028 C 
ATOM     12  C   LIG d   1     -10.486  73.257 117.730  0.00  0.00     0.006 C 
ENDBRANCH   8  11
ENDBRANCH   7   8
ENDBRANCH   1   7
BRANCH   6  13
ATOM     13  N   LIG d   1      -8.799  78.665 117.883  0.00  0.00    -0.311 N 
ATOM     14  C   LIG d   1      -9.070  79.279 119.033  0.00  0.00     0.210 C 
ATOM     15  C   LIG d   1     -10.041  80.459 118.923  0.00  0.00     0.109 C 
ATOM     16  O   LIG d   1      -8.574  78.979 120.129  0.00  0.00    -0.276 OA
ATOM     17  H   LIG d   1      -9.220  78.995 117.036  0.00  0.00     0.149 HD
ENDBRANCH   6  13
BRANCH   5  18
ATOM     18  N   LIG d   1      -5.748  78.807 117.794  0.00  0.00     0.381 N 
ATOM     19  H   LIG d   1      -5.348  78.375 118.603  0.00  0.00    -0.090 HD
ATOM     20  H   LIG d   1      -6.338  79.561 118.099  0.00  0.00    -0.090 HD
ATOM     21  H   LIG d   1      -5.026  79.158 117.204  0.00  0.00    -0.090 HD
ENDBRANCH   5  18
BRANCH   3  22
ATOM     22  C   LIG d   1      -5.761  74.552 115.596  0.00  0.00     0.382 C 
ATOM     23  O   LIG d   1      -4.783  74.911 114.897  0.00  0.00    -0.241 OA
ATOM     24  O   LIG d   1      -6.123  73.361 115.578  0.00  0.00    -0.241 OA
ENDBRANCH   3  22
TORSDOF 7
ENDMDL
MODEL 9
REMARK VINA RESULT:      -4.9     14.627     16.539
REMARK  7 active torsions:
REMARK  status: ('A' for Active; 'I' for Inactive)
REMARK    1  A    between atoms: C_2  and  C_3 
REMARK    2  A    between atoms: C_3  and  O_6 
REMARK    3  A    between atoms: C_3  and  C_4 
REMARK    4  A    between atoms: C_7  and  O_6 
REMARK    5  A    between atoms: C_9  and  C_10 
REMARK    6  A    between atoms: N_15  and  C_14 
REMARK    7  A    between atoms: N_20  and  C_19 
REMARK       I    between atoms: C_22  and  N_20 
ROOT
ATOM      1  C   LIG d   1      -4.273  91.607 117.754  0.00  0.00     0.161 C 
ATOM      2  C   LIG d   1      -4.946  90.953 116.710  0.00  0.00     0.016 C 
ATOM      3  C   LIG d   1      -6.214  91.355 116.229  0.00  0.00     0.038 C 
ATOM      4  C   LIG d   1      -6.830  92.538 116.662  0.00  0.00     0.028 C 
ATOM      5  C   LIG d   1      -6.422  92.953 118.071  0.00  0.00    -0.047 C 
ATOM      6  C   LIG d   1      -4.879  92.966 118.163  0.00  0.00     0.091 C 
ENDROOT
BRANCH   1   7
ATOM      7  O   LIG d   1      -2.880  91.761 117.417  0.00  0.00    -0.368 OA
BRANCH   7   8
ATOM      8  C   LIG d   1      -1.939  91.038 118.249  0.00  0.00     0.119 C 
BRANCH   8   9
ATOM      9  C   LIG d   1      -0.547  91.659 118.021  0.00  0.00     0.028 C 
ATOM     10  C   LIG d   1       0.452  90.656 117.421  0.00  0.00     0.006 C 
ENDBRANCH   8   9
BRANCH   8  11
ATOM     11  C   LIG d   1      -1.809  89.578 117.805  0.00  0.00     0.028 C 
ATOM     12  C   LIG d   1      -2.329  88.587 118.858  0.00  0.00     0.006 C 
ENDBRANCH   8  11
ENDBRANCH   7   8
ENDBRANCH   1   7
BRANCH   6  13
ATOM     13  N   LIG d   1      -4.395  93.280 119.533  0.00  0.00    -0.311 N 
ATOM     14  C   LIG d   1      -3.458  94.191 119.789  0.00  0.00     0.210 C 
ATOM     15  C   LIG d   1      -3.092  94.344 121.269  0.00  0.00     0.109 C 
ATOM     16  O   LIG d   1      -2.919  94.910 118.935  0.00  0.00    -0.276 OA
ATOM     17  H   LIG d   1      -4.802  92.765 120.290  0.00  0.00     0.149 HD
ENDBRANCH   6  13
BRANCH   5  18
ATOM     18  N   LIG d   1      -7.028  94.270 118.341  0.00  0.00     0.381 N 
ATOM     19  H   LIG d   1      -6.509  94.985 117.871  0.00  0.00    -0.090 HD
ATOM     20  H   LIG d   1      -6.989  94.450 119.329  0.00  0.00    -0.090 HD
ATOM     21  H   LIG d   1      -7.975  94.279 118.032  0.00  0.00    -0.090 HD
ENDBRANCH   5  18
BRANCH   3  22
ATOM     22  C   LIG d   1      -6.896  90.546 115.332  0.00  0.00     0.382 C 
ATOM     23  O   LIG d   1      -6.426  89.428 115.012  0.00  0.00    -0.241 OA
ATOM     24  O   LIG d   1      -7.954  90.940 114.806  0.00  0.00    -0.241 OA
ENDBRANCH   3  22
TORSDOF 7
ENDMDL
