MODEL 1
REMARK VINA RESULT:      -5.9      0.000      0.000
REMARK  7 active torsions:
REMARK  status: ('A' for Active; 'I' for Inactive)
REMARK    1  A    between atoms: C_2  and  C_3 
REMARK    2  A    between atoms: C_3  and  O_6 
REMARK    3  A    between atoms: C_3  and  C_4 
REMARK    4  A    between atoms: C_7  and  O_6 
REMARK    5  A    between atoms: C_9  and  C_10 
REMARK    6  A    between atoms: N_15  and  C_14 
REMARK    7  A    between atoms: N_20  and  C_19 
REMARK       I    between atoms: C_22  and  N_20 
ROOT
ATOM      1  C   LIG d   1      -8.148  75.831 117.900  0.00  0.00     0.161 C 
ATOM      2  C   LIG d   1      -9.517  75.819 118.218  0.00  0.00     0.016 C 
ATOM      3  C   LIG d   1     -10.232  76.971 118.620  0.00  0.00     0.038 C 
ATOM      4  C   LIG d   1      -9.658  78.250 118.584  0.00  0.00     0.028 C 
ATOM      5  C   LIG d   1      -8.142  78.239 118.755  0.00  0.00    -0.047 C 
ATOM      6  C   LIG d   1      -7.532  77.237 117.749  0.00  0.00     0.091 C 
ENDROOT
BRANCH   1   7
ATOM      7  O   LIG d   1      -7.917  75.051 116.710  0.00  0.00    -0.368 OA
BRANCH   7   8
ATOM      8  C   LIG d   1      -7.350  73.733 116.912  0.00  0.00     0.119 C 
BRANCH   8   9
ATOM      9  C   LIG d   1      -6.423  73.440 115.717  0.00  0.00     0.028 C 
ATOM     10  C   LIG d   1      -5.803  74.719 115.127  0.00  0.00     0.006 C 
ENDBRANCH   8   9
BRANCH   8  11
ATOM     11  C   LIG d   1      -8.430  72.649 116.863  0.00  0.00     0.028 C 
ATOM     12  C   LIG d   1      -7.868  71.264 116.502  0.00  0.00     0.006 C 
ENDBRANCH   8  11
ENDBRANCH   7   8
ENDBRANCH   1   7
BRANCH   6  13
ATOM     13  N   LIG d   1      -6.060  77.102 117.906  0.00  0.00    -0.311 N 
ATOM     14  C   LIG d   1      -5.179  77.797 117.188  0.00  0.00     0.210 C 
ATOM     15  C   LIG d   1      -3.710  77.490 117.494  0.00  0.00     0.109 C 
ATOM     16  O   LIG d   1      -5.475  78.661 116.348  0.00  0.00    -0.276 OA
ATOM     17  H   LIG d   1      -5.732  76.445 118.587  0.00  0.00     0.149 HD
ENDBRANCH   6  13
BRANCH   5  18
ATOM     18  N   LIG d   1      -7.661  79.620 118.560  0.00  0.00     0.381 N 
ATOM     19  H   LIG d   1      -8.190  80.247 119.133  0.00  0.00    -0.090 HD
ATOM     20  H   LIG d   1      -7.798  79.879 117.599  0.00  0.00    -0.090 HD
ATOM     21  H   LIG d   1      -6.695  79.681 118.794  0.00  0.00    -0.090 HD
ENDBRANCH   5  18
BRANCH   3  22
ATOM     22  C   LIG d   1     -11.526  76.843 119.101  0.00  0.00     0.382 C 
ATOM     23  O   LIG d   1     -12.471  76.616 118.307  0.00  0.00    -0.241 OA
ATOM     24  O   LIG d   1     -11.767  76.996 120.313  0.00  0.00    -0.241 OA
ENDBRANCH   3  22
TORSDOF 7
ENDMDL
MODEL 2
REMARK VINA RESULT:      -5.7      2.119      4.967
REMARK  7 active torsions:
REMARK  status: ('A' for Active; 'I' for Inactive)
REMARK    1  A    between atoms: C_2  and  C_3 
REMARK    2  A    between atoms: C_3  and  O_6 
REMARK    3  A    between atoms: C_3  and  C_4 
REMARK    4  A    between atoms: C_7  and  O_6 
REMARK    5  A    between atoms: C_9  and  C_10 
REMARK    6  A    between atoms: N_15  and  C_14 
REMARK    7  A    between atoms: N_20  and  C_19 
REMARK       I    between atoms: C_22  and  N_20 
ROOT
ATOM      1  C   LIG d   1      -7.622  75.546 117.618  0.00  0.00     0.161 C 
ATOM      2  C   LIG d   1      -8.282  74.306 117.597  0.00  0.00     0.016 C 
ATOM      3  C   LIG d   1      -7.870  73.219 116.793  0.00  0.00     0.038 C 
ATOM      4  C   LIG d   1      -6.673  73.248 116.063  0.00  0.00     0.028 C 
ATOM      5  C   LIG d   1      -6.243  74.655 115.660  0.00  0.00    -0.047 C 
ATOM      6  C   LIG d   1      -6.249  75.560 116.913  0.00  0.00     0.091 C 
ENDROOT
BRANCH   1   7
ATOM      7  O   LIG d   1      -7.492  76.007 118.978  0.00  0.00    -0.368 OA
BRANCH   7   8
ATOM      8  C   LIG d   1      -8.310  77.145 119.346  0.00  0.00     0.119 C 
BRANCH   8   9
ATOM      9  C   LIG d   1      -9.562  76.602 120.062  0.00  0.00     0.028 C 
ATOM     10  C   LIG d   1     -10.841  76.790 119.230  0.00  0.00     0.006 C 
ENDBRANCH   8   9
BRANCH   8  11
ATOM     11  C   LIG d   1      -8.836  77.877 118.108  0.00  0.00     0.028 C 
ATOM     12  C   LIG d   1      -8.350  79.332 118.025  0.00  0.00     0.006 C 
ENDBRANCH   8  11
ENDBRANCH   7   8
ENDBRANCH   1   7
BRANCH   6  13
ATOM     13  N   LIG d   1      -5.922  76.974 116.593  0.00  0.00    -0.311 N 
ATOM     14  C   LIG d   1      -4.993  77.676 117.240  0.00  0.00     0.210 C 
ATOM     15  C   LIG d   1      -4.829  79.123 116.765  0.00  0.00     0.109 C 
ATOM     16  O   LIG d   1      -4.268  77.228 118.141  0.00  0.00    -0.276 OA
ATOM     17  H   LIG d   1      -6.442  77.406 115.855  0.00  0.00     0.149 HD
ENDBRANCH   6  13
BRANCH   5  18
ATOM     18  N   LIG d   1      -4.914  74.551 115.029  0.00  0.00     0.381 N 
ATOM     19  H   LIG d   1      -4.237  74.268 115.709  0.00  0.00    -0.090 HD
ATOM     20  H   LIG d   1      -4.650  75.455 114.677  0.00  0.00    -0.090 HD
ATOM     21  H   LIG d   1      -4.942  73.892 114.282  0.00  0.00    -0.090 HD
ENDBRANCH   5  18
BRANCH   3  22
ATOM     22  C   LIG d   1      -8.682  72.100 116.681  0.00  0.00     0.382 C 
ATOM     23  O   LIG d   1      -8.176  70.981 116.424  0.00  0.00    -0.241 OA
ATOM     24  O   LIG d   1      -9.918  72.203 116.791  0.00  0.00    -0.241 OA
ENDBRANCH   3  22
TORSDOF 7
ENDMDL
MODEL 3
REMARK VINA RESULT:      -5.4     14.756     17.740
REMARK  7 active torsions:
REMARK  status: ('A' for Active; 'I' for Inactive)
REMARK    1  A    between atoms: C_2  and  C_3 
REMARK    2  A    between atoms: C_3  and  O_6 
REMARK    3  A    between atoms: C_3  and  C_4 
REMARK    4  A    between atoms: C_7  and  O_6 
REMARK    5  A    between atoms: C_9  and  C_10 
REMARK    6  A    between atoms: N_15  and  C_14 
REMARK    7  A    between atoms: N_20  and  C_19 
REMARK       I    between atoms: C_22  and  N_20 
ROOT
ATOM      1  C   LIG d   1      -6.180  92.398 118.840  0.00  0.00     0.161 C 
ATOM      2  C   LIG d   1      -5.056  92.895 119.522  0.00  0.00     0.016 C 
ATOM      3  C   LIG d   1      -3.728  92.528 119.205  0.00  0.00     0.038 C 
ATOM      4  C   LIG d   1      -3.423  91.749 118.079  0.00  0.00     0.028 C 
ATOM      5  C   LIG d   1      -4.555  90.815 117.663  0.00  0.00    -0.047 C 
ATOM      6  C   LIG d   1      -5.860  91.634 117.538  0.00  0.00     0.091 C 
ENDROOT
BRANCH   1   7
ATOM      7  O   LIG d   1      -7.106  93.471 118.577  0.00  0.00    -0.368 OA
BRANCH   7   8
ATOM      8  C   LIG d   1      -7.089  94.573 119.518  0.00  0.00     0.119 C 
BRANCH   8   9
ATOM      9  C   LIG d   1      -8.459  94.601 120.222  0.00  0.00     0.028 C 
ATOM     10  C   LIG d   1      -9.367  95.725 119.695  0.00  0.00     0.006 C 
ENDBRANCH   8   9
BRANCH   8  11
ATOM     11  C   LIG d   1      -6.976  95.919 118.797  0.00  0.00     0.028 C 
ATOM     12  C   LIG d   1      -5.604  96.585 118.989  0.00  0.00     0.006 C 
ENDBRANCH   8  11
ENDBRANCH   7   8
ENDBRANCH   1   7
BRANCH   6  13
ATOM     13  N   LIG d   1      -7.035  90.783 117.216  0.00  0.00    -0.311 N 
ATOM     14  C   LIG d   1      -7.406  90.484 115.972  0.00  0.00     0.210 C 
ATOM     15  C   LIG d   1      -8.658  89.608 115.863  0.00  0.00     0.109 C 
ATOM     16  O   LIG d   1      -6.798  90.836 114.950  0.00  0.00    -0.276 OA
ATOM     17  H   LIG d   1      -7.567  90.429 117.988  0.00  0.00     0.149 HD
ENDBRANCH   6  13
BRANCH   5  18
ATOM     18  N   LIG d   1      -4.156  90.166 116.400  0.00  0.00     0.381 N 
ATOM     19  H   LIG d   1      -4.956  90.056 115.809  0.00  0.00    -0.090 HD
ATOM     20  H   LIG d   1      -3.788  89.254 116.606  0.00  0.00    -0.090 HD
ATOM     21  H   LIG d   1      -3.465  90.715 115.938  0.00  0.00    -0.090 HD
ENDBRANCH   5  18
BRANCH   3  22
ATOM     22  C   LIG d   1      -2.692  92.908 120.043  0.00  0.00     0.382 C 
ATOM     23  O   LIG d   1      -2.700  94.045 120.574  0.00  0.00    -0.241 OA
ATOM     24  O   LIG d   1      -1.727  92.146 120.241  0.00  0.00    -0.241 OA
ENDBRANCH   3  22
TORSDOF 7
ENDMDL
MODEL 4
REMARK VINA RESULT:      -5.2      2.834      4.695
REMARK  7 active torsions:
REMARK  status: ('A' for Active; 'I' for Inactive)
REMARK    1  A    between atoms: C_2  and  C_3 
REMARK    2  A    between atoms: C_3  and  O_6 
REMARK    3  A    between atoms: C_3  and  C_4 
REMARK    4  A    between atoms: C_7  and  O_6 
REMARK    5  A    between atoms: C_9  and  C_10 
REMARK    6  A    between atoms: N_15  and  C_14 
REMARK    7  A    between atoms: N_20  and  C_19 
REMARK       I    between atoms: C_22  and  N_20 
ROOT
ATOM      1  C   LIG d   1      -5.906  75.243 116.420  0.00  0.00     0.161 C 
ATOM      2  C   LIG d   1      -6.380  73.961 116.097  0.00  0.00     0.016 C 
ATOM      3  C   LIG d   1      -7.558  73.405 116.648  0.00  0.00     0.038 C 
ATOM      4  C   LIG d   1      -8.428  74.159 117.450  0.00  0.00     0.028 C 
ATOM      5  C   LIG d   1      -7.733  75.286 118.206  0.00  0.00    -0.047 C 
ATOM      6  C   LIG d   1      -6.901  76.122 117.206  0.00  0.00     0.091 C 
ENDROOT
BRANCH   1   7
ATOM      7  O   LIG d   1      -5.477  75.921 115.222  0.00  0.00    -0.368 OA
BRANCH   7   8
ATOM      8  C   LIG d   1      -4.046  76.001 115.012  0.00  0.00     0.119 C 
BRANCH   8   9
ATOM      9  C   LIG d   1      -3.361  75.541 116.314  0.00  0.00     0.028 C 
ATOM     10  C   LIG d   1      -2.302  74.453 116.068  0.00  0.00     0.006 C 
ENDBRANCH   8   9
BRANCH   8  11
ATOM     11  C   LIG d   1      -3.592  77.449 114.805  0.00  0.00     0.028 C 
ATOM     12  C   LIG d   1      -2.782  77.995 115.992  0.00  0.00     0.006 C 
ENDBRANCH   8  11
ENDBRANCH   7   8
ENDBRANCH   1   7
BRANCH   6  13
ATOM     13  N   LIG d   1      -6.121  77.195 117.876  0.00  0.00    -0.311 N 
ATOM     14  C   LIG d   1      -6.162  78.473 117.503  0.00  0.00     0.210 C 
ATOM     15  C   LIG d   1      -5.265  79.412 118.316  0.00  0.00     0.109 C 
ATOM     16  O   LIG d   1      -6.880  78.922 116.598  0.00  0.00    -0.276 OA
ATOM     17  H   LIG d   1      -5.535  76.923 118.642  0.00  0.00     0.149 HD
ENDBRANCH   6  13
BRANCH   5  18
ATOM     18  N   LIG d   1      -8.775  76.073 118.891  0.00  0.00     0.381 N 
ATOM     19  H   LIG d   1      -9.663  75.905 118.461  0.00  0.00    -0.090 HD
ATOM     20  H   LIG d   1      -8.559  77.050 118.797  0.00  0.00    -0.090 HD
ATOM     21  H   LIG d   1      -8.812  75.824 119.855  0.00  0.00    -0.090 HD
ENDBRANCH   5  18
BRANCH   3  22
ATOM     22  C   LIG d   1      -7.854  72.068 116.430  0.00  0.00     0.382 C 
ATOM     23  O   LIG d   1      -8.812  71.532 117.037  0.00  0.00    -0.241 OA
ATOM     24  O   LIG d   1      -7.148  71.381 115.668  0.00  0.00    -0.241 OA
ENDBRANCH   3  22
TORSDOF 7
ENDMDL
MODEL 5
REMARK VINA RESULT:      -5.2      1.920      4.917
REMARK  7 active torsions:
REMARK  status: ('A' for Active; 'I' for Inactive)
REMARK    1  A    between atoms: C_2  and  C_3 
REMARK    2  A    between atoms: C_3  and  O_6 
REMARK    3  A    between atoms: C_3  and  C_4 
REMARK    4  A    between atoms: C_7  and  O_6 
REMARK    5  A    between atoms: C_9  and  C_10 
REMARK    6  A    between atoms: N_15  and  C_14 
REMARK    7  A    between atoms: N_20  and  C_19 
REMARK       I    between atoms: C_22  and  N_20 
ROOT
ATOM      1  C   LIG d   1      -8.413  75.862 117.533  0.00  0.00     0.161 C 
ATOM      2  C   LIG d   1      -8.825  74.523 117.435  0.00  0.00     0.016 C 
ATOM      3  C   LIG d   1      -8.022  73.500 116.881  0.00  0.00     0.038 C 
ATOM      4  C   LIG d   1      -6.683  73.721 116.523  0.00  0.00     0.028 C 
ATOM      5  C   LIG d   1      -6.390  75.166 116.136  0.00  0.00    -0.047 C 
ATOM      6  C   LIG d   1      -6.915  76.101 117.249  0.00  0.00     0.091 C 
ENDROOT
BRANCH   1   7
ATOM      7  O   LIG d   1      -8.769  76.390 118.826  0.00  0.00    -0.368 OA
BRANCH   7   8
ATOM      8  C   LIG d   1      -9.841  77.364 118.845  0.00  0.00     0.119 C 
BRANCH   8   9
ATOM      9  C   LIG d   1      -9.272  78.666 119.442  0.00  0.00     0.028 C 
ATOM     10  C   LIG d   1      -9.554  79.890 118.555  0.00  0.00     0.006 C 
ENDBRANCH   8   9
BRANCH   8  11
ATOM     11  C   LIG d   1     -10.964  76.939 119.795  0.00  0.00     0.028 C 
ATOM     12  C   LIG d   1     -10.451  76.563 121.194  0.00  0.00     0.006 C 
ENDBRANCH   8  11
ENDBRANCH   7   8
ENDBRANCH   1   7
BRANCH   6  13
ATOM     13  N   LIG d   1      -6.745  77.538 116.911  0.00  0.00    -0.311 N 
ATOM     14  C   LIG d   1      -6.045  78.389 117.659  0.00  0.00     0.210 C 
ATOM     15  C   LIG d   1      -6.012  79.830 117.140  0.00  0.00     0.109 C 
ATOM     16  O   LIG d   1      -5.421  78.080 118.686  0.00  0.00    -0.276 OA
ATOM     17  H   LIG d   1      -7.192  77.866 116.078  0.00  0.00     0.149 HD
ENDBRANCH   6  13
BRANCH   5  18
ATOM     18  N   LIG d   1      -4.936  75.284 115.920  0.00  0.00     0.381 N 
ATOM     19  H   LIG d   1      -4.746  76.041 115.294  0.00  0.00    -0.090 HD
ATOM     20  H   LIG d   1      -4.600  74.435 115.500  0.00  0.00    -0.090 HD
ATOM     21  H   LIG d   1      -4.474  75.439 116.789  0.00  0.00    -0.090 HD
ENDBRANCH   5  18
BRANCH   3  22
ATOM     22  C   LIG d   1      -8.569  72.248 116.643  0.00  0.00     0.382 C 
ATOM     23  O   LIG d   1      -7.836  71.306 116.258  0.00  0.00    -0.241 OA
ATOM     24  O   LIG d   1      -9.794  72.061 116.767  0.00  0.00    -0.241 OA
ENDBRANCH   3  22
TORSDOF 7
ENDMDL
MODEL 6
REMARK VINA RESULT:      -5.0      2.258      4.626
REMARK  7 active torsions:
REMARK  status: ('A' for Active; 'I' for Inactive)
REMARK    1  A    between atoms: C_2  and  C_3 
REMARK    2  A    between atoms: C_3  and  O_6 
REMARK    3  A    between atoms: C_3  and  C_4 
REMARK    4  A    between atoms: C_7  and  O_6 
REMARK    5  A    between atoms: C_9  and  C_10 
REMARK    6  A    between atoms: N_15  and  C_14 
REMARK    7  A    between atoms: N_20  and  C_19 
REMARK       I    between atoms: C_22  and  N_20 
ROOT
ATOM      1  C   LIG d   1      -6.979  76.920 116.929  0.00  0.00     0.161 C 
ATOM      2  C   LIG d   1      -8.304  77.037 117.382  0.00  0.00     0.016 C 
ATOM      3  C   LIG d   1      -9.155  75.928 117.591  0.00  0.00     0.038 C 
ATOM      4  C   LIG d   1      -8.688  74.608 117.505  0.00  0.00     0.028 C 
ATOM      5  C   LIG d   1      -7.501  74.446 116.562  0.00  0.00    -0.047 C 
ATOM      6  C   LIG d   1      -6.417  75.483 116.936  0.00  0.00     0.091 C 
ENDROOT
BRANCH   1   7
ATOM      7  O   LIG d   1      -6.123  77.796 117.689  0.00  0.00    -0.368 OA
BRANCH   7   8
ATOM      8  C   LIG d   1      -5.762  79.046 117.051  0.00  0.00     0.119 C 
BRANCH   8   9
ATOM      9  C   LIG d   1      -4.262  78.973 116.706  0.00  0.00     0.028 C 
ATOM     10  C   LIG d   1      -3.372  78.953 117.960  0.00  0.00     0.006 C 
ENDBRANCH   8   9
BRANCH   8  11
ATOM     11  C   LIG d   1      -5.899  80.225 118.019  0.00  0.00     0.028 C 
ATOM     12  C   LIG d   1      -6.947  81.252 117.562  0.00  0.00     0.006 C 
ENDBRANCH   8  11
ENDBRANCH   7   8
ENDBRANCH   1   7
BRANCH   6  13
ATOM     13  N   LIG d   1      -5.256  75.450 116.009  0.00  0.00    -0.311 N 
ATOM     14  C   LIG d   1      -3.993  75.351 116.420  0.00  0.00     0.210 C 
ATOM     15  C   LIG d   1      -2.947  75.354 115.300  0.00  0.00     0.109 C 
ATOM     16  O   LIG d   1      -3.641  75.230 117.603  0.00  0.00    -0.276 OA
ATOM     17  H   LIG d   1      -5.453  75.511 115.029  0.00  0.00     0.149 HD
ENDBRANCH   6  13
BRANCH   5  18
ATOM     18  N   LIG d   1      -7.030  73.053 116.673  0.00  0.00     0.381 N 
ATOM     19  H   LIG d   1      -7.766  72.473 117.025  0.00  0.00    -0.090 HD
ATOM     20  H   LIG d   1      -6.264  73.019 117.322  0.00  0.00    -0.090 HD
ATOM     21  H   LIG d   1      -6.734  72.721 115.781  0.00  0.00    -0.090 HD
ENDBRANCH   5  18
BRANCH   3  22
ATOM     22  C   LIG d   1     -10.501  76.135 117.852  0.00  0.00     0.382 C 
ATOM     23  O   LIG d   1     -11.343  75.263 117.529  0.00  0.00    -0.241 OA
ATOM     24  O   LIG d   1     -10.889  77.201 118.366  0.00  0.00    -0.241 OA
ENDBRANCH   3  22
TORSDOF 7
ENDMDL
MODEL 7
REMARK VINA RESULT:      -4.8     14.701     17.339
REMARK  7 active torsions:
REMARK  status: ('A' for Active; 'I' for Inactive)
REMARK    1  A    between atoms: C_2  and  C_3 
REMARK    2  A    between atoms: C_3  and  O_6 
REMARK    3  A    between atoms: C_3  and  C_4 
REMARK    4  A    between atoms: C_7  and  O_6 
REMARK    5  A    between atoms: C_9  and  C_10 
REMARK    6  A    between atoms: N_15  and  C_14 
REMARK    7  A    between atoms: N_20  and  C_19 
REMARK       I    between atoms: C_22  and  N_20 
ROOT
ATOM      1  C   LIG d   1      -5.464  92.742 118.628  0.00  0.00     0.161 C 
ATOM      2  C   LIG d   1      -6.486  92.086 117.921  0.00  0.00     0.016 C 
ATOM      3  C   LIG d   1      -6.256  90.987 117.062  0.00  0.00     0.038 C 
ATOM      4  C   LIG d   1      -5.000  90.369 116.967  0.00  0.00     0.028 C 
ATOM      5  C   LIG d   1      -3.839  91.309 117.273  0.00  0.00    -0.047 C 
ATOM      6  C   LIG d   1      -4.104  92.012 118.624  0.00  0.00     0.091 C 
ENDROOT
BRANCH   1   7
ATOM      7  O   LIG d   1      -5.892  92.997 119.980  0.00  0.00    -0.368 OA
BRANCH   7   8
ATOM      8  C   LIG d   1      -6.248  94.367 120.288  0.00  0.00     0.119 C 
BRANCH   8   9
ATOM      9  C   LIG d   1      -7.759  94.523 120.029  0.00  0.00     0.028 C 
ATOM     10  C   LIG d   1      -8.058  95.467 118.853  0.00  0.00     0.006 C 
ENDBRANCH   8   9
BRANCH   8  11
ATOM     11  C   LIG d   1      -5.568  95.349 119.329  0.00  0.00     0.028 C 
ATOM     12  C   LIG d   1      -4.464  96.176 120.005  0.00  0.00     0.006 C 
ENDBRANCH   8  11
ENDBRANCH   7   8
ENDBRANCH   1   7
BRANCH   6  13
ATOM     13  N   LIG d   1      -3.057  93.012 118.958  0.00  0.00    -0.311 N 
ATOM     14  C   LIG d   1      -2.003  92.741 119.727  0.00  0.00     0.210 C 
ATOM     15  C   LIG d   1      -1.054  93.920 119.963  0.00  0.00     0.109 C 
ATOM     16  O   LIG d   1      -1.748  91.627 120.210  0.00  0.00    -0.276 OA
ATOM     17  H   LIG d   1      -3.169  93.933 118.583  0.00  0.00     0.149 HD
ENDBRANCH   6  13
BRANCH   5  18
ATOM     18  N   LIG d   1      -2.603  90.504 117.274  0.00  0.00     0.381 N 
ATOM     19  H   LIG d   1      -2.680  89.765 117.944  0.00  0.00    -0.090 HD
ATOM     20  H   LIG d   1      -1.832  91.092 117.539  0.00  0.00    -0.090 HD
ATOM     21  H   LIG d   1      -2.443  90.124 116.367  0.00  0.00    -0.090 HD
ENDBRANCH   5  18
BRANCH   3  22
ATOM     22  C   LIG d   1      -7.282  90.520 116.254  0.00  0.00     0.382 C 
ATOM     23  O   LIG d   1      -7.571  89.299 116.251  0.00  0.00    -0.241 OA
ATOM     24  O   LIG d   1      -7.893  91.297 115.495  0.00  0.00    -0.241 OA
ENDBRANCH   3  22
TORSDOF 7
ENDMDL
MODEL 8
REMARK VINA RESULT:      -4.7      2.450      5.227
REMARK  7 active torsions:
REMARK  status: ('A' for Active; 'I' for Inactive)
REMARK    1  A    between atoms: C_2  and  C_3 
REMARK    2  A    between atoms: C_3  and  O_6 
REMARK    3  A    between atoms: C_3  and  C_4 
REMARK    4  A    between atoms: C_7  and  O_6 
REMARK    5  A    between atoms: C_9  and  C_10 
REMARK    6  A    between atoms: N_15  and  C_14 
REMARK    7  A    between atoms: N_20  and  C_19 
REMARK       I    between atoms: C_22  and  N_20 
ROOT
ATOM      1  C   LIG d   1      -8.393  78.832 118.180  0.00  0.00     0.161 C 
ATOM      2  C   LIG d   1      -9.654  78.455 118.672  0.00  0.00     0.016 C 
ATOM      3  C   LIG d   1     -10.128  77.123 118.655  0.00  0.00     0.038 C 
ATOM      4  C   LIG d   1      -9.309  76.048 118.281  0.00  0.00     0.028 C 
ATOM      5  C   LIG d   1      -8.206  76.440 117.302  0.00  0.00    -0.047 C 
ATOM      6  C   LIG d   1      -7.442  77.658 117.869  0.00  0.00     0.091 C 
ENDROOT
BRANCH   1   7
ATOM      7  O   LIG d   1      -7.768  79.756 119.093  0.00  0.00    -0.368 OA
BRANCH   7   8
ATOM      8  C   LIG d   1      -7.502  81.083 118.576  0.00  0.00     0.119 C 
BRANCH   8   9
ATOM      9  C   LIG d   1      -6.175  81.562 119.194  0.00  0.00     0.028 C 
ATOM     10  C   LIG d   1      -6.310  82.927 119.890  0.00  0.00     0.006 C 
ENDBRANCH   8   9
BRANCH   8  11
ATOM     11  C   LIG d   1      -8.557  82.087 119.050  0.00  0.00     0.028 C 
ATOM     12  C   LIG d   1      -9.576  82.442 117.956  0.00  0.00     0.006 C 
ENDBRANCH   8  11
ENDBRANCH   7   8
ENDBRANCH   1   7
BRANCH   6  13
ATOM     13  N   LIG d   1      -6.400  78.158 116.935  0.00  0.00    -0.311 N 
ATOM     14  C   LIG d   1      -5.150  78.429 117.308  0.00  0.00     0.210 C 
ATOM     15  C   LIG d   1      -4.242  78.953 116.191  0.00  0.00     0.109 C 
ATOM     16  O   LIG d   1      -4.699  78.253 118.449  0.00  0.00    -0.276 OA
ATOM     17  H   LIG d   1      -6.672  78.300 115.982  0.00  0.00     0.149 HD
ENDBRANCH   6  13
BRANCH   5  18
ATOM     18  N   LIG d   1      -7.345  75.258 117.105  0.00  0.00     0.381 N 
ATOM     19  H   LIG d   1      -6.670  75.447 116.391  0.00  0.00    -0.090 HD
ATOM     20  H   LIG d   1      -7.916  74.488 116.804  0.00  0.00    -0.090 HD
ATOM     21  H   LIG d   1      -6.884  75.026 117.956  0.00  0.00    -0.090 HD
ENDBRANCH   5  18
BRANCH   3  22
ATOM     22  C   LIG d   1     -11.451  76.861 118.979  0.00  0.00     0.382 C 
ATOM     23  O   LIG d   1     -11.846  76.997 120.162  0.00  0.00    -0.241 OA
ATOM     24  O   LIG d   1     -12.244  76.448 118.112  0.00  0.00    -0.241 OA
ENDBRANCH   3  22
TORSDOF 7
ENDMDL
MODEL 9
REMARK VINA RESULT:      -4.7     16.494     18.624
REMARK  7 active torsions:
REMARK  status: ('A' for Active; 'I' for Inactive)
REMARK    1  A    between atoms: C_2  and  C_3 
REMARK    2  A    between atoms: C_3  and  O_6 
REMARK    3  A    between atoms: C_3  and  C_4 
REMARK    4  A    between atoms: C_7  and  O_6 
REMARK    5  A    between atoms: C_9  and  C_10 
REMARK    6  A    between atoms: N_15  and  C_14 
REMARK    7  A    between atoms: N_20  and  C_19 
REMARK       I    between atoms: C_22  and  N_20 
ROOT
ATOM      1  C   LIG d   1      -5.036  94.268 120.597  0.00  0.00     0.161 C 
ATOM      2  C   LIG d   1      -6.415  94.039 120.454  0.00  0.00     0.016 C 
ATOM      3  C   LIG d   1      -7.245  94.797 119.597  0.00  0.00     0.038 C 
ATOM      4  C   LIG d   1      -6.720  95.744 118.704  0.00  0.00     0.028 C 
ATOM      5  C   LIG d   1      -5.406  96.358 119.175  0.00  0.00    -0.047 C 
ATOM      6  C   LIG d   1      -4.427  95.222 119.549  0.00  0.00     0.091 C 
ENDROOT
BRANCH   1   7
ATOM      7  O   LIG d   1      -4.331  93.011 120.600  0.00  0.00    -0.368 OA
BRANCH   7   8
ATOM      8  C   LIG d   1      -4.011  92.456 119.301  0.00  0.00     0.119 C 
BRANCH   8   9
ATOM      9  C   LIG d   1      -4.780  91.128 119.162  0.00  0.00     0.028 C 
ATOM     10  C   LIG d   1      -5.884  91.199 118.094  0.00  0.00     0.006 C 
ENDBRANCH   8   9
BRANCH   8  11
ATOM     11  C   LIG d   1      -2.529  92.079 119.205  0.00  0.00     0.028 C 
ATOM     12  C   LIG d   1      -1.759  92.353 120.507  0.00  0.00     0.006 C 
ENDBRANCH   8  11
ENDBRANCH   7   8
ENDBRANCH   1   7
BRANCH   6  13
ATOM     13  N   LIG d   1      -3.146  95.737 120.100  0.00  0.00    -0.311 N 
ATOM     14  C   LIG d   1      -2.042  95.886 119.370  0.00  0.00     0.210 C 
ATOM     15  C   LIG d   1      -0.826  96.412 120.138  0.00  0.00     0.109 C 
ATOM     16  O   LIG d   1      -1.963  95.663 118.153  0.00  0.00    -0.276 OA
ATOM     17  H   LIG d   1      -3.130  95.972 121.073  0.00  0.00     0.149 HD
ENDBRANCH   6  13
BRANCH   5  18
ATOM     18  N   LIG d   1      -4.904  97.221 118.090  0.00  0.00     0.381 N 
ATOM     19  H   LIG d   1      -5.634  97.827 117.772  0.00  0.00    -0.090 HD
ATOM     20  H   LIG d   1      -4.617  96.642 117.320  0.00  0.00    -0.090 HD
ATOM     21  H   LIG d   1      -4.132  97.762 118.413  0.00  0.00    -0.090 HD
ENDBRANCH   5  18
BRANCH   3  22
ATOM     22  C   LIG d   1      -8.621  94.640 119.656  0.00  0.00     0.382 C 
ATOM     23  O   LIG d   1      -9.123  93.801 120.443  0.00  0.00    -0.241 OA
ATOM     24  O   LIG d   1      -9.365  95.293 118.900  0.00  0.00    -0.241 OA
ENDBRANCH   3  22
TORSDOF 7
ENDMDL
