MODEL 1
REMARK VINA RESULT:      -5.5      0.000      0.000
REMARK  7 active torsions:
REMARK  status: ('A' for Active; 'I' for Inactive)
REMARK    1  A    between atoms: C_2  and  C_3 
REMARK    2  A    between atoms: C_3  and  O_6 
REMARK    3  A    between atoms: C_3  and  C_4 
REMARK    4  A    between atoms: C_7  and  O_6 
REMARK    5  A    between atoms: C_9  and  C_10 
REMARK    6  A    between atoms: N_15  and  C_14 
REMARK    7  A    between atoms: N_20  and  C_19 
REMARK       I    between atoms: C_22  and  N_20 
ROOT
ATOM      1  C   LIG d   1      -4.143  92.470 117.070  0.00  0.00     0.161 C 
ATOM      2  C   LIG d   1      -5.344  91.842 116.702  0.00  0.00     0.016 C 
ATOM      3  C   LIG d   1      -5.428  90.482 116.324  0.00  0.00     0.038 C 
ATOM      4  C   LIG d   1      -4.332  89.613 116.437  0.00  0.00     0.028 C 
ATOM      5  C   LIG d   1      -2.985  90.318 116.322  0.00  0.00    -0.047 C 
ATOM      6  C   LIG d   1      -2.958  91.510 117.306  0.00  0.00     0.091 C 
ENDROOT
BRANCH   1   7
ATOM      7  O   LIG d   1      -4.359  93.294 118.233  0.00  0.00    -0.368 OA
BRANCH   7   8
ATOM      8  C   LIG d   1      -5.734  93.429 118.672  0.00  0.00     0.119 C 
BRANCH   8   9
ATOM      9  C   LIG d   1      -6.099  94.924 118.594  0.00  0.00     0.028 C 
ATOM     10  C   LIG d   1      -7.615  95.164 118.701  0.00  0.00     0.006 C 
ENDBRANCH   8   9
BRANCH   8  11
ATOM     11  C   LIG d   1      -5.888  93.050 120.148  0.00  0.00     0.028 C 
ATOM     12  C   LIG d   1      -4.864  91.998 120.603  0.00  0.00     0.006 C 
ENDBRANCH   8  11
ENDBRANCH   7   8
ENDBRANCH   1   7
BRANCH   6  13
ATOM     13  N   LIG d   1      -1.707  92.306 117.198  0.00  0.00    -0.311 N 
ATOM     14  C   LIG d   1      -0.637  92.097 117.962  0.00  0.00     0.210 C 
ATOM     15  C   LIG d   1       0.540  93.043 117.700  0.00  0.00     0.109 C 
ATOM     16  O   LIG d   1      -0.538  91.197 118.809  0.00  0.00    -0.276 OA
ATOM     17  H   LIG d   1      -1.689  93.037 116.514  0.00  0.00     0.149 HD
ENDBRANCH   6  13
BRANCH   5  18
ATOM     18  N   LIG d   1      -1.934  89.320 116.594  0.00  0.00     0.381 N 
ATOM     19  H   LIG d   1      -2.275  88.637 117.241  0.00  0.00    -0.090 HD
ATOM     20  H   LIG d   1      -1.146  89.783 117.011  0.00  0.00    -0.090 HD
ATOM     21  H   LIG d   1      -1.657  88.876 115.746  0.00  0.00    -0.090 HD
ENDBRANCH   5  18
BRANCH   3  22
ATOM     22  C   LIG d   1      -6.608  89.987 115.791  0.00  0.00     0.382 C 
ATOM     23  O   LIG d   1      -7.443  90.773 115.281  0.00  0.00    -0.241 OA
ATOM     24  O   LIG d   1      -6.868  88.771 115.852  0.00  0.00    -0.241 OA
ENDBRANCH   3  22
TORSDOF 7
ENDMDL
MODEL 2
REMARK VINA RESULT:      -5.4      2.012      4.483
REMARK  7 active torsions:
REMARK  status: ('A' for Active; 'I' for Inactive)
REMARK    1  A    between atoms: C_2  and  C_3 
REMARK    2  A    between atoms: C_3  and  O_6 
REMARK    3  A    between atoms: C_3  and  C_4 
REMARK    4  A    between atoms: C_7  and  O_6 
REMARK    5  A    between atoms: C_9  and  C_10 
REMARK    6  A    between atoms: N_15  and  C_14 
REMARK    7  A    between atoms: N_20  and  C_19 
REMARK       I    between atoms: C_22  and  N_20 
ROOT
ATOM      1  C   LIG d   1      -4.944  92.589 117.397  0.00  0.00     0.161 C 
ATOM      2  C   LIG d   1      -6.110  93.277 117.770  0.00  0.00     0.016 C 
ATOM      3  C   LIG d   1      -6.140  94.265 118.782  0.00  0.00     0.038 C 
ATOM      4  C   LIG d   1      -4.969  94.741 119.388  0.00  0.00     0.028 C 
ATOM      5  C   LIG d   1      -3.836  93.721 119.402  0.00  0.00    -0.047 C 
ATOM      6  C   LIG d   1      -3.636  93.174 117.970  0.00  0.00     0.091 C 
ENDROOT
BRANCH   1   7
ATOM      7  O   LIG d   1      -4.867  92.502 115.960  0.00  0.00    -0.368 OA
BRANCH   7   8
ATOM      8  C   LIG d   1      -5.088  91.189 115.388  0.00  0.00     0.119 C 
BRANCH   8   9
ATOM      9  C   LIG d   1      -6.526  91.162 114.835  0.00  0.00     0.028 C 
ATOM     10  C   LIG d   1      -7.367  90.026 115.442  0.00  0.00     0.006 C 
ENDBRANCH   8   9
BRANCH   8  11
ATOM     11  C   LIG d   1      -5.046  90.099 116.463  0.00  0.00     0.028 C 
ATOM     12  C   LIG d   1      -3.856  89.141 116.294  0.00  0.00     0.006 C 
ENDBRANCH   8  11
ENDBRANCH   7   8
ENDBRANCH   1   7
BRANCH   6  13
ATOM     13  N   LIG d   1      -2.602  92.108 117.909  0.00  0.00    -0.311 N 
ATOM     14  C   LIG d   1      -1.326  92.340 117.607  0.00  0.00     0.210 C 
ATOM     15  C   LIG d   1      -0.431  91.097 117.581  0.00  0.00     0.109 C 
ATOM     16  O   LIG d   1      -0.844  93.462 117.390  0.00  0.00    -0.276 OA
ATOM     17  H   LIG d   1      -2.900  91.172 118.103  0.00  0.00     0.149 HD
ENDBRANCH   6  13
BRANCH   5  18
ATOM     18  N   LIG d   1      -2.636  94.393 119.936  0.00  0.00     0.381 N 
ATOM     19  H   LIG d   1      -2.827  95.366 120.075  0.00  0.00    -0.090 HD
ATOM     20  H   LIG d   1      -1.892  94.311 119.266  0.00  0.00    -0.090 HD
ATOM     21  H   LIG d   1      -2.366  93.974 120.798  0.00  0.00    -0.090 HD
ENDBRANCH   5  18
BRANCH   3  22
ATOM     22  C   LIG d   1      -7.358  94.758 119.224  0.00  0.00     0.382 C 
ATOM     23  O   LIG d   1      -7.496  95.108 120.421  0.00  0.00    -0.241 OA
ATOM     24  O   LIG d   1      -8.334  94.817 118.452  0.00  0.00    -0.241 OA
ENDBRANCH   3  22
TORSDOF 7
ENDMDL
MODEL 3
REMARK VINA RESULT:      -5.2      2.274      3.483
REMARK  7 active torsions:
REMARK  status: ('A' for Active; 'I' for Inactive)
REMARK    1  A    between atoms: C_2  and  C_3 
REMARK    2  A    between atoms: C_3  and  O_6 
REMARK    3  A    between atoms: C_3  and  C_4 
REMARK    4  A    between atoms: C_7  and  O_6 
REMARK    5  A    between atoms: C_9  and  C_10 
REMARK    6  A    between atoms: N_15  and  C_14 
REMARK    7  A    between atoms: N_20  and  C_19 
REMARK       I    between atoms: C_22  and  N_20 
ROOT
ATOM      1  C   LIG d   1      -3.483  90.406 116.392  0.00  0.00     0.161 C 
ATOM      2  C   LIG d   1      -3.699  89.049 116.099  0.00  0.00     0.016 C 
ATOM      3  C   LIG d   1      -2.804  88.020 116.472  0.00  0.00     0.038 C 
ATOM      4  C   LIG d   1      -1.699  88.263 117.301  0.00  0.00     0.028 C 
ATOM      5  C   LIG d   1      -1.167  89.689 117.199  0.00  0.00    -0.047 C 
ATOM      6  C   LIG d   1      -2.339  90.677 117.392  0.00  0.00     0.091 C 
ENDROOT
BRANCH   1   7
ATOM      7  O   LIG d   1      -4.708  91.007 116.857  0.00  0.00    -0.368 OA
BRANCH   7   8
ATOM      8  C   LIG d   1      -5.110  92.229 116.192  0.00  0.00     0.119 C 
BRANCH   8   9
ATOM      9  C   LIG d   1      -5.933  93.055 117.199  0.00  0.00     0.028 C 
ATOM     10  C   LIG d   1      -5.221  93.207 118.554  0.00  0.00     0.006 C 
ENDBRANCH   8   9
BRANCH   8  11
ATOM     11  C   LIG d   1      -6.064  91.942 115.028  0.00  0.00     0.028 C 
ATOM     12  C   LIG d   1      -6.968  90.726 115.285  0.00  0.00     0.006 C 
ENDBRANCH   8  11
ENDBRANCH   7   8
ENDBRANCH   1   7
BRANCH   6  13
ATOM     13  N   LIG d   1      -1.920  92.093 117.223  0.00  0.00    -0.311 N 
ATOM     14  C   LIG d   1      -1.552  92.874 118.237  0.00  0.00     0.210 C 
ATOM     15  C   LIG d   1      -1.177  94.307 117.845  0.00  0.00     0.109 C 
ATOM     16  O   LIG d   1      -1.468  92.508 119.418  0.00  0.00    -0.276 OA
ATOM     17  H   LIG d   1      -1.928  92.463 116.293  0.00  0.00     0.149 HD
ENDBRANCH   6  13
BRANCH   5  18
ATOM     18  N   LIG d   1      -0.107  89.843 118.213  0.00  0.00     0.381 N 
ATOM     19  H   LIG d   1       0.703  90.257 117.797  0.00  0.00    -0.090 HD
ATOM     20  H   LIG d   1       0.146  88.934 118.559  0.00  0.00    -0.090 HD
ATOM     21  H   LIG d   1      -0.433  90.412 118.963  0.00  0.00    -0.090 HD
ENDBRANCH   5  18
BRANCH   3  22
ATOM     22  C   LIG d   1      -2.989  86.737 115.981  0.00  0.00     0.382 C 
ATOM     23  O   LIG d   1      -2.181  85.827 116.284  0.00  0.00    -0.241 OA
ATOM     24  O   LIG d   1      -3.930  86.488 115.203  0.00  0.00    -0.241 OA
ENDBRANCH   3  22
TORSDOF 7
ENDMDL
MODEL 4
REMARK VINA RESULT:      -5.1      2.716      4.906
REMARK  7 active torsions:
REMARK  status: ('A' for Active; 'I' for Inactive)
REMARK    1  A    between atoms: C_2  and  C_3 
REMARK    2  A    between atoms: C_3  and  O_6 
REMARK    3  A    between atoms: C_3  and  C_4 
REMARK    4  A    between atoms: C_7  and  O_6 
REMARK    5  A    between atoms: C_9  and  C_10 
REMARK    6  A    between atoms: N_15  and  C_14 
REMARK    7  A    between atoms: N_20  and  C_19 
REMARK       I    between atoms: C_22  and  N_20 
ROOT
ATOM      1  C   LIG d   1      -3.066  89.875 117.092  0.00  0.00     0.161 C 
ATOM      2  C   LIG d   1      -2.536  88.619 116.754  0.00  0.00     0.016 C 
ATOM      3  C   LIG d   1      -3.204  87.691 115.922  0.00  0.00     0.038 C 
ATOM      4  C   LIG d   1      -4.388  88.020 115.245  0.00  0.00     0.028 C 
ATOM      5  C   LIG d   1      -5.214  89.088 115.954  0.00  0.00    -0.047 C 
ATOM      6  C   LIG d   1      -4.305  90.296 116.274  0.00  0.00     0.091 C 
ENDROOT
BRANCH   1   7
ATOM      7  O   LIG d   1      -2.038  90.881 116.998  0.00  0.00    -0.368 OA
BRANCH   7   8
ATOM      8  C   LIG d   1      -1.533  91.395 118.255  0.00  0.00     0.119 C 
BRANCH   8   9
ATOM      9  C   LIG d   1      -1.412  92.925 118.114  0.00  0.00     0.028 C 
ATOM     10  C   LIG d   1      -2.681  93.659 118.576  0.00  0.00     0.006 C 
ENDBRANCH   8   9
BRANCH   8  11
ATOM     11  C   LIG d   1      -0.110  90.899 118.528  0.00  0.00     0.028 C 
ATOM     12  C   LIG d   1       0.831  91.099 117.330  0.00  0.00     0.006 C 
ENDBRANCH   8  11
ENDBRANCH   7   8
ENDBRANCH   1   7
BRANCH   6  13
ATOM     13  N   LIG d   1      -5.015  91.351 117.043  0.00  0.00    -0.311 N 
ATOM     14  C   LIG d   1      -5.590  92.410 116.476  0.00  0.00     0.210 C 
ATOM     15  C   LIG d   1      -6.250  93.388 117.453  0.00  0.00     0.109 C 
ATOM     16  O   LIG d   1      -5.644  92.616 115.254  0.00  0.00    -0.276 OA
ATOM     17  H   LIG d   1      -5.046  91.247 118.039  0.00  0.00     0.149 HD
ENDBRANCH   6  13
BRANCH   5  18
ATOM     18  N   LIG d   1      -6.346  89.433 115.073  0.00  0.00     0.381 N 
ATOM     19  H   LIG d   1      -6.015  89.595 114.143  0.00  0.00    -0.090 HD
ATOM     20  H   LIG d   1      -6.772  90.280 115.408  0.00  0.00    -0.090 HD
ATOM     21  H   LIG d   1      -7.015  88.695 115.072  0.00  0.00    -0.090 HD
ENDBRANCH   5  18
BRANCH   3  22
ATOM     22  C   LIG d   1      -2.708  86.403 115.792  0.00  0.00     0.382 C 
ATOM     23  O   LIG d   1      -3.492  85.447 115.581  0.00  0.00    -0.241 OA
ATOM     24  O   LIG d   1      -1.490  86.179 115.927  0.00  0.00    -0.241 OA
ENDBRANCH   3  22
TORSDOF 7
ENDMDL
MODEL 5
REMARK VINA RESULT:      -4.9      2.421      4.157
REMARK  7 active torsions:
REMARK  status: ('A' for Active; 'I' for Inactive)
REMARK    1  A    between atoms: C_2  and  C_3 
REMARK    2  A    between atoms: C_3  and  O_6 
REMARK    3  A    between atoms: C_3  and  C_4 
REMARK    4  A    between atoms: C_7  and  O_6 
REMARK    5  A    between atoms: C_9  and  C_10 
REMARK    6  A    between atoms: N_15  and  C_14 
REMARK    7  A    between atoms: N_20  and  C_19 
REMARK       I    between atoms: C_22  and  N_20 
ROOT
ATOM      1  C   LIG d   1      -2.932  90.795 117.209  0.00  0.00     0.161 C 
ATOM      2  C   LIG d   1      -3.977  91.718 117.033  0.00  0.00     0.016 C 
ATOM      3  C   LIG d   1      -5.137  91.445 116.273  0.00  0.00     0.038 C 
ATOM      4  C   LIG d   1      -5.402  90.167 115.757  0.00  0.00     0.028 C 
ATOM      5  C   LIG d   1      -4.142  89.352 115.482  0.00  0.00    -0.047 C 
ATOM      6  C   LIG d   1      -3.254  89.359 116.747  0.00  0.00     0.091 C 
ENDROOT
BRANCH   1   7
ATOM      7  O   LIG d   1      -2.507  90.795 118.586  0.00  0.00    -0.368 OA
BRANCH   7   8
ATOM      8  C   LIG d   1      -1.505  91.779 118.944  0.00  0.00     0.119 C 
BRANCH   8   9
ATOM      9  C   LIG d   1      -0.475  91.827 117.798  0.00  0.00     0.028 C 
ATOM     10  C   LIG d   1       0.042  93.252 117.535  0.00  0.00     0.006 C 
ENDBRANCH   8   9
BRANCH   8  11
ATOM     11  C   LIG d   1      -0.714  91.344 120.181  0.00  0.00     0.028 C 
ATOM     12  C   LIG d   1      -1.620  90.962 121.363  0.00  0.00     0.006 C 
ENDBRANCH   8  11
ENDBRANCH   7   8
ENDBRANCH   1   7
BRANCH   6  13
ATOM     13  N   LIG d   1      -1.962  88.654 116.536  0.00  0.00    -0.311 N 
ATOM     14  C   LIG d   1      -1.769  87.372 116.838  0.00  0.00     0.210 C 
ATOM     15  C   LIG d   1      -0.357  86.848 116.560  0.00  0.00     0.109 C 
ATOM     16  O   LIG d   1      -2.643  86.609 117.279  0.00  0.00    -0.276 OA
ATOM     17  H   LIG d   1      -1.208  89.190 116.153  0.00  0.00     0.149 HD
ENDBRANCH   6  13
BRANCH   5  18
ATOM     18  N   LIG d   1      -4.567  87.998 115.080  0.00  0.00     0.381 N 
ATOM     19  H   LIG d   1      -5.154  88.053 114.272  0.00  0.00    -0.090 HD
ATOM     20  H   LIG d   1      -5.098  87.589 115.828  0.00  0.00    -0.090 HD
ATOM     21  H   LIG d   1      -3.769  87.435 114.883  0.00  0.00    -0.090 HD
ENDBRANCH   5  18
BRANCH   3  22
ATOM     22  C   LIG d   1      -6.028  92.468 115.987  0.00  0.00     0.382 C 
ATOM     23  O   LIG d   1      -6.401  92.663 114.805  0.00  0.00    -0.241 OA
ATOM     24  O   LIG d   1      -6.430  93.226 116.890  0.00  0.00    -0.241 OA
ENDBRANCH   3  22
TORSDOF 7
ENDMDL
MODEL 6
REMARK VINA RESULT:      -4.9     31.231     33.742
REMARK  7 active torsions:
REMARK  status: ('A' for Active; 'I' for Inactive)
REMARK    1  A    between atoms: C_2  and  C_3 
REMARK    2  A    between atoms: C_3  and  O_6 
REMARK    3  A    between atoms: C_3  and  C_4 
REMARK    4  A    between atoms: C_7  and  O_6 
REMARK    5  A    between atoms: C_9  and  C_10 
REMARK    6  A    between atoms: N_15  and  C_14 
REMARK    7  A    between atoms: N_20  and  C_19 
REMARK       I    between atoms: C_22  and  N_20 
ROOT
ATOM      1  C   LIG d   1      -0.201  58.820 118.001  0.00  0.00     0.161 C 
ATOM      2  C   LIG d   1       0.622  59.925 118.273  0.00  0.00     0.016 C 
ATOM      3  C   LIG d   1       0.212  61.027 119.057  0.00  0.00     0.038 C 
ATOM      4  C   LIG d   1      -1.006  61.029 119.754  0.00  0.00     0.028 C 
ATOM      5  C   LIG d   1      -2.077  60.161 119.103  0.00  0.00    -0.047 C 
ATOM      6  C   LIG d   1      -1.493  58.753 118.843  0.00  0.00     0.091 C 
ENDROOT
BRANCH   1   7
ATOM      7  O   LIG d   1       0.554  57.601 118.145  0.00  0.00    -0.368 OA
BRANCH   7   8
ATOM      8  C   LIG d   1       0.586  57.023 119.474  0.00  0.00     0.119 C 
BRANCH   8   9
ATOM      9  C   LIG d   1       2.046  57.068 119.963  0.00  0.00     0.028 C 
ATOM     10  C   LIG d   1       2.263  58.115 121.069  0.00  0.00     0.006 C 
ENDBRANCH   8   9
BRANCH   8  11
ATOM     11  C   LIG d   1       0.213  55.538 119.445  0.00  0.00     0.028 C 
ATOM     12  C   LIG d   1      -0.176  55.049 118.041  0.00  0.00     0.006 C 
ENDBRANCH   8  11
ENDBRANCH   7   8
ENDBRANCH   1   7
BRANCH   6  13
ATOM     13  N   LIG d   1      -2.448  57.865 118.132  0.00  0.00    -0.311 N 
ATOM     14  C   LIG d   1      -3.269  57.022 118.756  0.00  0.00     0.210 C 
ATOM     15  C   LIG d   1      -4.159  56.183 117.833  0.00  0.00     0.109 C 
ATOM     16  O   LIG d   1      -3.368  56.912 119.987  0.00  0.00    -0.276 OA
ATOM     17  H   LIG d   1      -2.457  57.912 117.132  0.00  0.00     0.149 HD
ENDBRANCH   6  13
BRANCH   5  18
ATOM     18  N   LIG d   1      -3.245  60.145 120.003  0.00  0.00     0.381 N 
ATOM     19  H   LIG d   1      -3.267  59.286 120.515  0.00  0.00    -0.090 HD
ATOM     20  H   LIG d   1      -4.082  60.203 119.450  0.00  0.00    -0.090 HD
ATOM     21  H   LIG d   1      -3.201  60.915 120.633  0.00  0.00    -0.090 HD
ENDBRANCH   5  18
BRANCH   3  22
ATOM     22  C   LIG d   1       1.008  62.161 119.119  0.00  0.00     0.382 C 
ATOM     23  O   LIG d   1       1.660  62.413 120.161  0.00  0.00    -0.241 OA
ATOM     24  O   LIG d   1       1.047  62.958 118.163  0.00  0.00    -0.241 OA
ENDBRANCH   3  22
TORSDOF 7
ENDMDL
MODEL 7
REMARK VINA RESULT:      -4.8      2.140      3.346
REMARK  7 active torsions:
REMARK  status: ('A' for Active; 'I' for Inactive)
REMARK    1  A    between atoms: C_2  and  C_3 
REMARK    2  A    between atoms: C_3  and  O_6 
REMARK    3  A    between atoms: C_3  and  C_4 
REMARK    4  A    between atoms: C_7  and  O_6 
REMARK    5  A    between atoms: C_9  and  C_10 
REMARK    6  A    between atoms: N_15  and  C_14 
REMARK    7  A    between atoms: N_20  and  C_19 
REMARK       I    between atoms: C_22  and  N_20 
ROOT
ATOM      1  C   LIG d   1      -2.506  92.018 117.431  0.00  0.00     0.161 C 
ATOM      2  C   LIG d   1      -3.766  92.637 117.404  0.00  0.00     0.016 C 
ATOM      3  C   LIG d   1      -4.923  92.025 116.870  0.00  0.00     0.038 C 
ATOM      4  C   LIG d   1      -4.929  90.683 116.461  0.00  0.00     0.028 C 
ATOM      5  C   LIG d   1      -3.564  90.183 116.002  0.00  0.00    -0.047 C 
ATOM      6  C   LIG d   1      -2.517  90.513 117.091  0.00  0.00     0.091 C 
ENDROOT
BRANCH   1   7
ATOM      7  O   LIG d   1      -1.881  92.238 118.711  0.00  0.00    -0.368 OA
BRANCH   7   8
ATOM      8  C   LIG d   1      -2.281  91.342 119.778  0.00  0.00     0.119 C 
BRANCH   8   9
ATOM      9  C   LIG d   1      -3.088  92.169 120.798  0.00  0.00     0.028 C 
ATOM     10  C   LIG d   1      -4.540  91.680 120.933  0.00  0.00     0.006 C 
ENDBRANCH   8   9
BRANCH   8  11
ATOM     11  C   LIG d   1      -1.067  90.818 120.550  0.00  0.00     0.028 C 
ATOM     12  C   LIG d   1      -1.205  89.338 120.943  0.00  0.00     0.006 C 
ENDBRANCH   8  11
ENDBRANCH   7   8
ENDBRANCH   1   7
BRANCH   6  13
ATOM     13  N   LIG d   1      -1.139  90.133 116.686  0.00  0.00    -0.311 N 
ATOM     14  C   LIG d   1      -0.570  88.975 117.018  0.00  0.00     0.210 C 
ATOM     15  C   LIG d   1       0.865  88.792 116.515  0.00  0.00     0.109 C 
ATOM     16  O   LIG d   1      -1.129  88.070 117.654  0.00  0.00    -0.276 OA
ATOM     17  H   LIG d   1      -0.624  90.797 116.141  0.00  0.00     0.149 HD
ENDBRANCH   6  13
BRANCH   5  18
ATOM     18  N   LIG d   1      -3.685  88.737 115.736  0.00  0.00     0.381 N 
ATOM     19  H   LIG d   1      -4.644  88.501 115.575  0.00  0.00    -0.090 HD
ATOM     20  H   LIG d   1      -3.366  88.230 116.543  0.00  0.00    -0.090 HD
ATOM     21  H   LIG d   1      -3.136  88.489 114.942  0.00  0.00    -0.090 HD
ENDBRANCH   5  18
BRANCH   3  22
ATOM     22  C   LIG d   1      -6.081  92.769 116.704  0.00  0.00     0.382 C 
ATOM     23  O   LIG d   1      -6.457  93.554 117.608  0.00  0.00    -0.241 OA
ATOM     24  O   LIG d   1      -6.778  92.634 115.680  0.00  0.00    -0.241 OA
ENDBRANCH   3  22
TORSDOF 7
ENDMDL
MODEL 8
REMARK VINA RESULT:      -4.8      2.375      4.238
REMARK  7 active torsions:
REMARK  status: ('A' for Active; 'I' for Inactive)
REMARK    1  A    between atoms: C_2  and  C_3 
REMARK    2  A    between atoms: C_3  and  O_6 
REMARK    3  A    between atoms: C_3  and  C_4 
REMARK    4  A    between atoms: C_7  and  O_6 
REMARK    5  A    between atoms: C_9  and  C_10 
REMARK    6  A    between atoms: N_15  and  C_14 
REMARK    7  A    between atoms: N_20  and  C_19 
REMARK       I    between atoms: C_22  and  N_20 
ROOT
ATOM      1  C   LIG d   1      -3.859  91.493 117.141  0.00  0.00     0.161 C 
ATOM      2  C   LIG d   1      -3.490  90.173 116.833  0.00  0.00     0.016 C 
ATOM      3  C   LIG d   1      -4.270  89.316 116.024  0.00  0.00     0.038 C 
ATOM      4  C   LIG d   1      -5.406  89.773 115.338  0.00  0.00     0.028 C 
ATOM      5  C   LIG d   1      -6.091  90.952 116.021  0.00  0.00    -0.047 C 
ATOM      6  C   LIG d   1      -5.038  92.045 116.312  0.00  0.00     0.091 C 
ENDROOT
BRANCH   1   7
ATOM      7  O   LIG d   1      -2.714  92.361 117.023  0.00  0.00    -0.368 OA
BRANCH   7   8
ATOM      8  C   LIG d   1      -1.969  92.602 118.242  0.00  0.00     0.119 C 
BRANCH   8   9
ATOM      9  C   LIG d   1      -2.069  94.108 118.555  0.00  0.00     0.028 C 
ATOM     10  C   LIG d   1      -2.494  94.378 120.008  0.00  0.00     0.006 C 
ENDBRANCH   8   9
BRANCH   8  11
ATOM     11  C   LIG d   1      -0.475  92.327 118.046  0.00  0.00     0.028 C 
ATOM     12  C   LIG d   1      -0.103  90.856 118.292  0.00  0.00     0.006 C 
ENDBRANCH   8  11
ENDBRANCH   7   8
ENDBRANCH   1   7
BRANCH   6  13
ATOM     13  N   LIG d   1      -5.609  93.199 117.055  0.00  0.00    -0.311 N 
ATOM     14  C   LIG d   1      -5.723  93.233 118.382  0.00  0.00     0.210 C 
ATOM     15  C   LIG d   1      -6.358  94.508 118.944  0.00  0.00     0.109 C 
ATOM     16  O   LIG d   1      -5.330  92.341 119.148  0.00  0.00    -0.276 OA
ATOM     17  H   LIG d   1      -5.925  93.979 116.513  0.00  0.00     0.149 HD
ENDBRANCH   6  13
BRANCH   5  18
ATOM     18  N   LIG d   1      -7.174  91.414 115.132  0.00  0.00     0.381 N 
ATOM     19  H   LIG d   1      -7.575  90.633 114.653  0.00  0.00    -0.090 HD
ATOM     20  H   LIG d   1      -6.787  92.039 114.447  0.00  0.00    -0.090 HD
ATOM     21  H   LIG d   1      -7.874  91.883 115.662  0.00  0.00    -0.090 HD
ENDBRANCH   5  18
BRANCH   3  22
ATOM     22  C   LIG d   1      -3.938  87.973 115.925  0.00  0.00     0.382 C 
ATOM     23  O   LIG d   1      -4.535  87.238 115.102  0.00  0.00    -0.241 OA
ATOM     24  O   LIG d   1      -3.080  87.478 116.680  0.00  0.00    -0.241 OA
ENDBRANCH   3  22
TORSDOF 7
ENDMDL
MODEL 9
REMARK VINA RESULT:      -4.8      2.169      4.611
REMARK  7 active torsions:
REMARK  status: ('A' for Active; 'I' for Inactive)
REMARK    1  A    between atoms: C_2  and  C_3 
REMARK    2  A    between atoms: C_3  and  O_6 
REMARK    3  A    between atoms: C_3  and  C_4 
REMARK    4  A    between atoms: C_7  and  O_6 
REMARK    5  A    between atoms: C_9  and  C_10 
REMARK    6  A    between atoms: N_15  and  C_14 
REMARK    7  A    between atoms: N_20  and  C_19 
REMARK       I    between atoms: C_22  and  N_20 
ROOT
ATOM      1  C   LIG d   1      -3.178  90.741 117.247  0.00  0.00     0.161 C 
ATOM      2  C   LIG d   1      -4.199  90.128 116.503  0.00  0.00     0.016 C 
ATOM      3  C   LIG d   1      -5.448  90.739 116.246  0.00  0.00     0.038 C 
ATOM      4  C   LIG d   1      -5.706  92.074 116.591  0.00  0.00     0.028 C 
ATOM      5  C   LIG d   1      -4.891  92.559 117.785  0.00  0.00    -0.047 C 
ATOM      6  C   LIG d   1      -3.399  92.241 117.537  0.00  0.00     0.091 C 
ENDROOT
BRANCH   1   7
ATOM      7  O   LIG d   1      -1.909  90.539 116.594  0.00  0.00    -0.368 OA
BRANCH   7   8
ATOM      8  C   LIG d   1      -0.893  89.859 117.372  0.00  0.00     0.119 C 
BRANCH   8   9
ATOM      9  C   LIG d   1       0.470  90.466 116.987  0.00  0.00     0.028 C 
ATOM     10  C   LIG d   1       1.169  89.677 115.867  0.00  0.00     0.006 C 
ENDBRANCH   8   9
BRANCH   8  11
ATOM     11  C   LIG d   1      -0.799  88.378 116.992  0.00  0.00     0.028 C 
ATOM     12  C   LIG d   1      -1.281  87.443 118.112  0.00  0.00     0.006 C 
ENDBRANCH   8  11
ENDBRANCH   7   8
ENDBRANCH   1   7
BRANCH   6  13
ATOM     13  N   LIG d   1      -2.541  92.607 118.694  0.00  0.00    -0.311 N 
ATOM     14  C   LIG d   1      -1.448  93.361 118.587  0.00  0.00     0.210 C 
ATOM     15  C   LIG d   1      -0.697  93.601 119.900  0.00  0.00     0.109 C 
ATOM     16  O   LIG d   1      -1.047  93.880 117.534  0.00  0.00    -0.276 OA
ATOM     17  H   LIG d   1      -2.810  92.253 119.591  0.00  0.00     0.149 HD
ENDBRANCH   6  13
BRANCH   5  18
ATOM     18  N   LIG d   1      -5.155  94.001 117.949  0.00  0.00     0.381 N 
ATOM     19  H   LIG d   1      -4.422  94.421 118.485  0.00  0.00    -0.090 HD
ATOM     20  H   LIG d   1      -6.018  94.119 118.449  0.00  0.00    -0.090 HD
ATOM     21  H   LIG d   1      -5.217  94.440 117.056  0.00  0.00    -0.090 HD
ENDBRANCH   5  18
BRANCH   3  22
ATOM     22  C   LIG d   1      -6.470  89.998 115.672  0.00  0.00     0.382 C 
ATOM     23  O   LIG d   1      -6.315  88.770 115.466  0.00  0.00    -0.241 OA
ATOM     24  O   LIG d   1      -7.529  90.550 115.318  0.00  0.00    -0.241 OA
ENDBRANCH   3  22
TORSDOF 7
ENDMDL
