MODEL 1
REMARK VINA RESULT:      -6.3      0.000      0.000
REMARK  7 active torsions:
REMARK  status: ('A' for Active; 'I' for Inactive)
REMARK    1  A    between atoms: C_2  and  C_3 
REMARK    2  A    between atoms: C_3  and  O_6 
REMARK    3  A    between atoms: C_3  and  C_4 
REMARK    4  A    between atoms: C_7  and  O_6 
REMARK    5  A    between atoms: C_9  and  C_10 
REMARK    6  A    between atoms: N_15  and  C_14 
REMARK    7  A    between atoms: N_20  and  C_19 
REMARK       I    between atoms: C_22  and  N_20 
ROOT
ATOM      1  C   LIG d   1      -7.378  76.361 117.292  0.00  0.00     0.161 C 
ATOM      2  C   LIG d   1      -8.389  77.291 117.582  0.00  0.00     0.016 C 
ATOM      3  C   LIG d   1      -8.165  78.685 117.661  0.00  0.00     0.038 C 
ATOM      4  C   LIG d   1      -6.936  79.260 117.306  0.00  0.00     0.028 C 
ATOM      5  C   LIG d   1      -5.750  78.320 117.497  0.00  0.00    -0.047 C 
ATOM      6  C   LIG d   1      -6.055  76.978 116.792  0.00  0.00     0.091 C 
ENDROOT
BRANCH   1   7
ATOM      7  O   LIG d   1      -7.865  75.387 116.347  0.00  0.00    -0.368 OA
BRANCH   7   8
ATOM      8  C   LIG d   1      -7.861  74.009 116.793  0.00  0.00     0.119 C 
BRANCH   8   9
ATOM      9  C   LIG d   1      -7.194  73.167 115.689  0.00  0.00     0.028 C 
ATOM     10  C   LIG d   1      -7.423  71.658 115.882  0.00  0.00     0.006 C 
ENDBRANCH   8   9
BRANCH   8  11
ATOM     11  C   LIG d   1      -9.286  73.460 116.917  0.00  0.00     0.028 C 
ATOM     12  C   LIG d   1     -10.359  74.501 116.561  0.00  0.00     0.006 C 
ENDBRANCH   8  11
ENDBRANCH   7   8
ENDBRANCH   1   7
BRANCH   6  13
ATOM     13  N   LIG d   1      -4.981  75.972 117.001  0.00  0.00    -0.311 N 
ATOM     14  C   LIG d   1      -4.298  75.411 116.005  0.00  0.00     0.210 C 
ATOM     15  C   LIG d   1      -3.249  74.383 116.439  0.00  0.00     0.109 C 
ATOM     16  O   LIG d   1      -4.439  75.692 114.805  0.00  0.00    -0.276 OA
ATOM     17  H   LIG d   1      -4.780  75.709 117.946  0.00  0.00     0.149 HD
ENDBRANCH   6  13
BRANCH   5  18
ATOM     18  N   LIG d   1      -4.554  78.996 116.960  0.00  0.00     0.381 N 
ATOM     19  H   LIG d   1      -3.848  78.320 116.749  0.00  0.00    -0.090 HD
ATOM     20  H   LIG d   1      -4.193  79.621 117.659  0.00  0.00    -0.090 HD
ATOM     21  H   LIG d   1      -4.791  79.507 116.138  0.00  0.00    -0.090 HD
ENDBRANCH   5  18
BRANCH   3  22
ATOM     22  C   LIG d   1      -9.167  79.516 118.140  0.00  0.00     0.382 C 
ATOM     23  O   LIG d   1     -10.364  79.142 118.100  0.00  0.00    -0.241 OA
ATOM     24  O   LIG d   1      -8.893  80.653 118.569  0.00  0.00    -0.241 OA
ENDBRANCH   3  22
TORSDOF 7
ENDMDL
MODEL 2
REMARK VINA RESULT:      -5.8      2.002      5.318
REMARK  7 active torsions:
REMARK  status: ('A' for Active; 'I' for Inactive)
REMARK    1  A    between atoms: C_2  and  C_3 
REMARK    2  A    between atoms: C_3  and  O_6 
REMARK    3  A    between atoms: C_3  and  C_4 
REMARK    4  A    between atoms: C_7  and  O_6 
REMARK    5  A    between atoms: C_9  and  C_10 
REMARK    6  A    between atoms: N_15  and  C_14 
REMARK    7  A    between atoms: N_20  and  C_19 
REMARK       I    between atoms: C_22  and  N_20 
ROOT
ATOM      1  C   LIG d   1      -5.490  75.297 116.510  0.00  0.00     0.161 C 
ATOM      2  C   LIG d   1      -4.334  74.514 116.354  0.00  0.00     0.016 C 
ATOM      3  C   LIG d   1      -3.082  74.854 116.918  0.00  0.00     0.038 C 
ATOM      4  C   LIG d   1      -2.937  75.929 117.807  0.00  0.00     0.028 C 
ATOM      5  C   LIG d   1      -3.962  77.037 117.590  0.00  0.00    -0.047 C 
ATOM      6  C   LIG d   1      -5.376  76.414 117.568  0.00  0.00     0.091 C 
ENDROOT
BRANCH   1   7
ATOM      7  O   LIG d   1      -6.620  74.449 116.796  0.00  0.00    -0.368 OA
BRANCH   7   8
ATOM      8  C   LIG d   1      -7.476  74.127 115.672  0.00  0.00     0.119 C 
BRANCH   8   9
ATOM      9  C   LIG d   1      -8.541  75.236 115.569  0.00  0.00     0.028 C 
ATOM     10  C   LIG d   1      -9.567  75.172 116.713  0.00  0.00     0.006 C 
ENDBRANCH   8   9
BRANCH   8  11
ATOM     11  C   LIG d   1      -8.258  72.834 115.920  0.00  0.00     0.028 C 
ATOM     12  C   LIG d   1      -7.369  71.582 115.878  0.00  0.00     0.006 C 
ENDBRANCH   8  11
ENDBRANCH   7   8
ENDBRANCH   1   7
BRANCH   6  13
ATOM     13  N   LIG d   1      -6.433  77.418 117.277  0.00  0.00    -0.311 N 
ATOM     14  C   LIG d   1      -7.156  78.017 118.222  0.00  0.00     0.210 C 
ATOM     15  C   LIG d   1      -8.206  79.005 117.705  0.00  0.00     0.109 C 
ATOM     16  O   LIG d   1      -7.005  77.848 119.441  0.00  0.00    -0.276 OA
ATOM     17  H   LIG d   1      -6.600  77.639 116.315  0.00  0.00     0.149 HD
ENDBRANCH   6  13
BRANCH   5  18
ATOM     18  N   LIG d   1      -3.782  78.027 118.669  0.00  0.00     0.381 N 
ATOM     19  H   LIG d   1      -2.807  78.185 118.825  0.00  0.00    -0.090 HD
ATOM     20  H   LIG d   1      -4.182  77.661 119.516  0.00  0.00    -0.090 HD
ATOM     21  H   LIG d   1      -4.231  78.883 118.425  0.00  0.00    -0.090 HD
ENDBRANCH   5  18
BRANCH   3  22
ATOM     22  C   LIG d   1      -1.951  74.136 116.560  0.00  0.00     0.382 C 
ATOM     23  O   LIG d   1      -1.665  73.979 115.349  0.00  0.00    -0.241 OA
ATOM     24  O   LIG d   1      -1.236  73.608 117.433  0.00  0.00    -0.241 OA
ENDBRANCH   3  22
TORSDOF 7
ENDMDL
MODEL 3
REMARK VINA RESULT:      -5.8     13.526     16.279
REMARK  7 active torsions:
REMARK  status: ('A' for Active; 'I' for Inactive)
REMARK    1  A    between atoms: C_2  and  C_3 
REMARK    2  A    between atoms: C_3  and  O_6 
REMARK    3  A    between atoms: C_3  and  C_4 
REMARK    4  A    between atoms: C_7  and  O_6 
REMARK    5  A    between atoms: C_9  and  C_10 
REMARK    6  A    between atoms: N_15  and  C_14 
REMARK    7  A    between atoms: N_20  and  C_19 
REMARK       I    between atoms: C_22  and  N_20 
ROOT
ATOM      1  C   LIG d   1      -5.471  92.489 117.919  0.00  0.00     0.161 C 
ATOM      2  C   LIG d   1      -6.011  93.616 118.561  0.00  0.00     0.016 C 
ATOM      3  C   LIG d   1      -7.164  94.294 118.103  0.00  0.00     0.038 C 
ATOM      4  C   LIG d   1      -7.948  93.797 117.051  0.00  0.00     0.028 C 
ATOM      5  C   LIG d   1      -7.161  92.948 116.058  0.00  0.00    -0.047 C 
ATOM      6  C   LIG d   1      -6.376  91.866 116.835  0.00  0.00     0.091 C 
ENDROOT
BRANCH   1   7
ATOM      7  O   LIG d   1      -5.108  91.496 118.898  0.00  0.00    -0.368 OA
BRANCH   7   8
ATOM      8  C   LIG d   1      -3.692  91.215 119.026  0.00  0.00     0.119 C 
BRANCH   8   9
ATOM      9  C   LIG d   1      -2.940  92.200 118.110  0.00  0.00     0.028 C 
ATOM     10  C   LIG d   1      -1.459  92.348 118.497  0.00  0.00     0.006 C 
ENDBRANCH   8   9
BRANCH   8  11
ATOM     11  C   LIG d   1      -3.350  89.822 118.492  0.00  0.00     0.028 C 
ATOM     12  C   LIG d   1      -2.485  89.005 119.465  0.00  0.00     0.006 C 
ENDBRANCH   8  11
ENDBRANCH   7   8
ENDBRANCH   1   7
BRANCH   6  13
ATOM     13  N   LIG d   1      -5.514  91.044 115.947  0.00  0.00    -0.311 N 
ATOM     14  C   LIG d   1      -5.702  89.742 115.742  0.00  0.00     0.210 C 
ATOM     15  C   LIG d   1      -4.687  89.081 114.805  0.00  0.00     0.109 C 
ATOM     16  O   LIG d   1      -6.633  89.078 116.223  0.00  0.00    -0.276 OA
ATOM     17  H   LIG d   1      -4.753  91.510 115.492  0.00  0.00     0.149 HD
ENDBRANCH   6  13
BRANCH   5  18
ATOM     18  N   LIG d   1      -8.124  92.383 115.094  0.00  0.00     0.381 N 
ATOM     19  H   LIG d   1      -8.315  93.051 114.374  0.00  0.00    -0.090 HD
ATOM     20  H   LIG d   1      -8.984  92.182 115.573  0.00  0.00    -0.090 HD
ATOM     21  H   LIG d   1      -7.756  91.548 114.694  0.00  0.00    -0.090 HD
ENDBRANCH   5  18
BRANCH   3  22
ATOM     22  C   LIG d   1      -7.521  95.506 118.675  0.00  0.00     0.382 C 
ATOM     23  O   LIG d   1      -8.258  96.303 118.046  0.00  0.00    -0.241 OA
ATOM     24  O   LIG d   1      -7.078  95.832 119.793  0.00  0.00    -0.241 OA
ENDBRANCH   3  22
TORSDOF 7
ENDMDL
MODEL 4
REMARK VINA RESULT:      -5.7      2.638      5.481
REMARK  7 active torsions:
REMARK  status: ('A' for Active; 'I' for Inactive)
REMARK    1  A    between atoms: C_2  and  C_3 
REMARK    2  A    between atoms: C_3  and  O_6 
REMARK    3  A    between atoms: C_3  and  C_4 
REMARK    4  A    between atoms: C_7  and  O_6 
REMARK    5  A    between atoms: C_9  and  C_10 
REMARK    6  A    between atoms: N_15  and  C_14 
REMARK    7  A    between atoms: N_20  and  C_19 
REMARK       I    between atoms: C_22  and  N_20 
ROOT
ATOM      1  C   LIG d   1      -5.456  74.875 116.386  0.00  0.00     0.161 C 
ATOM      2  C   LIG d   1      -6.173  73.708 116.071  0.00  0.00     0.016 C 
ATOM      3  C   LIG d   1      -7.584  73.632 116.093  0.00  0.00     0.038 C 
ATOM      4  C   LIG d   1      -8.385  74.767 116.286  0.00  0.00     0.028 C 
ATOM      5  C   LIG d   1      -7.703  75.858 117.105  0.00  0.00    -0.047 C 
ATOM      6  C   LIG d   1      -6.315  76.152 116.490  0.00  0.00     0.091 C 
ENDROOT
BRANCH   1   7
ATOM      7  O   LIG d   1      -4.390  75.064 115.435  0.00  0.00    -0.368 OA
BRANCH   7   8
ATOM      8  C   LIG d   1      -3.122  74.446 115.767  0.00  0.00     0.119 C 
BRANCH   8   9
ATOM      9  C   LIG d   1      -2.697  74.977 117.150  0.00  0.00     0.028 C 
ATOM     10  C   LIG d   1      -1.728  74.025 117.872  0.00  0.00     0.006 C 
ENDBRANCH   8   9
BRANCH   8  11
ATOM     11  C   LIG d   1      -2.016  74.891 114.806  0.00  0.00     0.028 C 
ATOM     12  C   LIG d   1      -1.611  76.360 115.002  0.00  0.00     0.006 C 
ENDBRANCH   8  11
ENDBRANCH   7   8
ENDBRANCH   1   7
BRANCH   6  13
ATOM     13  N   LIG d   1      -5.545  77.148 117.280  0.00  0.00    -0.311 N 
ATOM     14  C   LIG d   1      -4.810  78.112 116.728  0.00  0.00     0.210 C 
ATOM     15  C   LIG d   1      -4.081  79.019 117.723  0.00  0.00     0.109 C 
ATOM     16  O   LIG d   1      -4.718  78.320 115.509  0.00  0.00    -0.276 OA
ATOM     17  H   LIG d   1      -5.589  77.072 118.277  0.00  0.00     0.149 HD
ENDBRANCH   6  13
BRANCH   5  18
ATOM     18  N   LIG d   1      -8.594  77.033 117.111  0.00  0.00     0.381 N 
ATOM     19  H   LIG d   1      -8.951  77.183 118.034  0.00  0.00    -0.090 HD
ATOM     20  H   LIG d   1      -9.370  76.857 116.498  0.00  0.00    -0.090 HD
ATOM     21  H   LIG d   1      -8.096  77.840 116.806  0.00  0.00    -0.090 HD
ENDBRANCH   5  18
BRANCH   3  22
ATOM     22  C   LIG d   1      -8.208  72.401 115.960  0.00  0.00     0.382 C 
ATOM     23  O   LIG d   1      -9.405  72.263 116.312  0.00  0.00    -0.241 OA
ATOM     24  O   LIG d   1      -7.577  71.415 115.533  0.00  0.00    -0.241 OA
ENDBRANCH   3  22
TORSDOF 7
ENDMDL
MODEL 5
REMARK VINA RESULT:      -5.5     13.980     16.706
REMARK  7 active torsions:
REMARK  status: ('A' for Active; 'I' for Inactive)
REMARK    1  A    between atoms: C_2  and  C_3 
REMARK    2  A    between atoms: C_3  and  O_6 
REMARK    3  A    between atoms: C_3  and  C_4 
REMARK    4  A    between atoms: C_7  and  O_6 
REMARK    5  A    between atoms: C_9  and  C_10 
REMARK    6  A    between atoms: N_15  and  C_14 
REMARK    7  A    between atoms: N_20  and  C_19 
REMARK       I    between atoms: C_22  and  N_20 
ROOT
ATOM      1  C   LIG d   1      -5.816  91.651 118.821  0.00  0.00     0.161 C 
ATOM      2  C   LIG d   1      -5.944  90.667 117.826  0.00  0.00     0.016 C 
ATOM      3  C   LIG d   1      -6.763  90.818 116.684  0.00  0.00     0.038 C 
ATOM      4  C   LIG d   1      -7.397  92.032 116.381  0.00  0.00     0.028 C 
ATOM      5  C   LIG d   1      -7.701  92.880 117.612  0.00  0.00    -0.047 C 
ATOM      6  C   LIG d   1      -6.412  93.025 118.452  0.00  0.00     0.091 C 
ENDROOT
BRANCH   1   7
ATOM      7  O   LIG d   1      -4.431  91.790 119.195  0.00  0.00    -0.368 OA
BRANCH   7   8
ATOM      8  C   LIG d   1      -3.460  91.532 118.151  0.00  0.00     0.119 C 
BRANCH   8   9
ATOM      9  C   LIG d   1      -2.303  90.732 118.782  0.00  0.00     0.028 C 
ATOM     10  C   LIG d   1      -2.682  89.266 119.052  0.00  0.00     0.006 C 
ENDBRANCH   8   9
BRANCH   8  11
ATOM     11  C   LIG d   1      -2.826  92.832 117.646  0.00  0.00     0.028 C 
ATOM     12  C   LIG d   1      -2.780  93.929 118.721  0.00  0.00     0.006 C 
ENDBRANCH   8  11
ENDBRANCH   7   8
ENDBRANCH   1   7
BRANCH   6  13
ATOM     13  N   LIG d   1      -6.642  93.770 119.718  0.00  0.00    -0.311 N 
ATOM     14  C   LIG d   1      -6.443  95.081 119.843  0.00  0.00     0.210 C 
ATOM     15  C   LIG d   1      -6.720  95.647 121.240  0.00  0.00     0.109 C 
ATOM     16  O   LIG d   1      -6.094  95.835 118.922  0.00  0.00    -0.276 OA
ATOM     17  H   LIG d   1      -6.955  93.241 120.508  0.00  0.00     0.149 HD
ENDBRANCH   6  13
BRANCH   5  18
ATOM     18  N   LIG d   1      -8.234  94.173 117.142  0.00  0.00     0.381 N 
ATOM     19  H   LIG d   1      -8.403  94.132 116.157  0.00  0.00    -0.090 HD
ATOM     20  H   LIG d   1      -7.550  94.888 117.315  0.00  0.00    -0.090 HD
ATOM     21  H   LIG d   1      -9.080  94.389 117.623  0.00  0.00    -0.090 HD
ENDBRANCH   5  18
BRANCH   3  22
ATOM     22  C   LIG d   1      -6.987  89.733 115.851  0.00  0.00     0.382 C 
ATOM     23  O   LIG d   1      -8.036  89.055 115.972  0.00  0.00    -0.241 OA
ATOM     24  O   LIG d   1      -6.133  89.396 115.009  0.00  0.00    -0.241 OA
ENDBRANCH   3  22
TORSDOF 7
ENDMDL
MODEL 6
REMARK VINA RESULT:      -5.5     13.889     15.747
REMARK  7 active torsions:
REMARK  status: ('A' for Active; 'I' for Inactive)
REMARK    1  A    between atoms: C_2  and  C_3 
REMARK    2  A    between atoms: C_3  and  O_6 
REMARK    3  A    between atoms: C_3  and  C_4 
REMARK    4  A    between atoms: C_7  and  O_6 
REMARK    5  A    between atoms: C_9  and  C_10 
REMARK    6  A    between atoms: N_15  and  C_14 
REMARK    7  A    between atoms: N_20  and  C_19 
REMARK       I    between atoms: C_22  and  N_20 
ROOT
ATOM      1  C   LIG d   1      -3.872  90.634 117.601  0.00  0.00     0.161 C 
ATOM      2  C   LIG d   1      -4.928  90.054 116.879  0.00  0.00     0.016 C 
ATOM      3  C   LIG d   1      -6.129  90.735 116.573  0.00  0.00     0.038 C 
ATOM      4  C   LIG d   1      -6.293  92.103 116.839  0.00  0.00     0.028 C 
ATOM      5  C   LIG d   1      -5.455  92.597 118.014  0.00  0.00    -0.047 C 
ATOM      6  C   LIG d   1      -3.988  92.160 117.802  0.00  0.00     0.091 C 
ENDROOT
BRANCH   1   7
ATOM      7  O   LIG d   1      -2.615  90.306 116.976  0.00  0.00    -0.368 OA
BRANCH   7   8
ATOM      8  C   LIG d   1      -1.763  89.386 117.703  0.00  0.00     0.119 C 
BRANCH   8   9
ATOM      9  C   LIG d   1      -2.504  88.992 118.995  0.00  0.00     0.028 C 
ATOM     10  C   LIG d   1      -1.647  89.211 120.253  0.00  0.00     0.006 C 
ENDBRANCH   8   9
BRANCH   8  11
ATOM     11  C   LIG d   1      -0.474  90.070 118.167  0.00  0.00     0.028 C 
ATOM     12  C   LIG d   1       0.285  90.753 117.018  0.00  0.00     0.006 C 
ENDBRANCH   8  11
ENDBRANCH   7   8
ENDBRANCH   1   7
BRANCH   6  13
ATOM     13  N   LIG d   1      -3.116  92.529 118.948  0.00  0.00    -0.311 N 
ATOM     14  C   LIG d   1      -2.020  93.277 118.823  0.00  0.00     0.210 C 
ATOM     15  C   LIG d   1      -1.254  93.523 120.127  0.00  0.00     0.109 C 
ATOM     16  O   LIG d   1      -1.628  93.786 117.763  0.00  0.00    -0.276 OA
ATOM     17  H   LIG d   1      -3.377  92.184 119.850  0.00  0.00     0.149 HD
ENDBRANCH   6  13
BRANCH   5  18
ATOM     18  N   LIG d   1      -5.617  94.061 118.093  0.00  0.00     0.381 N 
ATOM     19  H   LIG d   1      -5.956  94.316 118.999  0.00  0.00    -0.090 HD
ATOM     20  H   LIG d   1      -6.295  94.350 117.409  0.00  0.00    -0.090 HD
ATOM     21  H   LIG d   1      -4.745  94.510 117.918  0.00  0.00    -0.090 HD
ENDBRANCH   5  18
BRANCH   3  22
ATOM     22  C   LIG d   1      -7.196  90.037 116.029  0.00  0.00     0.382 C 
ATOM     23  O   LIG d   1      -7.839  90.524 115.068  0.00  0.00    -0.241 OA
ATOM     24  O   LIG d   1      -7.552  88.947 116.517  0.00  0.00    -0.241 OA
ENDBRANCH   3  22
TORSDOF 7
ENDMDL
MODEL 7
REMARK VINA RESULT:      -4.9     12.963     16.385
REMARK  7 active torsions:
REMARK  status: ('A' for Active; 'I' for Inactive)
REMARK    1  A    between atoms: C_2  and  C_3 
REMARK    2  A    between atoms: C_3  and  O_6 
REMARK    3  A    between atoms: C_3  and  C_4 
REMARK    4  A    between atoms: C_7  and  O_6 
REMARK    5  A    between atoms: C_9  and  C_10 
REMARK    6  A    between atoms: N_15  and  C_14 
REMARK    7  A    between atoms: N_20  and  C_19 
REMARK       I    between atoms: C_22  and  N_20 
ROOT
ATOM      1  C   LIG d   1      -5.683  91.607 118.845  0.00  0.00     0.161 C 
ATOM      2  C   LIG d   1      -4.468  92.209 119.214  0.00  0.00     0.016 C 
ATOM      3  C   LIG d   1      -3.255  92.004 118.517  0.00  0.00     0.038 C 
ATOM      4  C   LIG d   1      -3.206  91.298 117.305  0.00  0.00     0.028 C 
ATOM      5  C   LIG d   1      -4.310  90.254 117.168  0.00  0.00    -0.047 C 
ATOM      6  C   LIG d   1      -5.672  90.923 117.462  0.00  0.00     0.091 C 
ENDROOT
BRANCH   1   7
ATOM      7  O   LIG d   1      -6.749  92.575 118.917  0.00  0.00    -0.368 OA
BRANCH   7   8
ATOM      8  C   LIG d   1      -6.703  93.648 117.944  0.00  0.00     0.119 C 
BRANCH   8   9
ATOM      9  C   LIG d   1      -6.581  94.973 118.721  0.00  0.00     0.028 C 
ATOM     10  C   LIG d   1      -7.558  96.045 118.210  0.00  0.00     0.006 C 
ENDBRANCH   8   9
BRANCH   8  11
ATOM     11  C   LIG d   1      -8.018  93.752 117.167  0.00  0.00     0.028 C 
ATOM     12  C   LIG d   1      -7.957  93.060 115.796  0.00  0.00     0.006 C 
ENDBRANCH   8  11
ENDBRANCH   7   8
ENDBRANCH   1   7
BRANCH   6  13
ATOM     13  N   LIG d   1      -6.798  89.953 117.431  0.00  0.00    -0.311 N 
ATOM     14  C   LIG d   1      -7.392  89.555 116.308  0.00  0.00     0.210 C 
ATOM     15  C   LIG d   1      -8.545  88.565 116.502  0.00  0.00     0.109 C 
ATOM     16  O   LIG d   1      -7.052  89.902 115.167  0.00  0.00    -0.276 OA
ATOM     17  H   LIG d   1      -7.117  89.596 118.311  0.00  0.00     0.149 HD
ENDBRANCH   6  13
BRANCH   5  18
ATOM     18  N   LIG d   1      -4.224  89.692 115.807  0.00  0.00     0.381 N 
ATOM     19  H   LIG d   1      -3.317  89.296 115.661  0.00  0.00    -0.090 HD
ATOM     20  H   LIG d   1      -4.356  90.432 115.140  0.00  0.00    -0.090 HD
ATOM     21  H   LIG d   1      -4.923  88.994 115.682  0.00  0.00    -0.090 HD
ENDBRANCH   5  18
BRANCH   3  22
ATOM     22  C   LIG d   1      -2.067  92.476 119.053  0.00  0.00     0.382 C 
ATOM     23  O   LIG d   1      -1.894  93.709 119.208  0.00  0.00    -0.241 OA
ATOM     24  O   LIG d   1      -1.147  91.687 119.341  0.00  0.00    -0.241 OA
ENDBRANCH   3  22
TORSDOF 7
ENDMDL
MODEL 8
REMARK VINA RESULT:      -4.8     13.674     16.797
REMARK  7 active torsions:
REMARK  status: ('A' for Active; 'I' for Inactive)
REMARK    1  A    between atoms: C_2  and  C_3 
REMARK    2  A    between atoms: C_3  and  O_6 
REMARK    3  A    between atoms: C_3  and  C_4 
REMARK    4  A    between atoms: C_7  and  O_6 
REMARK    5  A    between atoms: C_9  and  C_10 
REMARK    6  A    between atoms: N_15  and  C_14 
REMARK    7  A    between atoms: N_20  and  C_19 
REMARK       I    between atoms: C_22  and  N_20 
ROOT
ATOM      1  C   LIG d   1      -4.984  92.966 118.189  0.00  0.00     0.161 C 
ATOM      2  C   LIG d   1      -5.537  94.153 118.698  0.00  0.00     0.016 C 
ATOM      3  C   LIG d   1      -6.763  94.695 118.247  0.00  0.00     0.038 C 
ATOM      4  C   LIG d   1      -7.598  94.003 117.358  0.00  0.00     0.028 C 
ATOM      5  C   LIG d   1      -6.845  93.046 116.440  0.00  0.00    -0.047 C 
ATOM      6  C   LIG d   1      -5.935  92.138 117.299  0.00  0.00     0.091 C 
ENDROOT
BRANCH   1   7
ATOM      7  O   LIG d   1      -4.482  92.158 119.272  0.00  0.00    -0.368 OA
BRANCH   7   8
ATOM      8  C   LIG d   1      -4.786  92.625 120.610  0.00  0.00     0.119 C 
BRANCH   8   9
ATOM      9  C   LIG d   1      -3.509  92.463 121.457  0.00  0.00     0.028 C 
ATOM     10  C   LIG d   1      -3.030  91.003 121.525  0.00  0.00     0.006 C 
ENDBRANCH   8   9
BRANCH   8  11
ATOM     11  C   LIG d   1      -5.836  91.738 121.285  0.00  0.00     0.028 C 
ATOM     12  C   LIG d   1      -7.161  92.473 121.541  0.00  0.00     0.006 C 
ENDBRANCH   8  11
ENDBRANCH   7   8
ENDBRANCH   1   7
BRANCH   6  13
ATOM     13  N   LIG d   1      -5.100  91.229 116.473  0.00  0.00    -0.311 N 
ATOM     14  C   LIG d   1      -5.433  89.967 116.207  0.00  0.00     0.210 C 
ATOM     15  C   LIG d   1      -4.421  89.197 115.352  0.00  0.00     0.109 C 
ATOM     16  O   LIG d   1      -6.486  89.422 116.570  0.00  0.00    -0.276 OA
ATOM     17  H   LIG d   1      -4.243  91.599 116.111  0.00  0.00     0.149 HD
ENDBRANCH   6  13
BRANCH   5  18
ATOM     18  N   LIG d   1      -7.848  92.291 115.664  0.00  0.00     0.381 N 
ATOM     19  H   LIG d   1      -8.443  92.927 115.171  0.00  0.00    -0.090 HD
ATOM     20  H   LIG d   1      -8.415  91.757 116.299  0.00  0.00    -0.090 HD
ATOM     21  H   LIG d   1      -7.393  91.683 115.020  0.00  0.00    -0.090 HD
ENDBRANCH   5  18
BRANCH   3  22
ATOM     22  C   LIG d   1      -7.144  95.964 118.657  0.00  0.00     0.382 C 
ATOM     23  O   LIG d   1      -6.333  96.694 119.276  0.00  0.00    -0.241 OA
ATOM     24  O   LIG d   1      -8.304  96.371 118.455  0.00  0.00    -0.241 OA
ENDBRANCH   3  22
TORSDOF 7
ENDMDL
MODEL 9
REMARK VINA RESULT:      -4.7      2.371      6.011
REMARK  7 active torsions:
REMARK  status: ('A' for Active; 'I' for Inactive)
REMARK    1  A    between atoms: C_2  and  C_3 
REMARK    2  A    between atoms: C_3  and  O_6 
REMARK    3  A    between atoms: C_3  and  C_4 
REMARK    4  A    between atoms: C_7  and  O_6 
REMARK    5  A    between atoms: C_9  and  C_10 
REMARK    6  A    between atoms: N_15  and  C_14 
REMARK    7  A    between atoms: N_20  and  C_19 
REMARK       I    between atoms: C_22  and  N_20 
ROOT
ATOM      1  C   LIG d   1      -6.326  76.999 117.079  0.00  0.00     0.161 C 
ATOM      2  C   LIG d   1      -4.975  76.886 117.448  0.00  0.00     0.016 C 
ATOM      3  C   LIG d   1      -4.142  75.820 117.036  0.00  0.00     0.038 C 
ATOM      4  C   LIG d   1      -4.566  74.868 116.097  0.00  0.00     0.028 C 
ATOM      5  C   LIG d   1      -6.077  74.656 116.089  0.00  0.00    -0.047 C 
ATOM      6  C   LIG d   1      -6.775  76.029 115.965  0.00  0.00     0.091 C 
ENDROOT
BRANCH   1   7
ATOM      7  O   LIG d   1      -6.619  78.360 116.706  0.00  0.00    -0.368 OA
BRANCH   7   8
ATOM      8  C   LIG d   1      -6.796  79.296 117.798  0.00  0.00     0.119 C 
BRANCH   8   9
ATOM      9  C   LIG d   1      -8.158  79.987 117.600  0.00  0.00     0.028 C 
ATOM     10  C   LIG d   1      -9.336  79.103 118.043  0.00  0.00     0.006 C 
ENDBRANCH   8   9
BRANCH   8  11
ATOM     11  C   LIG d   1      -5.757  80.420 117.742  0.00  0.00     0.028 C 
ATOM     12  C   LIG d   1      -6.173  81.656 118.556  0.00  0.00     0.006 C 
ENDBRANCH   8  11
ENDBRANCH   7   8
ENDBRANCH   1   7
BRANCH   6  13
ATOM     13  N   LIG d   1      -8.256  75.920 116.035  0.00  0.00    -0.311 N 
ATOM     14  C   LIG d   1      -8.890  75.014 116.776  0.00  0.00     0.210 C 
ATOM     15  C   LIG d   1     -10.419  75.062 116.688  0.00  0.00     0.109 C 
ATOM     16  O   LIG d   1      -8.333  74.196 117.523  0.00  0.00    -0.276 OA
ATOM     17  H   LIG d   1      -8.787  76.566 115.484  0.00  0.00     0.149 HD
ENDBRANCH   6  13
BRANCH   5  18
ATOM     18  N   LIG d   1      -6.393  73.744 114.974  0.00  0.00     0.381 N 
ATOM     19  H   LIG d   1      -6.874  72.938 115.321  0.00  0.00    -0.090 HD
ATOM     20  H   LIG d   1      -5.534  73.440 114.549  0.00  0.00    -0.090 HD
ATOM     21  H   LIG d   1      -6.958  74.212 114.300  0.00  0.00    -0.090 HD
ENDBRANCH   5  18
BRANCH   3  22
ATOM     22  C   LIG d   1      -2.882  75.677 117.596  0.00  0.00     0.382 C 
ATOM     23  O   LIG d   1      -2.558  76.364 118.595  0.00  0.00    -0.241 OA
ATOM     24  O   LIG d   1      -2.049  74.903 117.088  0.00  0.00    -0.241 OA
ENDBRANCH   3  22
TORSDOF 7
ENDMDL
