MODEL 1
REMARK VINA RESULT:      -5.7      0.000      0.000
REMARK  7 active torsions:
REMARK  status: ('A' for Active; 'I' for Inactive)
REMARK    1  A    between atoms: C_2  and  C_3 
REMARK    2  A    between atoms: C_3  and  O_6 
REMARK    3  A    between atoms: C_3  and  C_4 
REMARK    4  A    between atoms: C_7  and  O_6 
REMARK    5  A    between atoms: C_9  and  C_10 
REMARK    6  A    between atoms: N_15  and  C_14 
REMARK    7  A    between atoms: N_20  and  C_19 
REMARK       I    between atoms: C_22  and  N_20 
ROOT
ATOM      1  C   LIG d   1      -5.131  91.877 118.088  0.00  0.00     0.161 C 
ATOM      2  C   LIG d   1      -5.291  90.972 117.025  0.00  0.00     0.016 C 
ATOM      3  C   LIG d   1      -6.445  90.924 116.210  0.00  0.00     0.038 C 
ATOM      4  C   LIG d   1      -7.462  91.885 116.308  0.00  0.00     0.028 C 
ATOM      5  C   LIG d   1      -7.576  92.507 117.696  0.00  0.00    -0.047 C 
ATOM      6  C   LIG d   1      -6.182  93.006 118.139  0.00  0.00     0.091 C 
ENDROOT
BRANCH   1   7
ATOM      7  O   LIG d   1      -3.801  92.431 118.062  0.00  0.00    -0.368 OA
BRANCH   7   8
ATOM      8  C   LIG d   1      -2.899  91.971 119.098  0.00  0.00     0.119 C 
BRANCH   8   9
ATOM      9  C   LIG d   1      -2.640  93.157 120.047  0.00  0.00     0.028 C 
ATOM     10  C   LIG d   1      -2.604  94.505 119.306  0.00  0.00     0.006 C 
ENDBRANCH   8   9
BRANCH   8  11
ATOM     11  C   LIG d   1      -1.527  91.607 118.521  0.00  0.00     0.028 C 
ATOM     12  C   LIG d   1      -1.360  90.097 118.290  0.00  0.00     0.006 C 
ENDBRANCH   8  11
ENDBRANCH   7   8
ENDBRANCH   1   7
BRANCH   6  13
ATOM     13  N   LIG d   1      -6.188  93.552 119.521  0.00  0.00    -0.311 N 
ATOM     14  C   LIG d   1      -6.413  94.834 119.802  0.00  0.00     0.210 C 
ATOM     15  C   LIG d   1      -6.354  95.191 121.290  0.00  0.00     0.109 C 
ATOM     16  O   LIG d   1      -6.688  95.704 118.962  0.00  0.00    -0.276 OA
ATOM     17  H   LIG d   1      -6.005  92.909 120.267  0.00  0.00     0.149 HD
ENDBRANCH   6  13
BRANCH   5  18
ATOM     18  N   LIG d   1      -8.579  93.586 117.620  0.00  0.00     0.381 N 
ATOM     19  H   LIG d   1      -8.135  94.472 117.758  0.00  0.00    -0.090 HD
ATOM     20  H   LIG d   1      -9.254  93.455 118.353  0.00  0.00    -0.090 HD
ATOM     21  H   LIG d   1      -9.033  93.568 116.733  0.00  0.00    -0.090 HD
ENDBRANCH   5  18
BRANCH   3  22
ATOM     22  C   LIG d   1      -6.609  89.882 115.311  0.00  0.00     0.382 C 
ATOM     23  O   LIG d   1      -7.736  89.661 114.805  0.00  0.00    -0.241 OA
ATOM     24  O   LIG d   1      -5.654  89.132 115.032  0.00  0.00    -0.241 OA
ENDBRANCH   3  22
TORSDOF 7
ENDMDL
MODEL 2
REMARK VINA RESULT:      -5.6     14.507     17.267
REMARK  7 active torsions:
REMARK  status: ('A' for Active; 'I' for Inactive)
REMARK    1  A    between atoms: C_2  and  C_3 
REMARK    2  A    between atoms: C_3  and  O_6 
REMARK    3  A    between atoms: C_3  and  C_4 
REMARK    4  A    between atoms: C_7  and  O_6 
REMARK    5  A    between atoms: C_9  and  C_10 
REMARK    6  A    between atoms: N_15  and  C_14 
REMARK    7  A    between atoms: N_20  and  C_19 
REMARK       I    between atoms: C_22  and  N_20 
ROOT
ATOM      1  C   LIG d   1      -9.825  76.358 117.721  0.00  0.00     0.161 C 
ATOM      2  C   LIG d   1     -10.602  77.356 118.331  0.00  0.00     0.016 C 
ATOM      3  C   LIG d   1     -10.117  78.651 118.623  0.00  0.00     0.038 C 
ATOM      4  C   LIG d   1      -8.858  79.088 118.184  0.00  0.00     0.028 C 
ATOM      5  C   LIG d   1      -7.851  77.955 118.010  0.00  0.00    -0.047 C 
ATOM      6  C   LIG d   1      -8.485  76.850 117.135  0.00  0.00     0.091 C 
ENDROOT
BRANCH   1   7
ATOM      7  O   LIG d   1     -10.599  75.686 116.708  0.00  0.00    -0.368 OA
BRANCH   7   8
ATOM      8  C   LIG d   1     -11.135  74.390 117.070  0.00  0.00     0.119 C 
BRANCH   8   9
ATOM      9  C   LIG d   1     -12.493  74.627 117.759  0.00  0.00     0.028 C 
ATOM     10  C   LIG d   1     -12.532  74.064 119.189  0.00  0.00     0.006 C 
ENDBRANCH   8   9
BRANCH   8  11
ATOM     11  C   LIG d   1     -10.262  73.700 118.122  0.00  0.00     0.028 C 
ATOM     12  C   LIG d   1      -9.357  72.611 117.524  0.00  0.00     0.006 C 
ENDBRANCH   8  11
ENDBRANCH   7   8
ENDBRANCH   1   7
BRANCH   6  13
ATOM     13  N   LIG d   1      -7.598  75.667 116.985  0.00  0.00    -0.311 N 
ATOM     14  C   LIG d   1      -6.811  75.470 115.928  0.00  0.00     0.210 C 
ATOM     15  C   LIG d   1      -5.992  74.176 115.964  0.00  0.00     0.109 C 
ATOM     16  O   LIG d   1      -6.690  76.260 114.979  0.00  0.00    -0.276 OA
ATOM     17  H   LIG d   1      -7.610  74.992 117.723  0.00  0.00     0.149 HD
ENDBRANCH   6  13
BRANCH   5  18
ATOM     18  N   LIG d   1      -6.629  78.532 117.418  0.00  0.00     0.381 N 
ATOM     19  H   LIG d   1      -5.968  78.739 118.140  0.00  0.00    -0.090 HD
ATOM     20  H   LIG d   1      -6.867  79.391 116.954  0.00  0.00    -0.090 HD
ATOM     21  H   LIG d   1      -6.231  77.893 116.767  0.00  0.00    -0.090 HD
ENDBRANCH   5  18
BRANCH   3  22
ATOM     22  C   LIG d   1     -10.879  79.513 119.397  0.00  0.00     0.382 C 
ATOM     23  O   LIG d   1     -10.926  80.734 119.114  0.00  0.00    -0.241 OA
ATOM     24  O   LIG d   1     -11.485  79.092 120.400  0.00  0.00    -0.241 OA
ENDBRANCH   3  22
TORSDOF 7
ENDMDL
MODEL 3
REMARK VINA RESULT:      -5.5      2.281      4.481
REMARK  7 active torsions:
REMARK  status: ('A' for Active; 'I' for Inactive)
REMARK    1  A    between atoms: C_2  and  C_3 
REMARK    2  A    between atoms: C_3  and  O_6 
REMARK    3  A    between atoms: C_3  and  C_4 
REMARK    4  A    between atoms: C_7  and  O_6 
REMARK    5  A    between atoms: C_9  and  C_10 
REMARK    6  A    between atoms: N_15  and  C_14 
REMARK    7  A    between atoms: N_20  and  C_19 
REMARK       I    between atoms: C_22  and  N_20 
ROOT
ATOM      1  C   LIG d   1      -6.933  93.403 118.195  0.00  0.00     0.161 C 
ATOM      2  C   LIG d   1      -7.657  92.509 117.388  0.00  0.00     0.016 C 
ATOM      3  C   LIG d   1      -7.091  91.351 116.809  0.00  0.00     0.038 C 
ATOM      4  C   LIG d   1      -5.792  90.924 117.122  0.00  0.00     0.028 C 
ATOM      5  C   LIG d   1      -4.862  92.062 117.531  0.00  0.00    -0.047 C 
ATOM      6  C   LIG d   1      -5.546  92.895 118.639  0.00  0.00     0.091 C 
ENDROOT
BRANCH   1   7
ATOM      7  O   LIG d   1      -7.722  93.773 119.344  0.00  0.00    -0.368 OA
BRANCH   7   8
ATOM      8  C   LIG d   1      -8.520  94.975 119.208  0.00  0.00     0.119 C 
BRANCH   8   9
ATOM      9  C   LIG d   1      -7.611  96.069 118.615  0.00  0.00     0.028 C 
ATOM     10  C   LIG d   1      -7.077  97.033 119.688  0.00  0.00     0.006 C 
ENDBRANCH   8   9
BRANCH   8  11
ATOM     11  C   LIG d   1      -8.959  95.509 120.575  0.00  0.00     0.028 C 
ATOM     12  C   LIG d   1     -10.249  94.849 121.086  0.00  0.00     0.006 C 
ENDBRANCH   8  11
ENDBRANCH   7   8
ENDBRANCH   1   7
BRANCH   6  13
ATOM     13  N   LIG d   1      -4.739  94.078 119.037  0.00  0.00    -0.311 N 
ATOM     14  C   LIG d   1      -4.462  94.384 120.303  0.00  0.00     0.210 C 
ATOM     15  C   LIG d   1      -3.633  95.658 120.494  0.00  0.00     0.109 C 
ATOM     16  O   LIG d   1      -4.798  93.704 121.285  0.00  0.00    -0.276 OA
ATOM     17  H   LIG d   1      -4.401  94.668 118.302  0.00  0.00     0.149 HD
ENDBRANCH   6  13
BRANCH   5  18
ATOM     18  N   LIG d   1      -3.586  91.461 117.962  0.00  0.00     0.381 N 
ATOM     19  H   LIG d   1      -3.397  90.642 117.421  0.00  0.00    -0.090 HD
ATOM     20  H   LIG d   1      -3.663  91.191 118.927  0.00  0.00    -0.090 HD
ATOM     21  H   LIG d   1      -2.846  92.119 117.852  0.00  0.00    -0.090 HD
ENDBRANCH   5  18
BRANCH   3  22
ATOM     22  C   LIG d   1      -7.814  90.627 115.873  0.00  0.00     0.382 C 
ATOM     23  O   LIG d   1      -8.395  91.222 114.933  0.00  0.00    -0.241 OA
ATOM     24  O   LIG d   1      -7.929  89.392 115.981  0.00  0.00    -0.241 OA
ENDBRANCH   3  22
TORSDOF 7
ENDMDL
MODEL 4
REMARK VINA RESULT:      -5.5     16.390     18.751
REMARK  7 active torsions:
REMARK  status: ('A' for Active; 'I' for Inactive)
REMARK    1  A    between atoms: C_2  and  C_3 
REMARK    2  A    between atoms: C_3  and  O_6 
REMARK    3  A    between atoms: C_3  and  C_4 
REMARK    4  A    between atoms: C_7  and  O_6 
REMARK    5  A    between atoms: C_9  and  C_10 
REMARK    6  A    between atoms: N_15  and  C_14 
REMARK    7  A    between atoms: N_20  and  C_19 
REMARK       I    between atoms: C_22  and  N_20 
ROOT
ATOM      1  C   LIG d   1      -9.794  74.393 118.177  0.00  0.00     0.161 C 
ATOM      2  C   LIG d   1      -9.283  73.133 117.823  0.00  0.00     0.016 C 
ATOM      3  C   LIG d   1      -8.137  72.958 117.014  0.00  0.00     0.038 C 
ATOM      4  C   LIG d   1      -7.331  74.038 116.625  0.00  0.00     0.028 C 
ATOM      5  C   LIG d   1      -8.090  75.358 116.535  0.00  0.00    -0.047 C 
ATOM      6  C   LIG d   1      -8.865  75.582 117.854  0.00  0.00     0.091 C 
ENDROOT
BRANCH   1   7
ATOM      7  O   LIG d   1     -10.151  74.401 119.573  0.00  0.00    -0.368 OA
BRANCH   7   8
ATOM      8  C   LIG d   1     -11.568  74.335 119.869  0.00  0.00     0.119 C 
BRANCH   8   9
ATOM      9  C   LIG d   1     -11.866  72.918 120.395  0.00  0.00     0.028 C 
ATOM     10  C   LIG d   1     -13.021  72.899 121.411  0.00  0.00     0.006 C 
ENDBRANCH   8   9
BRANCH   8  11
ATOM     11  C   LIG d   1     -12.410  74.481 118.598  0.00  0.00     0.028 C 
ATOM     12  C   LIG d   1     -13.117  75.843 118.505  0.00  0.00     0.006 C 
ENDBRANCH   8  11
ENDBRANCH   7   8
ENDBRANCH   1   7
BRANCH   6  13
ATOM     13  N   LIG d   1      -9.701  76.810 117.819  0.00  0.00    -0.311 N 
ATOM     14  C   LIG d   1      -9.710  77.719 118.793  0.00  0.00     0.210 C 
ATOM     15  C   LIG d   1     -10.659  78.899 118.566  0.00  0.00     0.109 C 
ATOM     16  O   LIG d   1      -8.998  77.675 119.807  0.00  0.00    -0.276 OA
ATOM     17  H   LIG d   1     -10.286  76.940 117.017  0.00  0.00     0.149 HD
ENDBRANCH   6  13
BRANCH   5  18
ATOM     18  N   LIG d   1      -7.105  76.420 116.256  0.00  0.00     0.381 N 
ATOM     19  H   LIG d   1      -7.565  77.210 115.850  0.00  0.00    -0.090 HD
ATOM     20  H   LIG d   1      -6.432  76.073 115.596  0.00  0.00    -0.090 HD
ATOM     21  H   LIG d   1      -6.647  76.690 117.098  0.00  0.00    -0.090 HD
ENDBRANCH   5  18
BRANCH   3  22
ATOM     22  C   LIG d   1      -7.810  71.692 116.551  0.00  0.00     0.382 C 
ATOM     23  O   LIG d   1      -6.960  71.559 115.638  0.00  0.00    -0.241 OA
ATOM     24  O   LIG d   1      -8.386  70.685 117.005  0.00  0.00    -0.241 OA
ENDBRANCH   3  22
TORSDOF 7
ENDMDL
MODEL 5
REMARK VINA RESULT:      -5.5     15.947     18.297
REMARK  7 active torsions:
REMARK  status: ('A' for Active; 'I' for Inactive)
REMARK    1  A    between atoms: C_2  and  C_3 
REMARK    2  A    between atoms: C_3  and  O_6 
REMARK    3  A    between atoms: C_3  and  C_4 
REMARK    4  A    between atoms: C_7  and  O_6 
REMARK    5  A    between atoms: C_9  and  C_10 
REMARK    6  A    between atoms: N_15  and  C_14 
REMARK    7  A    between atoms: N_20  and  C_19 
REMARK       I    between atoms: C_22  and  N_20 
ROOT
ATOM      1  C   LIG d   1     -10.841  74.687 117.557  0.00  0.00     0.161 C 
ATOM      2  C   LIG d   1      -9.619  75.034 116.957  0.00  0.00     0.016 C 
ATOM      3  C   LIG d   1      -9.017  76.306 117.097  0.00  0.00     0.038 C 
ATOM      4  C   LIG d   1      -9.525  77.274 117.977  0.00  0.00     0.028 C 
ATOM      5  C   LIG d   1     -11.026  77.149 118.213  0.00  0.00    -0.047 C 
ATOM      6  C   LIG d   1     -11.353  75.692 118.610  0.00  0.00     0.091 C 
ENDROOT
BRANCH   1   7
ATOM      7  O   LIG d   1     -10.746  73.367 118.129  0.00  0.00    -0.368 OA
BRANCH   7   8
ATOM      8  C   LIG d   1      -9.523  73.070 118.847  0.00  0.00     0.119 C 
BRANCH   8   9
ATOM      9  C   LIG d   1      -9.175  71.593 118.577  0.00  0.00     0.028 C 
ATOM     10  C   LIG d   1      -8.536  71.385 117.193  0.00  0.00     0.006 C 
ENDBRANCH   8   9
BRANCH   8  11
ATOM     11  C   LIG d   1      -9.729  73.167 120.362  0.00  0.00     0.028 C 
ATOM     12  C   LIG d   1      -8.949  74.329 120.996  0.00  0.00     0.006 C 
ENDBRANCH   8  11
ENDBRANCH   7   8
ENDBRANCH   1   7
BRANCH   6  13
ATOM     13  N   LIG d   1     -12.812  75.463 118.777  0.00  0.00    -0.311 N 
ATOM     14  C   LIG d   1     -13.436  75.540 119.951  0.00  0.00     0.210 C 
ATOM     15  C   LIG d   1     -14.939  75.249 119.905  0.00  0.00     0.109 C 
ATOM     16  O   LIG d   1     -12.894  75.854 121.022  0.00  0.00    -0.276 OA
ATOM     17  H   LIG d   1     -13.335  75.234 117.955  0.00  0.00     0.149 HD
ENDBRANCH   6  13
BRANCH   5  18
ATOM     18  N   LIG d   1     -11.397  78.129 119.252  0.00  0.00     0.381 N 
ATOM     19  H   LIG d   1     -11.824  78.928 118.828  0.00  0.00    -0.090 HD
ATOM     20  H   LIG d   1     -10.564  78.431 119.726  0.00  0.00    -0.090 HD
ATOM     21  H   LIG d   1     -12.026  77.713 119.903  0.00  0.00    -0.090 HD
ENDBRANCH   5  18
BRANCH   3  22
ATOM     22  C   LIG d   1      -7.916  76.635 116.321  0.00  0.00     0.382 C 
ATOM     23  O   LIG d   1      -7.158  77.571 116.673  0.00  0.00    -0.241 OA
ATOM     24  O   LIG d   1      -7.696  76.036 115.252  0.00  0.00    -0.241 OA
ENDBRANCH   3  22
TORSDOF 7
ENDMDL
MODEL 6
REMARK VINA RESULT:      -5.4     15.698     18.074
REMARK  7 active torsions:
REMARK  status: ('A' for Active; 'I' for Inactive)
REMARK    1  A    between atoms: C_2  and  C_3 
REMARK    2  A    between atoms: C_3  and  O_6 
REMARK    3  A    between atoms: C_3  and  C_4 
REMARK    4  A    between atoms: C_7  and  O_6 
REMARK    5  A    between atoms: C_9  and  C_10 
REMARK    6  A    between atoms: N_15  and  C_14 
REMARK    7  A    between atoms: N_20  and  C_19 
REMARK       I    between atoms: C_22  and  N_20 
ROOT
ATOM      1  C   LIG d   1      -9.555  75.531 116.872  0.00  0.00     0.161 C 
ATOM      2  C   LIG d   1     -10.803  75.521 117.517  0.00  0.00     0.016 C 
ATOM      3  C   LIG d   1     -11.306  74.402 118.219  0.00  0.00     0.038 C 
ATOM      4  C   LIG d   1     -10.525  73.261 118.454  0.00  0.00     0.028 C 
ATOM      5  C   LIG d   1      -9.453  73.032 117.394  0.00  0.00    -0.047 C 
ATOM      6  C   LIG d   1      -8.641  74.335 117.211  0.00  0.00     0.091 C 
ENDROOT
BRANCH   1   7
ATOM      7  O   LIG d   1      -8.875  76.773 117.143  0.00  0.00    -0.368 OA
BRANCH   7   8
ATOM      8  C   LIG d   1      -9.173  77.398 118.416  0.00  0.00     0.119 C 
BRANCH   8   9
ATOM      9  C   LIG d   1      -9.214  78.921 118.185  0.00  0.00     0.028 C 
ATOM     10  C   LIG d   1     -10.537  79.551 118.653  0.00  0.00     0.006 C 
ENDBRANCH   8   9
BRANCH   8  11
ATOM     11  C   LIG d   1      -8.045  77.171 119.426  0.00  0.00     0.028 C 
ATOM     12  C   LIG d   1      -8.397  76.114 120.484  0.00  0.00     0.006 C 
ENDBRANCH   8  11
ENDBRANCH   7   8
ENDBRANCH   1   7
BRANCH   6  13
ATOM     13  N   LIG d   1      -7.626  74.223 116.132  0.00  0.00    -0.311 N 
ATOM     14  C   LIG d   1      -6.404  74.747 116.218  0.00  0.00     0.210 C 
ATOM     15  C   LIG d   1      -5.521  74.534 114.984  0.00  0.00     0.109 C 
ATOM     16  O   LIG d   1      -5.957  75.340 117.211  0.00  0.00    -0.276 OA
ATOM     17  H   LIG d   1      -7.894  73.731 115.302  0.00  0.00     0.149 HD
ENDBRANCH   6  13
BRANCH   5  18
ATOM     18  N   LIG d   1      -8.626  71.893 117.835  0.00  0.00     0.381 N 
ATOM     19  H   LIG d   1      -7.678  72.189 117.957  0.00  0.00    -0.090 HD
ATOM     20  H   LIG d   1      -8.645  71.183 117.124  0.00  0.00    -0.090 HD
ATOM     21  H   LIG d   1      -8.980  71.525 118.691  0.00  0.00    -0.090 HD
ENDBRANCH   5  18
BRANCH   3  22
ATOM     22  C   LIG d   1     -12.620  74.402 118.661  0.00  0.00     0.382 C 
ATOM     23  O   LIG d   1     -13.462  75.161 118.124  0.00  0.00    -0.241 OA
ATOM     24  O   LIG d   1     -12.965  73.686 119.620  0.00  0.00    -0.241 OA
ENDBRANCH   3  22
TORSDOF 7
ENDMDL
MODEL 7
REMARK VINA RESULT:      -5.3     15.072     17.487
REMARK  7 active torsions:
REMARK  status: ('A' for Active; 'I' for Inactive)
REMARK    1  A    between atoms: C_2  and  C_3 
REMARK    2  A    between atoms: C_3  and  O_6 
REMARK    3  A    between atoms: C_3  and  C_4 
REMARK    4  A    between atoms: C_7  and  O_6 
REMARK    5  A    between atoms: C_9  and  C_10 
REMARK    6  A    between atoms: N_15  and  C_14 
REMARK    7  A    between atoms: N_20  and  C_19 
REMARK       I    between atoms: C_22  and  N_20 
ROOT
ATOM      1  C   LIG d   1      -9.333  75.653 117.366  0.00  0.00     0.161 C 
ATOM      2  C   LIG d   1      -8.535  74.615 116.858  0.00  0.00     0.016 C 
ATOM      3  C   LIG d   1      -7.158  74.761 116.572  0.00  0.00     0.038 C 
ATOM      4  C   LIG d   1      -6.447  75.920 116.918  0.00  0.00     0.028 C 
ATOM      5  C   LIG d   1      -7.317  77.171 116.967  0.00  0.00    -0.047 C 
ATOM      6  C   LIG d   1      -8.551  76.890 117.855  0.00  0.00     0.091 C 
ENDROOT
BRANCH   1   7
ATOM      7  O   LIG d   1     -10.180  75.148 118.418  0.00  0.00    -0.368 OA
BRANCH   7   8
ATOM      8  C   LIG d   1     -11.038  74.035 118.066  0.00  0.00     0.119 C 
BRANCH   8   9
ATOM      9  C   LIG d   1     -12.495  74.531 118.143  0.00  0.00     0.028 C 
ATOM     10  C   LIG d   1     -12.592  76.065 118.170  0.00  0.00     0.006 C 
ENDBRANCH   8   9
BRANCH   8  11
ATOM     11  C   LIG d   1     -10.938  72.907 119.097  0.00  0.00     0.028 C 
ATOM     12  C   LIG d   1     -11.996  73.018 120.206  0.00  0.00     0.006 C 
ENDBRANCH   8  11
ENDBRANCH   7   8
ENDBRANCH   1   7
BRANCH   6  13
ATOM     13  N   LIG d   1      -9.498  78.036 117.888  0.00  0.00    -0.311 N 
ATOM     14  C   LIG d   1      -9.462  78.989 118.818  0.00  0.00     0.210 C 
ATOM     15  C   LIG d   1     -10.541  80.068 118.680  0.00  0.00     0.109 C 
ATOM     16  O   LIG d   1      -8.619  79.061 119.725  0.00  0.00    -0.276 OA
ATOM     17  H   LIG d   1     -10.195  78.072 117.171  0.00  0.00     0.149 HD
ENDBRANCH   6  13
BRANCH   5  18
ATOM     18  N   LIG d   1      -6.480  78.276 117.474  0.00  0.00     0.381 N 
ATOM     19  H   LIG d   1      -5.520  77.996 117.482  0.00  0.00    -0.090 HD
ATOM     20  H   LIG d   1      -6.756  78.486 118.417  0.00  0.00    -0.090 HD
ATOM     21  H   LIG d   1      -6.594  79.081 116.899  0.00  0.00    -0.090 HD
ENDBRANCH   5  18
BRANCH   3  22
ATOM     22  C   LIG d   1      -6.486  73.754 115.895  0.00  0.00     0.382 C 
ATOM     23  O   LIG d   1      -6.726  72.552 116.162  0.00  0.00    -0.241 OA
ATOM     24  O   LIG d   1      -5.612  74.033 115.053  0.00  0.00    -0.241 OA
ENDBRANCH   3  22
TORSDOF 7
ENDMDL
MODEL 8
REMARK VINA RESULT:      -5.3     15.587     18.066
REMARK  7 active torsions:
REMARK  status: ('A' for Active; 'I' for Inactive)
REMARK    1  A    between atoms: C_2  and  C_3 
REMARK    2  A    between atoms: C_3  and  O_6 
REMARK    3  A    between atoms: C_3  and  C_4 
REMARK    4  A    between atoms: C_7  and  O_6 
REMARK    5  A    between atoms: C_9  and  C_10 
REMARK    6  A    between atoms: N_15  and  C_14 
REMARK    7  A    between atoms: N_20  and  C_19 
REMARK       I    between atoms: C_22  and  N_20 
ROOT
ATOM      1  C   LIG d   1      -8.032  75.410 117.372  0.00  0.00     0.161 C 
ATOM      2  C   LIG d   1      -6.965  75.839 116.565  0.00  0.00     0.016 C 
ATOM      3  C   LIG d   1      -6.160  74.958 115.807  0.00  0.00     0.038 C 
ATOM      4  C   LIG d   1      -6.466  73.594 115.684  0.00  0.00     0.028 C 
ATOM      5  C   LIG d   1      -7.229  73.035 116.880  0.00  0.00    -0.047 C 
ATOM      6  C   LIG d   1      -8.450  73.939 117.163  0.00  0.00     0.091 C 
ENDROOT
BRANCH   1   7
ATOM      7  O   LIG d   1      -9.164  76.283 117.188  0.00  0.00    -0.368 OA
BRANCH   7   8
ATOM      8  C   LIG d   1      -9.530  77.100 118.328  0.00  0.00     0.119 C 
BRANCH   8   9
ATOM      9  C   LIG d   1     -11.057  76.987 118.507  0.00  0.00     0.028 C 
ATOM     10  C   LIG d   1     -11.465  76.834 119.982  0.00  0.00     0.006 C 
ENDBRANCH   8   9
BRANCH   8  11
ATOM     11  C   LIG d   1      -9.262  78.583 118.059  0.00  0.00     0.028 C 
ATOM     12  C   LIG d   1      -7.794  78.975 118.289  0.00  0.00     0.006 C 
ENDBRANCH   8  11
ENDBRANCH   7   8
ENDBRANCH   1   7
BRANCH   6  13
ATOM     13  N   LIG d   1      -9.205  73.511 118.370  0.00  0.00    -0.311 N 
ATOM     14  C   LIG d   1     -10.535  73.450 118.419  0.00  0.00     0.210 C 
ATOM     15  C   LIG d   1     -11.111  73.002 119.766  0.00  0.00     0.109 C 
ATOM     16  O   LIG d   1     -11.290  73.693 117.466  0.00  0.00    -0.276 OA
ATOM     17  H   LIG d   1      -8.670  73.265 119.179  0.00  0.00     0.149 HD
ENDBRANCH   6  13
BRANCH   5  18
ATOM     18  N   LIG d   1      -7.602  71.644 116.559  0.00  0.00     0.381 N 
ATOM     19  H   LIG d   1      -7.258  71.401 115.652  0.00  0.00    -0.090 HD
ATOM     20  H   LIG d   1      -8.604  71.571 116.546  0.00  0.00    -0.090 HD
ATOM     21  H   LIG d   1      -7.226  71.024 117.242  0.00  0.00    -0.090 HD
ENDBRANCH   5  18
BRANCH   3  22
ATOM     22  C   LIG d   1      -5.012  75.433 115.192  0.00  0.00     0.382 C 
ATOM     23  O   LIG d   1      -4.876  76.663 114.982  0.00  0.00    -0.241 OA
ATOM     24  O   LIG d   1      -4.129  74.644 114.805  0.00  0.00    -0.241 OA
ENDBRANCH   3  22
TORSDOF 7
ENDMDL
MODEL 9
REMARK VINA RESULT:      -5.3     14.099     16.551
REMARK  7 active torsions:
REMARK  status: ('A' for Active; 'I' for Inactive)
REMARK    1  A    between atoms: C_2  and  C_3 
REMARK    2  A    between atoms: C_3  and  O_6 
REMARK    3  A    between atoms: C_3  and  C_4 
REMARK    4  A    between atoms: C_7  and  O_6 
REMARK    5  A    between atoms: C_9  and  C_10 
REMARK    6  A    between atoms: N_15  and  C_14 
REMARK    7  A    between atoms: N_20  and  C_19 
REMARK       I    between atoms: C_22  and  N_20 
ROOT
ATOM      1  C   LIG d   1      -9.967  77.228 118.161  0.00  0.00     0.161 C 
ATOM      2  C   LIG d   1      -8.876  78.059 117.857  0.00  0.00     0.016 C 
ATOM      3  C   LIG d   1      -8.683  79.333 118.439  0.00  0.00     0.038 C 
ATOM      4  C   LIG d   1      -9.493  79.801 119.484  0.00  0.00     0.028 C 
ATOM      5  C   LIG d   1     -10.900  79.214 119.470  0.00  0.00    -0.047 C 
ATOM      6  C   LIG d   1     -10.800  77.674 119.381  0.00  0.00     0.091 C 
ENDROOT
BRANCH   1   7
ATOM      7  O   LIG d   1      -9.514  75.870 118.334  0.00  0.00    -0.368 OA
BRANCH   7   8
ATOM      8  C   LIG d   1      -9.568  75.026 117.158  0.00  0.00     0.119 C 
BRANCH   8   9
ATOM      9  C   LIG d   1     -10.840  74.162 117.266  0.00  0.00     0.028 C 
ATOM     10  C   LIG d   1     -10.804  73.213 118.475  0.00  0.00     0.006 C 
ENDBRANCH   8   9
BRANCH   8  11
ATOM     11  C   LIG d   1      -8.403  74.031 117.132  0.00  0.00     0.028 C 
ATOM     12  C   LIG d   1      -7.147  74.602 116.455  0.00  0.00     0.006 C 
ENDBRANCH   8  11
ENDBRANCH   7   8
ENDBRANCH   1   7
BRANCH   6  13
ATOM     13  N   LIG d   1     -12.133  77.025 119.277  0.00  0.00    -0.311 N 
ATOM     14  C   LIG d   1     -12.523  76.022 120.062  0.00  0.00     0.210 C 
ATOM     15  C   LIG d   1     -13.928  75.484 119.774  0.00  0.00     0.109 C 
ATOM     16  O   LIG d   1     -11.851  75.548 120.990  0.00  0.00    -0.276 OA
ATOM     17  H   LIG d   1     -12.754  77.368 118.571  0.00  0.00     0.149 HD
ENDBRANCH   6  13
BRANCH   5  18
ATOM     18  N   LIG d   1     -11.589  79.680 120.688  0.00  0.00     0.381 N 
ATOM     19  H   LIG d   1     -10.936  79.746 121.443  0.00  0.00    -0.090 HD
ATOM     20  H   LIG d   1     -12.294  79.009 120.939  0.00  0.00    -0.090 HD
ATOM     21  H   LIG d   1     -12.009  80.568 120.524  0.00  0.00    -0.090 HD
ENDBRANCH   5  18
BRANCH   3  22
ATOM     22  C   LIG d   1      -7.693  80.170 117.946  0.00  0.00     0.382 C 
ATOM     23  O   LIG d   1      -7.992  81.313 117.523  0.00  0.00    -0.241 OA
ATOM     24  O   LIG d   1      -6.512  79.780 117.879  0.00  0.00    -0.241 OA
ENDBRANCH   3  22
TORSDOF 7
ENDMDL
