MODEL 1
REMARK VINA RESULT:      -5.7      0.000      0.000
REMARK  7 active torsions:
REMARK  status: ('A' for Active; 'I' for Inactive)
REMARK    1  A    between atoms: C_2  and  C_3 
REMARK    2  A    between atoms: C_3  and  O_6 
REMARK    3  A    between atoms: C_3  and  C_4 
REMARK    4  A    between atoms: C_7  and  O_6 
REMARK    5  A    between atoms: C_9  and  C_10 
REMARK    6  A    between atoms: N_15  and  C_14 
REMARK    7  A    between atoms: N_20  and  C_19 
REMARK       I    between atoms: C_22  and  N_20 
ROOT
ATOM      1  C   LIG d   1      -7.581  75.372 117.498  0.00  0.00     0.161 C 
ATOM      2  C   LIG d   1      -8.801  76.057 117.628  0.00  0.00     0.016 C 
ATOM      3  C   LIG d   1      -8.891  77.454 117.824  0.00  0.00     0.038 C 
ATOM      4  C   LIG d   1      -7.765  78.287 117.750  0.00  0.00     0.028 C 
ATOM      5  C   LIG d   1      -6.465  77.583 118.124  0.00  0.00    -0.047 C 
ATOM      6  C   LIG d   1      -6.348  76.278 117.304  0.00  0.00     0.091 C 
ENDROOT
BRANCH   1   7
ATOM      7  O   LIG d   1      -7.672  74.413 116.425  0.00  0.00    -0.368 OA
BRANCH   7   8
ATOM      8  C   LIG d   1      -7.811  73.026 116.820  0.00  0.00     0.119 C 
BRANCH   8   9
ATOM      9  C   LIG d   1      -6.965  72.181 115.848  0.00  0.00     0.028 C 
ATOM     10  C   LIG d   1      -5.962  73.031 115.051  0.00  0.00     0.006 C 
ENDBRANCH   8   9
BRANCH   8  11
ATOM     11  C   LIG d   1      -9.251  72.536 116.636  0.00  0.00     0.028 C 
ATOM     12  C   LIG d   1      -9.406  71.031 116.903  0.00  0.00     0.006 C 
ENDBRANCH   8  11
ENDBRANCH   7   8
ENDBRANCH   1   7
BRANCH   6  13
ATOM     13  N   LIG d   1      -5.145  75.485 117.669  0.00  0.00    -0.311 N 
ATOM     14  C   LIG d   1      -3.996  75.545 116.999  0.00  0.00     0.210 C 
ATOM     15  C   LIG d   1      -2.888  74.630 117.531  0.00  0.00     0.109 C 
ATOM     16  O   LIG d   1      -3.778  76.293 116.034  0.00  0.00    -0.276 OA
ATOM     17  H   LIG d   1      -5.224  74.875 118.459  0.00  0.00     0.149 HD
ENDBRANCH   6  13
BRANCH   5  18
ATOM     18  N   LIG d   1      -5.359  78.526 117.872  0.00  0.00     0.381 N 
ATOM     19  H   LIG d   1      -5.168  78.569 116.891  0.00  0.00    -0.090 HD
ATOM     20  H   LIG d   1      -4.534  78.192 118.339  0.00  0.00    -0.090 HD
ATOM     21  H   LIG d   1      -5.598  79.431 118.211  0.00  0.00    -0.090 HD
ENDBRANCH   5  18
BRANCH   3  22
ATOM     22  C   LIG d   1     -10.115  78.027 118.136  0.00  0.00     0.382 C 
ATOM     23  O   LIG d   1     -11.071  77.302 118.500  0.00  0.00    -0.241 OA
ATOM     24  O   LIG d   1     -10.287  79.254 118.015  0.00  0.00    -0.241 OA
ENDBRANCH   3  22
TORSDOF 7
ENDMDL
MODEL 2
REMARK VINA RESULT:      -5.4     15.032     17.091
REMARK  7 active torsions:
REMARK  status: ('A' for Active; 'I' for Inactive)
REMARK    1  A    between atoms: C_2  and  C_3 
REMARK    2  A    between atoms: C_3  and  O_6 
REMARK    3  A    between atoms: C_3  and  C_4 
REMARK    4  A    between atoms: C_7  and  O_6 
REMARK    5  A    between atoms: C_9  and  C_10 
REMARK    6  A    between atoms: N_15  and  C_14 
REMARK    7  A    between atoms: N_20  and  C_19 
REMARK       I    between atoms: C_22  and  N_20 
ROOT
ATOM      1  C   LIG d   1      -5.648  91.643 119.151  0.00  0.00     0.161 C 
ATOM      2  C   LIG d   1      -6.882  92.183 118.750  0.00  0.00     0.016 C 
ATOM      3  C   LIG d   1      -7.136  93.572 118.679  0.00  0.00     0.038 C 
ATOM      4  C   LIG d   1      -6.120  94.522 118.859  0.00  0.00     0.028 C 
ATOM      5  C   LIG d   1      -4.988  94.036 119.757  0.00  0.00    -0.047 C 
ATOM      6  C   LIG d   1      -4.495  92.663 119.244  0.00  0.00     0.091 C 
ENDROOT
BRANCH   1   7
ATOM      7  O   LIG d   1      -5.285  90.555 118.278  0.00  0.00    -0.368 OA
BRANCH   7   8
ATOM      8  C   LIG d   1      -4.628  90.922 117.041  0.00  0.00     0.119 C 
BRANCH   8   9
ATOM      9  C   LIG d   1      -5.553  90.502 115.882  0.00  0.00     0.028 C 
ATOM     10  C   LIG d   1      -6.173  91.709 115.159  0.00  0.00     0.006 C 
ENDBRANCH   8   9
BRANCH   8  11
ATOM     11  C   LIG d   1      -3.336  90.125 116.838  0.00  0.00     0.028 C 
ATOM     12  C   LIG d   1      -3.014  89.200 118.022  0.00  0.00     0.006 C 
ENDBRANCH   8  11
ENDBRANCH   7   8
ENDBRANCH   1   7
BRANCH   6  13
ATOM     13  N   LIG d   1      -3.444  92.076 120.116  0.00  0.00    -0.311 N 
ATOM     14  C   LIG d   1      -2.140  92.199 119.876  0.00  0.00     0.210 C 
ATOM     15  C   LIG d   1      -1.228  91.500 120.889  0.00  0.00     0.109 C 
ATOM     16  O   LIG d   1      -1.651  92.846 118.938  0.00  0.00    -0.276 OA
ATOM     17  H   LIG d   1      -3.752  91.560 120.917  0.00  0.00     0.149 HD
ENDBRANCH   6  13
BRANCH   5  18
ATOM     18  N   LIG d   1      -3.935  95.069 119.747  0.00  0.00     0.381 N 
ATOM     19  H   LIG d   1      -4.319  95.941 119.441  0.00  0.00    -0.090 HD
ATOM     20  H   LIG d   1      -3.218  94.796 119.099  0.00  0.00    -0.090 HD
ATOM     21  H   LIG d   1      -3.548  95.170 120.659  0.00  0.00    -0.090 HD
ENDBRANCH   5  18
BRANCH   3  22
ATOM     22  C   LIG d   1      -8.429  94.023 118.463  0.00  0.00     0.382 C 
ATOM     23  O   LIG d   1      -8.704  94.663 117.419  0.00  0.00    -0.241 OA
ATOM     24  O   LIG d   1      -9.314  93.838 119.320  0.00  0.00    -0.241 OA
ENDBRANCH   3  22
TORSDOF 7
ENDMDL
MODEL 3
REMARK VINA RESULT:      -5.4     14.798     17.431
REMARK  7 active torsions:
REMARK  status: ('A' for Active; 'I' for Inactive)
REMARK    1  A    between atoms: C_2  and  C_3 
REMARK    2  A    between atoms: C_3  and  O_6 
REMARK    3  A    between atoms: C_3  and  C_4 
REMARK    4  A    between atoms: C_7  and  O_6 
REMARK    5  A    between atoms: C_9  and  C_10 
REMARK    6  A    between atoms: N_15  and  C_14 
REMARK    7  A    between atoms: N_20  and  C_19 
REMARK       I    between atoms: C_22  and  N_20 
ROOT
ATOM      1  C   LIG d   1      -5.652  92.678 118.780  0.00  0.00     0.161 C 
ATOM      2  C   LIG d   1      -6.118  93.759 119.547  0.00  0.00     0.016 C 
ATOM      3  C   LIG d   1      -7.227  94.554 119.179  0.00  0.00     0.038 C 
ATOM      4  C   LIG d   1      -8.044  94.226 118.086  0.00  0.00     0.028 C 
ATOM      5  C   LIG d   1      -7.315  93.445 116.998  0.00  0.00    -0.047 C 
ATOM      6  C   LIG d   1      -6.597  92.238 117.642  0.00  0.00     0.091 C 
ENDROOT
BRANCH   1   7
ATOM      7  O   LIG d   1      -5.348  91.563 119.640  0.00  0.00    -0.368 OA
BRANCH   7   8
ATOM      8  C   LIG d   1      -3.944  91.330 119.910  0.00  0.00     0.119 C 
BRANCH   8   9
ATOM      9  C   LIG d   1      -3.134  92.100 118.849  0.00  0.00     0.028 C 
ATOM     10  C   LIG d   1      -2.014  92.951 119.470  0.00  0.00     0.006 C 
ENDBRANCH   8   9
BRANCH   8  11
ATOM     11  C   LIG d   1      -3.575  89.857 119.711  0.00  0.00     0.028 C 
ATOM     12  C   LIG d   1      -3.095  89.551 118.283  0.00  0.00     0.006 C 
ENDBRANCH   8  11
ENDBRANCH   7   8
ENDBRANCH   1   7
BRANCH   6  13
ATOM     13  N   LIG d   1      -5.791  91.467 116.660  0.00  0.00    -0.311 N 
ATOM     14  C   LIG d   1      -6.203  90.329 116.105  0.00  0.00     0.210 C 
ATOM     15  C   LIG d   1      -5.209  89.687 115.133  0.00  0.00     0.109 C 
ATOM     16  O   LIG d   1      -7.311  89.808 116.300  0.00  0.00    -0.276 OA
ATOM     17  H   LIG d   1      -4.891  91.835 116.421  0.00  0.00     0.149 HD
ENDBRANCH   6  13
BRANCH   5  18
ATOM     18  N   LIG d   1      -8.315  93.051 115.987  0.00  0.00     0.381 N 
ATOM     19  H   LIG d   1      -7.871  92.942 115.097  0.00  0.00    -0.090 HD
ATOM     20  H   LIG d   1      -9.003  93.779 115.909  0.00  0.00    -0.090 HD
ATOM     21  H   LIG d   1      -8.752  92.197 116.255  0.00  0.00    -0.090 HD
ENDBRANCH   5  18
BRANCH   3  22
ATOM     22  C   LIG d   1      -7.506  95.714 119.884  0.00  0.00     0.382 C 
ATOM     23  O   LIG d   1      -7.844  96.755 119.271  0.00  0.00    -0.241 OA
ATOM     24  O   LIG d   1      -7.380  95.746 121.123  0.00  0.00    -0.241 OA
ENDBRANCH   3  22
TORSDOF 7
ENDMDL
MODEL 4
REMARK VINA RESULT:      -5.4     15.135     16.898
REMARK  7 active torsions:
REMARK  status: ('A' for Active; 'I' for Inactive)
REMARK    1  A    between atoms: C_2  and  C_3 
REMARK    2  A    between atoms: C_3  and  O_6 
REMARK    3  A    between atoms: C_3  and  C_4 
REMARK    4  A    between atoms: C_7  and  O_6 
REMARK    5  A    between atoms: C_9  and  C_10 
REMARK    6  A    between atoms: N_15  and  C_14 
REMARK    7  A    between atoms: N_20  and  C_19 
REMARK       I    between atoms: C_22  and  N_20 
ROOT
ATOM      1  C   LIG d   1      -4.965  92.318 118.065  0.00  0.00     0.161 C 
ATOM      2  C   LIG d   1      -6.167  93.045 118.071  0.00  0.00     0.016 C 
ATOM      3  C   LIG d   1      -7.182  92.878 117.101  0.00  0.00     0.038 C 
ATOM      4  C   LIG d   1      -7.129  91.858 116.139  0.00  0.00     0.028 C 
ATOM      5  C   LIG d   1      -5.708  91.433 115.785  0.00  0.00    -0.047 C 
ATOM      6  C   LIG d   1      -4.937  91.123 117.089  0.00  0.00     0.091 C 
ENDROOT
BRANCH   1   7
ATOM      7  O   LIG d   1      -4.652  91.880 119.402  0.00  0.00    -0.368 OA
BRANCH   7   8
ATOM      8  C   LIG d   1      -3.748  92.725 120.154  0.00  0.00     0.119 C 
BRANCH   8   9
ATOM      9  C   LIG d   1      -2.699  93.275 119.168  0.00  0.00     0.028 C 
ATOM     10  C   LIG d   1      -1.286  92.744 119.458  0.00  0.00     0.006 C 
ENDBRANCH   8   9
BRANCH   8  11
ATOM     11  C   LIG d   1      -2.953  91.915 121.182  0.00  0.00     0.028 C 
ATOM     12  C   LIG d   1      -3.572  90.537 121.462  0.00  0.00     0.006 C 
ENDBRANCH   8  11
ENDBRANCH   7   8
ENDBRANCH   1   7
BRANCH   6  13
ATOM     13  N   LIG d   1      -3.513  90.780 116.837  0.00  0.00    -0.311 N 
ATOM     14  C   LIG d   1      -2.862  89.822 117.494  0.00  0.00     0.210 C 
ATOM     15  C   LIG d   1      -1.394  89.646 117.095  0.00  0.00     0.109 C 
ATOM     16  O   LIG d   1      -3.371  89.079 118.348  0.00  0.00    -0.276 OA
ATOM     17  H   LIG d   1      -3.032  91.313 116.139  0.00  0.00     0.149 HD
ENDBRANCH   6  13
BRANCH   5  18
ATOM     18  N   LIG d   1      -5.802  90.274 114.879  0.00  0.00     0.381 N 
ATOM     19  H   LIG d   1      -4.919  89.805 114.835  0.00  0.00    -0.090 HD
ATOM     20  H   LIG d   1      -6.032  90.600 113.956  0.00  0.00    -0.090 HD
ATOM     21  H   LIG d   1      -6.504  89.645 115.201  0.00  0.00    -0.090 HD
ENDBRANCH   5  18
BRANCH   3  22
ATOM     22  C   LIG d   1      -8.248  93.764 117.062  0.00  0.00     0.382 C 
ATOM     23  O   LIG d   1      -8.634  94.326 118.116  0.00  0.00    -0.241 OA
ATOM     24  O   LIG d   1      -8.856  93.975 115.996  0.00  0.00    -0.241 OA
ENDBRANCH   3  22
TORSDOF 7
ENDMDL
MODEL 5
REMARK VINA RESULT:      -5.2     15.232     18.042
REMARK  7 active torsions:
REMARK  status: ('A' for Active; 'I' for Inactive)
REMARK    1  A    between atoms: C_2  and  C_3 
REMARK    2  A    between atoms: C_3  and  O_6 
REMARK    3  A    between atoms: C_3  and  C_4 
REMARK    4  A    between atoms: C_7  and  O_6 
REMARK    5  A    between atoms: C_9  and  C_10 
REMARK    6  A    between atoms: N_15  and  C_14 
REMARK    7  A    between atoms: N_20  and  C_19 
REMARK       I    between atoms: C_22  and  N_20 
ROOT
ATOM      1  C   LIG d   1      -5.566  91.621 119.226  0.00  0.00     0.161 C 
ATOM      2  C   LIG d   1      -4.759  90.879 118.348  0.00  0.00     0.016 C 
ATOM      3  C   LIG d   1      -4.965  90.838 116.950  0.00  0.00     0.038 C 
ATOM      4  C   LIG d   1      -5.905  91.662 116.314  0.00  0.00     0.028 C 
ATOM      5  C   LIG d   1      -7.077  92.047 117.210  0.00  0.00    -0.047 C 
ATOM      6  C   LIG d   1      -6.528  92.614 118.539  0.00  0.00     0.091 C 
ENDROOT
BRANCH   1   7
ATOM      7  O   LIG d   1      -4.740  92.308 120.187  0.00  0.00    -0.368 OA
BRANCH   7   8
ATOM      8  C   LIG d   1      -4.102  93.524 119.725  0.00  0.00     0.119 C 
BRANCH   8   9
ATOM      9  C   LIG d   1      -2.581  93.281 119.732  0.00  0.00     0.028 C 
ATOM     10  C   LIG d   1      -1.965  93.377 118.326  0.00  0.00     0.006 C 
ENDBRANCH   8   9
BRANCH   8  11
ATOM     11  C   LIG d   1      -4.333  94.680 120.703  0.00  0.00     0.028 C 
ATOM     12  C   LIG d   1      -4.781  95.973 120.003  0.00  0.00     0.006 C 
ENDBRANCH   8  11
ENDBRANCH   7   8
ENDBRANCH   1   7
BRANCH   6  13
ATOM     13  N   LIG d   1      -7.608  92.937 119.507  0.00  0.00    -0.311 N 
ATOM     14  C   LIG d   1      -8.193  94.131 119.580  0.00  0.00     0.210 C 
ATOM     15  C   LIG d   1      -9.270  94.259 120.663  0.00  0.00     0.109 C 
ATOM     16  O   LIG d   1      -7.945  95.088 118.830  0.00  0.00    -0.276 OA
ATOM     17  H   LIG d   1      -7.892  92.209 120.133  0.00  0.00     0.149 HD
ENDBRANCH   6  13
BRANCH   5  18
ATOM     18  N   LIG d   1      -7.907  93.015 116.468  0.00  0.00     0.381 N 
ATOM     19  H   LIG d   1      -7.982  92.733 115.511  0.00  0.00    -0.090 HD
ATOM     20  H   LIG d   1      -7.460  93.915 116.497  0.00  0.00    -0.090 HD
ATOM     21  H   LIG d   1      -8.813  93.072 116.877  0.00  0.00    -0.090 HD
ENDBRANCH   5  18
BRANCH   3  22
ATOM     22  C   LIG d   1      -4.251  89.935 116.177  0.00  0.00     0.382 C 
ATOM     23  O   LIG d   1      -4.819  89.328 115.236  0.00  0.00    -0.241 OA
ATOM     24  O   LIG d   1      -3.058  89.686 116.436  0.00  0.00    -0.241 OA
ENDBRANCH   3  22
TORSDOF 7
ENDMDL
MODEL 6
REMARK VINA RESULT:      -5.1      1.694      4.971
REMARK  7 active torsions:
REMARK  status: ('A' for Active; 'I' for Inactive)
REMARK    1  A    between atoms: C_2  and  C_3 
REMARK    2  A    between atoms: C_3  and  O_6 
REMARK    3  A    between atoms: C_3  and  C_4 
REMARK    4  A    between atoms: C_7  and  O_6 
REMARK    5  A    between atoms: C_9  and  C_10 
REMARK    6  A    between atoms: N_15  and  C_14 
REMARK    7  A    between atoms: N_20  and  C_19 
REMARK       I    between atoms: C_22  and  N_20 
ROOT
ATOM      1  C   LIG d   1      -5.794  75.570 116.407  0.00  0.00     0.161 C 
ATOM      2  C   LIG d   1      -4.505  75.014 116.341  0.00  0.00     0.016 C 
ATOM      3  C   LIG d   1      -3.534  75.179 117.355  0.00  0.00     0.038 C 
ATOM      4  C   LIG d   1      -3.838  75.788 118.581  0.00  0.00     0.028 C 
ATOM      5  C   LIG d   1      -4.972  76.803 118.489  0.00  0.00    -0.047 C 
ATOM      6  C   LIG d   1      -6.181  76.143 117.787  0.00  0.00     0.091 C 
ENDROOT
BRANCH   1   7
ATOM      7  O   LIG d   1      -6.768  74.597 115.978  0.00  0.00    -0.368 OA
BRANCH   7   8
ATOM      8  C   LIG d   1      -7.294  73.725 117.008  0.00  0.00     0.119 C 
BRANCH   8   9
ATOM      9  C   LIG d   1      -6.933  72.278 116.618  0.00  0.00     0.028 C 
ATOM     10  C   LIG d   1      -6.351  72.181 115.198  0.00  0.00     0.006 C 
ENDBRANCH   8   9
BRANCH   8  11
ATOM     11  C   LIG d   1      -8.825  73.765 117.043  0.00  0.00     0.028 C 
ATOM     12  C   LIG d   1      -9.455  72.369 117.172  0.00  0.00     0.006 C 
ENDBRANCH   8  11
ENDBRANCH   7   8
ENDBRANCH   1   7
BRANCH   6  13
ATOM     13  N   LIG d   1      -7.305  77.093 117.580  0.00  0.00    -0.311 N 
ATOM     14  C   LIG d   1      -8.313  77.234 118.438  0.00  0.00     0.210 C 
ATOM     15  C   LIG d   1      -9.378  78.254 118.023  0.00  0.00     0.109 C 
ATOM     16  O   LIG d   1      -8.411  76.633 119.519  0.00  0.00    -0.276 OA
ATOM     17  H   LIG d   1      -7.289  77.643 116.743  0.00  0.00     0.149 HD
ENDBRANCH   6  13
BRANCH   5  18
ATOM     18  N   LIG d   1      -5.277  77.258 119.859  0.00  0.00     0.381 N 
ATOM     19  H   LIG d   1      -4.426  77.412 120.361  0.00  0.00    -0.090 HD
ATOM     20  H   LIG d   1      -5.796  76.539 120.332  0.00  0.00    -0.090 HD
ATOM     21  H   LIG d   1      -5.811  78.098 119.828  0.00  0.00    -0.090 HD
ENDBRANCH   5  18
BRANCH   3  22
ATOM     22  C   LIG d   1      -2.229  74.766 117.130  0.00  0.00     0.382 C 
ATOM     23  O   LIG d   1      -1.541  75.320 116.239  0.00  0.00    -0.241 OA
ATOM     24  O   LIG d   1      -1.747  73.817 117.777  0.00  0.00    -0.241 OA
ENDBRANCH   3  22
TORSDOF 7
ENDMDL
MODEL 7
REMARK VINA RESULT:      -5.1     14.951     17.894
REMARK  7 active torsions:
REMARK  status: ('A' for Active; 'I' for Inactive)
REMARK    1  A    between atoms: C_2  and  C_3 
REMARK    2  A    between atoms: C_3  and  O_6 
REMARK    3  A    between atoms: C_3  and  C_4 
REMARK    4  A    between atoms: C_7  and  O_6 
REMARK    5  A    between atoms: C_9  and  C_10 
REMARK    6  A    between atoms: N_15  and  C_14 
REMARK    7  A    between atoms: N_20  and  C_19 
REMARK       I    between atoms: C_22  and  N_20 
ROOT
ATOM      1  C   LIG d   1      -5.944  92.828 118.395  0.00  0.00     0.161 C 
ATOM      2  C   LIG d   1      -6.819  91.989 117.685  0.00  0.00     0.016 C 
ATOM      3  C   LIG d   1      -6.383  90.910 116.883  0.00  0.00     0.038 C 
ATOM      4  C   LIG d   1      -5.041  90.501 116.856  0.00  0.00     0.028 C 
ATOM      5  C   LIG d   1      -4.058  91.627 117.158  0.00  0.00    -0.047 C 
ATOM      6  C   LIG d   1      -4.486  92.329 118.467  0.00  0.00     0.091 C 
ENDROOT
BRANCH   1   7
ATOM      7  O   LIG d   1      -6.460  93.062 119.720  0.00  0.00    -0.368 OA
BRANCH   7   8
ATOM      8  C   LIG d   1      -6.607  94.450 120.111  0.00  0.00     0.119 C 
BRANCH   8   9
ATOM      9  C   LIG d   1      -7.867  94.551 120.992  0.00  0.00     0.028 C 
ATOM     10  C   LIG d   1      -9.103  93.926 120.323  0.00  0.00     0.006 C 
ENDBRANCH   8   9
BRANCH   8  11
ATOM     11  C   LIG d   1      -6.886  95.343 118.899  0.00  0.00     0.028 C 
ATOM     12  C   LIG d   1      -7.007  96.830 119.270  0.00  0.00     0.006 C 
ENDBRANCH   8  11
ENDBRANCH   7   8
ENDBRANCH   1   7
BRANCH   6  13
ATOM     13  N   LIG d   1      -3.626  93.497 118.791  0.00  0.00    -0.311 N 
ATOM     14  C   LIG d   1      -2.572  93.430 119.603  0.00  0.00     0.210 C 
ATOM     15  C   LIG d   1      -1.835  94.755 119.817  0.00  0.00     0.109 C 
ATOM     16  O   LIG d   1      -2.159  92.391 120.140  0.00  0.00    -0.276 OA
ATOM     17  H   LIG d   1      -3.871  94.374 118.373  0.00  0.00     0.149 HD
ENDBRANCH   6  13
BRANCH   5  18
ATOM     18  N   LIG d   1      -2.710  91.034 117.234  0.00  0.00     0.381 N 
ATOM     19  H   LIG d   1      -2.019  91.756 117.186  0.00  0.00    -0.090 HD
ATOM     20  H   LIG d   1      -2.580  90.420 116.449  0.00  0.00    -0.090 HD
ATOM     21  H   LIG d   1      -2.609  90.523 118.084  0.00  0.00    -0.090 HD
ENDBRANCH   5  18
BRANCH   3  22
ATOM     22  C   LIG d   1      -7.288  90.252 116.064  0.00  0.00     0.382 C 
ATOM     23  O   LIG d   1      -7.305  90.488 114.832  0.00  0.00    -0.241 OA
ATOM     24  O   LIG d   1      -8.117  89.459 116.548  0.00  0.00    -0.241 OA
ENDBRANCH   3  22
TORSDOF 7
ENDMDL
MODEL 8
REMARK VINA RESULT:      -5.1      1.371      2.105
REMARK  7 active torsions:
REMARK  status: ('A' for Active; 'I' for Inactive)
REMARK    1  A    between atoms: C_2  and  C_3 
REMARK    2  A    between atoms: C_3  and  O_6 
REMARK    3  A    between atoms: C_3  and  C_4 
REMARK    4  A    between atoms: C_7  and  O_6 
REMARK    5  A    between atoms: C_9  and  C_10 
REMARK    6  A    between atoms: N_15  and  C_14 
REMARK    7  A    between atoms: N_20  and  C_19 
REMARK       I    between atoms: C_22  and  N_20 
ROOT
ATOM      1  C   LIG d   1      -7.480  76.226 117.437  0.00  0.00     0.161 C 
ATOM      2  C   LIG d   1      -8.781  76.610 117.804  0.00  0.00     0.016 C 
ATOM      3  C   LIG d   1      -9.127  77.929 118.177  0.00  0.00     0.038 C 
ATOM      4  C   LIG d   1      -8.222  78.994 118.063  0.00  0.00     0.028 C 
ATOM      5  C   LIG d   1      -6.763  78.564 118.180  0.00  0.00    -0.047 C 
ATOM      6  C   LIG d   1      -6.504  77.397 117.200  0.00  0.00     0.091 C 
ENDROOT
BRANCH   1   7
ATOM      7  O   LIG d   1      -7.531  75.373 116.277  0.00  0.00    -0.368 OA
BRANCH   7   8
ATOM      8  C   LIG d   1      -7.622  73.950 116.535  0.00  0.00     0.119 C 
BRANCH   8   9
ATOM      9  C   LIG d   1      -7.078  73.702 117.955  0.00  0.00     0.028 C 
ATOM     10  C   LIG d   1      -7.579  72.377 118.553  0.00  0.00     0.006 C 
ENDBRANCH   8   9
BRANCH   8  11
ATOM     11  C   LIG d   1      -6.703  73.155 115.604  0.00  0.00     0.028 C 
ATOM     12  C   LIG d   1      -5.699  74.045 114.855  0.00  0.00     0.006 C 
ENDBRANCH   8  11
ENDBRANCH   7   8
ENDBRANCH   1   7
BRANCH   6  13
ATOM     13  N   LIG d   1      -5.122  76.861 117.310  0.00  0.00    -0.311 N 
ATOM     14  C   LIG d   1      -4.120  77.248 116.523  0.00  0.00     0.210 C 
ATOM     15  C   LIG d   1      -2.781  76.554 116.793  0.00  0.00     0.109 C 
ATOM     16  O   LIG d   1      -4.205  78.123 115.649  0.00  0.00    -0.276 OA
ATOM     17  H   LIG d   1      -4.957  76.168 118.014  0.00  0.00     0.149 HD
ENDBRANCH   6  13
BRANCH   5  18
ATOM     18  N   LIG d   1      -5.926  79.747 117.906  0.00  0.00     0.381 N 
ATOM     19  H   LIG d   1      -6.162  80.483 118.541  0.00  0.00    -0.090 HD
ATOM     20  H   LIG d   1      -6.111  80.066 116.971  0.00  0.00    -0.090 HD
ATOM     21  H   LIG d   1      -4.963  79.513 118.000  0.00  0.00    -0.090 HD
ENDBRANCH   5  18
BRANCH   3  22
ATOM     22  C   LIG d   1     -10.382  78.185 118.710  0.00  0.00     0.382 C 
ATOM     23  O   LIG d   1     -10.583  79.238 119.361  0.00  0.00    -0.241 OA
ATOM     24  O   LIG d   1     -11.303  77.356 118.584  0.00  0.00    -0.241 OA
ENDBRANCH   3  22
TORSDOF 7
ENDMDL
MODEL 9
REMARK VINA RESULT:      -4.9     14.478     16.605
REMARK  7 active torsions:
REMARK  status: ('A' for Active; 'I' for Inactive)
REMARK    1  A    between atoms: C_2  and  C_3 
REMARK    2  A    between atoms: C_3  and  O_6 
REMARK    3  A    between atoms: C_3  and  C_4 
REMARK    4  A    between atoms: C_7  and  O_6 
REMARK    5  A    between atoms: C_9  and  C_10 
REMARK    6  A    between atoms: N_15  and  C_14 
REMARK    7  A    between atoms: N_20  and  C_19 
REMARK       I    between atoms: C_22  and  N_20 
ROOT
ATOM      1  C   LIG d   1      -4.296  91.115 118.134  0.00  0.00     0.161 C 
ATOM      2  C   LIG d   1      -5.169  90.487 117.230  0.00  0.00     0.016 C 
ATOM      3  C   LIG d   1      -6.381  91.065 116.789  0.00  0.00     0.038 C 
ATOM      4  C   LIG d   1      -6.731  92.386 117.107  0.00  0.00     0.028 C 
ATOM      5  C   LIG d   1      -6.128  92.872 118.421  0.00  0.00    -0.047 C 
ATOM      6  C   LIG d   1      -4.606  92.602 118.405  0.00  0.00     0.091 C 
ENDROOT
BRANCH   1   7
ATOM      7  O   LIG d   1      -2.935  90.961 117.686  0.00  0.00    -0.368 OA
BRANCH   7   8
ATOM      8  C   LIG d   1      -2.160  89.929 118.343  0.00  0.00     0.119 C 
BRANCH   8   9
ATOM      9  C   LIG d   1      -0.837  90.568 118.809  0.00  0.00     0.028 C 
ATOM     10  C   LIG d   1      -0.738  90.660 120.341  0.00  0.00     0.006 C 
ENDBRANCH   8   9
BRANCH   8  11
ATOM     11  C   LIG d   1      -1.753  88.826 117.361  0.00  0.00     0.028 C 
ATOM     12  C   LIG d   1      -0.836  87.770 117.997  0.00  0.00     0.006 C 
ENDBRANCH   8  11
ENDBRANCH   7   8
ENDBRANCH   1   7
BRANCH   6  13
ATOM     13  N   LIG d   1      -3.952  92.971 119.688  0.00  0.00    -0.311 N 
ATOM     14  C   LIG d   1      -2.829  93.684 119.759  0.00  0.00     0.210 C 
ATOM     15  C   LIG d   1      -2.312  93.936 121.179  0.00  0.00     0.109 C 
ATOM     16  O   LIG d   1      -2.230  94.159 118.783  0.00  0.00    -0.276 OA
ATOM     17  H   LIG d   1      -4.388  92.653 120.531  0.00  0.00     0.149 HD
ENDBRANCH   6  13
BRANCH   5  18
ATOM     18  N   LIG d   1      -6.460  94.303 118.561  0.00  0.00     0.381 N 
ATOM     19  H   LIG d   1      -5.620  94.836 118.671  0.00  0.00    -0.090 HD
ATOM     20  H   LIG d   1      -7.023  94.427 119.383  0.00  0.00    -0.090 HD
ATOM     21  H   LIG d   1      -6.958  94.618 117.757  0.00  0.00    -0.090 HD
ENDBRANCH   5  18
BRANCH   3  22
ATOM     22  C   LIG d   1      -7.277  90.306 116.052  0.00  0.00     0.382 C 
ATOM     23  O   LIG d   1      -7.355  90.460 114.809  0.00  0.00    -0.241 OA
ATOM     24  O   LIG d   1      -8.039  89.501 116.620  0.00  0.00    -0.241 OA
ENDBRANCH   3  22
TORSDOF 7
ENDMDL
