MODEL 1
REMARK VINA RESULT:      -6.0      0.000      0.000
REMARK  7 active torsions:
REMARK  status: ('A' for Active; 'I' for Inactive)
REMARK    1  A    between atoms: C_2  and  C_3 
REMARK    2  A    between atoms: C_3  and  O_6 
REMARK    3  A    between atoms: C_3  and  C_4 
REMARK    4  A    between atoms: C_7  and  O_6 
REMARK    5  A    between atoms: C_9  and  C_10 
REMARK    6  A    between atoms: N_15  and  C_14 
REMARK    7  A    between atoms: N_20  and  C_19 
REMARK       I    between atoms: C_22  and  N_20 
ROOT
ATOM      1  C   LIG d   1      -8.503  75.430 117.421  0.00  0.00     0.161 C 
ATOM      2  C   LIG d   1      -9.846  75.557 117.815  0.00  0.00     0.016 C 
ATOM      3  C   LIG d   1     -10.332  76.638 118.586  0.00  0.00     0.038 C 
ATOM      4  C   LIG d   1      -9.533  77.750 118.890  0.00  0.00     0.028 C 
ATOM      5  C   LIG d   1      -8.043  77.429 118.945  0.00  0.00    -0.047 C 
ATOM      6  C   LIG d   1      -7.641  76.690 117.649  0.00  0.00     0.091 C 
ENDROOT
BRANCH   1   7
ATOM      7  O   LIG d   1      -8.436  75.019 116.041  0.00  0.00    -0.368 OA
BRANCH   7   8
ATOM      8  C   LIG d   1      -8.070  73.637 115.805  0.00  0.00     0.119 C 
BRANCH   8   9
ATOM      9  C   LIG d   1      -8.564  72.815 117.011  0.00  0.00     0.028 C 
ATOM     10  C   LIG d   1      -8.964  71.383 116.621  0.00  0.00     0.006 C 
ENDBRANCH   8   9
BRANCH   8  11
ATOM     11  C   LIG d   1      -6.549  73.459 115.788  0.00  0.00     0.028 C 
ATOM     12  C   LIG d   1      -5.848  74.410 114.805  0.00  0.00     0.006 C 
ENDBRANCH   8  11
ENDBRANCH   7   8
ENDBRANCH   1   7
BRANCH   6  13
ATOM     13  N   LIG d   1      -6.217  76.264 117.657  0.00  0.00    -0.311 N 
ATOM     14  C   LIG d   1      -5.224  77.016 117.186  0.00  0.00     0.210 C 
ATOM     15  C   LIG d   1      -3.833  76.380 117.272  0.00  0.00     0.109 C 
ATOM     16  O   LIG d   1      -5.359  78.163 116.733  0.00  0.00    -0.276 OA
ATOM     17  H   LIG d   1      -6.014  75.359 118.035  0.00  0.00     0.149 HD
ENDBRANCH   6  13
BRANCH   5  18
ATOM     18  N   LIG d   1      -7.320  78.701 119.133  0.00  0.00     0.381 N 
ATOM     19  H   LIG d   1      -7.901  79.466 118.852  0.00  0.00    -0.090 HD
ATOM     20  H   LIG d   1      -6.500  78.698 118.552  0.00  0.00    -0.090 HD
ATOM     21  H   LIG d   1      -7.058  78.806 120.089  0.00  0.00    -0.090 HD
ENDBRANCH   5  18
BRANCH   3  22
ATOM     22  C   LIG d   1     -11.620  76.594 119.096  0.00  0.00     0.382 C 
ATOM     23  O   LIG d   1     -11.838  76.943 120.281  0.00  0.00    -0.241 OA
ATOM     24  O   LIG d   1     -12.561  76.167 118.400  0.00  0.00    -0.241 OA
ENDBRANCH   3  22
TORSDOF 7
ENDMDL
MODEL 2
REMARK VINA RESULT:      -6.0     15.639     17.940
REMARK  7 active torsions:
REMARK  status: ('A' for Active; 'I' for Inactive)
REMARK    1  A    between atoms: C_2  and  C_3 
REMARK    2  A    between atoms: C_3  and  O_6 
REMARK    3  A    between atoms: C_3  and  C_4 
REMARK    4  A    between atoms: C_7  and  O_6 
REMARK    5  A    between atoms: C_9  and  C_10 
REMARK    6  A    between atoms: N_15  and  C_14 
REMARK    7  A    between atoms: N_20  and  C_19 
REMARK       I    between atoms: C_22  and  N_20 
ROOT
ATOM      1  C   LIG d   1      -6.594  93.099 118.197  0.00  0.00     0.161 C 
ATOM      2  C   LIG d   1      -7.185  92.070 117.447  0.00  0.00     0.016 C 
ATOM      3  C   LIG d   1      -6.442  91.084 116.757  0.00  0.00     0.038 C 
ATOM      4  C   LIG d   1      -5.051  90.972 116.895  0.00  0.00     0.028 C 
ATOM      5  C   LIG d   1      -4.368  92.292 117.236  0.00  0.00    -0.047 C 
ATOM      6  C   LIG d   1      -5.081  92.927 118.451  0.00  0.00     0.091 C 
ENDROOT
BRANCH   1   7
ATOM      7  O   LIG d   1      -7.296  93.260 119.445  0.00  0.00    -0.368 OA
BRANCH   7   8
ATOM      8  C   LIG d   1      -7.772  94.596 119.742  0.00  0.00     0.119 C 
BRANCH   8   9
ATOM      9  C   LIG d   1      -9.186  94.462 120.340  0.00  0.00     0.028 C 
ATOM     10  C   LIG d   1      -9.783  93.060 120.127  0.00  0.00     0.006 C 
ENDBRANCH   8   9
BRANCH   8  11
ATOM     11  C   LIG d   1      -7.949  95.421 118.464  0.00  0.00     0.028 C 
ATOM     12  C   LIG d   1      -7.370  96.839 118.585  0.00  0.00     0.006 C 
ENDBRANCH   8  11
ENDBRANCH   7   8
ENDBRANCH   1   7
BRANCH   6  13
ATOM     13  N   LIG d   1      -4.529  94.263 118.798  0.00  0.00    -0.311 N 
ATOM     14  C   LIG d   1      -3.595  94.450 119.729  0.00  0.00     0.210 C 
ATOM     15  C   LIG d   1      -3.180  95.909 119.944  0.00  0.00     0.109 C 
ATOM     16  O   LIG d   1      -3.048  93.544 120.375  0.00  0.00    -0.276 OA
ATOM     17  H   LIG d   1      -4.894  95.051 118.301  0.00  0.00     0.149 HD
ENDBRANCH   6  13
BRANCH   5  18
ATOM     18  N   LIG d   1      -2.943  92.005 117.487  0.00  0.00     0.381 N 
ATOM     19  H   LIG d   1      -2.750  92.081 118.466  0.00  0.00    -0.090 HD
ATOM     20  H   LIG d   1      -2.384  92.683 117.001  0.00  0.00    -0.090 HD
ATOM     21  H   LIG d   1      -2.718  91.088 117.167  0.00  0.00    -0.090 HD
ENDBRANCH   5  18
BRANCH   3  22
ATOM     22  C   LIG d   1      -7.089  90.222 115.884  0.00  0.00     0.382 C 
ATOM     23  O   LIG d   1      -8.212  89.750 116.187  0.00  0.00    -0.241 OA
ATOM     24  O   LIG d   1      -6.544  89.874 114.819  0.00  0.00    -0.241 OA
ENDBRANCH   3  22
TORSDOF 7
ENDMDL
MODEL 3
REMARK VINA RESULT:      -5.9      1.412      2.288
REMARK  7 active torsions:
REMARK  status: ('A' for Active; 'I' for Inactive)
REMARK    1  A    between atoms: C_2  and  C_3 
REMARK    2  A    between atoms: C_3  and  O_6 
REMARK    3  A    between atoms: C_3  and  C_4 
REMARK    4  A    between atoms: C_7  and  O_6 
REMARK    5  A    between atoms: C_9  and  C_10 
REMARK    6  A    between atoms: N_15  and  C_14 
REMARK    7  A    between atoms: N_20  and  C_19 
REMARK       I    between atoms: C_22  and  N_20 
ROOT
ATOM      1  C   LIG d   1      -7.575  76.205 117.702  0.00  0.00     0.161 C 
ATOM      2  C   LIG d   1      -8.819  76.737 118.081  0.00  0.00     0.016 C 
ATOM      3  C   LIG d   1      -9.024  78.106 118.369  0.00  0.00     0.038 C 
ATOM      4  C   LIG d   1      -8.027  79.068 118.149  0.00  0.00     0.028 C 
ATOM      5  C   LIG d   1      -6.612  78.507 118.250  0.00  0.00    -0.047 C 
ATOM      6  C   LIG d   1      -6.502  77.256 117.349  0.00  0.00     0.091 C 
ENDROOT
BRANCH   1   7
ATOM      7  O   LIG d   1      -7.752  75.282 116.608  0.00  0.00    -0.368 OA
BRANCH   7   8
ATOM      8  C   LIG d   1      -7.691  73.875 116.946  0.00  0.00     0.119 C 
BRANCH   8   9
ATOM      9  C   LIG d   1      -6.476  73.275 116.211  0.00  0.00     0.028 C 
ATOM     10  C   LIG d   1      -6.044  74.123 115.003  0.00  0.00     0.006 C 
ENDBRANCH   8   9
BRANCH   8  11
ATOM     11  C   LIG d   1      -8.907  73.118 116.404  0.00  0.00     0.028 C 
ATOM     12  C   LIG d   1      -8.766  71.593 116.532  0.00  0.00     0.006 C 
ENDBRANCH   8  11
ENDBRANCH   7   8
ENDBRANCH   1   7
BRANCH   6  13
ATOM     13  N   LIG d   1      -5.175  76.596 117.454  0.00  0.00    -0.311 N 
ATOM     14  C   LIG d   1      -4.166  76.842 116.619  0.00  0.00     0.210 C 
ATOM     15  C   LIG d   1      -2.891  76.039 116.893  0.00  0.00     0.109 C 
ATOM     16  O   LIG d   1      -4.196  77.671 115.698  0.00  0.00    -0.276 OA
ATOM     17  H   LIG d   1      -5.053  75.931 118.193  0.00  0.00     0.149 HD
ENDBRANCH   6  13
BRANCH   5  18
ATOM     18  N   LIG d   1      -5.678  79.582 117.864  0.00  0.00     0.381 N 
ATOM     19  H   LIG d   1      -4.997  79.224 117.225  0.00  0.00    -0.090 HD
ATOM     20  H   LIG d   1      -5.200  79.907 118.685  0.00  0.00    -0.090 HD
ATOM     21  H   LIG d   1      -6.178  80.333 117.442  0.00  0.00    -0.090 HD
ENDBRANCH   5  18
BRANCH   3  22
ATOM     22  C   LIG d   1     -10.227  78.519 118.921  0.00  0.00     0.382 C 
ATOM     23  O   LIG d   1     -10.588  79.716 118.814  0.00  0.00    -0.241 OA
ATOM     24  O   LIG d   1     -10.935  77.721 119.563  0.00  0.00    -0.241 OA
ENDBRANCH   3  22
TORSDOF 7
ENDMDL
MODEL 4
REMARK VINA RESULT:      -5.7      2.390      5.576
REMARK  7 active torsions:
REMARK  status: ('A' for Active; 'I' for Inactive)
REMARK    1  A    between atoms: C_2  and  C_3 
REMARK    2  A    between atoms: C_3  and  O_6 
REMARK    3  A    between atoms: C_3  and  C_4 
REMARK    4  A    between atoms: C_7  and  O_6 
REMARK    5  A    between atoms: C_9  and  C_10 
REMARK    6  A    between atoms: N_15  and  C_14 
REMARK    7  A    between atoms: N_20  and  C_19 
REMARK       I    between atoms: C_22  and  N_20 
ROOT
ATOM      1  C   LIG d   1      -5.858  75.356 116.557  0.00  0.00     0.161 C 
ATOM      2  C   LIG d   1      -4.660  74.769 116.117  0.00  0.00     0.016 C 
ATOM      3  C   LIG d   1      -3.382  75.296 116.411  0.00  0.00     0.038 C 
ATOM      4  C   LIG d   1      -3.208  76.369 117.298  0.00  0.00     0.028 C 
ATOM      5  C   LIG d   1      -4.412  77.303 117.362  0.00  0.00    -0.047 C 
ATOM      6  C   LIG d   1      -5.685  76.464 117.618  0.00  0.00     0.091 C 
ENDROOT
BRANCH   1   7
ATOM      7  O   LIG d   1      -6.754  74.336 117.040  0.00  0.00    -0.368 OA
BRANCH   7   8
ATOM      8  C   LIG d   1      -7.407  73.529 116.029  0.00  0.00     0.119 C 
BRANCH   8   9
ATOM      9  C   LIG d   1      -8.927  73.657 116.245  0.00  0.00     0.028 C 
ATOM     10  C   LIG d   1      -9.283  74.710 117.308  0.00  0.00     0.006 C 
ENDBRANCH   8   9
BRANCH   8  11
ATOM     11  C   LIG d   1      -7.093  72.042 116.215  0.00  0.00     0.028 C 
ATOM     12  C   LIG d   1      -8.348  71.199 116.491  0.00  0.00     0.006 C 
ENDBRANCH   8  11
ENDBRANCH   7   8
ENDBRANCH   1   7
BRANCH   6  13
ATOM     13  N   LIG d   1      -6.919  77.291 117.611  0.00  0.00    -0.311 N 
ATOM     14  C   LIG d   1      -7.489  77.766 118.717  0.00  0.00     0.210 C 
ATOM     15  C   LIG d   1      -8.768  78.579 118.488  0.00  0.00     0.109 C 
ATOM     16  O   LIG d   1      -7.040  77.619 119.863  0.00  0.00    -0.276 OA
ATOM     17  H   LIG d   1      -7.334  77.485 116.720  0.00  0.00     0.149 HD
ENDBRANCH   6  13
BRANCH   5  18
ATOM     18  N   LIG d   1      -4.150  78.295 118.422  0.00  0.00     0.381 N 
ATOM     19  H   LIG d   1      -4.750  79.086 118.301  0.00  0.00    -0.090 HD
ATOM     20  H   LIG d   1      -3.198  78.606 118.348  0.00  0.00    -0.090 HD
ATOM     21  H   LIG d   1      -4.305  77.886 119.317  0.00  0.00    -0.090 HD
ENDBRANCH   5  18
BRANCH   3  22
ATOM     22  C   LIG d   1      -2.262  74.773 115.783  0.00  0.00     0.382 C 
ATOM     23  O   LIG d   1      -1.727  73.727 116.224  0.00  0.00    -0.241 OA
ATOM     24  O   LIG d   1      -1.753  75.357 114.808  0.00  0.00    -0.241 OA
ENDBRANCH   3  22
TORSDOF 7
ENDMDL
MODEL 5
REMARK VINA RESULT:      -5.5      2.427      5.639
REMARK  7 active torsions:
REMARK  status: ('A' for Active; 'I' for Inactive)
REMARK    1  A    between atoms: C_2  and  C_3 
REMARK    2  A    between atoms: C_3  and  O_6 
REMARK    3  A    between atoms: C_3  and  C_4 
REMARK    4  A    between atoms: C_7  and  O_6 
REMARK    5  A    between atoms: C_9  and  C_10 
REMARK    6  A    between atoms: N_15  and  C_14 
REMARK    7  A    between atoms: N_20  and  C_19 
REMARK       I    between atoms: C_22  and  N_20 
ROOT
ATOM      1  C   LIG d   1      -7.983  77.232 117.956  0.00  0.00     0.161 C 
ATOM      2  C   LIG d   1      -7.545  76.245 117.057  0.00  0.00     0.016 C 
ATOM      3  C   LIG d   1      -8.386  75.232 116.543  0.00  0.00     0.038 C 
ATOM      4  C   LIG d   1      -9.769  75.227 116.777  0.00  0.00     0.028 C 
ATOM      5  C   LIG d   1     -10.165  75.908 118.083  0.00  0.00    -0.047 C 
ATOM      6  C   LIG d   1      -9.514  77.309 118.135  0.00  0.00     0.091 C 
ENDROOT
BRANCH   1   7
ATOM      7  O   LIG d   1      -7.459  78.517 117.565  0.00  0.00    -0.368 OA
BRANCH   7   8
ATOM      8  C   LIG d   1      -6.393  79.048 118.389  0.00  0.00     0.119 C 
BRANCH   8   9
ATOM      9  C   LIG d   1      -6.912  80.347 119.036  0.00  0.00     0.028 C 
ATOM     10  C   LIG d   1      -7.402  81.366 117.993  0.00  0.00     0.006 C 
ENDBRANCH   8   9
BRANCH   8  11
ATOM     11  C   LIG d   1      -5.190  79.470 117.541  0.00  0.00     0.028 C 
ATOM     12  C   LIG d   1      -4.353  78.274 117.058  0.00  0.00     0.006 C 
ENDBRANCH   8  11
ENDBRANCH   7   8
ENDBRANCH   1   7
BRANCH   6  13
ATOM     13  N   LIG d   1      -9.781  78.011 119.418  0.00  0.00    -0.311 N 
ATOM     14  C   LIG d   1     -10.286  79.241 119.489  0.00  0.00     0.210 C 
ATOM     15  C   LIG d   1     -10.464  79.786 120.910  0.00  0.00     0.109 C 
ATOM     16  O   LIG d   1     -10.632  79.921 118.511  0.00  0.00    -0.276 OA
ATOM     17  H   LIG d   1      -9.558  77.520 120.262  0.00  0.00     0.149 HD
ENDBRANCH   6  13
BRANCH   5  18
ATOM     18  N   LIG d   1     -11.639  75.953 118.133  0.00  0.00     0.381 N 
ATOM     19  H   LIG d   1     -11.971  76.747 117.622  0.00  0.00    -0.090 HD
ATOM     20  H   LIG d   1     -11.928  76.051 119.090  0.00  0.00    -0.090 HD
ATOM     21  H   LIG d   1     -12.019  75.117 117.747  0.00  0.00    -0.090 HD
ENDBRANCH   5  18
BRANCH   3  22
ATOM     22  C   LIG d   1      -7.837  74.186 115.817  0.00  0.00     0.382 C 
ATOM     23  O   LIG d   1      -6.853  74.392 115.066  0.00  0.00    -0.241 OA
ATOM     24  O   LIG d   1      -8.341  73.048 115.870  0.00  0.00    -0.241 OA
ENDBRANCH   3  22
TORSDOF 7
ENDMDL
MODEL 6
REMARK VINA RESULT:      -5.5      2.010      5.068
REMARK  7 active torsions:
REMARK  status: ('A' for Active; 'I' for Inactive)
REMARK    1  A    between atoms: C_2  and  C_3 
REMARK    2  A    between atoms: C_3  and  O_6 
REMARK    3  A    between atoms: C_3  and  C_4 
REMARK    4  A    between atoms: C_7  and  O_6 
REMARK    5  A    between atoms: C_9  and  C_10 
REMARK    6  A    between atoms: N_15  and  C_14 
REMARK    7  A    between atoms: N_20  and  C_19 
REMARK       I    between atoms: C_22  and  N_20 
ROOT
ATOM      1  C   LIG d   1      -7.650  75.793 117.061  0.00  0.00     0.161 C 
ATOM      2  C   LIG d   1      -8.256  74.545 116.836  0.00  0.00     0.016 C 
ATOM      3  C   LIG d   1      -7.554  73.415 116.356  0.00  0.00     0.038 C 
ATOM      4  C   LIG d   1      -6.159  73.415 116.211  0.00  0.00     0.028 C 
ATOM      5  C   LIG d   1      -5.577  74.800 115.945  0.00  0.00    -0.047 C 
ATOM      6  C   LIG d   1      -6.108  75.781 117.015  0.00  0.00     0.091 C 
ENDROOT
BRANCH   1   7
ATOM      7  O   LIG d   1      -8.110  76.340 118.313  0.00  0.00    -0.368 OA
BRANCH   7   8
ATOM      8  C   LIG d   1      -8.899  77.552 118.227  0.00  0.00     0.119 C 
BRANCH   8   9
ATOM      9  C   LIG d   1      -8.154  78.647 119.015  0.00  0.00     0.028 C 
ATOM     10  C   LIG d   1      -8.101  79.983 118.257  0.00  0.00     0.006 C 
ENDBRANCH   8   9
BRANCH   8  11
ATOM     11  C   LIG d   1     -10.248  77.390 118.935  0.00  0.00     0.028 C 
ATOM     12  C   LIG d   1     -11.068  76.210 118.390  0.00  0.00     0.006 C 
ENDBRANCH   8  11
ENDBRANCH   7   8
ENDBRANCH   1   7
BRANCH   6  13
ATOM     13  N   LIG d   1      -5.655  77.177 116.779  0.00  0.00    -0.311 N 
ATOM     14  C   LIG d   1      -4.876  77.848 117.625  0.00  0.00     0.210 C 
ATOM     15  C   LIG d   1      -4.542  79.281 117.200  0.00  0.00     0.109 C 
ATOM     16  O   LIG d   1      -4.404  77.381 118.673  0.00  0.00    -0.276 OA
ATOM     17  H   LIG d   1      -5.966  77.621 115.937  0.00  0.00     0.149 HD
ENDBRANCH   6  13
BRANCH   5  18
ATOM     18  N   LIG d   1      -4.108  74.675 115.953  0.00  0.00     0.381 N 
ATOM     19  H   LIG d   1      -3.849  73.710 115.902  0.00  0.00    -0.090 HD
ATOM     20  H   LIG d   1      -3.754  75.051 116.815  0.00  0.00    -0.090 HD
ATOM     21  H   LIG d   1      -3.719  75.171 115.182  0.00  0.00    -0.090 HD
ENDBRANCH   5  18
BRANCH   3  22
ATOM     22  C   LIG d   1      -8.256  72.281 115.977  0.00  0.00     0.382 C 
ATOM     23  O   LIG d   1      -7.639  71.220 115.716  0.00  0.00    -0.241 OA
ATOM     24  O   LIG d   1      -9.494  72.317 115.851  0.00  0.00    -0.241 OA
ENDBRANCH   3  22
TORSDOF 7
ENDMDL
MODEL 7
REMARK VINA RESULT:      -5.4      2.670      3.495
REMARK  7 active torsions:
REMARK  status: ('A' for Active; 'I' for Inactive)
REMARK    1  A    between atoms: C_2  and  C_3 
REMARK    2  A    between atoms: C_3  and  O_6 
REMARK    3  A    between atoms: C_3  and  C_4 
REMARK    4  A    between atoms: C_7  and  O_6 
REMARK    5  A    between atoms: C_9  and  C_10 
REMARK    6  A    between atoms: N_15  and  C_14 
REMARK    7  A    between atoms: N_20  and  C_19 
REMARK       I    between atoms: C_22  and  N_20 
ROOT
ATOM      1  C   LIG d   1      -6.339  76.313 117.368  0.00  0.00     0.161 C 
ATOM      2  C   LIG d   1      -7.259  77.294 117.773  0.00  0.00     0.016 C 
ATOM      3  C   LIG d   1      -6.941  78.668 117.868  0.00  0.00     0.038 C 
ATOM      4  C   LIG d   1      -5.715  79.178 117.415  0.00  0.00     0.028 C 
ATOM      5  C   LIG d   1      -4.579  78.162 117.471  0.00  0.00    -0.047 C 
ATOM      6  C   LIG d   1      -5.031  76.864 116.764  0.00  0.00     0.091 C 
ENDROOT
BRANCH   1   7
ATOM      7  O   LIG d   1      -6.971  75.401 116.447  0.00  0.00    -0.368 OA
BRANCH   7   8
ATOM      8  C   LIG d   1      -7.135  74.039 116.911  0.00  0.00     0.119 C 
BRANCH   8   9
ATOM      9  C   LIG d   1      -6.393  73.120 115.921  0.00  0.00     0.028 C 
ATOM     10  C   LIG d   1      -6.939  71.683 115.932  0.00  0.00     0.006 C 
ENDBRANCH   8   9
BRANCH   8  11
ATOM     11  C   LIG d   1      -8.601  73.601 116.850  0.00  0.00     0.028 C 
ATOM     12  C   LIG d   1      -9.523  74.687 116.273  0.00  0.00     0.006 C 
ENDBRANCH   8  11
ENDBRANCH   7   8
ENDBRANCH   1   7
BRANCH   6  13
ATOM     13  N   LIG d   1      -4.009  75.788 116.846  0.00  0.00    -0.311 N 
ATOM     14  C   LIG d   1      -3.122  75.544 115.883  0.00  0.00     0.210 C 
ATOM     15  C   LIG d   1      -2.171  74.376 116.162  0.00  0.00     0.109 C 
ATOM     16  O   LIG d   1      -3.012  76.204 114.839  0.00  0.00    -0.276 OA
ATOM     17  H   LIG d   1      -4.007  75.224 117.674  0.00  0.00     0.149 HD
ENDBRANCH   6  13
BRANCH   5  18
ATOM     18  N   LIG d   1      -3.396  78.781 116.843  0.00  0.00     0.381 N 
ATOM     19  H   LIG d   1      -3.666  79.253 116.003  0.00  0.00    -0.090 HD
ATOM     20  H   LIG d   1      -2.740  78.059 116.602  0.00  0.00    -0.090 HD
ATOM     21  H   LIG d   1      -2.974  79.426 117.474  0.00  0.00    -0.090 HD
ENDBRANCH   5  18
BRANCH   3  22
ATOM     22  C   LIG d   1      -7.840  79.543 118.458  0.00  0.00     0.382 C 
ATOM     23  O   LIG d   1      -8.197  79.368 119.648  0.00  0.00    -0.241 OA
ATOM     24  O   LIG d   1      -8.333  80.480 117.801  0.00  0.00    -0.241 OA
ENDBRANCH   3  22
TORSDOF 7
ENDMDL
MODEL 8
REMARK VINA RESULT:      -5.3      2.445      4.663
REMARK  7 active torsions:
REMARK  status: ('A' for Active; 'I' for Inactive)
REMARK    1  A    between atoms: C_2  and  C_3 
REMARK    2  A    between atoms: C_3  and  O_6 
REMARK    3  A    between atoms: C_3  and  C_4 
REMARK    4  A    between atoms: C_7  and  O_6 
REMARK    5  A    between atoms: C_9  and  C_10 
REMARK    6  A    between atoms: N_15  and  C_14 
REMARK    7  A    between atoms: N_20  and  C_19 
REMARK       I    between atoms: C_22  and  N_20 
ROOT
ATOM      1  C   LIG d   1      -5.902  76.000 116.561  0.00  0.00     0.161 C 
ATOM      2  C   LIG d   1      -6.351  74.755 116.090  0.00  0.00     0.016 C 
ATOM      3  C   LIG d   1      -7.663  74.271 116.300  0.00  0.00     0.038 C 
ATOM      4  C   LIG d   1      -8.666  75.069 116.870  0.00  0.00     0.028 C 
ATOM      5  C   LIG d   1      -8.126  76.139 117.812  0.00  0.00    -0.047 C 
ATOM      6  C   LIG d   1      -7.014  76.932 117.088  0.00  0.00     0.091 C 
ENDROOT
BRANCH   1   7
ATOM      7  O   LIG d   1      -5.136  76.663 115.536  0.00  0.00    -0.368 OA
BRANCH   7   8
ATOM      8  C   LIG d   1      -3.715  76.795 115.786  0.00  0.00     0.119 C 
BRANCH   8   9
ATOM      9  C   LIG d   1      -2.984  75.857 114.805  0.00  0.00     0.028 C 
ATOM     10  C   LIG d   1      -2.342  74.653 115.513  0.00  0.00     0.006 C 
ENDBRANCH   8   9
BRANCH   8  11
ATOM     11  C   LIG d   1      -3.346  76.287 117.183  0.00  0.00     0.028 C 
ATOM     12  C   LIG d   1      -2.784  77.393 118.090  0.00  0.00     0.006 C 
ENDBRANCH   8  11
ENDBRANCH   7   8
ENDBRANCH   1   7
BRANCH   6  13
ATOM     13  N   LIG d   1      -6.373  77.943 117.968  0.00  0.00    -0.311 N 
ATOM     14  C   LIG d   1      -6.858  79.171 118.147  0.00  0.00     0.210 C 
ATOM     15  C   LIG d   1      -6.032  80.062 119.080  0.00  0.00     0.109 C 
ATOM     16  O   LIG d   1      -7.910  79.596 117.648  0.00  0.00    -0.276 OA
ATOM     17  H   LIG d   1      -5.531  77.672 118.437  0.00  0.00     0.149 HD
ENDBRANCH   6  13
BRANCH   5  18
ATOM     18  N   LIG d   1      -9.262  76.984 118.226  0.00  0.00     0.381 N 
ATOM     19  H   LIG d   1      -9.662  76.625 119.069  0.00  0.00    -0.090 HD
ATOM     20  H   LIG d   1      -9.965  76.958 117.507  0.00  0.00    -0.090 HD
ATOM     21  H   LIG d   1      -8.956  77.921 118.367  0.00  0.00    -0.090 HD
ENDBRANCH   5  18
BRANCH   3  22
ATOM     22  C   LIG d   1      -7.971  72.959 115.974  0.00  0.00     0.382 C 
ATOM     23  O   LIG d   1      -9.166  72.575 115.980  0.00  0.00    -0.241 OA
ATOM     24  O   LIG d   1      -7.066  72.142 115.718  0.00  0.00    -0.241 OA
ENDBRANCH   3  22
TORSDOF 7
ENDMDL
MODEL 9
REMARK VINA RESULT:      -5.2     14.719     16.890
REMARK  7 active torsions:
REMARK  status: ('A' for Active; 'I' for Inactive)
REMARK    1  A    between atoms: C_2  and  C_3 
REMARK    2  A    between atoms: C_3  and  O_6 
REMARK    3  A    between atoms: C_3  and  C_4 
REMARK    4  A    between atoms: C_7  and  O_6 
REMARK    5  A    between atoms: C_9  and  C_10 
REMARK    6  A    between atoms: N_15  and  C_14 
REMARK    7  A    between atoms: N_20  and  C_19 
REMARK       I    between atoms: C_22  and  N_20 
ROOT
ATOM      1  C   LIG d   1      -4.296  91.601 117.759  0.00  0.00     0.161 C 
ATOM      2  C   LIG d   1      -4.972  90.976 116.698  0.00  0.00     0.016 C 
ATOM      3  C   LIG d   1      -6.219  91.420 116.201  0.00  0.00     0.038 C 
ATOM      4  C   LIG d   1      -6.806  92.619 116.634  0.00  0.00     0.028 C 
ATOM      5  C   LIG d   1      -6.408  93.009 118.054  0.00  0.00    -0.047 C 
ATOM      6  C   LIG d   1      -4.867  92.974 118.170  0.00  0.00     0.091 C 
ENDROOT
BRANCH   1   7
ATOM      7  O   LIG d   1      -2.894  91.715 117.445  0.00  0.00    -0.368 OA
BRANCH   7   8
ATOM      8  C   LIG d   1      -1.985  90.997 118.316  0.00  0.00     0.119 C 
BRANCH   8   9
ATOM      9  C   LIG d   1      -1.064  90.144 117.423  0.00  0.00     0.028 C 
ATOM     10  C   LIG d   1       0.423  90.484 117.618  0.00  0.00     0.006 C 
ENDBRANCH   8   9
BRANCH   8  11
ATOM     11  C   LIG d   1      -2.735  89.995 119.200  0.00  0.00     0.028 C 
ATOM     12  C   LIG d   1      -2.676  88.560 118.655  0.00  0.00     0.006 C 
ENDBRANCH   8  11
ENDBRANCH   7   8
ENDBRANCH   1   7
BRANCH   6  13
ATOM     13  N   LIG d   1      -4.396  93.262 119.551  0.00  0.00    -0.311 N 
ATOM     14  C   LIG d   1      -3.449  94.156 119.831  0.00  0.00     0.210 C 
ATOM     15  C   LIG d   1      -3.099  94.283 121.317  0.00  0.00     0.109 C 
ATOM     16  O   LIG d   1      -2.889  94.879 118.993  0.00  0.00    -0.276 OA
ATOM     17  H   LIG d   1      -4.819  92.742 120.294  0.00  0.00     0.149 HD
ENDBRANCH   6  13
BRANCH   5  18
ATOM     18  N   LIG d   1      -6.978  94.342 118.326  0.00  0.00     0.381 N 
ATOM     19  H   LIG d   1      -6.394  94.835 118.971  0.00  0.00    -0.090 HD
ATOM     20  H   LIG d   1      -7.884  94.228 118.744  0.00  0.00    -0.090 HD
ATOM     21  H   LIG d   1      -7.058  94.858 117.478  0.00  0.00    -0.090 HD
ENDBRANCH   5  18
BRANCH   3  22
ATOM     22  C   LIG d   1      -6.911  90.641 115.287  0.00  0.00     0.382 C 
ATOM     23  O   LIG d   1      -7.995  91.052 114.806  0.00  0.00    -0.241 OA
ATOM     24  O   LIG d   1      -6.489  89.513 114.970  0.00  0.00    -0.241 OA
ENDBRANCH   3  22
TORSDOF 7
ENDMDL
