MODEL 1
REMARK VINA RESULT:      -5.4      0.000      0.000
REMARK  7 active torsions:
REMARK  status: ('A' for Active; 'I' for Inactive)
REMARK    1  A    between atoms: C_2  and  C_3 
REMARK    2  A    between atoms: C_3  and  O_6 
REMARK    3  A    between atoms: C_3  and  C_4 
REMARK    4  A    between atoms: C_7  and  O_6 
REMARK    5  A    between atoms: C_9  and  C_10 
REMARK    6  A    between atoms: N_15  and  C_14 
REMARK    7  A    between atoms: N_20  and  C_19 
REMARK       I    between atoms: C_22  and  N_20 
ROOT
ATOM      1  C   LIG d   1      -3.366  91.398 117.884  0.00  0.00     0.161 C 
ATOM      2  C   LIG d   1      -3.884  90.605 116.846  0.00  0.00     0.016 C 
ATOM      3  C   LIG d   1      -5.174  90.787 116.298  0.00  0.00     0.038 C 
ATOM      4  C   LIG d   1      -5.982  91.879 116.649  0.00  0.00     0.028 C 
ATOM      5  C   LIG d   1      -5.707  92.409 118.052  0.00  0.00    -0.047 C 
ATOM      6  C   LIG d   1      -4.190  92.663 118.204  0.00  0.00     0.091 C 
ENDROOT
BRANCH   1   7
ATOM      7  O   LIG d   1      -1.999  91.750 117.594  0.00  0.00    -0.368 OA
BRANCH   7   8
ATOM      8  C   LIG d   1      -0.994  91.168 118.460  0.00  0.00     0.119 C 
BRANCH   8   9
ATOM      9  C   LIG d   1       0.004  90.407 117.566  0.00  0.00     0.028 C 
ATOM     10  C   LIG d   1      -0.486  88.993 117.212  0.00  0.00     0.006 C 
ENDBRANCH   8   9
BRANCH   8  11
ATOM     11  C   LIG d   1      -1.600  90.108 119.384  0.00  0.00     0.028 C 
ATOM     12  C   LIG d   1      -1.470  90.470 120.872  0.00  0.00     0.006 C 
ENDBRANCH   8  11
ENDBRANCH   7   8
ENDBRANCH   1   7
BRANCH   6  13
ATOM     13  N   LIG d   1      -3.823  93.104 119.575  0.00  0.00    -0.311 N 
ATOM     14  C   LIG d   1      -3.027  94.143 119.823  0.00  0.00     0.210 C 
ATOM     15  C   LIG d   1      -2.761  94.414 121.307  0.00  0.00     0.109 C 
ATOM     16  O   LIG d   1      -2.543  94.886 118.955  0.00  0.00    -0.276 OA
ATOM     17  H   LIG d   1      -4.197  92.576 120.339  0.00  0.00     0.149 HD
ENDBRANCH   6  13
BRANCH   5  18
ATOM     18  N   LIG d   1      -6.518  93.627 118.235  0.00  0.00     0.381 N 
ATOM     19  H   LIG d   1      -7.129  93.749 117.452  0.00  0.00    -0.090 HD
ATOM     20  H   LIG d   1      -5.905  94.422 118.283  0.00  0.00    -0.090 HD
ATOM     21  H   LIG d   1      -7.051  93.559 119.074  0.00  0.00    -0.090 HD
ENDBRANCH   5  18
BRANCH   3  22
ATOM     22  C   LIG d   1      -5.685  89.847 115.415  0.00  0.00     0.382 C 
ATOM     23  O   LIG d   1      -4.920  89.007 114.882  0.00  0.00    -0.241 OA
ATOM     24  O   LIG d   1      -6.892  89.857 115.110  0.00  0.00    -0.241 OA
ENDBRANCH   3  22
TORSDOF 7
ENDMDL
MODEL 2
REMARK VINA RESULT:      -5.1     10.913     12.576
REMARK  7 active torsions:
REMARK  status: ('A' for Active; 'I' for Inactive)
REMARK    1  A    between atoms: C_2  and  C_3 
REMARK    2  A    between atoms: C_3  and  O_6 
REMARK    3  A    between atoms: C_3  and  C_4 
REMARK    4  A    between atoms: C_7  and  O_6 
REMARK    5  A    between atoms: C_9  and  C_10 
REMARK    6  A    between atoms: N_15  and  C_14 
REMARK    7  A    between atoms: N_20  and  C_19 
REMARK       I    between atoms: C_22  and  N_20 
ROOT
ATOM      1  C   LIG d   1      -6.314  79.541 118.393  0.00  0.00     0.161 C 
ATOM      2  C   LIG d   1      -7.648  79.146 118.587  0.00  0.00     0.016 C 
ATOM      3  C   LIG d   1      -8.688  80.049 118.908  0.00  0.00     0.038 C 
ATOM      4  C   LIG d   1      -8.490  81.438 118.909  0.00  0.00     0.028 C 
ATOM      5  C   LIG d   1      -7.052  81.845 119.215  0.00  0.00    -0.047 C 
ATOM      6  C   LIG d   1      -6.100  81.065 118.280  0.00  0.00     0.091 C 
ENDROOT
BRANCH   1   7
ATOM      7  O   LIG d   1      -5.769  78.871 117.238  0.00  0.00    -0.368 OA
BRANCH   7   8
ATOM      8  C   LIG d   1      -5.235  77.544 117.464  0.00  0.00     0.119 C 
BRANCH   8   9
ATOM      9  C   LIG d   1      -3.715  77.609 117.221  0.00  0.00     0.028 C 
ATOM     10  C   LIG d   1      -2.927  77.910 118.508  0.00  0.00     0.006 C 
ENDBRANCH   8   9
BRANCH   8  11
ATOM     11  C   LIG d   1      -5.768  76.545 116.432  0.00  0.00     0.028 C 
ATOM     12  C   LIG d   1      -7.056  75.843 116.892  0.00  0.00     0.006 C 
ENDBRANCH   8  11
ENDBRANCH   7   8
ENDBRANCH   1   7
BRANCH   6  13
ATOM     13  N   LIG d   1      -4.669  81.341 118.570  0.00  0.00    -0.311 N 
ATOM     14  C   LIG d   1      -3.754  81.539 117.623  0.00  0.00     0.210 C 
ATOM     15  C   LIG d   1      -2.333  81.788 118.138  0.00  0.00     0.109 C 
ATOM     16  O   LIG d   1      -3.990  81.565 116.406  0.00  0.00    -0.276 OA
ATOM     17  H   LIG d   1      -4.396  81.369 119.533  0.00  0.00     0.149 HD
ENDBRANCH   6  13
BRANCH   5  18
ATOM     18  N   LIG d   1      -6.957  83.307 119.047  0.00  0.00     0.381 N 
ATOM     19  H   LIG d   1      -7.153  83.761 119.917  0.00  0.00    -0.090 HD
ATOM     20  H   LIG d   1      -7.644  83.602 118.376  0.00  0.00    -0.090 HD
ATOM     21  H   LIG d   1      -6.046  83.556 118.732  0.00  0.00    -0.090 HD
ENDBRANCH   5  18
BRANCH   3  22
ATOM     22  C   LIG d   1      -9.933  79.561 119.273  0.00  0.00     0.382 C 
ATOM     23  O   LIG d   1     -10.373  78.510 118.749  0.00  0.00    -0.241 OA
ATOM     24  O   LIG d   1     -10.642  80.183 120.087  0.00  0.00    -0.241 OA
ENDBRANCH   3  22
TORSDOF 7
ENDMDL
MODEL 3
REMARK VINA RESULT:      -4.7     13.165     15.296
REMARK  7 active torsions:
REMARK  status: ('A' for Active; 'I' for Inactive)
REMARK    1  A    between atoms: C_2  and  C_3 
REMARK    2  A    between atoms: C_3  and  O_6 
REMARK    3  A    between atoms: C_3  and  C_4 
REMARK    4  A    between atoms: C_7  and  O_6 
REMARK    5  A    between atoms: C_9  and  C_10 
REMARK    6  A    between atoms: N_15  and  C_14 
REMARK    7  A    between atoms: N_20  and  C_19 
REMARK       I    between atoms: C_22  and  N_20 
ROOT
ATOM      1  C   LIG d   1      -3.783  77.398 115.830  0.00  0.00     0.161 C 
ATOM      2  C   LIG d   1      -2.926  76.305 115.619  0.00  0.00     0.016 C 
ATOM      3  C   LIG d   1      -1.861  75.972 116.488  0.00  0.00     0.038 C 
ATOM      4  C   LIG d   1      -1.674  76.624 117.715  0.00  0.00     0.028 C 
ATOM      5  C   LIG d   1      -2.203  78.055 117.728  0.00  0.00    -0.047 C 
ATOM      6  C   LIG d   1      -3.663  78.054 117.221  0.00  0.00     0.091 C 
ENDROOT
BRANCH   1   7
ATOM      7  O   LIG d   1      -5.146  77.005 115.577  0.00  0.00    -0.368 OA
BRANCH   7   8
ATOM      8  C   LIG d   1      -5.528  75.689 116.046  0.00  0.00     0.119 C 
BRANCH   8   9
ATOM      9  C   LIG d   1      -5.759  74.804 114.805  0.00  0.00     0.028 C 
ATOM     10  C   LIG d   1      -6.029  73.336 115.173  0.00  0.00     0.006 C 
ENDBRANCH   8   9
BRANCH   8  11
ATOM     11  C   LIG d   1      -6.875  75.726 116.773  0.00  0.00     0.028 C 
ATOM     12  C   LIG d   1      -7.149  77.077 117.452  0.00  0.00     0.006 C 
ENDBRANCH   8  11
ENDBRANCH   7   8
ENDBRANCH   1   7
BRANCH   6  13
ATOM     13  N   LIG d   1      -4.229  79.425 117.122  0.00  0.00    -0.311 N 
ATOM     14  C   LIG d   1      -4.920  80.005 118.102  0.00  0.00     0.210 C 
ATOM     15  C   LIG d   1      -5.432  81.414 117.785  0.00  0.00     0.109 C 
ATOM     16  O   LIG d   1      -5.130  79.500 119.215  0.00  0.00    -0.276 OA
ATOM     17  H   LIG d   1      -4.079  79.919 116.265  0.00  0.00     0.149 HD
ENDBRANCH   6  13
BRANCH   5  18
ATOM     18  N   LIG d   1      -2.068  78.568 119.104  0.00  0.00     0.381 N 
ATOM     19  H   LIG d   1      -2.964  78.582 119.549  0.00  0.00    -0.090 HD
ATOM     20  H   LIG d   1      -1.719  79.509 119.068  0.00  0.00    -0.090 HD
ATOM     21  H   LIG d   1      -1.441  77.993 119.623  0.00  0.00    -0.090 HD
ENDBRANCH   5  18
BRANCH   3  22
ATOM     22  C   LIG d   1      -0.945  75.001 116.112  0.00  0.00     0.382 C 
ATOM     23  O   LIG d   1      -0.449  75.020 114.960  0.00  0.00    -0.241 OA
ATOM     24  O   LIG d   1      -0.642  74.081 116.895  0.00  0.00    -0.241 OA
ENDBRANCH   3  22
TORSDOF 7
ENDMDL
MODEL 4
REMARK VINA RESULT:      -4.7     12.914     15.212
REMARK  7 active torsions:
REMARK  status: ('A' for Active; 'I' for Inactive)
REMARK    1  A    between atoms: C_2  and  C_3 
REMARK    2  A    between atoms: C_3  and  O_6 
REMARK    3  A    between atoms: C_3  and  C_4 
REMARK    4  A    between atoms: C_7  and  O_6 
REMARK    5  A    between atoms: C_9  and  C_10 
REMARK    6  A    between atoms: N_15  and  C_14 
REMARK    7  A    between atoms: N_20  and  C_19 
REMARK       I    between atoms: C_22  and  N_20 
ROOT
ATOM      1  C   LIG d   1      -2.456  77.308 115.061  0.00  0.00     0.161 C 
ATOM      2  C   LIG d   1      -1.990  76.013 115.339  0.00  0.00     0.016 C 
ATOM      3  C   LIG d   1      -1.060  75.723 116.363  0.00  0.00     0.038 C 
ATOM      4  C   LIG d   1      -0.644  76.697 117.284  0.00  0.00     0.028 C 
ATOM      5  C   LIG d   1      -0.697  78.116 116.730  0.00  0.00    -0.047 C 
ATOM      6  C   LIG d   1      -2.098  78.367 116.126  0.00  0.00     0.091 C 
ENDROOT
BRANCH   1   7
ATOM      7  O   LIG d   1      -3.880  77.280 114.842  0.00  0.00    -0.368 OA
BRANCH   7   8
ATOM      8  C   LIG d   1      -4.638  76.390 115.698  0.00  0.00     0.119 C 
BRANCH   8   9
ATOM      9  C   LIG d   1      -5.637  75.629 114.805  0.00  0.00     0.028 C 
ATOM     10  C   LIG d   1      -5.386  74.111 114.805  0.00  0.00     0.006 C 
ENDBRANCH   8   9
BRANCH   8  11
ATOM     11  C   LIG d   1      -5.500  77.174 116.693  0.00  0.00     0.028 C 
ATOM     12  C   LIG d   1      -6.817  76.460 117.032  0.00  0.00     0.006 C 
ENDBRANCH   8  11
ENDBRANCH   7   8
ENDBRANCH   1   7
BRANCH   6  13
ATOM     13  N   LIG d   1      -2.209  79.703 115.486  0.00  0.00    -0.311 N 
ATOM     14  C   LIG d   1      -2.669  80.782 116.117  0.00  0.00     0.210 C 
ATOM     15  C   LIG d   1      -2.719  82.056 115.268  0.00  0.00     0.109 C 
ATOM     16  O   LIG d   1      -3.010  80.812 117.309  0.00  0.00    -0.276 OA
ATOM     17  H   LIG d   1      -1.924  79.776 114.529  0.00  0.00     0.149 HD
ENDBRANCH   6  13
BRANCH   5  18
ATOM     18  N   LIG d   1      -0.370  79.038 117.834  0.00  0.00     0.381 N 
ATOM     19  H   LIG d   1      -0.451  79.985 117.520  0.00  0.00    -0.090 HD
ATOM     20  H   LIG d   1       0.580  78.880 118.119  0.00  0.00    -0.090 HD
ATOM     21  H   LIG d   1      -0.985  78.882 118.602  0.00  0.00    -0.090 HD
ENDBRANCH   5  18
BRANCH   3  22
ATOM     22  C   LIG d   1      -0.505  74.455 116.450  0.00  0.00     0.382 C 
ATOM     23  O   LIG d   1      -0.770  73.720 117.431  0.00  0.00    -0.241 OA
ATOM     24  O   LIG d   1       0.292  74.054 115.581  0.00  0.00    -0.241 OA
ENDBRANCH   3  22
TORSDOF 7
ENDMDL
MODEL 5
REMARK VINA RESULT:      -4.7      2.183      5.227
REMARK  7 active torsions:
REMARK  status: ('A' for Active; 'I' for Inactive)
REMARK    1  A    between atoms: C_2  and  C_3 
REMARK    2  A    between atoms: C_3  and  O_6 
REMARK    3  A    between atoms: C_3  and  C_4 
REMARK    4  A    between atoms: C_7  and  O_6 
REMARK    5  A    between atoms: C_9  and  C_10 
REMARK    6  A    between atoms: N_15  and  C_14 
REMARK    7  A    between atoms: N_20  and  C_19 
REMARK       I    between atoms: C_22  and  N_20 
ROOT
ATOM      1  C   LIG d   1      -4.586  92.348 117.668  0.00  0.00     0.161 C 
ATOM      2  C   LIG d   1      -3.337  91.722 117.812  0.00  0.00     0.016 C 
ATOM      3  C   LIG d   1      -2.501  91.903 118.938  0.00  0.00     0.038 C 
ATOM      4  C   LIG d   1      -2.929  92.607 120.073  0.00  0.00     0.028 C 
ATOM      5  C   LIG d   1      -3.976  93.672 119.766  0.00  0.00    -0.047 C 
ATOM      6  C   LIG d   1      -5.118  93.031 118.945  0.00  0.00     0.091 C 
ENDROOT
BRANCH   1   7
ATOM      7  O   LIG d   1      -5.551  91.402 117.167  0.00  0.00    -0.368 OA
BRANCH   7   8
ATOM      8  C   LIG d   1      -6.076  91.667 115.843  0.00  0.00     0.119 C 
BRANCH   8   9
ATOM      9  C   LIG d   1      -7.599  91.862 115.978  0.00  0.00     0.028 C 
ATOM     10  C   LIG d   1      -8.377  91.239 114.807  0.00  0.00     0.006 C 
ENDBRANCH   8   9
BRANCH   8  11
ATOM     11  C   LIG d   1      -5.903  90.456 114.921  0.00  0.00     0.028 C 
ATOM     12  C   LIG d   1      -4.794  89.503 115.393  0.00  0.00     0.006 C 
ENDBRANCH   8  11
ENDBRANCH   7   8
ENDBRANCH   1   7
BRANCH   6  13
ATOM     13  N   LIG d   1      -6.144  94.023 118.530  0.00  0.00    -0.311 N 
ATOM     14  C   LIG d   1      -7.184  94.363 119.290  0.00  0.00     0.210 C 
ATOM     15  C   LIG d   1      -8.133  95.390 118.664  0.00  0.00     0.109 C 
ATOM     16  O   LIG d   1      -7.393  93.936 120.435  0.00  0.00    -0.276 OA
ATOM     17  H   LIG d   1      -6.035  94.443 117.628  0.00  0.00     0.149 HD
ENDBRANCH   6  13
BRANCH   5  18
ATOM     18  N   LIG d   1      -4.433  94.232 121.052  0.00  0.00     0.381 N 
ATOM     19  H   LIG d   1      -5.208  94.845 120.899  0.00  0.00    -0.090 HD
ATOM     20  H   LIG d   1      -3.684  94.765 121.459  0.00  0.00    -0.090 HD
ATOM     21  H   LIG d   1      -4.699  93.496 121.669  0.00  0.00    -0.090 HD
ENDBRANCH   5  18
BRANCH   3  22
ATOM     22  C   LIG d   1      -1.206  91.408 118.919  0.00  0.00     0.382 C 
ATOM     23  O   LIG d   1      -0.944  90.316 119.478  0.00  0.00    -0.241 OA
ATOM     24  O   LIG d   1      -0.288  92.062 118.388  0.00  0.00    -0.241 OA
ENDBRANCH   3  22
TORSDOF 7
ENDMDL
MODEL 6
REMARK VINA RESULT:      -4.6     12.017     13.991
REMARK  7 active torsions:
REMARK  status: ('A' for Active; 'I' for Inactive)
REMARK    1  A    between atoms: C_2  and  C_3 
REMARK    2  A    between atoms: C_3  and  O_6 
REMARK    3  A    between atoms: C_3  and  C_4 
REMARK    4  A    between atoms: C_7  and  O_6 
REMARK    5  A    between atoms: C_9  and  C_10 
REMARK    6  A    between atoms: N_15  and  C_14 
REMARK    7  A    between atoms: N_20  and  C_19 
REMARK       I    between atoms: C_22  and  N_20 
ROOT
ATOM      1  C   LIG d   1      -4.899  77.994 116.987  0.00  0.00     0.161 C 
ATOM      2  C   LIG d   1      -6.110  78.080 117.693  0.00  0.00     0.016 C 
ATOM      3  C   LIG d   1      -6.538  79.248 118.366  0.00  0.00     0.038 C 
ATOM      4  C   LIG d   1      -5.848  80.464 118.251  0.00  0.00     0.028 C 
ATOM      5  C   LIG d   1      -4.360  80.292 117.966  0.00  0.00    -0.047 C 
ATOM      6  C   LIG d   1      -4.187  79.344 116.758  0.00  0.00     0.091 C 
ENDROOT
BRANCH   1   7
ATOM      7  O   LIG d   1      -5.112  77.320 115.731  0.00  0.00    -0.368 OA
BRANCH   7   8
ATOM      8  C   LIG d   1      -4.770  75.912 115.698  0.00  0.00     0.119 C 
BRANCH   8   9
ATOM      9  C   LIG d   1      -3.393  75.786 115.018  0.00  0.00     0.028 C 
ATOM     10  C   LIG d   1      -2.267  75.493 116.024  0.00  0.00     0.006 C 
ENDBRANCH   8   9
BRANCH   8  11
ATOM     11  C   LIG d   1      -5.736  75.126 114.806  0.00  0.00     0.028 C 
ATOM     12  C   LIG d   1      -5.476  73.612 114.837  0.00  0.00     0.006 C 
ENDBRANCH   8  11
ENDBRANCH   7   8
ENDBRANCH   1   7
BRANCH   6  13
ATOM     13  N   LIG d   1      -2.759  79.055 116.464  0.00  0.00    -0.311 N 
ATOM     14  C   LIG d   1      -2.058  79.697 115.531  0.00  0.00     0.210 C 
ATOM     15  C   LIG d   1      -0.607  79.230 115.377  0.00  0.00     0.109 C 
ATOM     16  O   LIG d   1      -2.491  80.630 114.838  0.00  0.00    -0.276 OA
ATOM     17  H   LIG d   1      -2.320  78.333 117.001  0.00  0.00     0.149 HD
ENDBRANCH   6  13
BRANCH   5  18
ATOM     18  N   LIG d   1      -3.793  81.634 117.733  0.00  0.00     0.381 N 
ATOM     19  H   LIG d   1      -4.249  82.064 116.954  0.00  0.00    -0.090 HD
ATOM     20  H   LIG d   1      -2.816  81.541 117.515  0.00  0.00    -0.090 HD
ATOM     21  H   LIG d   1      -3.907  82.198 118.547  0.00  0.00    -0.090 HD
ENDBRANCH   5  18
BRANCH   3  22
ATOM     22  C   LIG d   1      -7.646  79.195 119.197  0.00  0.00     0.382 C 
ATOM     23  O   LIG d   1      -7.496  79.031 120.432  0.00  0.00    -0.241 OA
ATOM     24  O   LIG d   1      -8.796  79.265 118.723  0.00  0.00    -0.241 OA
ENDBRANCH   3  22
TORSDOF 7
ENDMDL
MODEL 7
REMARK VINA RESULT:      -4.5     12.361     14.082
REMARK  7 active torsions:
REMARK  status: ('A' for Active; 'I' for Inactive)
REMARK    1  A    between atoms: C_2  and  C_3 
REMARK    2  A    between atoms: C_3  and  O_6 
REMARK    3  A    between atoms: C_3  and  C_4 
REMARK    4  A    between atoms: C_7  and  O_6 
REMARK    5  A    between atoms: C_9  and  C_10 
REMARK    6  A    between atoms: N_15  and  C_14 
REMARK    7  A    between atoms: N_20  and  C_19 
REMARK       I    between atoms: C_22  and  N_20 
ROOT
ATOM      1  C   LIG d   1      -4.386  77.480 116.397  0.00  0.00     0.161 C 
ATOM      2  C   LIG d   1      -4.853  76.248 115.913  0.00  0.00     0.016 C 
ATOM      3  C   LIG d   1      -6.119  75.711 116.244  0.00  0.00     0.038 C 
ATOM      4  C   LIG d   1      -7.070  76.446 116.968  0.00  0.00     0.028 C 
ATOM      5  C   LIG d   1      -6.452  77.483 117.900  0.00  0.00    -0.047 C 
ATOM      6  C   LIG d   1      -5.453  78.347 117.098  0.00  0.00     0.091 C 
ENDROOT
BRANCH   1   7
ATOM      7  O   LIG d   1      -3.761  78.220 115.329  0.00  0.00    -0.368 OA
BRANCH   7   8
ATOM      8  C   LIG d   1      -2.401  78.658 115.568  0.00  0.00     0.119 C 
BRANCH   8   9
ATOM      9  C   LIG d   1      -2.256  80.067 114.960  0.00  0.00     0.028 C 
ATOM     10  C   LIG d   1      -2.095  81.156 116.035  0.00  0.00     0.006 C 
ENDBRANCH   8   9
BRANCH   8  11
ATOM     11  C   LIG d   1      -1.394  77.785 114.813  0.00  0.00     0.028 C 
ATOM     12  C   LIG d   1      -0.763  76.701 115.700  0.00  0.00     0.006 C 
ENDBRANCH   8  11
ENDBRANCH   7   8
ENDBRANCH   1   7
BRANCH   6  13
ATOM     13  N   LIG d   1      -4.742  79.332 117.953  0.00  0.00    -0.311 N 
ATOM     14  C   LIG d   1      -5.108  80.608 118.062  0.00  0.00     0.210 C 
ATOM     15  C   LIG d   1      -4.226  81.458 118.982  0.00  0.00     0.109 C 
ATOM     16  O   LIG d   1      -6.099  81.109 117.509  0.00  0.00    -0.276 OA
ATOM     17  H   LIG d   1      -3.944  79.004 118.461  0.00  0.00     0.149 HD
ENDBRANCH   6  13
BRANCH   5  18
ATOM     18  N   LIG d   1      -7.555  78.268 118.486  0.00  0.00     0.381 N 
ATOM     19  H   LIG d   1      -7.413  79.241 118.303  0.00  0.00    -0.090 HD
ATOM     20  H   LIG d   1      -7.558  78.131 119.482  0.00  0.00    -0.090 HD
ATOM     21  H   LIG d   1      -8.425  77.974 118.100  0.00  0.00    -0.090 HD
ENDBRANCH   5  18
BRANCH   3  22
ATOM     22  C   LIG d   1      -6.428  74.408 115.885  0.00  0.00     0.382 C 
ATOM     23  O   LIG d   1      -5.831  73.864 114.925  0.00  0.00    -0.241 OA
ATOM     24  O   LIG d   1      -7.328  73.785 116.480  0.00  0.00    -0.241 OA
ENDBRANCH   3  22
TORSDOF 7
ENDMDL
MODEL 8
REMARK VINA RESULT:      -4.4      4.755      7.581
REMARK  7 active torsions:
REMARK  status: ('A' for Active; 'I' for Inactive)
REMARK    1  A    between atoms: C_2  and  C_3 
REMARK    2  A    between atoms: C_3  and  O_6 
REMARK    3  A    between atoms: C_3  and  C_4 
REMARK    4  A    between atoms: C_7  and  O_6 
REMARK    5  A    between atoms: C_9  and  C_10 
REMARK    6  A    between atoms: N_15  and  C_14 
REMARK    7  A    between atoms: N_20  and  C_19 
REMARK       I    between atoms: C_22  and  N_20 
ROOT
ATOM      1  C   LIG d   1       2.365  90.828 115.944  0.00  0.00     0.161 C 
ATOM      2  C   LIG d   1       3.556  90.193 115.555  0.00  0.00     0.016 C 
ATOM      3  C   LIG d   1       4.760  90.279 116.292  0.00  0.00     0.038 C 
ATOM      4  C   LIG d   1       4.814  90.886 117.555  0.00  0.00     0.028 C 
ATOM      5  C   LIG d   1       3.762  91.973 117.751  0.00  0.00    -0.047 C 
ATOM      6  C   LIG d   1       2.376  91.402 117.376  0.00  0.00     0.091 C 
ENDROOT
BRANCH   1   7
ATOM      7  O   LIG d   1       1.253  89.927 115.774  0.00  0.00    -0.368 OA
BRANCH   7   8
ATOM      8  C   LIG d   1       0.882  89.146 116.937  0.00  0.00     0.119 C 
BRANCH   8   9
ATOM      9  C   LIG d   1       1.424  87.718 116.728  0.00  0.00     0.028 C 
ATOM     10  C   LIG d   1       2.512  87.348 117.749  0.00  0.00     0.006 C 
ENDBRANCH   8   9
BRANCH   8  11
ATOM     11  C   LIG d   1      -0.638  88.991 117.043  0.00  0.00     0.028 C 
ATOM     12  C   LIG d   1      -1.216  89.634 118.314  0.00  0.00     0.006 C 
ENDBRANCH   8  11
ENDBRANCH   7   8
ENDBRANCH   1   7
BRANCH   6  13
ATOM     13  N   LIG d   1       1.301  92.425 117.459  0.00  0.00    -0.311 N 
ATOM     14  C   LIG d   1       0.622  92.688 118.574  0.00  0.00     0.210 C 
ATOM     15  C   LIG d   1      -0.458  93.765 118.436  0.00  0.00     0.109 C 
ATOM     16  O   LIG d   1       0.834  92.153 119.673  0.00  0.00    -0.276 OA
ATOM     17  H   LIG d   1       1.085  92.929 116.621  0.00  0.00     0.149 HD
ENDBRANCH   6  13
BRANCH   5  18
ATOM     18  N   LIG d   1       3.843  92.424 119.153  0.00  0.00     0.381 N 
ATOM     19  H   LIG d   1       3.126  91.982 119.693  0.00  0.00    -0.090 HD
ATOM     20  H   LIG d   1       3.694  93.417 119.184  0.00  0.00    -0.090 HD
ATOM     21  H   LIG d   1       4.737  92.203 119.532  0.00  0.00    -0.090 HD
ENDBRANCH   5  18
BRANCH   3  22
ATOM     22  C   LIG d   1       5.936  89.788 115.746  0.00  0.00     0.382 C 
ATOM     23  O   LIG d   1       5.892  88.959 114.805  0.00  0.00    -0.241 OA
ATOM     24  O   LIG d   1       7.040  90.130 116.212  0.00  0.00    -0.241 OA
ENDBRANCH   3  22
TORSDOF 7
ENDMDL
MODEL 9
REMARK VINA RESULT:      -4.4      3.915      5.988
REMARK  7 active torsions:
REMARK  status: ('A' for Active; 'I' for Inactive)
REMARK    1  A    between atoms: C_2  and  C_3 
REMARK    2  A    between atoms: C_3  and  O_6 
REMARK    3  A    between atoms: C_3  and  C_4 
REMARK    4  A    between atoms: C_7  and  O_6 
REMARK    5  A    between atoms: C_9  and  C_10 
REMARK    6  A    between atoms: N_15  and  C_14 
REMARK    7  A    between atoms: N_20  and  C_19 
REMARK       I    between atoms: C_22  and  N_20 
ROOT
ATOM      1  C   LIG d   1       1.239  89.876 117.070  0.00  0.00     0.161 C 
ATOM      2  C   LIG d   1      -0.129  89.589 116.926  0.00  0.00     0.016 C 
ATOM      3  C   LIG d   1      -1.154  90.378 117.496  0.00  0.00     0.038 C 
ATOM      4  C   LIG d   1      -0.884  91.601 118.128  0.00  0.00     0.028 C 
ATOM      5  C   LIG d   1       0.514  91.673 118.735  0.00  0.00    -0.047 C 
ATOM      6  C   LIG d   1       1.549  91.267 117.661  0.00  0.00     0.091 C 
ENDROOT
BRANCH   1   7
ATOM      7  O   LIG d   1       1.909  89.708 115.805  0.00  0.00    -0.368 OA
BRANCH   7   8
ATOM      8  C   LIG d   1       2.893  88.647 115.740  0.00  0.00     0.119 C 
BRANCH   8   9
ATOM      9  C   LIG d   1       4.024  89.120 114.807  0.00  0.00     0.028 C 
ATOM     10  C   LIG d   1       5.397  89.114 115.499  0.00  0.00     0.006 C 
ENDBRANCH   8   9
BRANCH   8  11
ATOM     11  C   LIG d   1       2.317  87.393 115.076  0.00  0.00     0.028 C 
ATOM     12  C   LIG d   1       1.741  86.393 116.091  0.00  0.00     0.006 C 
ENDBRANCH   8  11
ENDBRANCH   7   8
ENDBRANCH   1   7
BRANCH   6  13
ATOM     13  N   LIG d   1       2.935  91.229 118.196  0.00  0.00    -0.311 N 
ATOM     14  C   LIG d   1       3.975  91.784 117.576  0.00  0.00     0.210 C 
ATOM     15  C   LIG d   1       5.320  91.612 118.289  0.00  0.00     0.109 C 
ATOM     16  O   LIG d   1       3.907  92.429 116.519  0.00  0.00    -0.276 OA
ATOM     17  H   LIG d   1       3.076  90.752 119.065  0.00  0.00     0.149 HD
ENDBRANCH   6  13
BRANCH   5  18
ATOM     18  N   LIG d   1       0.711  93.046 119.238  0.00  0.00     0.381 N 
ATOM     19  H   LIG d   1       0.503  93.705 118.514  0.00  0.00    -0.090 HD
ATOM     20  H   LIG d   1       1.673  93.160 119.502  0.00  0.00    -0.090 HD
ATOM     21  H   LIG d   1       0.122  93.208 120.025  0.00  0.00    -0.090 HD
ENDBRANCH   5  18
BRANCH   3  22
ATOM     22  C   LIG d   1      -2.464  89.924 117.473  0.00  0.00     0.382 C 
ATOM     23  O   LIG d   1      -3.412  90.746 117.468  0.00  0.00    -0.241 OA
ATOM     24  O   LIG d   1      -2.711  88.704 117.501  0.00  0.00    -0.241 OA
ENDBRANCH   3  22
TORSDOF 7
ENDMDL
