MODEL 1
REMARK VINA RESULT:      -5.4      0.000      0.000
REMARK  7 active torsions:
REMARK  status: ('A' for Active; 'I' for Inactive)
REMARK    1  A    between atoms: C_2  and  C_3 
REMARK    2  A    between atoms: C_3  and  O_6 
REMARK    3  A    between atoms: C_3  and  C_4 
REMARK    4  A    between atoms: C_7  and  O_6 
REMARK    5  A    between atoms: C_9  and  C_10 
REMARK    6  A    between atoms: N_15  and  C_14 
REMARK    7  A    between atoms: N_20  and  C_19 
REMARK       I    between atoms: C_22  and  N_20 
ROOT
ATOM      1  C   LIG d   1      -6.313  92.950 117.928  0.00  0.00     0.161 C 
ATOM      2  C   LIG d   1      -6.947  91.842 117.342  0.00  0.00     0.016 C 
ATOM      3  C   LIG d   1      -6.266  90.655 116.985  0.00  0.00     0.038 C 
ATOM      4  C   LIG d   1      -4.924  90.438 117.331  0.00  0.00     0.028 C 
ATOM      5  C   LIG d   1      -4.118  91.725 117.471  0.00  0.00    -0.047 C 
ATOM      6  C   LIG d   1      -4.872  92.689 118.414  0.00  0.00     0.091 C 
ENDROOT
BRANCH   1   7
ATOM      7  O   LIG d   1      -7.122  93.461 119.007  0.00  0.00    -0.368 OA
BRANCH   7   8
ATOM      8  C   LIG d   1      -8.067  94.502 118.658  0.00  0.00     0.119 C 
BRANCH   8   9
ATOM      9  C   LIG d   1      -7.254  95.750 118.260  0.00  0.00     0.028 C 
ATOM     10  C   LIG d   1      -6.623  96.450 119.475  0.00  0.00     0.006 C 
ENDBRANCH   8   9
BRANCH   8  11
ATOM     11  C   LIG d   1      -8.898  94.929 119.871  0.00  0.00     0.028 C 
ATOM     12  C   LIG d   1      -9.908  93.856 120.308  0.00  0.00     0.006 C 
ENDBRANCH   8  11
ENDBRANCH   7   8
ENDBRANCH   1   7
BRANCH   6  13
ATOM     13  N   LIG d   1      -4.195  94.006 118.540  0.00  0.00    -0.311 N 
ATOM     14  C   LIG d   1      -3.339  94.300 119.517  0.00  0.00     0.210 C 
ATOM     15  C   LIG d   1      -2.769  95.721 119.472  0.00  0.00     0.109 C 
ATOM     16  O   LIG d   1      -2.974  93.508 120.400  0.00  0.00    -0.276 OA
ATOM     17  H   LIG d   1      -4.409  94.697 117.848  0.00  0.00     0.149 HD
ENDBRANCH   6  13
BRANCH   5  18
ATOM     18  N   LIG d   1      -2.778  91.360 117.967  0.00  0.00     0.381 N 
ATOM     19  H   LIG d   1      -2.308  90.793 117.290  0.00  0.00    -0.090 HD
ATOM     20  H   LIG d   1      -2.879  90.825 118.812  0.00  0.00    -0.090 HD
ATOM     21  H   LIG d   1      -2.246  92.183 118.148  0.00  0.00    -0.090 HD
ENDBRANCH   5  18
BRANCH   3  22
ATOM     22  C   LIG d   1      -6.918  89.687 116.238  0.00  0.00     0.382 C 
ATOM     23  O   LIG d   1      -6.431  89.301 115.148  0.00  0.00    -0.241 OA
ATOM     24  O   LIG d   1      -8.012  89.226 116.618  0.00  0.00    -0.241 OA
ENDBRANCH   3  22
TORSDOF 7
ENDMDL
MODEL 2
REMARK VINA RESULT:      -5.3      2.043      4.395
REMARK  7 active torsions:
REMARK  status: ('A' for Active; 'I' for Inactive)
REMARK    1  A    between atoms: C_2  and  C_3 
REMARK    2  A    between atoms: C_3  and  O_6 
REMARK    3  A    between atoms: C_3  and  C_4 
REMARK    4  A    between atoms: C_7  and  O_6 
REMARK    5  A    between atoms: C_9  and  C_10 
REMARK    6  A    between atoms: N_15  and  C_14 
REMARK    7  A    between atoms: N_20  and  C_19 
REMARK       I    between atoms: C_22  and  N_20 
ROOT
ATOM      1  C   LIG d   1      -5.333  91.686 119.003  0.00  0.00     0.161 C 
ATOM      2  C   LIG d   1      -5.422  90.725 117.982  0.00  0.00     0.016 C 
ATOM      3  C   LIG d   1      -6.280  90.854 116.865  0.00  0.00     0.038 C 
ATOM      4  C   LIG d   1      -7.000  92.031 116.615  0.00  0.00     0.028 C 
ATOM      5  C   LIG d   1      -7.326  92.822 117.878  0.00  0.00    -0.047 C 
ATOM      6  C   LIG d   1      -6.028  93.028 118.691  0.00  0.00     0.091 C 
ENDROOT
BRANCH   1   7
ATOM      7  O   LIG d   1      -3.950  91.906 119.347  0.00  0.00    -0.368 OA
BRANCH   7   8
ATOM      8  C   LIG d   1      -3.035  92.068 118.235  0.00  0.00     0.119 C 
BRANCH   8   9
ATOM      9  C   LIG d   1      -1.814  91.168 118.507  0.00  0.00     0.028 C 
ATOM     10  C   LIG d   1      -1.877  89.842 117.730  0.00  0.00     0.006 C 
ENDBRANCH   8   9
BRANCH   8  11
ATOM     11  C   LIG d   1      -2.481  93.494 118.172  0.00  0.00     0.028 C 
ATOM     12  C   LIG d   1      -2.574  94.230 119.518  0.00  0.00     0.006 C 
ENDBRANCH   8  11
ENDBRANCH   7   8
ENDBRANCH   1   7
BRANCH   6  13
ATOM     13  N   LIG d   1      -6.272  93.719 119.983  0.00  0.00    -0.311 N 
ATOM     14  C   LIG d   1      -6.195  95.041 120.134  0.00  0.00     0.210 C 
ATOM     15  C   LIG d   1      -6.464  95.546 121.555  0.00  0.00     0.109 C 
ATOM     16  O   LIG d   1      -5.962  95.844 119.219  0.00  0.00    -0.276 OA
ATOM     17  H   LIG d   1      -6.498  93.146 120.772  0.00  0.00     0.149 HD
ENDBRANCH   6  13
BRANCH   5  18
ATOM     18  N   LIG d   1      -7.955  94.089 117.461  0.00  0.00     0.381 N 
ATOM     19  H   LIG d   1      -8.041  94.113 116.464  0.00  0.00    -0.090 HD
ATOM     20  H   LIG d   1      -7.367  94.853 117.745  0.00  0.00    -0.090 HD
ATOM     21  H   LIG d   1      -8.854  94.178 117.881  0.00  0.00    -0.090 HD
ENDBRANCH   5  18
BRANCH   3  22
ATOM     22  C   LIG d   1      -6.454  89.780 116.005  0.00  0.00     0.382 C 
ATOM     23  O   LIG d   1      -7.611  89.397 115.707  0.00  0.00    -0.241 OA
ATOM     24  O   LIG d   1      -5.469  89.162 115.559  0.00  0.00    -0.241 OA
ENDBRANCH   3  22
TORSDOF 7
ENDMDL
MODEL 3
REMARK VINA RESULT:      -5.3      3.051      5.843
REMARK  7 active torsions:
REMARK  status: ('A' for Active; 'I' for Inactive)
REMARK    1  A    between atoms: C_2  and  C_3 
REMARK    2  A    between atoms: C_3  and  O_6 
REMARK    3  A    between atoms: C_3  and  C_4 
REMARK    4  A    between atoms: C_7  and  O_6 
REMARK    5  A    between atoms: C_9  and  C_10 
REMARK    6  A    between atoms: N_15  and  C_14 
REMARK    7  A    between atoms: N_20  and  C_19 
REMARK       I    between atoms: C_22  and  N_20 
ROOT
ATOM      1  C   LIG d   1      -3.750  90.023 117.724  0.00  0.00     0.161 C 
ATOM      2  C   LIG d   1      -4.761  89.869 116.762  0.00  0.00     0.016 C 
ATOM      3  C   LIG d   1      -5.634  90.913 116.376  0.00  0.00     0.038 C 
ATOM      4  C   LIG d   1      -5.454  92.232 116.820  0.00  0.00     0.028 C 
ATOM      5  C   LIG d   1      -4.763  92.326 118.175  0.00  0.00    -0.047 C 
ATOM      6  C   LIG d   1      -3.467  91.483 118.137  0.00  0.00     0.091 C 
ENDROOT
BRANCH   1   7
ATOM      7  O   LIG d   1      -2.539  89.389 117.266  0.00  0.00    -0.368 OA
BRANCH   7   8
ATOM      8  C   LIG d   1      -2.370  87.998 117.634  0.00  0.00     0.119 C 
BRANCH   8   9
ATOM      9  C   LIG d   1      -2.611  87.889 119.152  0.00  0.00     0.028 C 
ATOM     10  C   LIG d   1      -2.483  86.444 119.664  0.00  0.00     0.006 C 
ENDBRANCH   8   9
BRANCH   8  11
ATOM     11  C   LIG d   1      -0.925  87.537 117.418  0.00  0.00     0.028 C 
ATOM     12  C   LIG d   1       0.106  88.613 117.791  0.00  0.00     0.006 C 
ENDBRANCH   8  11
ENDBRANCH   7   8
ENDBRANCH   1   7
BRANCH   6  13
ATOM     13  N   LIG d   1      -2.772  91.452 119.451  0.00  0.00    -0.311 N 
ATOM     14  C   LIG d   1      -1.472  91.701 119.598  0.00  0.00     0.210 C 
ATOM     15  C   LIG d   1      -0.953  91.596 121.035  0.00  0.00     0.109 C 
ATOM     16  O   LIG d   1      -0.706  92.030 118.680  0.00  0.00    -0.276 OA
ATOM     17  H   LIG d   1      -3.325  91.224 120.254  0.00  0.00     0.149 HD
ENDBRANCH   6  13
BRANCH   5  18
ATOM     18  N   LIG d   1      -4.516  93.753 118.452  0.00  0.00     0.381 N 
ATOM     19  H   LIG d   1      -4.013  94.164 117.691  0.00  0.00    -0.090 HD
ATOM     20  H   LIG d   1      -3.953  93.831 119.280  0.00  0.00    -0.090 HD
ATOM     21  H   LIG d   1      -5.381  94.230 118.583  0.00  0.00    -0.090 HD
ENDBRANCH   5  18
BRANCH   3  22
ATOM     22  C   LIG d   1      -6.725  90.633 115.567  0.00  0.00     0.382 C 
ATOM     23  O   LIG d   1      -7.223  89.482 115.563  0.00  0.00    -0.241 OA
ATOM     24  O   LIG d   1      -7.189  91.505 114.808  0.00  0.00    -0.241 OA
ENDBRANCH   3  22
TORSDOF 7
ENDMDL
MODEL 4
REMARK VINA RESULT:      -5.2      2.322      4.786
REMARK  7 active torsions:
REMARK  status: ('A' for Active; 'I' for Inactive)
REMARK    1  A    between atoms: C_2  and  C_3 
REMARK    2  A    between atoms: C_3  and  O_6 
REMARK    3  A    between atoms: C_3  and  C_4 
REMARK    4  A    between atoms: C_7  and  O_6 
REMARK    5  A    between atoms: C_9  and  C_10 
REMARK    6  A    between atoms: N_15  and  C_14 
REMARK    7  A    between atoms: N_20  and  C_19 
REMARK       I    between atoms: C_22  and  N_20 
ROOT
ATOM      1  C   LIG d   1      -4.450  91.273 118.097  0.00  0.00     0.161 C 
ATOM      2  C   LIG d   1      -5.176  90.372 117.300  0.00  0.00     0.016 C 
ATOM      3  C   LIG d   1      -6.361  90.722 116.613  0.00  0.00     0.038 C 
ATOM      4  C   LIG d   1      -6.821  92.046 116.554  0.00  0.00     0.028 C 
ATOM      5  C   LIG d   1      -6.401  92.887 117.756  0.00  0.00    -0.047 C 
ATOM      6  C   LIG d   1      -4.874  92.750 117.956  0.00  0.00     0.091 C 
ENDROOT
BRANCH   1   7
ATOM      7  O   LIG d   1      -3.040  91.130 117.835  0.00  0.00    -0.368 OA
BRANCH   7   8
ATOM      8  C   LIG d   1      -2.344  90.130 118.620  0.00  0.00     0.119 C 
BRANCH   8   9
ATOM      9  C   LIG d   1      -1.465  90.875 119.644  0.00  0.00     0.028 C 
ATOM     10  C   LIG d   1      -2.084  90.885 121.052  0.00  0.00     0.006 C 
ENDBRANCH   8   9
BRANCH   8  11
ATOM     11  C   LIG d   1      -1.368  89.324 117.758  0.00  0.00     0.028 C 
ATOM     12  C   LIG d   1      -1.826  87.874 117.537  0.00  0.00     0.006 C 
ENDBRANCH   8  11
ENDBRANCH   7   8
ENDBRANCH   1   7
BRANCH   6  13
ATOM     13  N   LIG d   1      -4.393  93.474 119.161  0.00  0.00    -0.311 N 
ATOM     14  C   LIG d   1      -3.246  94.149 119.201  0.00  0.00     0.210 C 
ATOM     15  C   LIG d   1      -2.929  94.806 120.548  0.00  0.00     0.109 C 
ATOM     16  O   LIG d   1      -2.476  94.293 118.240  0.00  0.00    -0.276 OA
ATOM     17  H   LIG d   1      -4.972  93.435 119.977  0.00  0.00     0.149 HD
ENDBRANCH   6  13
BRANCH   5  18
ATOM     18  N   LIG d   1      -6.828  94.275 117.499  0.00  0.00     0.381 N 
ATOM     19  H   LIG d   1      -7.821  94.347 117.593  0.00  0.00    -0.090 HD
ATOM     20  H   LIG d   1      -6.581  94.522 116.557  0.00  0.00    -0.090 HD
ATOM     21  H   LIG d   1      -6.381  94.894 118.140  0.00  0.00    -0.090 HD
ENDBRANCH   5  18
BRANCH   3  22
ATOM     22  C   LIG d   1      -7.122  89.734 116.007  0.00  0.00     0.382 C 
ATOM     23  O   LIG d   1      -7.955  89.082 116.682  0.00  0.00    -0.241 OA
ATOM     24  O   LIG d   1      -6.954  89.455 114.805  0.00  0.00    -0.241 OA
ENDBRANCH   3  22
TORSDOF 7
ENDMDL
MODEL 5
REMARK VINA RESULT:      -5.2     12.235     15.393
REMARK  7 active torsions:
REMARK  status: ('A' for Active; 'I' for Inactive)
REMARK    1  A    between atoms: C_2  and  C_3 
REMARK    2  A    between atoms: C_3  and  O_6 
REMARK    3  A    between atoms: C_3  and  C_4 
REMARK    4  A    between atoms: C_7  and  O_6 
REMARK    5  A    between atoms: C_9  and  C_10 
REMARK    6  A    between atoms: N_15  and  C_14 
REMARK    7  A    between atoms: N_20  and  C_19 
REMARK       I    between atoms: C_22  and  N_20 
ROOT
ATOM      1  C   LIG d   1      -6.205  78.845 117.335  0.00  0.00     0.161 C 
ATOM      2  C   LIG d   1      -5.202  77.986 117.811  0.00  0.00     0.016 C 
ATOM      3  C   LIG d   1      -4.828  77.903 119.172  0.00  0.00     0.038 C 
ATOM      4  C   LIG d   1      -5.543  78.570 120.179  0.00  0.00     0.028 C 
ATOM      5  C   LIG d   1      -6.237  79.837 119.690  0.00  0.00    -0.047 C 
ATOM      6  C   LIG d   1      -7.071  79.499 118.433  0.00  0.00     0.091 C 
ENDROOT
BRANCH   1   7
ATOM      7  O   LIG d   1      -7.039  78.147 116.389  0.00  0.00    -0.368 OA
BRANCH   7   8
ATOM      8  C   LIG d   1      -7.394  76.786 116.736  0.00  0.00     0.119 C 
BRANCH   8   9
ATOM      9  C   LIG d   1      -7.264  75.934 115.459  0.00  0.00     0.028 C 
ATOM     10  C   LIG d   1      -5.824  75.448 115.222  0.00  0.00     0.006 C 
ENDBRANCH   8   9
BRANCH   8  11
ATOM     11  C   LIG d   1      -8.867  76.681 117.145  0.00  0.00     0.028 C 
ATOM     12  C   LIG d   1      -9.258  75.268 117.605  0.00  0.00     0.006 C 
ENDBRANCH   8  11
ENDBRANCH   7   8
ENDBRANCH   1   7
BRANCH   6  13
ATOM     13  N   LIG d   1      -7.717  80.700 117.841  0.00  0.00    -0.311 N 
ATOM     14  C   LIG d   1      -9.032  80.815 117.669  0.00  0.00     0.210 C 
ATOM     15  C   LIG d   1      -9.487  82.127 117.023  0.00  0.00     0.109 C 
ATOM     16  O   LIG d   1      -9.868  79.968 118.020  0.00  0.00    -0.276 OA
ATOM     17  H   LIG d   1      -7.115  81.448 117.558  0.00  0.00     0.149 HD
ENDBRANCH   6  13
BRANCH   5  18
ATOM     18  N   LIG d   1      -7.055  80.355 120.804  0.00  0.00     0.381 N 
ATOM     19  H   LIG d   1      -7.001  79.729 121.583  0.00  0.00    -0.090 HD
ATOM     20  H   LIG d   1      -8.013  80.407 120.507  0.00  0.00    -0.090 HD
ATOM     21  H   LIG d   1      -6.733  81.259 121.071  0.00  0.00    -0.090 HD
ENDBRANCH   5  18
BRANCH   3  22
ATOM     22  C   LIG d   1      -3.704  77.177 119.534  0.00  0.00     0.382 C 
ATOM     23  O   LIG d   1      -3.335  77.148 120.732  0.00  0.00    -0.241 OA
ATOM     24  O   LIG d   1      -3.028  76.587 118.669  0.00  0.00    -0.241 OA
ENDBRANCH   3  22
TORSDOF 7
ENDMDL
MODEL 6
REMARK VINA RESULT:      -5.0      2.103      4.181
REMARK  7 active torsions:
REMARK  status: ('A' for Active; 'I' for Inactive)
REMARK    1  A    between atoms: C_2  and  C_3 
REMARK    2  A    between atoms: C_3  and  O_6 
REMARK    3  A    between atoms: C_3  and  C_4 
REMARK    4  A    between atoms: C_7  and  O_6 
REMARK    5  A    between atoms: C_9  and  C_10 
REMARK    6  A    between atoms: N_15  and  C_14 
REMARK    7  A    between atoms: N_20  and  C_19 
REMARK       I    between atoms: C_22  and  N_20 
ROOT
ATOM      1  C   LIG d   1      -5.387  92.151 119.488  0.00  0.00     0.161 C 
ATOM      2  C   LIG d   1      -4.555  91.250 118.802  0.00  0.00     0.016 C 
ATOM      3  C   LIG d   1      -4.765  90.868 117.457  0.00  0.00     0.038 C 
ATOM      4  C   LIG d   1      -5.739  91.481 116.655  0.00  0.00     0.028 C 
ATOM      5  C   LIG d   1      -6.922  92.026 117.449  0.00  0.00    -0.047 C 
ATOM      6  C   LIG d   1      -6.389  92.914 118.597  0.00  0.00     0.091 C 
ENDROOT
BRANCH   1   7
ATOM      7  O   LIG d   1      -4.583  93.077 120.246  0.00  0.00    -0.368 OA
BRANCH   7   8
ATOM      8  C   LIG d   1      -4.125  94.253 119.534  0.00  0.00     0.119 C 
BRANCH   8   9
ATOM      9  C   LIG d   1      -2.585  94.213 119.516  0.00  0.00     0.028 C 
ATOM     10  C   LIG d   1      -2.023  93.899 118.120  0.00  0.00     0.006 C 
ENDBRANCH   8   9
BRANCH   8  11
ATOM     11  C   LIG d   1      -4.489  95.537 120.287  0.00  0.00     0.028 C 
ATOM     12  C   LIG d   1      -3.895  96.797 119.638  0.00  0.00     0.006 C 
ENDBRANCH   8  11
ENDBRANCH   7   8
ENDBRANCH   1   7
BRANCH   6  13
ATOM     13  N   LIG d   1      -7.476  93.420 119.474  0.00  0.00    -0.311 N 
ATOM     14  C   LIG d   1      -8.107  94.575 119.268  0.00  0.00     0.210 C 
ATOM     15  C   LIG d   1      -9.183  94.918 120.303  0.00  0.00     0.109 C 
ATOM     16  O   LIG d   1      -7.899  95.333 118.308  0.00  0.00    -0.276 OA
ATOM     17  H   LIG d   1      -7.730  92.853 120.259  0.00  0.00     0.149 HD
ENDBRANCH   6  13
BRANCH   5  18
ATOM     18  N   LIG d   1      -7.791  92.758 116.508  0.00  0.00     0.381 N 
ATOM     19  H   LIG d   1      -7.240  93.380 115.951  0.00  0.00    -0.090 HD
ATOM     20  H   LIG d   1      -8.450  93.305 117.033  0.00  0.00    -0.090 HD
ATOM     21  H   LIG d   1      -8.274  92.115 115.920  0.00  0.00    -0.090 HD
ENDBRANCH   5  18
BRANCH   3  22
ATOM     22  C   LIG d   1      -4.020  89.833 116.912  0.00  0.00     0.382 C 
ATOM     23  O   LIG d   1      -2.810  89.703 117.218  0.00  0.00    -0.241 OA
ATOM     24  O   LIG d   1      -4.530  89.054 116.085  0.00  0.00    -0.241 OA
ENDBRANCH   3  22
TORSDOF 7
ENDMDL
MODEL 7
REMARK VINA RESULT:      -4.9     12.138     14.774
REMARK  7 active torsions:
REMARK  status: ('A' for Active; 'I' for Inactive)
REMARK    1  A    between atoms: C_2  and  C_3 
REMARK    2  A    between atoms: C_3  and  O_6 
REMARK    3  A    between atoms: C_3  and  C_4 
REMARK    4  A    between atoms: C_7  and  O_6 
REMARK    5  A    between atoms: C_9  and  C_10 
REMARK    6  A    between atoms: N_15  and  C_14 
REMARK    7  A    between atoms: N_20  and  C_19 
REMARK       I    between atoms: C_22  and  N_20 
ROOT
ATOM      1  C   LIG d   1      -7.740  78.923 117.629  0.00  0.00     0.161 C 
ATOM      2  C   LIG d   1      -6.804  78.259 116.819  0.00  0.00     0.016 C 
ATOM      3  C   LIG d   1      -6.971  76.929 116.367  0.00  0.00     0.038 C 
ATOM      4  C   LIG d   1      -8.165  76.221 116.571  0.00  0.00     0.028 C 
ATOM      5  C   LIG d   1      -8.931  76.670 117.812  0.00  0.00    -0.047 C 
ATOM      6  C   LIG d   1      -9.099  78.206 117.770  0.00  0.00     0.091 C 
ENDROOT
BRANCH   1   7
ATOM      7  O   LIG d   1      -7.931  80.269 117.151  0.00  0.00    -0.368 OA
BRANCH   7   8
ATOM      8  C   LIG d   1      -7.378  81.324 117.976  0.00  0.00     0.119 C 
BRANCH   8   9
ATOM      9  C   LIG d   1      -6.604  80.652 119.128  0.00  0.00     0.028 C 
ATOM     10  C   LIG d   1      -6.014  81.675 120.113  0.00  0.00     0.006 C 
ENDBRANCH   8   9
BRANCH   8  11
ATOM     11  C   LIG d   1      -8.483  82.140 118.652  0.00  0.00     0.028 C 
ATOM     12  C   LIG d   1      -9.771  82.206 117.817  0.00  0.00     0.006 C 
ENDBRANCH   8  11
ENDBRANCH   7   8
ENDBRANCH   1   7
BRANCH   6  13
ATOM     13  N   LIG d   1      -9.764  78.737 118.988  0.00  0.00    -0.311 N 
ATOM     14  C   LIG d   1      -9.328  78.499 120.224  0.00  0.00     0.210 C 
ATOM     15  C   LIG d   1     -10.172  79.124 121.339  0.00  0.00     0.109 C 
ATOM     16  O   LIG d   1      -8.305  77.855 120.501  0.00  0.00    -0.276 OA
ATOM     17  H   LIG d   1     -10.584  79.295 118.853  0.00  0.00     0.149 HD
ENDBRANCH   6  13
BRANCH   5  18
ATOM     18  N   LIG d   1     -10.217  75.947 117.827  0.00  0.00     0.381 N 
ATOM     19  H   LIG d   1     -10.133  75.119 118.381  0.00  0.00    -0.090 HD
ATOM     20  H   LIG d   1     -10.448  75.676 116.887  0.00  0.00    -0.090 HD
ATOM     21  H   LIG d   1     -10.932  76.533 118.197  0.00  0.00    -0.090 HD
ENDBRANCH   5  18
BRANCH   3  22
ATOM     22  C   LIG d   1      -5.920  76.281 115.737  0.00  0.00     0.382 C 
ATOM     23  O   LIG d   1      -4.857  76.901 115.492  0.00  0.00    -0.241 OA
ATOM     24  O   LIG d   1      -6.038  75.096 115.369  0.00  0.00    -0.241 OA
ENDBRANCH   3  22
TORSDOF 7
ENDMDL
MODEL 8
REMARK VINA RESULT:      -4.8     12.324     15.290
REMARK  7 active torsions:
REMARK  status: ('A' for Active; 'I' for Inactive)
REMARK    1  A    between atoms: C_2  and  C_3 
REMARK    2  A    between atoms: C_3  and  O_6 
REMARK    3  A    between atoms: C_3  and  C_4 
REMARK    4  A    between atoms: C_7  and  O_6 
REMARK    5  A    between atoms: C_9  and  C_10 
REMARK    6  A    between atoms: N_15  and  C_14 
REMARK    7  A    between atoms: N_20  and  C_19 
REMARK       I    between atoms: C_22  and  N_20 
ROOT
ATOM      1  C   LIG d   1      -6.302  78.291 117.486  0.00  0.00     0.161 C 
ATOM      2  C   LIG d   1      -7.486  79.008 117.244  0.00  0.00     0.016 C 
ATOM      3  C   LIG d   1      -7.820  80.207 117.914  0.00  0.00     0.038 C 
ATOM      4  C   LIG d   1      -6.915  80.856 118.767  0.00  0.00     0.028 C 
ATOM      5  C   LIG d   1      -5.917  79.910 119.426  0.00  0.00    -0.047 C 
ATOM      6  C   LIG d   1      -5.253  79.042 118.332  0.00  0.00     0.091 C 
ENDROOT
BRANCH   1   7
ATOM      7  O   LIG d   1      -5.725  77.865 116.236  0.00  0.00    -0.368 OA
BRANCH   7   8
ATOM      8  C   LIG d   1      -5.566  76.435 116.062  0.00  0.00     0.119 C 
BRANCH   8   9
ATOM      9  C   LIG d   1      -4.317  76.211 115.188  0.00  0.00     0.028 C 
ATOM     10  C   LIG d   1      -3.303  75.260 115.846  0.00  0.00     0.006 C 
ENDBRANCH   8   9
BRANCH   8  11
ATOM     11  C   LIG d   1      -6.730  75.837 115.266  0.00  0.00     0.028 C 
ATOM     12  C   LIG d   1      -6.863  74.318 115.456  0.00  0.00     0.006 C 
ENDBRANCH   8  11
ENDBRANCH   7   8
ENDBRANCH   1   7
BRANCH   6  13
ATOM     13  N   LIG d   1      -4.324  78.030 118.899  0.00  0.00    -0.311 N 
ATOM     14  C   LIG d   1      -3.062  77.887 118.497  0.00  0.00     0.210 C 
ATOM     15  C   LIG d   1      -2.283  76.769 119.198  0.00  0.00     0.109 C 
ATOM     16  O   LIG d   1      -2.504  78.600 117.650  0.00  0.00    -0.276 OA
ATOM     17  H   LIG d   1      -4.685  77.429 119.614  0.00  0.00     0.149 HD
ENDBRANCH   6  13
BRANCH   5  18
ATOM     18  N   LIG d   1      -4.951  80.732 120.177  0.00  0.00     0.381 N 
ATOM     19  H   LIG d   1      -4.050  80.299 120.158  0.00  0.00    -0.090 HD
ATOM     20  H   LIG d   1      -5.251  80.793 121.134  0.00  0.00    -0.090 HD
ATOM     21  H   LIG d   1      -4.898  81.644 119.780  0.00  0.00    -0.090 HD
ENDBRANCH   5  18
BRANCH   3  22
ATOM     22  C   LIG d   1      -9.087  80.749 117.762  0.00  0.00     0.382 C 
ATOM     23  O   LIG d   1      -9.219  81.943 117.400  0.00  0.00    -0.241 OA
ATOM     24  O   LIG d   1     -10.099  80.073 118.027  0.00  0.00    -0.241 OA
ENDBRANCH   3  22
TORSDOF 7
ENDMDL
MODEL 9
REMARK VINA RESULT:      -4.8     26.632     29.951
REMARK  7 active torsions:
REMARK  status: ('A' for Active; 'I' for Inactive)
REMARK    1  A    between atoms: C_2  and  C_3 
REMARK    2  A    between atoms: C_3  and  O_6 
REMARK    3  A    between atoms: C_3  and  C_4 
REMARK    4  A    between atoms: C_7  and  O_6 
REMARK    5  A    between atoms: C_9  and  C_10 
REMARK    6  A    between atoms: N_15  and  C_14 
REMARK    7  A    between atoms: N_20  and  C_19 
REMARK       I    between atoms: C_22  and  N_20 
ROOT
ATOM      1  C   LIG d   1     -16.163  65.078 117.668  0.00  0.00     0.161 C 
ATOM      2  C   LIG d   1     -16.340  66.448 117.410  0.00  0.00     0.016 C 
ATOM      3  C   LIG d   1     -15.724  67.468 118.170  0.00  0.00     0.038 C 
ATOM      4  C   LIG d   1     -14.763  67.185 119.151  0.00  0.00     0.028 C 
ATOM      5  C   LIG d   1     -14.932  65.808 119.785  0.00  0.00    -0.047 C 
ATOM      6  C   LIG d   1     -15.031  64.748 118.663  0.00  0.00     0.091 C 
ENDROOT
BRANCH   1   7
ATOM      7  O   LIG d   1     -15.963  64.370 116.429  0.00  0.00    -0.368 OA
BRANCH   7   8
ATOM      8  C   LIG d   1     -17.063  63.539 115.984  0.00  0.00     0.119 C 
BRANCH   8   9
ATOM      9  C   LIG d   1     -17.742  64.262 114.805  0.00  0.00     0.028 C 
ATOM     10  C   LIG d   1     -19.053  64.954 115.217  0.00  0.00     0.006 C 
ENDBRANCH   8   9
BRANCH   8  11
ATOM     11  C   LIG d   1     -18.143  63.421 117.064  0.00  0.00     0.028 C 
ATOM     12  C   LIG d   1     -18.326  61.981 117.569  0.00  0.00     0.006 C 
ENDBRANCH   8  11
ENDBRANCH   7   8
ENDBRANCH   1   7
BRANCH   6  13
ATOM     13  N   LIG d   1     -15.282  63.383 119.194  0.00  0.00    -0.311 N 
ATOM     14  C   LIG d   1     -14.608  62.306 118.795  0.00  0.00     0.210 C 
ATOM     15  C   LIG d   1     -15.039  60.992 119.454  0.00  0.00     0.109 C 
ATOM     16  O   LIG d   1     -13.673  62.319 117.980  0.00  0.00    -0.276 OA
ATOM     17  H   LIG d   1     -16.003  63.287 119.882  0.00  0.00     0.149 HD
ENDBRANCH   6  13
BRANCH   5  18
ATOM     18  N   LIG d   1     -13.786  65.589 120.687  0.00  0.00     0.381 N 
ATOM     19  H   LIG d   1     -12.975  65.349 120.153  0.00  0.00    -0.090 HD
ATOM     20  H   LIG d   1     -13.997  64.822 121.301  0.00  0.00    -0.090 HD
ATOM     21  H   LIG d   1     -13.610  66.412 121.221  0.00  0.00    -0.090 HD
ENDBRANCH   5  18
BRANCH   3  22
ATOM     22  C   LIG d   1     -16.099  68.789 117.978  0.00  0.00     0.382 C 
ATOM     23  O   LIG d   1     -16.832  69.362 118.820  0.00  0.00    -0.241 OA
ATOM     24  O   LIG d   1     -15.750  69.402 116.951  0.00  0.00    -0.241 OA
ENDBRANCH   3  22
TORSDOF 7
ENDMDL
