MODEL 1
REMARK VINA RESULT:      -6.0      0.000      0.000
REMARK  7 active torsions:
REMARK  status: ('A' for Active; 'I' for Inactive)
REMARK    1  A    between atoms: C_2  and  C_3 
REMARK    2  A    between atoms: C_3  and  O_6 
REMARK    3  A    between atoms: C_3  and  C_4 
REMARK    4  A    between atoms: C_7  and  O_6 
REMARK    5  A    between atoms: C_9  and  C_10 
REMARK    6  A    between atoms: N_15  and  C_14 
REMARK    7  A    between atoms: N_20  and  C_19 
REMARK       I    between atoms: C_22  and  N_20 
ROOT
ATOM      1  C   LIG d   1      -7.982  75.871 117.941  0.00  0.00     0.161 C 
ATOM      2  C   LIG d   1      -9.067  76.712 118.238  0.00  0.00     0.016 C 
ATOM      3  C   LIG d   1      -8.968  78.121 118.293  0.00  0.00     0.038 C 
ATOM      4  C   LIG d   1      -7.803  78.798 117.903  0.00  0.00     0.028 C 
ATOM      5  C   LIG d   1      -6.534  77.972 118.082  0.00  0.00    -0.047 C 
ATOM      6  C   LIG d   1      -6.730  76.597 117.404  0.00  0.00     0.091 C 
ENDROOT
BRANCH   1   7
ATOM      7  O   LIG d   1      -8.398  74.843 117.021  0.00  0.00    -0.368 OA
BRANCH   7   8
ATOM      8  C   LIG d   1      -8.576  73.519 117.582  0.00  0.00     0.119 C 
BRANCH   8   9
ATOM      9  C   LIG d   1      -7.499  72.606 116.965  0.00  0.00     0.028 C 
ATOM     10  C   LIG d   1      -8.047  71.216 116.601  0.00  0.00     0.006 C 
ENDBRANCH   8   9
BRANCH   8  11
ATOM     11  C   LIG d   1      -9.916  72.910 117.158  0.00  0.00     0.028 C 
ATOM     12  C   LIG d   1     -10.851  73.931 116.493  0.00  0.00     0.006 C 
ENDBRANCH   8  11
ENDBRANCH   7   8
ENDBRANCH   1   7
BRANCH   6  13
ATOM     13  N   LIG d   1      -5.567  75.694 117.604  0.00  0.00    -0.311 N 
ATOM     14  C   LIG d   1      -4.842  75.198 116.602  0.00  0.00     0.210 C 
ATOM     15  C   LIG d   1      -3.699  74.272 117.027  0.00  0.00     0.109 C 
ATOM     16  O   LIG d   1      -5.019  75.463 115.403  0.00  0.00    -0.276 OA
ATOM     17  H   LIG d   1      -5.334  75.452 118.547  0.00  0.00     0.149 HD
ENDBRANCH   6  13
BRANCH   5  18
ATOM     18  N   LIG d   1      -5.415  78.744 117.510  0.00  0.00     0.381 N 
ATOM     19  H   LIG d   1      -4.546  78.303 117.738  0.00  0.00    -0.090 HD
ATOM     20  H   LIG d   1      -5.416  79.665 117.912  0.00  0.00    -0.090 HD
ATOM     21  H   LIG d   1      -5.514  78.805 116.520  0.00  0.00    -0.090 HD
ENDBRANCH   5  18
BRANCH   3  22
ATOM     22  C   LIG d   1     -10.031  78.866 118.781  0.00  0.00     0.382 C 
ATOM     23  O   LIG d   1     -11.179  78.363 118.831  0.00  0.00    -0.241 OA
ATOM     24  O   LIG d   1      -9.864  80.051 119.129  0.00  0.00    -0.241 OA
ENDBRANCH   3  22
TORSDOF 7
ENDMDL
MODEL 2
REMARK VINA RESULT:      -5.6      1.693      2.258
REMARK  7 active torsions:
REMARK  status: ('A' for Active; 'I' for Inactive)
REMARK    1  A    between atoms: C_2  and  C_3 
REMARK    2  A    between atoms: C_3  and  O_6 
REMARK    3  A    between atoms: C_3  and  C_4 
REMARK    4  A    between atoms: C_7  and  O_6 
REMARK    5  A    between atoms: C_9  and  C_10 
REMARK    6  A    between atoms: N_15  and  C_14 
REMARK    7  A    between atoms: N_20  and  C_19 
REMARK       I    between atoms: C_22  and  N_20 
ROOT
ATOM      1  C   LIG d   1      -7.347  77.002 117.837  0.00  0.00     0.161 C 
ATOM      2  C   LIG d   1      -8.655  77.356 118.207  0.00  0.00     0.016 C 
ATOM      3  C   LIG d   1      -9.069  78.691 118.421  0.00  0.00     0.038 C 
ATOM      4  C   LIG d   1      -8.235  79.781 118.131  0.00  0.00     0.028 C 
ATOM      5  C   LIG d   1      -6.750  79.454 118.239  0.00  0.00    -0.047 C 
ATOM      6  C   LIG d   1      -6.454  78.185 117.407  0.00  0.00     0.091 C 
ENDROOT
BRANCH   1   7
ATOM      7  O   LIG d   1      -7.386  76.002 116.800  0.00  0.00    -0.368 OA
BRANCH   7   8
ATOM      8  C   LIG d   1      -7.217  74.629 117.231  0.00  0.00     0.119 C 
BRANCH   8   9
ATOM      9  C   LIG d   1      -6.283  73.938 116.220  0.00  0.00     0.028 C 
ATOM     10  C   LIG d   1      -6.088  74.767 114.939  0.00  0.00     0.006 C 
ENDBRANCH   8   9
BRANCH   8  11
ATOM     11  C   LIG d   1      -8.537  73.856 117.159  0.00  0.00     0.028 C 
ATOM     12  C   LIG d   1      -8.471  72.497 117.874  0.00  0.00     0.006 C 
ENDBRANCH   8  11
ENDBRANCH   7   8
ENDBRANCH   1   7
BRANCH   6  13
ATOM     13  N   LIG d   1      -5.039  77.747 117.527  0.00  0.00    -0.311 N 
ATOM     14  C   LIG d   1      -4.074  78.152 116.703  0.00  0.00     0.210 C 
ATOM     15  C   LIG d   1      -2.689  77.564 116.991  0.00  0.00     0.109 C 
ATOM     16  O   LIG d   1      -4.227  78.968 115.782  0.00  0.00    -0.276 OA
ATOM     17  H   LIG d   1      -4.820  77.109 118.267  0.00  0.00     0.149 HD
ENDBRANCH   6  13
BRANCH   5  18
ATOM     18  N   LIG d   1      -5.998  80.636 117.778  0.00  0.00     0.381 N 
ATOM     19  H   LIG d   1      -5.492  80.412 116.945  0.00  0.00    -0.090 HD
ATOM     20  H   LIG d   1      -5.337  80.898 118.488  0.00  0.00    -0.090 HD
ATOM     21  H   LIG d   1      -6.624  81.391 117.602  0.00  0.00    -0.090 HD
ENDBRANCH   5  18
BRANCH   3  22
ATOM     22  C   LIG d   1     -10.317  78.944 118.969  0.00  0.00     0.382 C 
ATOM     23  O   LIG d   1     -10.473  79.910 119.755  0.00  0.00    -0.241 OA
ATOM     24  O   LIG d   1     -11.279  78.192 118.723  0.00  0.00    -0.241 OA
ENDBRANCH   3  22
TORSDOF 7
ENDMDL
MODEL 3
REMARK VINA RESULT:      -5.5      2.344      3.773
REMARK  7 active torsions:
REMARK  status: ('A' for Active; 'I' for Inactive)
REMARK    1  A    between atoms: C_2  and  C_3 
REMARK    2  A    between atoms: C_3  and  O_6 
REMARK    3  A    between atoms: C_3  and  C_4 
REMARK    4  A    between atoms: C_7  and  O_6 
REMARK    5  A    between atoms: C_9  and  C_10 
REMARK    6  A    between atoms: N_15  and  C_14 
REMARK    7  A    between atoms: N_20  and  C_19 
REMARK       I    between atoms: C_22  and  N_20 
ROOT
ATOM      1  C   LIG d   1      -6.866  78.404 117.871  0.00  0.00     0.161 C 
ATOM      2  C   LIG d   1      -8.245  78.242 118.086  0.00  0.00     0.016 C 
ATOM      3  C   LIG d   1      -9.105  79.303 118.450  0.00  0.00     0.038 C 
ATOM      4  C   LIG d   1      -8.669  80.636 118.477  0.00  0.00     0.028 C 
ATOM      5  C   LIG d   1      -7.177  80.779 118.761  0.00  0.00    -0.047 C 
ATOM      6  C   LIG d   1      -6.392  79.870 117.788  0.00  0.00     0.091 C 
ENDROOT
BRANCH   1   7
ATOM      7  O   LIG d   1      -6.467  77.680 116.690  0.00  0.00    -0.368 OA
BRANCH   7   8
ATOM      8  C   LIG d   1      -6.065  76.303 116.892  0.00  0.00     0.119 C 
BRANCH   8   9
ATOM      9  C   LIG d   1      -4.527  76.254 116.821  0.00  0.00     0.028 C 
ATOM     10  C   LIG d   1      -3.995  76.553 115.409  0.00  0.00     0.006 C 
ENDBRANCH   8   9
BRANCH   8  11
ATOM     11  C   LIG d   1      -6.553  75.408 115.749  0.00  0.00     0.028 C 
ATOM     12  C   LIG d   1      -6.569  73.917 116.124  0.00  0.00     0.006 C 
ENDBRANCH   8  11
ENDBRANCH   7   8
ENDBRANCH   1   7
BRANCH   6  13
ATOM     13  N   LIG d   1      -4.930  79.886 118.052  0.00  0.00    -0.311 N 
ATOM     14  C   LIG d   1      -4.012  79.974 117.091  0.00  0.00     0.210 C 
ATOM     15  C   LIG d   1      -2.560  79.954 117.580  0.00  0.00     0.109 C 
ATOM     16  O   LIG d   1      -4.262  80.100 115.883  0.00  0.00    -0.276 OA
ATOM     17  H   LIG d   1      -4.638  79.820 119.008  0.00  0.00     0.149 HD
ENDBRANCH   6  13
BRANCH   5  18
ATOM     18  N   LIG d   1      -6.833  82.207 118.624  0.00  0.00     0.381 N 
ATOM     19  H   LIG d   1      -7.518  82.767 119.089  0.00  0.00    -0.090 HD
ATOM     20  H   LIG d   1      -6.836  82.450 117.649  0.00  0.00    -0.090 HD
ATOM     21  H   LIG d   1      -5.932  82.379 119.014  0.00  0.00    -0.090 HD
ENDBRANCH   5  18
BRANCH   3  22
ATOM     22  C   LIG d   1     -10.410  79.029 118.831  0.00  0.00     0.382 C 
ATOM     23  O   LIG d   1     -10.962  77.966 118.458  0.00  0.00    -0.241 OA
ATOM     24  O   LIG d   1     -11.057  79.852 119.506  0.00  0.00    -0.241 OA
ENDBRANCH   3  22
TORSDOF 7
ENDMDL
MODEL 4
REMARK VINA RESULT:      -5.4     14.183     16.871
REMARK  7 active torsions:
REMARK  status: ('A' for Active; 'I' for Inactive)
REMARK    1  A    between atoms: C_2  and  C_3 
REMARK    2  A    between atoms: C_3  and  O_6 
REMARK    3  A    between atoms: C_3  and  C_4 
REMARK    4  A    between atoms: C_7  and  O_6 
REMARK    5  A    between atoms: C_9  and  C_10 
REMARK    6  A    between atoms: N_15  and  C_14 
REMARK    7  A    between atoms: N_20  and  C_19 
REMARK       I    between atoms: C_22  and  N_20 
ROOT
ATOM      1  C   LIG d   1      -5.121  91.418 119.330  0.00  0.00     0.161 C 
ATOM      2  C   LIG d   1      -5.497  90.419 118.416  0.00  0.00     0.016 C 
ATOM      3  C   LIG d   1      -6.384  90.644 117.338  0.00  0.00     0.038 C 
ATOM      4  C   LIG d   1      -6.840  91.930 117.010  0.00  0.00     0.028 C 
ATOM      5  C   LIG d   1      -6.889  92.878 118.203  0.00  0.00    -0.047 C 
ATOM      6  C   LIG d   1      -5.521  92.851 118.922  0.00  0.00     0.091 C 
ENDROOT
BRANCH   1   7
ATOM      7  O   LIG d   1      -3.703  91.344 119.577  0.00  0.00    -0.368 OA
BRANCH   7   8
ATOM      8  C   LIG d   1      -2.897  90.788 118.510  0.00  0.00     0.119 C 
BRANCH   8   9
ATOM      9  C   LIG d   1      -1.866  89.841 119.153  0.00  0.00     0.028 C 
ATOM     10  C   LIG d   1      -2.305  88.368 119.095  0.00  0.00     0.006 C 
ENDBRANCH   8   9
BRANCH   8  11
ATOM     11  C   LIG d   1      -2.071  91.873 117.811  0.00  0.00     0.028 C 
ATOM     12  C   LIG d   1      -1.861  93.118 118.687  0.00  0.00     0.006 C 
ENDBRANCH   8  11
ENDBRANCH   7   8
ENDBRANCH   1   7
BRANCH   6  13
ATOM     13  N   LIG d   1      -5.509  93.688 120.150  0.00  0.00    -0.311 N 
ATOM     14  C   LIG d   1      -5.048  94.937 120.182  0.00  0.00     0.210 C 
ATOM     15  C   LIG d   1      -5.110  95.614 121.555  0.00  0.00     0.109 C 
ATOM     16  O   LIG d   1      -4.624  95.559 119.197  0.00  0.00    -0.276 OA
ATOM     17  H   LIG d   1      -5.865  93.272 120.989  0.00  0.00     0.149 HD
ENDBRANCH   6  13
BRANCH   5  18
ATOM     18  N   LIG d   1      -7.248  94.215 117.694  0.00  0.00     0.381 N 
ATOM     19  H   LIG d   1      -7.202  94.221 116.695  0.00  0.00    -0.090 HD
ATOM     20  H   LIG d   1      -6.586  94.885 118.045  0.00  0.00    -0.090 HD
ATOM     21  H   LIG d   1      -8.167  94.458 117.993  0.00  0.00    -0.090 HD
ENDBRANCH   5  18
BRANCH   3  22
ATOM     22  C   LIG d   1      -6.855  89.569 116.600  0.00  0.00     0.382 C 
ATOM     23  O   LIG d   1      -8.027  89.157 116.771  0.00  0.00    -0.241 OA
ATOM     24  O   LIG d   1      -6.108  88.979 115.797  0.00  0.00    -0.241 OA
ENDBRANCH   3  22
TORSDOF 7
ENDMDL
MODEL 5
REMARK VINA RESULT:      -5.4     14.045     17.432
REMARK  7 active torsions:
REMARK  status: ('A' for Active; 'I' for Inactive)
REMARK    1  A    between atoms: C_2  and  C_3 
REMARK    2  A    between atoms: C_3  and  O_6 
REMARK    3  A    between atoms: C_3  and  C_4 
REMARK    4  A    between atoms: C_7  and  O_6 
REMARK    5  A    between atoms: C_9  and  C_10 
REMARK    6  A    between atoms: N_15  and  C_14 
REMARK    7  A    between atoms: N_20  and  C_19 
REMARK       I    between atoms: C_22  and  N_20 
ROOT
ATOM      1  C   LIG d   1      -6.348  92.727 118.283  0.00  0.00     0.161 C 
ATOM      2  C   LIG d   1      -6.921  91.598 117.674  0.00  0.00     0.016 C 
ATOM      3  C   LIG d   1      -6.201  90.413 117.400  0.00  0.00     0.038 C 
ATOM      4  C   LIG d   1      -4.889  90.219 117.857  0.00  0.00     0.028 C 
ATOM      5  C   LIG d   1      -4.111  91.519 118.031  0.00  0.00    -0.047 C 
ATOM      6  C   LIG d   1      -4.949  92.494 118.889  0.00  0.00     0.091 C 
ENDROOT
BRANCH   1   7
ATOM      7  O   LIG d   1      -7.246  93.251 119.282  0.00  0.00    -0.368 OA
BRANCH   7   8
ATOM      8  C   LIG d   1      -8.412  93.953 118.786  0.00  0.00     0.119 C 
BRANCH   8   9
ATOM      9  C   LIG d   1      -7.942  95.330 118.278  0.00  0.00     0.028 C 
ATOM     10  C   LIG d   1      -7.509  96.261 119.422  0.00  0.00     0.006 C 
ENDBRANCH   8   9
BRANCH   8  11
ATOM     11  C   LIG d   1      -9.403  94.254 119.914  0.00  0.00     0.028 C 
ATOM     12  C   LIG d   1      -9.424  93.162 120.995  0.00  0.00     0.006 C 
ENDBRANCH   8  11
ENDBRANCH   7   8
ENDBRANCH   1   7
BRANCH   6  13
ATOM     13  N   LIG d   1      -4.297  93.822 119.038  0.00  0.00    -0.311 N 
ATOM     14  C   LIG d   1      -3.514  94.143 120.067  0.00  0.00     0.210 C 
ATOM     15  C   LIG d   1      -2.959  95.570 120.036  0.00  0.00     0.109 C 
ATOM     16  O   LIG d   1      -3.201  93.370 120.985  0.00  0.00    -0.276 OA
ATOM     17  H   LIG d   1      -4.472  94.499 118.322  0.00  0.00     0.149 HD
ENDBRANCH   6  13
BRANCH   5  18
ATOM     18  N   LIG d   1      -2.811  91.182 118.641  0.00  0.00     0.381 N 
ATOM     19  H   LIG d   1      -2.071  91.400 118.005  0.00  0.00    -0.090 HD
ATOM     20  H   LIG d   1      -2.786  90.194 118.827  0.00  0.00    -0.090 HD
ATOM     21  H   LIG d   1      -2.691  91.690 119.490  0.00  0.00    -0.090 HD
ENDBRANCH   5  18
BRANCH   3  22
ATOM     22  C   LIG d   1      -6.782  89.420 116.625  0.00  0.00     0.382 C 
ATOM     23  O   LIG d   1      -7.906  88.957 116.938  0.00  0.00    -0.241 OA
ATOM     24  O   LIG d   1      -6.177  88.950 115.643  0.00  0.00    -0.241 OA
ENDBRANCH   3  22
TORSDOF 7
ENDMDL
MODEL 6
REMARK VINA RESULT:      -5.3     13.983     15.952
REMARK  7 active torsions:
REMARK  status: ('A' for Active; 'I' for Inactive)
REMARK    1  A    between atoms: C_2  and  C_3 
REMARK    2  A    between atoms: C_3  and  O_6 
REMARK    3  A    between atoms: C_3  and  C_4 
REMARK    4  A    between atoms: C_7  and  O_6 
REMARK    5  A    between atoms: C_9  and  C_10 
REMARK    6  A    between atoms: N_15  and  C_14 
REMARK    7  A    between atoms: N_20  and  C_19 
REMARK       I    between atoms: C_22  and  N_20 
ROOT
ATOM      1  C   LIG d   1      -4.382  90.541 118.452  0.00  0.00     0.161 C 
ATOM      2  C   LIG d   1      -5.115  89.784 117.524  0.00  0.00     0.016 C 
ATOM      3  C   LIG d   1      -6.246  90.281 116.835  0.00  0.00     0.038 C 
ATOM      4  C   LIG d   1      -6.630  91.627 116.915  0.00  0.00     0.028 C 
ATOM      5  C   LIG d   1      -6.225  92.296 118.225  0.00  0.00    -0.047 C 
ATOM      6  C   LIG d   1      -4.720  92.047 118.470  0.00  0.00     0.091 C 
ENDROOT
BRANCH   1   7
ATOM      7  O   LIG d   1      -2.970  90.347 118.235  0.00  0.00    -0.368 OA
BRANCH   7   8
ATOM      8  C   LIG d   1      -2.539  88.979 118.034  0.00  0.00     0.119 C 
BRANCH   8   9
ATOM      9  C   LIG d   1      -2.497  88.299 119.416  0.00  0.00     0.028 C 
ATOM     10  C   LIG d   1      -1.629  89.070 120.424  0.00  0.00     0.006 C 
ENDBRANCH   8   9
BRANCH   8  11
ATOM     11  C   LIG d   1      -1.101  88.919 117.510  0.00  0.00     0.028 C 
ATOM     12  C   LIG d   1      -0.584  90.285 117.032  0.00  0.00     0.006 C 
ENDBRANCH   8  11
ENDBRANCH   7   8
ENDBRANCH   1   7
BRANCH   6  13
ATOM     13  N   LIG d   1      -4.259  92.595 119.772  0.00  0.00    -0.311 N 
ATOM     14  C   LIG d   1      -3.237  93.441 119.891  0.00  0.00     0.210 C 
ATOM     15  C   LIG d   1      -2.916  93.869 121.327  0.00  0.00     0.109 C 
ATOM     16  O   LIG d   1      -2.587  93.903 118.942  0.00  0.00    -0.276 OA
ATOM     17  H   LIG d   1      -4.751  92.298 120.592  0.00  0.00     0.149 HD
ENDBRANCH   6  13
BRANCH   5  18
ATOM     18  N   LIG d   1      -6.565  93.727 118.118  0.00  0.00     0.381 N 
ATOM     19  H   LIG d   1      -5.854  94.206 117.602  0.00  0.00    -0.090 HD
ATOM     20  H   LIG d   1      -6.604  94.122 119.041  0.00  0.00    -0.090 HD
ATOM     21  H   LIG d   1      -7.445  93.836 117.664  0.00  0.00    -0.090 HD
ENDBRANCH   5  18
BRANCH   3  22
ATOM     22  C   LIG d   1      -7.028  89.416 116.084  0.00  0.00     0.382 C 
ATOM     23  O   LIG d   1      -6.634  89.034 114.956  0.00  0.00    -0.241 OA
ATOM     24  O   LIG d   1      -8.142  89.048 116.502  0.00  0.00    -0.241 OA
ENDBRANCH   3  22
TORSDOF 7
ENDMDL
MODEL 7
REMARK VINA RESULT:      -5.0      1.994      5.110
REMARK  7 active torsions:
REMARK  status: ('A' for Active; 'I' for Inactive)
REMARK    1  A    between atoms: C_2  and  C_3 
REMARK    2  A    between atoms: C_3  and  O_6 
REMARK    3  A    between atoms: C_3  and  C_4 
REMARK    4  A    between atoms: C_7  and  O_6 
REMARK    5  A    between atoms: C_9  and  C_10 
REMARK    6  A    between atoms: N_15  and  C_14 
REMARK    7  A    between atoms: N_20  and  C_19 
REMARK       I    between atoms: C_22  and  N_20 
ROOT
ATOM      1  C   LIG d   1      -8.061  76.577 117.375  0.00  0.00     0.161 C 
ATOM      2  C   LIG d   1      -9.081  75.612 117.426  0.00  0.00     0.016 C 
ATOM      3  C   LIG d   1      -8.867  74.239 117.169  0.00  0.00     0.038 C 
ATOM      4  C   LIG d   1      -7.580  73.710 116.990  0.00  0.00     0.028 C 
ATOM      5  C   LIG d   1      -6.582  74.719 116.431  0.00  0.00    -0.047 C 
ATOM      6  C   LIG d   1      -6.631  76.003 117.291  0.00  0.00     0.091 C 
ENDROOT
BRANCH   1   7
ATOM      7  O   LIG d   1      -8.177  77.471 118.500  0.00  0.00    -0.368 OA
BRANCH   7   8
ATOM      8  C   LIG d   1      -8.720  78.784 118.217  0.00  0.00     0.119 C 
BRANCH   8   9
ATOM      9  C   LIG d   1      -7.822  79.818 118.924  0.00  0.00     0.028 C 
ATOM     10  C   LIG d   1      -7.043  80.696 117.930  0.00  0.00     0.006 C 
ENDBRANCH   8   9
BRANCH   8  11
ATOM     11  C   LIG d   1     -10.108  78.959 118.841  0.00  0.00     0.028 C 
ATOM     12  C   LIG d   1     -10.751  80.310 118.493  0.00  0.00     0.006 C 
ENDBRANCH   8  11
ENDBRANCH   7   8
ENDBRANCH   1   7
BRANCH   6  13
ATOM     13  N   LIG d   1      -5.747  77.073 116.762  0.00  0.00    -0.311 N 
ATOM     14  C   LIG d   1      -4.881  77.748 117.516  0.00  0.00     0.210 C 
ATOM     15  C   LIG d   1      -4.080  78.824 116.776  0.00  0.00     0.109 C 
ATOM     16  O   LIG d   1      -4.676  77.535 118.720  0.00  0.00    -0.276 OA
ATOM     17  H   LIG d   1      -5.825  77.289 115.787  0.00  0.00     0.149 HD
ENDBRANCH   6  13
BRANCH   5  18
ATOM     18  N   LIG d   1      -5.254  74.077 116.425  0.00  0.00     0.381 N 
ATOM     19  H   LIG d   1      -5.351  73.097 116.600  0.00  0.00    -0.090 HD
ATOM     20  H   LIG d   1      -4.698  74.475 117.161  0.00  0.00    -0.090 HD
ATOM     21  H   LIG d   1      -4.809  74.222 115.546  0.00  0.00    -0.090 HD
ENDBRANCH   5  18
BRANCH   3  22
ATOM     22  C   LIG d   1      -9.952  73.384 117.049  0.00  0.00     0.382 C 
ATOM     23  O   LIG d   1     -11.062  73.830 116.671  0.00  0.00    -0.241 OA
ATOM     24  O   LIG d   1      -9.847  72.182 117.357  0.00  0.00    -0.241 OA
ENDBRANCH   3  22
TORSDOF 7
ENDMDL
MODEL 8
REMARK VINA RESULT:      -5.0      2.304      5.343
REMARK  7 active torsions:
REMARK  status: ('A' for Active; 'I' for Inactive)
REMARK    1  A    between atoms: C_2  and  C_3 
REMARK    2  A    between atoms: C_3  and  O_6 
REMARK    3  A    between atoms: C_3  and  C_4 
REMARK    4  A    between atoms: C_7  and  O_6 
REMARK    5  A    between atoms: C_9  and  C_10 
REMARK    6  A    between atoms: N_15  and  C_14 
REMARK    7  A    between atoms: N_20  and  C_19 
REMARK       I    between atoms: C_22  and  N_20 
ROOT
ATOM      1  C   LIG d   1      -5.785  74.492 116.948  0.00  0.00     0.161 C 
ATOM      2  C   LIG d   1      -6.573  73.345 116.756  0.00  0.00     0.016 C 
ATOM      3  C   LIG d   1      -7.957  73.295 117.042  0.00  0.00     0.038 C 
ATOM      4  C   LIG d   1      -8.682  74.442 117.400  0.00  0.00     0.028 C 
ATOM      5  C   LIG d   1      -7.833  75.503 118.093  0.00  0.00    -0.047 C 
ATOM      6  C   LIG d   1      -6.580  75.783 117.233  0.00  0.00     0.091 C 
ENDROOT
BRANCH   1   7
ATOM      7  O   LIG d   1      -4.912  74.680 115.817  0.00  0.00    -0.368 OA
BRANCH   7   8
ATOM      8  C   LIG d   1      -3.500  74.463 116.059  0.00  0.00     0.119 C 
BRANCH   8   9
ATOM      9  C   LIG d   1      -3.324  74.197 117.566  0.00  0.00     0.028 C 
ATOM     10  C   LIG d   1      -1.878  73.818 117.930  0.00  0.00     0.006 C 
ENDBRANCH   8   9
BRANCH   8  11
ATOM     11  C   LIG d   1      -2.685  75.728 115.772  0.00  0.00     0.028 C 
ATOM     12  C   LIG d   1      -3.473  76.776 114.971  0.00  0.00     0.006 C 
ENDBRANCH   8  11
ENDBRANCH   7   8
ENDBRANCH   1   7
BRANCH   6  13
ATOM     13  N   LIG d   1      -5.653  76.748 117.880  0.00  0.00    -0.311 N 
ATOM     14  C   LIG d   1      -5.714  78.065 117.687  0.00  0.00     0.210 C 
ATOM     15  C   LIG d   1      -4.652  78.878 118.434  0.00  0.00     0.109 C 
ATOM     16  O   LIG d   1      -6.567  78.639 116.993  0.00  0.00    -0.276 OA
ATOM     17  H   LIG d   1      -4.949  76.370 118.484  0.00  0.00     0.149 HD
ENDBRANCH   6  13
BRANCH   5  18
ATOM     18  N   LIG d   1      -8.681  76.695 118.286  0.00  0.00     0.381 N 
ATOM     19  H   LIG d   1      -9.287  76.556 119.070  0.00  0.00    -0.090 HD
ATOM     20  H   LIG d   1      -9.249  76.826 117.468  0.00  0.00    -0.090 HD
ATOM     21  H   LIG d   1      -8.110  77.498 118.436  0.00  0.00    -0.090 HD
ENDBRANCH   5  18
BRANCH   3  22
ATOM     22  C   LIG d   1      -8.622  72.079 117.009  0.00  0.00     0.382 C 
ATOM     23  O   LIG d   1      -9.665  71.916 117.687  0.00  0.00    -0.241 OA
ATOM     24  O   LIG d   1      -8.168  71.128 116.345  0.00  0.00    -0.241 OA
ENDBRANCH   3  22
TORSDOF 7
ENDMDL
MODEL 9
REMARK VINA RESULT:      -4.8      2.416      6.040
REMARK  7 active torsions:
REMARK  status: ('A' for Active; 'I' for Inactive)
REMARK    1  A    between atoms: C_2  and  C_3 
REMARK    2  A    between atoms: C_3  and  O_6 
REMARK    3  A    between atoms: C_3  and  C_4 
REMARK    4  A    between atoms: C_7  and  O_6 
REMARK    5  A    between atoms: C_9  and  C_10 
REMARK    6  A    between atoms: N_15  and  C_14 
REMARK    7  A    between atoms: N_20  and  C_19 
REMARK       I    between atoms: C_22  and  N_20 
ROOT
ATOM      1  C   LIG d   1      -6.183  77.173 117.374  0.00  0.00     0.161 C 
ATOM      2  C   LIG d   1      -6.528  75.842 117.088  0.00  0.00     0.016 C 
ATOM      3  C   LIG d   1      -7.834  75.325 117.247  0.00  0.00     0.038 C 
ATOM      4  C   LIG d   1      -8.924  76.150 117.561  0.00  0.00     0.028 C 
ATOM      5  C   LIG d   1      -8.534  77.396 118.348  0.00  0.00    -0.047 C 
ATOM      6  C   LIG d   1      -7.382  78.115 117.611  0.00  0.00     0.091 C 
ENDROOT
BRANCH   1   7
ATOM      7  O   LIG d   1      -5.336  77.693 116.330  0.00  0.00    -0.368 OA
BRANCH   7   8
ATOM      8  C   LIG d   1      -3.975  78.013 116.713  0.00  0.00     0.119 C 
BRANCH   8   9
ATOM      9  C   LIG d   1      -3.787  79.532 116.530  0.00  0.00     0.028 C 
ATOM     10  C   LIG d   1      -3.315  80.224 117.819  0.00  0.00     0.006 C 
ENDBRANCH   8   9
BRANCH   8  11
ATOM     11  C   LIG d   1      -2.962  77.362 115.766  0.00  0.00     0.028 C 
ATOM     12  C   LIG d   1      -1.762  76.752 116.507  0.00  0.00     0.006 C 
ENDBRANCH   8  11
ENDBRANCH   7   8
ENDBRANCH   1   7
BRANCH   6  13
ATOM     13  N   LIG d   1      -6.882  79.299 118.358  0.00  0.00    -0.311 N 
ATOM     14  C   LIG d   1      -7.324  80.538 118.147  0.00  0.00     0.210 C 
ATOM     15  C   LIG d   1      -6.661  81.616 119.011  0.00  0.00     0.109 C 
ATOM     16  O   LIG d   1      -8.223  80.843 117.350  0.00  0.00    -0.276 OA
ATOM     17  H   LIG d   1      -6.173  79.139 119.046  0.00  0.00     0.149 HD
ENDBRANCH   6  13
BRANCH   5  18
ATOM     18  N   LIG d   1      -9.742  78.232 118.487  0.00  0.00     0.381 N 
ATOM     19  H   LIG d   1     -10.020  78.268 119.448  0.00  0.00    -0.090 HD
ATOM     20  H   LIG d   1     -10.488  77.816 117.958  0.00  0.00    -0.090 HD
ATOM     21  H   LIG d   1      -9.560  79.152 118.152  0.00  0.00    -0.090 HD
ENDBRANCH   5  18
BRANCH   3  22
ATOM     22  C   LIG d   1      -8.053  73.961 117.130  0.00  0.00     0.382 C 
ATOM     23  O   LIG d   1      -9.184  73.483 117.386  0.00  0.00    -0.241 OA
ATOM     24  O   LIG d   1      -7.121  73.197 116.814  0.00  0.00    -0.241 OA
ENDBRANCH   3  22
TORSDOF 7
ENDMDL
