MODEL 1
REMARK VINA RESULT:      -5.5      0.000      0.000
REMARK  7 active torsions:
REMARK  status: ('A' for Active; 'I' for Inactive)
REMARK    1  A    between atoms: C_2  and  C_3 
REMARK    2  A    between atoms: C_3  and  O_6 
REMARK    3  A    between atoms: C_3  and  C_4 
REMARK    4  A    between atoms: C_7  and  O_6 
REMARK    5  A    between atoms: C_9  and  C_10 
REMARK    6  A    between atoms: N_15  and  C_14 
REMARK    7  A    between atoms: N_20  and  C_19 
REMARK       I    between atoms: C_22  and  N_20 
ROOT
ATOM      1  C   LIG d   1      -4.656  91.767 118.482  0.00  0.00     0.161 C 
ATOM      2  C   LIG d   1      -5.942  92.330 118.537  0.00  0.00     0.016 C 
ATOM      3  C   LIG d   1      -6.933  92.102 117.555  0.00  0.00     0.038 C 
ATOM      4  C   LIG d   1      -6.753  91.168 116.523  0.00  0.00     0.028 C 
ATOM      5  C   LIG d   1      -5.291  90.959 116.143  0.00  0.00    -0.047 C 
ATOM      6  C   LIG d   1      -4.478  90.659 117.423  0.00  0.00     0.091 C 
ENDROOT
BRANCH   1   7
ATOM      7  O   LIG d   1      -4.280  91.280 119.786  0.00  0.00    -0.368 OA
BRANCH   7   8
ATOM      8  C   LIG d   1      -3.343  92.099 120.527  0.00  0.00     0.119 C 
BRANCH   8   9
ATOM      9  C   LIG d   1      -2.767  93.142 119.550  0.00  0.00     0.028 C 
ATOM     10  C   LIG d   1      -3.031  94.586 120.011  0.00  0.00     0.006 C 
ENDBRANCH   8   9
BRANCH   8  11
ATOM     11  C   LIG d   1      -2.139  91.279 121.000  0.00  0.00     0.028 C 
ATOM     12  C   LIG d   1      -0.823  91.715 120.337  0.00  0.00     0.006 C 
ENDBRANCH   8  11
ENDBRANCH   7   8
ENDBRANCH   1   7
BRANCH   6  13
ATOM     13  N   LIG d   1      -3.023  90.524 117.152  0.00  0.00    -0.311 N 
ATOM     14  C   LIG d   1      -2.272  89.544 117.652  0.00  0.00     0.210 C 
ATOM     15  C   LIG d   1      -0.791  89.603 117.264  0.00  0.00     0.109 C 
ATOM     16  O   LIG d   1      -2.698  88.614 118.353  0.00  0.00    -0.276 OA
ATOM     17  H   LIG d   1      -2.602  91.219 116.567  0.00  0.00     0.149 HD
ENDBRANCH   6  13
BRANCH   5  18
ATOM     18  N   LIG d   1      -5.239  89.864 115.156  0.00  0.00     0.381 N 
ATOM     19  H   LIG d   1      -5.365  88.986 115.617  0.00  0.00    -0.090 HD
ATOM     20  H   LIG d   1      -4.335  89.864 114.718  0.00  0.00    -0.090 HD
ATOM     21  H   LIG d   1      -5.949  89.991 114.468  0.00  0.00    -0.090 HD
ENDBRANCH   5  18
BRANCH   3  22
ATOM     22  C   LIG d   1      -8.105  92.841 117.577  0.00  0.00     0.382 C 
ATOM     23  O   LIG d   1      -8.538  93.298 118.662  0.00  0.00    -0.241 OA
ATOM     24  O   LIG d   1      -8.759  93.021 116.532  0.00  0.00    -0.241 OA
ENDBRANCH   3  22
TORSDOF 7
ENDMDL
MODEL 2
REMARK VINA RESULT:      -5.2     32.771     34.418
REMARK  7 active torsions:
REMARK  status: ('A' for Active; 'I' for Inactive)
REMARK    1  A    between atoms: C_2  and  C_3 
REMARK    2  A    between atoms: C_3  and  O_6 
REMARK    3  A    between atoms: C_3  and  C_4 
REMARK    4  A    between atoms: C_7  and  O_6 
REMARK    5  A    between atoms: C_9  and  C_10 
REMARK    6  A    between atoms: N_15  and  C_14 
REMARK    7  A    between atoms: N_20  and  C_19 
REMARK       I    between atoms: C_22  and  N_20 
ROOT
ATOM      1  C   LIG d   1       2.261  58.842 119.414  0.00  0.00     0.161 C 
ATOM      2  C   LIG d   1       1.113  58.952 118.612  0.00  0.00     0.016 C 
ATOM      3  C   LIG d   1       1.144  58.912 117.199  0.00  0.00     0.038 C 
ATOM      4  C   LIG d   1       2.317  58.608 116.492  0.00  0.00     0.028 C 
ATOM      5  C   LIG d   1       3.591  58.991 117.237  0.00  0.00    -0.047 C 
ATOM      6  C   LIG d   1       3.534  58.398 118.664  0.00  0.00     0.091 C 
ENDROOT
BRANCH   1   7
ATOM      7  O   LIG d   1       2.000  57.960 120.524  0.00  0.00    -0.368 OA
BRANCH   7   8
ATOM      8  C   LIG d   1       1.496  56.644 120.187  0.00  0.00     0.119 C 
BRANCH   8   9
ATOM      9  C   LIG d   1       0.355  56.319 121.170  0.00  0.00     0.028 C 
ATOM     10  C   LIG d   1      -1.034  56.468 120.528  0.00  0.00     0.006 C 
ENDBRANCH   8   9
BRANCH   8  11
ATOM     11  C   LIG d   1       2.556  55.564 120.423  0.00  0.00     0.028 C 
ATOM     12  C   LIG d   1       3.051  54.920 119.119  0.00  0.00     0.006 C 
ENDBRANCH   8  11
ENDBRANCH   7   8
ENDBRANCH   1   7
BRANCH   6  13
ATOM     13  N   LIG d   1       4.704  58.796 119.490  0.00  0.00    -0.311 N 
ATOM     14  C   LIG d   1       5.786  58.034 119.644  0.00  0.00     0.210 C 
ATOM     15  C   LIG d   1       6.868  58.624 120.553  0.00  0.00     0.109 C 
ATOM     16  O   LIG d   1       5.965  56.940 119.088  0.00  0.00    -0.276 OA
ATOM     17  H   LIG d   1       4.656  59.683 119.951  0.00  0.00     0.149 HD
ENDBRANCH   6  13
BRANCH   5  18
ATOM     18  N   LIG d   1       4.735  58.493 116.450  0.00  0.00     0.381 N 
ATOM     19  H   LIG d   1       5.165  57.725 116.925  0.00  0.00    -0.090 HD
ATOM     20  H   LIG d   1       5.413  59.229 116.361  0.00  0.00    -0.090 HD
ATOM     21  H   LIG d   1       4.427  58.204 115.547  0.00  0.00    -0.090 HD
ENDBRANCH   5  18
BRANCH   3  22
ATOM     22  C   LIG d   1       0.001  59.219 116.477  0.00  0.00     0.382 C 
ATOM     23  O   LIG d   1      -0.180  58.712 115.344  0.00  0.00    -0.241 OA
ATOM     24  O   LIG d   1      -0.831  60.031 116.926  0.00  0.00    -0.241 OA
ENDBRANCH   3  22
TORSDOF 7
ENDMDL
MODEL 3
REMARK VINA RESULT:      -5.1      2.432      4.752
REMARK  7 active torsions:
REMARK  status: ('A' for Active; 'I' for Inactive)
REMARK    1  A    between atoms: C_2  and  C_3 
REMARK    2  A    between atoms: C_3  and  O_6 
REMARK    3  A    between atoms: C_3  and  C_4 
REMARK    4  A    between atoms: C_7  and  O_6 
REMARK    5  A    between atoms: C_9  and  C_10 
REMARK    6  A    between atoms: N_15  and  C_14 
REMARK    7  A    between atoms: N_20  and  C_19 
REMARK       I    between atoms: C_22  and  N_20 
ROOT
ATOM      1  C   LIG d   1      -5.528  92.003 118.856  0.00  0.00     0.161 C 
ATOM      2  C   LIG d   1      -4.805  91.184 117.974  0.00  0.00     0.016 C 
ATOM      3  C   LIG d   1      -5.234  90.885 116.660  0.00  0.00     0.038 C 
ATOM      4  C   LIG d   1      -6.349  91.512 116.084  0.00  0.00     0.028 C 
ATOM      5  C   LIG d   1      -7.390  91.956 117.106  0.00  0.00    -0.047 C 
ATOM      6  C   LIG d   1      -6.690  92.785 118.207  0.00  0.00     0.091 C 
ENDROOT
BRANCH   1   7
ATOM      7  O   LIG d   1      -4.631  92.907 119.530  0.00  0.00    -0.368 OA
BRANCH   7   8
ATOM      8  C   LIG d   1      -3.236  92.518 119.558  0.00  0.00     0.119 C 
BRANCH   8   9
ATOM      9  C   LIG d   1      -2.924  92.016 120.982  0.00  0.00     0.028 C 
ATOM     10  C   LIG d   1      -2.494  90.539 121.002  0.00  0.00     0.006 C 
ENDBRANCH   8   9
BRANCH   8  11
ATOM     11  C   LIG d   1      -2.316  93.723 119.343  0.00  0.00     0.028 C 
ATOM     12  C   LIG d   1      -0.875  93.318 118.992  0.00  0.00     0.006 C 
ENDBRANCH   8  11
ENDBRANCH   7   8
ENDBRANCH   1   7
BRANCH   6  13
ATOM     13  N   LIG d   1      -7.622  93.188 119.292  0.00  0.00    -0.311 N 
ATOM     14  C   LIG d   1      -7.828  94.454 119.649  0.00  0.00     0.210 C 
ATOM     15  C   LIG d   1      -8.815  94.648 120.805  0.00  0.00     0.109 C 
ATOM     16  O   LIG d   1      -7.312  95.437 119.097  0.00  0.00    -0.276 OA
ATOM     17  H   LIG d   1      -8.107  92.455 119.773  0.00  0.00     0.149 HD
ENDBRANCH   6  13
BRANCH   5  18
ATOM     18  N   LIG d   1      -8.429  92.714 116.384  0.00  0.00     0.381 N 
ATOM     19  H   LIG d   1      -8.887  93.343 117.012  0.00  0.00    -0.090 HD
ATOM     20  H   LIG d   1      -9.112  92.070 116.027  0.00  0.00    -0.090 HD
ATOM     21  H   LIG d   1      -8.018  93.224 115.633  0.00  0.00    -0.090 HD
ENDBRANCH   5  18
BRANCH   3  22
ATOM     22  C   LIG d   1      -4.567  89.919 115.922  0.00  0.00     0.382 C 
ATOM     23  O   LIG d   1      -5.073  89.480 114.861  0.00  0.00    -0.241 OA
ATOM     24  O   LIG d   1      -3.487  89.449 116.327  0.00  0.00    -0.241 OA
ENDBRANCH   3  22
TORSDOF 7
ENDMDL
MODEL 4
REMARK VINA RESULT:      -5.0     15.463     17.991
REMARK  7 active torsions:
REMARK  status: ('A' for Active; 'I' for Inactive)
REMARK    1  A    between atoms: C_2  and  C_3 
REMARK    2  A    between atoms: C_3  and  O_6 
REMARK    3  A    between atoms: C_3  and  C_4 
REMARK    4  A    between atoms: C_7  and  O_6 
REMARK    5  A    between atoms: C_9  and  C_10 
REMARK    6  A    between atoms: N_15  and  C_14 
REMARK    7  A    between atoms: N_20  and  C_19 
REMARK       I    between atoms: C_22  and  N_20 
ROOT
ATOM      1  C   LIG d   1      -5.719  74.783 116.754  0.00  0.00     0.161 C 
ATOM      2  C   LIG d   1      -4.524  74.051 116.650  0.00  0.00     0.016 C 
ATOM      3  C   LIG d   1      -3.443  74.195 117.549  0.00  0.00     0.038 C 
ATOM      4  C   LIG d   1      -3.543  74.976 118.711  0.00  0.00     0.028 C 
ATOM      5  C   LIG d   1      -4.544  76.120 118.586  0.00  0.00    -0.047 C 
ATOM      6  C   LIG d   1      -5.890  75.557 118.078  0.00  0.00     0.091 C 
ENDROOT
BRANCH   1   7
ATOM      7  O   LIG d   1      -6.846  73.911 116.534  0.00  0.00    -0.368 OA
BRANCH   7   8
ATOM      8  C   LIG d   1      -7.477  73.373 117.722  0.00  0.00     0.119 C 
BRANCH   8   9
ATOM      9  C   LIG d   1      -6.980  71.924 117.893  0.00  0.00     0.028 C 
ATOM     10  C   LIG d   1      -6.915  71.164 116.558  0.00  0.00     0.006 C 
ENDBRANCH   8   9
BRANCH   8  11
ATOM     11  C   LIG d   1      -8.994  73.264 117.546  0.00  0.00     0.028 C 
ATOM     12  C   LIG d   1      -9.598  74.473 116.815  0.00  0.00     0.006 C 
ENDBRANCH   8  11
ENDBRANCH   7   8
ENDBRANCH   1   7
BRANCH   6  13
ATOM     13  N   LIG d   1      -6.900  76.623 117.848  0.00  0.00    -0.311 N 
ATOM     14  C   LIG d   1      -7.784  77.006 118.767  0.00  0.00     0.210 C 
ATOM     15  C   LIG d   1      -8.749  78.108 118.318  0.00  0.00     0.109 C 
ATOM     16  O   LIG d   1      -7.840  76.561 119.923  0.00  0.00    -0.276 OA
ATOM     17  H   LIG d   1      -6.905  77.060 116.947  0.00  0.00     0.149 HD
ENDBRANCH   6  13
BRANCH   5  18
ATOM     18  N   LIG d   1      -4.649  76.765 119.909  0.00  0.00     0.381 N 
ATOM     19  H   LIG d   1      -4.595  77.759 119.806  0.00  0.00    -0.090 HD
ATOM     20  H   LIG d   1      -3.879  76.465 120.480  0.00  0.00    -0.090 HD
ATOM     21  H   LIG d   1      -5.511  76.515 120.342  0.00  0.00    -0.090 HD
ENDBRANCH   5  18
BRANCH   3  22
ATOM     22  C   LIG d   1      -2.230  73.584 117.270  0.00  0.00     0.382 C 
ATOM     23  O   LIG d   1      -1.572  73.930 116.259  0.00  0.00    -0.241 OA
ATOM     24  O   LIG d   1      -1.807  72.661 117.990  0.00  0.00    -0.241 OA
ENDBRANCH   3  22
TORSDOF 7
ENDMDL
MODEL 5
REMARK VINA RESULT:      -4.9     15.277     17.205
REMARK  7 active torsions:
REMARK  status: ('A' for Active; 'I' for Inactive)
REMARK    1  A    between atoms: C_2  and  C_3 
REMARK    2  A    between atoms: C_3  and  O_6 
REMARK    3  A    between atoms: C_3  and  C_4 
REMARK    4  A    between atoms: C_7  and  O_6 
REMARK    5  A    between atoms: C_9  and  C_10 
REMARK    6  A    between atoms: N_15  and  C_14 
REMARK    7  A    between atoms: N_20  and  C_19 
REMARK       I    between atoms: C_22  and  N_20 
ROOT
ATOM      1  C   LIG d   1      -8.047  75.251 117.412  0.00  0.00     0.161 C 
ATOM      2  C   LIG d   1      -8.226  73.867 117.254  0.00  0.00     0.016 C 
ATOM      3  C   LIG d   1      -7.156  72.958 117.086  0.00  0.00     0.038 C 
ATOM      4  C   LIG d   1      -5.817  73.357 117.215  0.00  0.00     0.028 C 
ATOM      5  C   LIG d   1      -5.586  74.825 116.872  0.00  0.00    -0.047 C 
ATOM      6  C   LIG d   1      -6.590  75.690 117.668  0.00  0.00     0.091 C 
ENDROOT
BRANCH   1   7
ATOM      7  O   LIG d   1      -8.908  75.739 118.460  0.00  0.00    -0.368 OA
BRANCH   7   8
ATOM      8  C   LIG d   1      -9.941  76.670 118.055  0.00  0.00     0.119 C 
BRANCH   8   9
ATOM      9  C   LIG d   1      -9.615  78.032 118.698  0.00  0.00     0.028 C 
ATOM     10  C   LIG d   1      -8.868  77.886 120.035  0.00  0.00     0.006 C 
ENDBRANCH   8   9
BRANCH   8  11
ATOM     11  C   LIG d   1     -11.306  76.270 118.623  0.00  0.00     0.028 C 
ATOM     12  C   LIG d   1     -11.695  74.824 118.277  0.00  0.00     0.006 C 
ENDBRANCH   8  11
ENDBRANCH   7   8
ENDBRANCH   1   7
BRANCH   6  13
ATOM     13  N   LIG d   1      -6.489  77.133 117.327  0.00  0.00    -0.311 N 
ATOM     14  C   LIG d   1      -5.752  78.000 118.019  0.00  0.00     0.210 C 
ATOM     15  C   LIG d   1      -5.803  79.444 117.511  0.00  0.00     0.109 C 
ATOM     16  O   LIG d   1      -5.034  77.704 118.987  0.00  0.00    -0.276 OA
ATOM     17  H   LIG d   1      -7.014  77.454 116.537  0.00  0.00     0.149 HD
ENDBRANCH   6  13
BRANCH   5  18
ATOM     18  N   LIG d   1      -4.179  75.139 117.182  0.00  0.00     0.381 N 
ATOM     19  H   LIG d   1      -3.909  74.682 118.030  0.00  0.00    -0.090 HD
ATOM     20  H   LIG d   1      -4.089  76.131 117.317  0.00  0.00    -0.090 HD
ATOM     21  H   LIG d   1      -3.591  74.843 116.434  0.00  0.00    -0.090 HD
ENDBRANCH   5  18
BRANCH   3  22
ATOM     22  C   LIG d   1      -7.421  71.641 116.744  0.00  0.00     0.382 C 
ATOM     23  O   LIG d   1      -8.387  71.038 117.271  0.00  0.00    -0.241 OA
ATOM     24  O   LIG d   1      -6.679  71.033 115.949  0.00  0.00    -0.241 OA
ENDBRANCH   3  22
TORSDOF 7
ENDMDL
MODEL 6
REMARK VINA RESULT:      -4.9     15.775     17.852
REMARK  7 active torsions:
REMARK  status: ('A' for Active; 'I' for Inactive)
REMARK    1  A    between atoms: C_2  and  C_3 
REMARK    2  A    between atoms: C_3  and  O_6 
REMARK    3  A    between atoms: C_3  and  C_4 
REMARK    4  A    between atoms: C_7  and  O_6 
REMARK    5  A    between atoms: C_9  and  C_10 
REMARK    6  A    between atoms: N_15  and  C_14 
REMARK    7  A    between atoms: N_20  and  C_19 
REMARK       I    between atoms: C_22  and  N_20 
ROOT
ATOM      1  C   LIG d   1      -6.451  74.701 118.277  0.00  0.00     0.161 C 
ATOM      2  C   LIG d   1      -6.515  73.298 118.263  0.00  0.00     0.016 C 
ATOM      3  C   LIG d   1      -7.601  72.574 117.719  0.00  0.00     0.038 C 
ATOM      4  C   LIG d   1      -8.634  73.206 117.011  0.00  0.00     0.028 C 
ATOM      5  C   LIG d   1      -8.865  74.652 117.440  0.00  0.00    -0.047 C 
ATOM      6  C   LIG d   1      -7.516  75.405 117.410  0.00  0.00     0.091 C 
ENDROOT
BRANCH   1   7
ATOM      7  O   LIG d   1      -5.130  75.133 117.897  0.00  0.00    -0.368 OA
BRANCH   7   8
ATOM      8  C   LIG d   1      -4.237  74.101 117.411  0.00  0.00     0.119 C 
BRANCH   8   9
ATOM      9  C   LIG d   1      -2.925  74.209 118.212  0.00  0.00     0.028 C 
ATOM     10  C   LIG d   1      -1.884  73.164 117.777  0.00  0.00     0.006 C 
ENDBRANCH   8   9
BRANCH   8  11
ATOM     11  C   LIG d   1      -3.842  74.348 115.951  0.00  0.00     0.028 C 
ATOM     12  C   LIG d   1      -5.002  74.111 114.972  0.00  0.00     0.006 C 
ENDBRANCH   8  11
ENDBRANCH   7   8
ENDBRANCH   1   7
BRANCH   6  13
ATOM     13  N   LIG d   1      -7.638  76.805 117.896  0.00  0.00    -0.311 N 
ATOM     14  C   LIG d   1      -6.932  77.818 117.398  0.00  0.00     0.210 C 
ATOM     15  C   LIG d   1      -7.196  79.176 118.056  0.00  0.00     0.109 C 
ATOM     16  O   LIG d   1      -6.135  77.727 116.451  0.00  0.00    -0.276 OA
ATOM     17  H   LIG d   1      -8.284  76.974 118.642  0.00  0.00     0.149 HD
ENDBRANCH   6  13
BRANCH   5  18
ATOM     18  N   LIG d   1      -9.871  75.231 116.530  0.00  0.00     0.381 N 
ATOM     19  H   LIG d   1      -9.414  75.721 115.787  0.00  0.00    -0.090 HD
ATOM     20  H   LIG d   1     -10.433  75.887 117.042  0.00  0.00    -0.090 HD
ATOM     21  H   LIG d   1     -10.448  74.509 116.156  0.00  0.00    -0.090 HD
ENDBRANCH   5  18
BRANCH   3  22
ATOM     22  C   LIG d   1      -7.681  71.203 117.916  0.00  0.00     0.382 C 
ATOM     23  O   LIG d   1      -8.267  70.482 117.073  0.00  0.00    -0.241 OA
ATOM     24  O   LIG d   1      -7.213  70.685 118.948  0.00  0.00    -0.241 OA
ENDBRANCH   3  22
TORSDOF 7
ENDMDL
MODEL 7
REMARK VINA RESULT:      -4.8     15.087     16.680
REMARK  7 active torsions:
REMARK  status: ('A' for Active; 'I' for Inactive)
REMARK    1  A    between atoms: C_2  and  C_3 
REMARK    2  A    between atoms: C_3  and  O_6 
REMARK    3  A    between atoms: C_3  and  C_4 
REMARK    4  A    between atoms: C_7  and  O_6 
REMARK    5  A    between atoms: C_9  and  C_10 
REMARK    6  A    between atoms: N_15  and  C_14 
REMARK    7  A    between atoms: N_20  and  C_19 
REMARK       I    between atoms: C_22  and  N_20 
ROOT
ATOM      1  C   LIG d   1      -7.174  75.868 117.657  0.00  0.00     0.161 C 
ATOM      2  C   LIG d   1      -7.383  77.227 117.943  0.00  0.00     0.016 C 
ATOM      3  C   LIG d   1      -8.664  77.791 118.147  0.00  0.00     0.038 C 
ATOM      4  C   LIG d   1      -9.819  76.999 118.228  0.00  0.00     0.028 C 
ATOM      5  C   LIG d   1      -9.715  75.695 117.445  0.00  0.00    -0.047 C 
ATOM      6  C   LIG d   1      -8.412  74.968 117.851  0.00  0.00     0.091 C 
ENDROOT
BRANCH   1   7
ATOM      7  O   LIG d   1      -6.066  75.370 118.432  0.00  0.00    -0.368 OA
BRANCH   7   8
ATOM      8  C   LIG d   1      -5.060  74.625 117.702  0.00  0.00     0.119 C 
BRANCH   8   9
ATOM      9  C   LIG d   1      -3.704  74.887 118.385  0.00  0.00     0.028 C 
ATOM     10  C   LIG d   1      -2.595  73.958 117.863  0.00  0.00     0.006 C 
ENDBRANCH   8   9
BRANCH   8  11
ATOM     11  C   LIG d   1      -4.904  75.153 116.273  0.00  0.00     0.028 C 
ATOM     12  C   LIG d   1      -5.104  74.062 115.209  0.00  0.00     0.006 C 
ENDBRANCH   8  11
ENDBRANCH   7   8
ENDBRANCH   1   7
BRANCH   6  13
ATOM     13  N   LIG d   1      -8.191  73.723 117.070  0.00  0.00    -0.311 N 
ATOM     14  C   LIG d   1      -8.601  72.522 117.473  0.00  0.00     0.210 C 
ATOM     15  C   LIG d   1      -8.252  71.368 116.527  0.00  0.00     0.109 C 
ATOM     16  O   LIG d   1      -9.249  72.306 118.508  0.00  0.00    -0.276 OA
ATOM     17  H   LIG d   1      -7.700  73.811 116.201  0.00  0.00     0.149 HD
ENDBRANCH   6  13
BRANCH   5  18
ATOM     18  N   LIG d   1     -10.929  74.907 117.728  0.00  0.00     0.381 N 
ATOM     19  H   LIG d   1     -11.109  74.278 116.971  0.00  0.00    -0.090 HD
ATOM     20  H   LIG d   1     -11.711  75.533 117.810  0.00  0.00    -0.090 HD
ATOM     21  H   LIG d   1     -10.814  74.395 118.574  0.00  0.00    -0.090 HD
ENDBRANCH   5  18
BRANCH   3  22
ATOM     22  C   LIG d   1      -8.802  79.168 118.233  0.00  0.00     0.382 C 
ATOM     23  O   LIG d   1      -7.787  79.904 118.195  0.00  0.00    -0.241 OA
ATOM     24  O   LIG d   1      -9.926  79.681 118.392  0.00  0.00    -0.241 OA
ENDBRANCH   3  22
TORSDOF 7
ENDMDL
MODEL 8
REMARK VINA RESULT:      -4.8     15.734     17.781
REMARK  7 active torsions:
REMARK  status: ('A' for Active; 'I' for Inactive)
REMARK    1  A    between atoms: C_2  and  C_3 
REMARK    2  A    between atoms: C_3  and  O_6 
REMARK    3  A    between atoms: C_3  and  C_4 
REMARK    4  A    between atoms: C_7  and  O_6 
REMARK    5  A    between atoms: C_9  and  C_10 
REMARK    6  A    between atoms: N_15  and  C_14 
REMARK    7  A    between atoms: N_20  and  C_19 
REMARK       I    between atoms: C_22  and  N_20 
ROOT
ATOM      1  C   LIG d   1      -5.611  74.004 117.270  0.00  0.00     0.161 C 
ATOM      2  C   LIG d   1      -6.059  72.676 117.356  0.00  0.00     0.016 C 
ATOM      3  C   LIG d   1      -7.426  72.315 117.366  0.00  0.00     0.038 C 
ATOM      4  C   LIG d   1      -8.443  73.254 117.137  0.00  0.00     0.028 C 
ATOM      5  C   LIG d   1      -8.062  74.672 117.549  0.00  0.00    -0.047 C 
ATOM      6  C   LIG d   1      -6.703  75.033 116.907  0.00  0.00     0.091 C 
ENDROOT
BRANCH   1   7
ATOM      7  O   LIG d   1      -4.513  74.090 116.340  0.00  0.00    -0.368 OA
BRANCH   7   8
ATOM      8  C   LIG d   1      -3.259  74.575 116.878  0.00  0.00     0.119 C 
BRANCH   8   9
ATOM      9  C   LIG d   1      -2.381  75.009 115.688  0.00  0.00     0.028 C 
ATOM     10  C   LIG d   1      -2.173  76.532 115.637  0.00  0.00     0.006 C 
ENDBRANCH   8   9
BRANCH   8  11
ATOM     11  C   LIG d   1      -2.478  73.452 117.569  0.00  0.00     0.028 C 
ATOM     12  C   LIG d   1      -1.692  73.941 118.796  0.00  0.00     0.006 C 
ENDBRANCH   8  11
ENDBRANCH   7   8
ENDBRANCH   1   7
BRANCH   6  13
ATOM     13  N   LIG d   1      -6.216  76.373 117.327  0.00  0.00    -0.311 N 
ATOM     14  C   LIG d   1      -5.732  77.276 116.477  0.00  0.00     0.210 C 
ATOM     15  C   LIG d   1      -5.265  78.586 117.121  0.00  0.00     0.109 C 
ATOM     16  O   LIG d   1      -5.674  77.130 115.247  0.00  0.00    -0.276 OA
ATOM     17  H   LIG d   1      -6.255  76.587 118.304  0.00  0.00     0.149 HD
ENDBRANCH   6  13
BRANCH   5  18
ATOM     18  N   LIG d   1      -9.156  75.567 117.129  0.00  0.00     0.381 N 
ATOM     19  H   LIG d   1     -10.007  75.048 117.047  0.00  0.00    -0.090 HD
ATOM     20  H   LIG d   1      -8.933  75.952 116.228  0.00  0.00    -0.090 HD
ATOM     21  H   LIG d   1      -9.270  76.302 117.793  0.00  0.00    -0.090 HD
ENDBRANCH   5  18
BRANCH   3  22
ATOM     22  C   LIG d   1      -7.790  71.007 117.648  0.00  0.00     0.382 C 
ATOM     23  O   LIG d   1      -8.393  70.324 116.785  0.00  0.00    -0.241 OA
ATOM     24  O   LIG d   1      -7.561  70.515 118.769  0.00  0.00    -0.241 OA
ENDBRANCH   3  22
TORSDOF 7
ENDMDL
MODEL 9
REMARK VINA RESULT:      -4.7     14.358     16.041
REMARK  7 active torsions:
REMARK  status: ('A' for Active; 'I' for Inactive)
REMARK    1  A    between atoms: C_2  and  C_3 
REMARK    2  A    between atoms: C_3  and  O_6 
REMARK    3  A    between atoms: C_3  and  C_4 
REMARK    4  A    between atoms: C_7  and  O_6 
REMARK    5  A    between atoms: C_9  and  C_10 
REMARK    6  A    between atoms: N_15  and  C_14 
REMARK    7  A    between atoms: N_20  and  C_19 
REMARK       I    between atoms: C_22  and  N_20 
ROOT
ATOM      1  C   LIG d   1      -6.302  76.154 115.855  0.00  0.00     0.161 C 
ATOM      2  C   LIG d   1      -7.602  75.802 116.254  0.00  0.00     0.016 C 
ATOM      3  C   LIG d   1      -7.909  74.604 116.940  0.00  0.00     0.038 C 
ATOM      4  C   LIG d   1      -6.907  73.742 117.410  0.00  0.00     0.028 C 
ATOM      5  C   LIG d   1      -5.621  73.804 116.592  0.00  0.00    -0.047 C 
ATOM      6  C   LIG d   1      -5.182  75.280 116.457  0.00  0.00     0.091 C 
ENDROOT
BRANCH   1   7
ATOM      7  O   LIG d   1      -6.062  77.545 116.145  0.00  0.00    -0.368 OA
BRANCH   7   8
ATOM      8  C   LIG d   1      -5.911  77.888 117.544  0.00  0.00     0.119 C 
BRANCH   8   9
ATOM      9  C   LIG d   1      -6.826  79.095 117.827  0.00  0.00     0.028 C 
ATOM     10  C   LIG d   1      -8.201  78.674 118.371  0.00  0.00     0.006 C 
ENDBRANCH   8   9
BRANCH   8  11
ATOM     11  C   LIG d   1      -4.491  78.376 117.848  0.00  0.00     0.028 C 
ATOM     12  C   LIG d   1      -3.807  79.014 116.628  0.00  0.00     0.006 C 
ENDBRANCH   8  11
ENDBRANCH   7   8
ENDBRANCH   1   7
BRANCH   6  13
ATOM     13  N   LIG d   1      -3.979  75.437 115.600  0.00  0.00    -0.311 N 
ATOM     14  C   LIG d   1      -2.739  75.504 116.082  0.00  0.00     0.210 C 
ATOM     15  C   LIG d   1      -1.644  75.687 115.026  0.00  0.00     0.109 C 
ATOM     16  O   LIG d   1      -2.439  75.396 117.280  0.00  0.00    -0.276 OA
ATOM     17  H   LIG d   1      -4.128  75.501 114.612  0.00  0.00     0.149 HD
ENDBRANCH   6  13
BRANCH   5  18
ATOM     18  N   LIG d   1      -4.619  72.962 117.272  0.00  0.00     0.381 N 
ATOM     19  H   LIG d   1      -3.752  73.457 117.341  0.00  0.00    -0.090 HD
ATOM     20  H   LIG d   1      -4.466  72.133 116.726  0.00  0.00    -0.090 HD
ATOM     21  H   LIG d   1      -4.942  72.715 118.182  0.00  0.00    -0.090 HD
ENDBRANCH   5  18
BRANCH   3  22
ATOM     22  C   LIG d   1      -9.233  74.238 117.127  0.00  0.00     0.382 C 
ATOM     23  O   LIG d   1      -9.522  73.316 117.927  0.00  0.00    -0.241 OA
ATOM     24  O   LIG d   1     -10.139  74.789 116.472  0.00  0.00    -0.241 OA
ENDBRANCH   3  22
TORSDOF 7
ENDMDL
