MODEL 1
REMARK VINA RESULT:      -5.3      0.000      0.000
REMARK  7 active torsions:
REMARK  status: ('A' for Active; 'I' for Inactive)
REMARK    1  A    between atoms: C_2  and  C_3 
REMARK    2  A    between atoms: C_3  and  O_6 
REMARK    3  A    between atoms: C_3  and  C_4 
REMARK    4  A    between atoms: C_7  and  O_6 
REMARK    5  A    between atoms: C_9  and  C_10 
REMARK    6  A    between atoms: N_15  and  C_14 
REMARK    7  A    between atoms: N_20  and  C_19 
REMARK       I    between atoms: C_22  and  N_20 
ROOT
ATOM      1  C   LIG d   1      -4.726  92.229 118.440  0.00  0.00     0.161 C 
ATOM      2  C   LIG d   1      -5.029  93.329 119.260  0.00  0.00     0.016 C 
ATOM      3  C   LIG d   1      -6.199  94.109 119.114  0.00  0.00     0.038 C 
ATOM      4  C   LIG d   1      -7.226  93.747 118.230  0.00  0.00     0.028 C 
ATOM      5  C   LIG d   1      -6.738  92.938 117.033  0.00  0.00    -0.047 C 
ATOM      6  C   LIG d   1      -5.887  91.752 117.543  0.00  0.00     0.091 C 
ENDROOT
BRANCH   1   7
ATOM      7  O   LIG d   1      -4.235  91.140 119.246  0.00  0.00    -0.368 OA
BRANCH   7   8
ATOM      8  C   LIG d   1      -2.803  91.103 119.464  0.00  0.00     0.119 C 
BRANCH   8   9
ATOM      9  C   LIG d   1      -2.125  91.066 118.080  0.00  0.00     0.028 C 
ATOM     10  C   LIG d   1      -2.021  89.640 117.516  0.00  0.00     0.006 C 
ENDBRANCH   8   9
BRANCH   8  11
ATOM     11  C   LIG d   1      -2.379  89.805 120.158  0.00  0.00     0.028 C 
ATOM     12  C   LIG d   1      -3.268  89.455 121.362  0.00  0.00     0.006 C 
ENDBRANCH   8  11
ENDBRANCH   7   8
ENDBRANCH   1   7
BRANCH   6  13
ATOM     13  N   LIG d   1      -5.301  90.957 116.433  0.00  0.00    -0.311 N 
ATOM     14  C   LIG d   1      -5.869  89.859 115.937  0.00  0.00     0.210 C 
ATOM     15  C   LIG d   1      -5.087  89.180 114.808  0.00  0.00     0.109 C 
ATOM     16  O   LIG d   1      -6.962  89.402 116.304  0.00  0.00    -0.276 OA
ATOM     17  H   LIG d   1      -4.430  91.275 116.054  0.00  0.00     0.149 HD
ENDBRANCH   6  13
BRANCH   5  18
ATOM     18  N   LIG d   1      -7.926  92.511 116.270  0.00  0.00     0.381 N 
ATOM     19  H   LIG d   1      -7.865  91.534 116.066  0.00  0.00    -0.090 HD
ATOM     20  H   LIG d   1      -7.950  93.013 115.399  0.00  0.00    -0.090 HD
ATOM     21  H   LIG d   1      -8.753  92.698 116.793  0.00  0.00    -0.090 HD
ENDBRANCH   5  18
BRANCH   3  22
ATOM     22  C   LIG d   1      -6.332  95.289 119.831  0.00  0.00     0.382 C 
ATOM     23  O   LIG d   1      -5.812  95.393 120.968  0.00  0.00    -0.241 OA
ATOM     24  O   LIG d   1      -7.003  96.233 119.374  0.00  0.00    -0.241 OA
ENDBRANCH   3  22
TORSDOF 7
ENDMDL
MODEL 2
REMARK VINA RESULT:      -5.3      2.053      5.001
REMARK  7 active torsions:
REMARK  status: ('A' for Active; 'I' for Inactive)
REMARK    1  A    between atoms: C_2  and  C_3 
REMARK    2  A    between atoms: C_3  and  O_6 
REMARK    3  A    between atoms: C_3  and  C_4 
REMARK    4  A    between atoms: C_7  and  O_6 
REMARK    5  A    between atoms: C_9  and  C_10 
REMARK    6  A    between atoms: N_15  and  C_14 
REMARK    7  A    between atoms: N_20  and  C_19 
REMARK       I    between atoms: C_22  and  N_20 
ROOT
ATOM      1  C   LIG d   1      -5.525  91.225 119.002  0.00  0.00     0.161 C 
ATOM      2  C   LIG d   1      -4.753  90.413 118.154  0.00  0.00     0.016 C 
ATOM      3  C   LIG d   1      -4.945  90.344 116.755  0.00  0.00     0.038 C 
ATOM      4  C   LIG d   1      -5.830  91.203 116.085  0.00  0.00     0.028 C 
ATOM      5  C   LIG d   1      -6.988  91.679 116.956  0.00  0.00    -0.047 C 
ATOM      6  C   LIG d   1      -6.420  92.251 118.276  0.00  0.00     0.091 C 
ENDROOT
BRANCH   1   7
ATOM      7  O   LIG d   1      -4.670  91.890 119.953  0.00  0.00    -0.368 OA
BRANCH   7   8
ATOM      8  C   LIG d   1      -4.054  93.122 119.503  0.00  0.00     0.119 C 
BRANCH   8   9
ATOM      9  C   LIG d   1      -2.528  92.907 119.515  0.00  0.00     0.028 C 
ATOM     10  C   LIG d   1      -1.943  92.773 118.099  0.00  0.00     0.006 C 
ENDBRANCH   8   9
BRANCH   8  11
ATOM     11  C   LIG d   1      -4.310  94.265 120.490  0.00  0.00     0.028 C 
ATOM     12  C   LIG d   1      -4.510  95.620 119.792  0.00  0.00     0.006 C 
ENDBRANCH   8  11
ENDBRANCH   7   8
ENDBRANCH   1   7
BRANCH   6  13
ATOM     13  N   LIG d   1      -7.490  92.663 119.222  0.00  0.00    -0.311 N 
ATOM     14  C   LIG d   1      -7.961  93.906 119.299  0.00  0.00     0.210 C 
ATOM     15  C   LIG d   1      -9.049  94.120 120.356  0.00  0.00     0.109 C 
ATOM     16  O   LIG d   1      -7.604  94.844 118.571  0.00  0.00    -0.276 OA
ATOM     17  H   LIG d   1      -7.859  91.957 119.828  0.00  0.00     0.149 HD
ENDBRANCH   6  13
BRANCH   5  18
ATOM     18  N   LIG d   1      -7.752  92.672 116.178  0.00  0.00     0.381 N 
ATOM     19  H   LIG d   1      -7.238  92.928 115.358  0.00  0.00    -0.090 HD
ATOM     20  H   LIG d   1      -7.882  93.495 116.739  0.00  0.00    -0.090 HD
ATOM     21  H   LIG d   1      -8.637  92.294 115.919  0.00  0.00    -0.090 HD
ENDBRANCH   5  18
BRANCH   3  22
ATOM     22  C   LIG d   1      -4.276  89.381 116.016  0.00  0.00     0.382 C 
ATOM     23  O   LIG d   1      -4.805  88.905 114.982  0.00  0.00    -0.241 OA
ATOM     24  O   LIG d   1      -3.171  88.949 116.394  0.00  0.00    -0.241 OA
ENDBRANCH   3  22
TORSDOF 7
ENDMDL
MODEL 3
REMARK VINA RESULT:      -5.2      2.449      5.819
REMARK  7 active torsions:
REMARK  status: ('A' for Active; 'I' for Inactive)
REMARK    1  A    between atoms: C_2  and  C_3 
REMARK    2  A    between atoms: C_3  and  O_6 
REMARK    3  A    between atoms: C_3  and  C_4 
REMARK    4  A    between atoms: C_7  and  O_6 
REMARK    5  A    between atoms: C_9  and  C_10 
REMARK    6  A    between atoms: N_15  and  C_14 
REMARK    7  A    between atoms: N_20  and  C_19 
REMARK       I    between atoms: C_22  and  N_20 
ROOT
ATOM      1  C   LIG d   1      -5.815  92.603 118.159  0.00  0.00     0.161 C 
ATOM      2  C   LIG d   1      -6.664  91.705 117.491  0.00  0.00     0.016 C 
ATOM      3  C   LIG d   1      -6.207  90.531 116.850  0.00  0.00     0.038 C 
ATOM      4  C   LIG d   1      -4.879  90.093 116.964  0.00  0.00     0.028 C 
ATOM      5  C   LIG d   1      -3.886  91.226 117.202  0.00  0.00    -0.047 C 
ATOM      6  C   LIG d   1      -4.380  92.084 118.389  0.00  0.00     0.091 C 
ENDROOT
BRANCH   1   7
ATOM      7  O   LIG d   1      -6.411  93.000 119.410  0.00  0.00    -0.368 OA
BRANCH   7   8
ATOM      8  C   LIG d   1      -7.319  94.127 119.353  0.00  0.00     0.119 C 
BRANCH   8   9
ATOM      9  C   LIG d   1      -6.464  95.409 119.309  0.00  0.00     0.028 C 
ATOM     10  C   LIG d   1      -5.560  95.554 120.545  0.00  0.00     0.006 C 
ENDBRANCH   8   9
BRANCH   8  11
ATOM     11  C   LIG d   1      -8.150  94.238 120.635  0.00  0.00     0.028 C 
ATOM     12  C   LIG d   1      -9.622  93.848 120.427  0.00  0.00     0.006 C 
ENDBRANCH   8  11
ENDBRANCH   7   8
ENDBRANCH   1   7
BRANCH   6  13
ATOM     13  N   LIG d   1      -3.510  93.264 118.636  0.00  0.00    -0.311 N 
ATOM     14  C   LIG d   1      -2.496  93.259 119.500  0.00  0.00     0.210 C 
ATOM     15  C   LIG d   1      -1.740  94.587 119.617  0.00  0.00     0.109 C 
ATOM     16  O   LIG d   1      -2.132  92.273 120.158  0.00  0.00    -0.276 OA
ATOM     17  H   LIG d   1      -3.715  94.098 118.121  0.00  0.00     0.149 HD
ENDBRANCH   6  13
BRANCH   5  18
ATOM     18  N   LIG d   1      -2.564  90.617 117.439  0.00  0.00     0.381 N 
ATOM     19  H   LIG d   1      -1.864  91.331 117.475  0.00  0.00    -0.090 HD
ATOM     20  H   LIG d   1      -2.348  90.001 116.675  0.00  0.00    -0.090 HD
ATOM     21  H   LIG d   1      -2.572  90.106 118.295  0.00  0.00    -0.090 HD
ENDBRANCH   5  18
BRANCH   3  22
ATOM     22  C   LIG d   1      -7.075  89.802 116.050  0.00  0.00     0.382 C 
ATOM     23  O   LIG d   1      -7.056  89.953 114.805  0.00  0.00    -0.241 OA
ATOM     24  O   LIG d   1      -7.906  89.028 116.562  0.00  0.00    -0.241 OA
ENDBRANCH   3  22
TORSDOF 7
ENDMDL
MODEL 4
REMARK VINA RESULT:      -5.1      2.633      4.110
REMARK  7 active torsions:
REMARK  status: ('A' for Active; 'I' for Inactive)
REMARK    1  A    between atoms: C_2  and  C_3 
REMARK    2  A    between atoms: C_3  and  O_6 
REMARK    3  A    between atoms: C_3  and  C_4 
REMARK    4  A    between atoms: C_7  and  O_6 
REMARK    5  A    between atoms: C_9  and  C_10 
REMARK    6  A    between atoms: N_15  and  C_14 
REMARK    7  A    between atoms: N_20  and  C_19 
REMARK       I    between atoms: C_22  and  N_20 
ROOT
ATOM      1  C   LIG d   1      -4.622  92.097 118.745  0.00  0.00     0.161 C 
ATOM      2  C   LIG d   1      -5.917  92.244 118.222  0.00  0.00     0.016 C 
ATOM      3  C   LIG d   1      -6.704  93.404 118.406  0.00  0.00     0.038 C 
ATOM      4  C   LIG d   1      -6.186  94.564 119.002  0.00  0.00     0.028 C 
ATOM      5  C   LIG d   1      -5.058  94.285 119.990  0.00  0.00    -0.047 C 
ATOM      6  C   LIG d   1      -3.998  93.393 119.303  0.00  0.00     0.091 C 
ENDROOT
BRANCH   1   7
ATOM      7  O   LIG d   1      -3.757  91.512 117.751  0.00  0.00    -0.368 OA
BRANCH   7   8
ATOM      8  C   LIG d   1      -3.085  90.287 118.132  0.00  0.00     0.119 C 
BRANCH   8   9
ATOM      9  C   LIG d   1      -3.140  89.333 116.923  0.00  0.00     0.028 C 
ATOM     10  C   LIG d   1      -4.384  89.565 116.049  0.00  0.00     0.006 C 
ENDBRANCH   8   9
BRANCH   8  11
ATOM     11  C   LIG d   1      -3.836  89.564 119.254  0.00  0.00     0.028 C 
ATOM     12  C   LIG d   1      -3.014  89.453 120.547  0.00  0.00     0.006 C 
ENDBRANCH   8  11
ENDBRANCH   7   8
ENDBRANCH   1   7
BRANCH   6  13
ATOM     13  N   LIG d   1      -2.901  93.004 120.226  0.00  0.00    -0.311 N 
ATOM     14  C   LIG d   1      -1.610  93.170 119.941  0.00  0.00     0.210 C 
ATOM     15  C   LIG d   1      -0.642  92.682 121.023  0.00  0.00     0.109 C 
ATOM     16  O   LIG d   1      -1.176  93.704 118.910  0.00  0.00    -0.276 OA
ATOM     17  H   LIG d   1      -3.164  92.591 121.099  0.00  0.00     0.149 HD
ENDBRANCH   6  13
BRANCH   5  18
ATOM     18  N   LIG d   1      -4.520  95.586 120.431  0.00  0.00     0.381 N 
ATOM     19  H   LIG d   1      -5.155  96.015 121.074  0.00  0.00    -0.090 HD
ATOM     20  H   LIG d   1      -4.427  96.187 119.631  0.00  0.00    -0.090 HD
ATOM     21  H   LIG d   1      -3.632  95.459 120.865  0.00  0.00    -0.090 HD
ENDBRANCH   5  18
BRANCH   3  22
ATOM     22  C   LIG d   1      -8.037  93.398 118.027  0.00  0.00     0.382 C 
ATOM     23  O   LIG d   1      -8.343  93.378 116.810  0.00  0.00    -0.241 OA
ATOM     24  O   LIG d   1      -8.938  93.456 118.885  0.00  0.00    -0.241 OA
ENDBRANCH   3  22
TORSDOF 7
ENDMDL
MODEL 5
REMARK VINA RESULT:      -5.0      2.458      4.936
REMARK  7 active torsions:
REMARK  status: ('A' for Active; 'I' for Inactive)
REMARK    1  A    between atoms: C_2  and  C_3 
REMARK    2  A    between atoms: C_3  and  O_6 
REMARK    3  A    between atoms: C_3  and  C_4 
REMARK    4  A    between atoms: C_7  and  O_6 
REMARK    5  A    between atoms: C_9  and  C_10 
REMARK    6  A    between atoms: N_15  and  C_14 
REMARK    7  A    between atoms: N_20  and  C_19 
REMARK       I    between atoms: C_22  and  N_20 
ROOT
ATOM      1  C   LIG d   1      -3.688  90.973 118.123  0.00  0.00     0.161 C 
ATOM      2  C   LIG d   1      -4.433  90.215 117.205  0.00  0.00     0.016 C 
ATOM      3  C   LIG d   1      -5.680  90.629 116.683  0.00  0.00     0.038 C 
ATOM      4  C   LIG d   1      -6.198  91.909 116.931  0.00  0.00     0.028 C 
ATOM      5  C   LIG d   1      -5.726  92.509 118.251  0.00  0.00    -0.047 C 
ATOM      6  C   LIG d   1      -4.184  92.421 118.319  0.00  0.00     0.091 C 
ENDROOT
BRANCH   1   7
ATOM      7  O   LIG d   1      -2.297  90.967 117.746  0.00  0.00    -0.368 OA
BRANCH   7   8
ATOM      8  C   LIG d   1      -1.520  89.828 118.194  0.00  0.00     0.119 C 
BRANCH   8   9
ATOM      9  C   LIG d   1      -1.103  90.097 119.653  0.00  0.00     0.028 C 
ATOM     10  C   LIG d   1       0.017  91.147 119.759  0.00  0.00     0.006 C 
ENDBRANCH   8   9
BRANCH   8  11
ATOM     11  C   LIG d   1      -0.208  89.706 117.413  0.00  0.00     0.028 C 
ATOM     12  C   LIG d   1       0.197  88.247 117.153  0.00  0.00     0.006 C 
ENDBRANCH   8  11
ENDBRANCH   7   8
ENDBRANCH   1   7
BRANCH   6  13
ATOM     13  N   LIG d   1      -3.645  92.910 119.614  0.00  0.00    -0.311 N 
ATOM     14  C   LIG d   1      -2.587  93.714 119.712  0.00  0.00     0.210 C 
ATOM     15  C   LIG d   1      -2.185  94.082 121.143  0.00  0.00     0.109 C 
ATOM     16  O   LIG d   1      -1.964  94.183 118.748  0.00  0.00    -0.276 OA
ATOM     17  H   LIG d   1      -4.109  92.603 120.447  0.00  0.00     0.149 HD
ENDBRANCH   6  13
BRANCH   5  18
ATOM     18  N   LIG d   1      -6.229  93.894 118.316  0.00  0.00     0.381 N 
ATOM     19  H   LIG d   1      -6.773  94.018 119.147  0.00  0.00    -0.090 HD
ATOM     20  H   LIG d   1      -6.822  94.063 117.523  0.00  0.00    -0.090 HD
ATOM     21  H   LIG d   1      -5.466  94.535 118.312  0.00  0.00    -0.090 HD
ENDBRANCH   5  18
BRANCH   3  22
ATOM     22  C   LIG d   1      -6.442  89.744 115.936  0.00  0.00     0.382 C 
ATOM     23  O   LIG d   1      -6.044  89.374 114.805  0.00  0.00    -0.241 OA
ATOM     24  O   LIG d   1      -7.543  89.344 116.360  0.00  0.00    -0.241 OA
ENDBRANCH   3  22
TORSDOF 7
ENDMDL
MODEL 6
REMARK VINA RESULT:      -5.0      1.055      1.407
REMARK  7 active torsions:
REMARK  status: ('A' for Active; 'I' for Inactive)
REMARK    1  A    between atoms: C_2  and  C_3 
REMARK    2  A    between atoms: C_3  and  O_6 
REMARK    3  A    between atoms: C_3  and  C_4 
REMARK    4  A    between atoms: C_7  and  O_6 
REMARK    5  A    between atoms: C_9  and  C_10 
REMARK    6  A    between atoms: N_15  and  C_14 
REMARK    7  A    between atoms: N_20  and  C_19 
REMARK       I    between atoms: C_22  and  N_20 
ROOT
ATOM      1  C   LIG d   1      -4.291  92.137 118.393  0.00  0.00     0.161 C 
ATOM      2  C   LIG d   1      -4.060  93.070 119.417  0.00  0.00     0.016 C 
ATOM      3  C   LIG d   1      -5.036  93.988 119.868  0.00  0.00     0.038 C 
ATOM      4  C   LIG d   1      -6.366  93.933 119.425  0.00  0.00     0.028 C 
ATOM      5  C   LIG d   1      -6.516  93.340 118.029  0.00  0.00    -0.047 C 
ATOM      6  C   LIG d   1      -5.769  91.987 117.975  0.00  0.00     0.091 C 
ENDROOT
BRANCH   1   7
ATOM      7  O   LIG d   1      -3.744  90.857 118.766  0.00  0.00    -0.368 OA
BRANCH   7   8
ATOM      8  C   LIG d   1      -2.303  90.794 118.900  0.00  0.00     0.119 C 
BRANCH   8   9
ATOM      9  C   LIG d   1      -1.756  90.042 117.671  0.00  0.00     0.028 C 
ATOM     10  C   LIG d   1      -2.849  89.252 116.932  0.00  0.00     0.006 C 
ENDBRANCH   8   9
BRANCH   8  11
ATOM     11  C   LIG d   1      -1.892  89.949 120.109  0.00  0.00     0.028 C 
ATOM     12  C   LIG d   1      -3.095  89.451 120.924  0.00  0.00     0.006 C 
ENDBRANCH   8  11
ENDBRANCH   7   8
ENDBRANCH   1   7
BRANCH   6  13
ATOM     13  N   LIG d   1      -5.795  91.379 116.620  0.00  0.00    -0.311 N 
ATOM     14  C   LIG d   1      -6.586  90.361 116.287  0.00  0.00     0.210 C 
ATOM     15  C   LIG d   1      -6.440  89.872 114.843  0.00  0.00     0.109 C 
ATOM     16  O   LIG d   1      -7.419  89.837 117.043  0.00  0.00    -0.276 OA
ATOM     17  H   LIG d   1      -5.173  91.763 115.935  0.00  0.00     0.149 HD
ENDBRANCH   6  13
BRANCH   5  18
ATOM     18  N   LIG d   1      -7.959  93.215 117.750  0.00  0.00     0.381 N 
ATOM     19  H   LIG d   1      -8.097  92.714 116.895  0.00  0.00    -0.090 HD
ATOM     20  H   LIG d   1      -8.350  94.134 117.643  0.00  0.00    -0.090 HD
ATOM     21  H   LIG d   1      -8.411  92.738 118.499  0.00  0.00    -0.090 HD
ENDBRANCH   5  18
BRANCH   3  22
ATOM     22  C   LIG d   1      -4.675  95.001 120.743  0.00  0.00     0.382 C 
ATOM     23  O   LIG d   1      -5.451  95.967 120.938  0.00  0.00    -0.241 OA
ATOM     24  O   LIG d   1      -3.563  94.983 121.305  0.00  0.00    -0.241 OA
ENDBRANCH   3  22
TORSDOF 7
ENDMDL
MODEL 7
REMARK VINA RESULT:      -4.9     12.274     14.320
REMARK  7 active torsions:
REMARK  status: ('A' for Active; 'I' for Inactive)
REMARK    1  A    between atoms: C_2  and  C_3 
REMARK    2  A    between atoms: C_3  and  O_6 
REMARK    3  A    between atoms: C_3  and  C_4 
REMARK    4  A    between atoms: C_7  and  O_6 
REMARK    5  A    between atoms: C_9  and  C_10 
REMARK    6  A    between atoms: N_15  and  C_14 
REMARK    7  A    between atoms: N_20  and  C_19 
REMARK       I    between atoms: C_22  and  N_20 
ROOT
ATOM      1  C   LIG d   1      -6.206  77.963 117.221  0.00  0.00     0.161 C 
ATOM      2  C   LIG d   1      -7.542  78.040 117.648  0.00  0.00     0.016 C 
ATOM      3  C   LIG d   1      -8.081  79.163 118.317  0.00  0.00     0.038 C 
ATOM      4  C   LIG d   1      -7.355  80.354 118.471  0.00  0.00     0.028 C 
ATOM      5  C   LIG d   1      -5.845  80.142 118.505  0.00  0.00    -0.047 C 
ATOM      6  C   LIG d   1      -5.430  79.295 117.281  0.00  0.00     0.091 C 
ENDROOT
BRANCH   1   7
ATOM      7  O   LIG d   1      -6.150  77.409 115.891  0.00  0.00    -0.368 OA
BRANCH   7   8
ATOM      8  C   LIG d   1      -5.564  76.089 115.774  0.00  0.00     0.119 C 
BRANCH   8   9
ATOM      9  C   LIG d   1      -4.371  76.197 114.805  0.00  0.00     0.028 C 
ATOM     10  C   LIG d   1      -3.050  75.742 115.448  0.00  0.00     0.006 C 
ENDBRANCH   8   9
BRANCH   8  11
ATOM     11  C   LIG d   1      -6.534  75.105 115.115  0.00  0.00     0.028 C 
ATOM     12  C   LIG d   1      -5.905  73.725 114.865  0.00  0.00     0.006 C 
ENDBRANCH   8  11
ENDBRANCH   7   8
ENDBRANCH   1   7
BRANCH   6  13
ATOM     13  N   LIG d   1      -3.979  78.970 117.282  0.00  0.00    -0.311 N 
ATOM     14  C   LIG d   1      -3.138  79.369 116.331  0.00  0.00     0.210 C 
ATOM     15  C   LIG d   1      -1.688  78.908 116.514  0.00  0.00     0.109 C 
ATOM     16  O   LIG d   1      -3.447  80.089 115.369  0.00  0.00    -0.276 OA
ATOM     17  H   LIG d   1      -3.637  78.416 118.043  0.00  0.00     0.149 HD
ENDBRANCH   6  13
BRANCH   5  18
ATOM     18  N   LIG d   1      -5.209  81.473 118.530  0.00  0.00     0.381 N 
ATOM     19  H   LIG d   1      -5.329  81.922 117.644  0.00  0.00    -0.090 HD
ATOM     20  H   LIG d   1      -4.225  81.359 118.696  0.00  0.00    -0.090 HD
ATOM     21  H   LIG d   1      -5.613  82.030 119.250  0.00  0.00    -0.090 HD
ENDBRANCH   5  18
BRANCH   3  22
ATOM     22  C   LIG d   1      -9.348  79.087 118.876  0.00  0.00     0.382 C 
ATOM     23  O   LIG d   1      -9.498  79.243 120.112  0.00  0.00    -0.241 OA
ATOM     24  O   LIG d   1     -10.337  78.822 118.166  0.00  0.00    -0.241 OA
ENDBRANCH   3  22
TORSDOF 7
ENDMDL
MODEL 8
REMARK VINA RESULT:      -4.7      1.578      2.158
REMARK  7 active torsions:
REMARK  status: ('A' for Active; 'I' for Inactive)
REMARK    1  A    between atoms: C_2  and  C_3 
REMARK    2  A    between atoms: C_3  and  O_6 
REMARK    3  A    between atoms: C_3  and  C_4 
REMARK    4  A    between atoms: C_7  and  O_6 
REMARK    5  A    between atoms: C_9  and  C_10 
REMARK    6  A    between atoms: N_15  and  C_14 
REMARK    7  A    between atoms: N_20  and  C_19 
REMARK       I    between atoms: C_22  and  N_20 
ROOT
ATOM      1  C   LIG d   1      -4.963  91.793 118.855  0.00  0.00     0.161 C 
ATOM      2  C   LIG d   1      -4.325  92.894 119.451  0.00  0.00     0.016 C 
ATOM      3  C   LIG d   1      -4.912  94.177 119.543  0.00  0.00     0.038 C 
ATOM      4  C   LIG d   1      -6.246  94.411 119.178  0.00  0.00     0.028 C 
ATOM      5  C   LIG d   1      -6.757  93.452 118.108  0.00  0.00    -0.047 C 
ATOM      6  C   LIG d   1      -6.462  92.001 118.551  0.00  0.00     0.091 C 
ENDROOT
BRANCH   1   7
ATOM      7  O   LIG d   1      -4.775  90.620 119.671  0.00  0.00    -0.368 OA
BRANCH   7   8
ATOM      8  C   LIG d   1      -3.790  89.668 119.200  0.00  0.00     0.119 C 
BRANCH   8   9
ATOM      9  C   LIG d   1      -2.653  89.626 120.240  0.00  0.00     0.028 C 
ATOM     10  C   LIG d   1      -1.285  89.974 119.629  0.00  0.00     0.006 C 
ENDBRANCH   8   9
BRANCH   8  11
ATOM     11  C   LIG d   1      -3.133  90.142 117.901  0.00  0.00     0.028 C 
ATOM     12  C   LIG d   1      -3.413  89.206 116.715  0.00  0.00     0.006 C 
ENDBRANCH   8  11
ENDBRANCH   7   8
ENDBRANCH   1   7
BRANCH   6  13
ATOM     13  N   LIG d   1      -6.854  91.003 117.523  0.00  0.00    -0.311 N 
ATOM     14  C   LIG d   1      -6.469  91.072 116.249  0.00  0.00     0.210 C 
ATOM     15  C   LIG d   1      -7.003  89.952 115.351  0.00  0.00     0.109 C 
ATOM     16  O   LIG d   1      -5.711  91.937 115.786  0.00  0.00    -0.276 OA
ATOM     17  H   LIG d   1      -7.444  90.250 117.819  0.00  0.00     0.149 HD
ENDBRANCH   6  13
BRANCH   5  18
ATOM     18  N   LIG d   1      -8.196  93.718 117.922  0.00  0.00     0.381 N 
ATOM     19  H   LIG d   1      -8.609  93.975 118.796  0.00  0.00    -0.090 HD
ATOM     20  H   LIG d   1      -8.643  92.878 117.598  0.00  0.00    -0.090 HD
ATOM     21  H   LIG d   1      -8.325  94.449 117.258  0.00  0.00    -0.090 HD
ENDBRANCH   5  18
BRANCH   3  22
ATOM     22  C   LIG d   1      -4.148  95.253 119.969  0.00  0.00     0.382 C 
ATOM     23  O   LIG d   1      -3.030  95.056 120.502  0.00  0.00    -0.241 OA
ATOM     24  O   LIG d   1      -4.582  96.416 119.866  0.00  0.00    -0.241 OA
ENDBRANCH   3  22
TORSDOF 7
ENDMDL
MODEL 9
REMARK VINA RESULT:      -4.7      2.691      5.484
REMARK  7 active torsions:
REMARK  status: ('A' for Active; 'I' for Inactive)
REMARK    1  A    between atoms: C_2  and  C_3 
REMARK    2  A    between atoms: C_3  and  O_6 
REMARK    3  A    between atoms: C_3  and  C_4 
REMARK    4  A    between atoms: C_7  and  O_6 
REMARK    5  A    between atoms: C_9  and  C_10 
REMARK    6  A    between atoms: N_15  and  C_14 
REMARK    7  A    between atoms: N_20  and  C_19 
REMARK       I    between atoms: C_22  and  N_20 
ROOT
ATOM      1  C   LIG d   1      -3.499  92.095 117.852  0.00  0.00     0.161 C 
ATOM      2  C   LIG d   1      -4.745  91.540 117.518  0.00  0.00     0.016 C 
ATOM      3  C   LIG d   1      -4.902  90.233 117.001  0.00  0.00     0.038 C 
ATOM      4  C   LIG d   1      -3.830  89.332 116.925  0.00  0.00     0.028 C 
ATOM      5  C   LIG d   1      -2.474  90.015 116.777  0.00  0.00    -0.047 C 
ATOM      6  C   LIG d   1      -2.330  91.088 117.880  0.00  0.00     0.091 C 
ENDROOT
BRANCH   1   7
ATOM      7  O   LIG d   1      -3.594  92.788 119.112  0.00  0.00    -0.368 OA
BRANCH   7   8
ATOM      8  C   LIG d   1      -4.925  92.918 119.669  0.00  0.00     0.119 C 
BRANCH   8   9
ATOM      9  C   LIG d   1      -5.242  94.423 119.764  0.00  0.00     0.028 C 
ATOM     10  C   LIG d   1      -6.518  94.804 118.994  0.00  0.00     0.006 C 
ENDBRANCH   8   9
BRANCH   8  11
ATOM     11  C   LIG d   1      -4.980  92.400 121.109  0.00  0.00     0.028 C 
ATOM     12  C   LIG d   1      -4.905  90.867 121.194  0.00  0.00     0.006 C 
ENDBRANCH   8  11
ENDBRANCH   7   8
ENDBRANCH   1   7
BRANCH   6  13
ATOM     13  N   LIG d   1      -1.067  91.862 117.756  0.00  0.00    -0.311 N 
ATOM     14  C   LIG d   1      -0.148  91.925 118.718  0.00  0.00     0.210 C 
ATOM     15  C   LIG d   1       1.071  92.794 118.392  0.00  0.00     0.109 C 
ATOM     16  O   LIG d   1      -0.211  91.316 119.797  0.00  0.00    -0.276 OA
ATOM     17  H   LIG d   1      -0.920  92.361 116.900  0.00  0.00     0.149 HD
ENDBRANCH   6  13
BRANCH   5  18
ATOM     18  N   LIG d   1      -1.438  88.969 116.848  0.00  0.00     0.381 N 
ATOM     19  H   LIG d   1      -0.599  89.292 116.408  0.00  0.00    -0.090 HD
ATOM     20  H   LIG d   1      -1.761  88.156 116.353  0.00  0.00    -0.090 HD
ATOM     21  H   LIG d   1      -1.254  88.736 117.799  0.00  0.00    -0.090 HD
ENDBRANCH   5  18
BRANCH   3  22
ATOM     22  C   LIG d   1      -6.137  89.830 116.517  0.00  0.00     0.382 C 
ATOM     23  O   LIG d   1      -7.172  90.020 117.201  0.00  0.00    -0.241 OA
ATOM     24  O   LIG d   1      -6.224  89.237 115.425  0.00  0.00    -0.241 OA
ENDBRANCH   3  22
TORSDOF 7
ENDMDL
