MODEL 1
REMARK VINA RESULT:      -6.0      0.000      0.000
REMARK  7 active torsions:
REMARK  status: ('A' for Active; 'I' for Inactive)
REMARK    1  A    between atoms: C_2  and  C_3 
REMARK    2  A    between atoms: C_3  and  O_6 
REMARK    3  A    between atoms: C_3  and  C_4 
REMARK    4  A    between atoms: C_7  and  O_6 
REMARK    5  A    between atoms: C_9  and  C_10 
REMARK    6  A    between atoms: N_15  and  C_14 
REMARK    7  A    between atoms: N_20  and  C_19 
REMARK       I    between atoms: C_22  and  N_20 
ROOT
ATOM      1  C   LIG d   1      -6.517  74.500 117.163  0.00  0.00     0.161 C 
ATOM      2  C   LIG d   1      -5.290  73.846 116.962  0.00  0.00     0.016 C 
ATOM      3  C   LIG d   1      -4.039  74.426 117.274  0.00  0.00     0.038 C 
ATOM      4  C   LIG d   1      -3.938  75.649 117.955  0.00  0.00     0.028 C 
ATOM      5  C   LIG d   1      -5.130  76.571 117.723  0.00  0.00    -0.047 C 
ATOM      6  C   LIG d   1      -6.433  75.789 118.007  0.00  0.00     0.091 C 
ENDROOT
BRANCH   1   7
ATOM      7  O   LIG d   1      -7.469  73.584 117.740  0.00  0.00    -0.368 OA
BRANCH   7   8
ATOM      8  C   LIG d   1      -8.117  72.673 116.819  0.00  0.00     0.119 C 
BRANCH   8   9
ATOM      9  C   LIG d   1      -9.638  72.832 117.003  0.00  0.00     0.028 C 
ATOM     10  C   LIG d   1     -10.169  74.143 116.400  0.00  0.00     0.006 C 
ENDBRANCH   8   9
BRANCH   8  11
ATOM     11  C   LIG d   1      -7.815  71.214 117.174  0.00  0.00     0.028 C 
ATOM     12  C   LIG d   1      -9.087  70.372 117.366  0.00  0.00     0.006 C 
ENDBRANCH   8  11
ENDBRANCH   7   8
ENDBRANCH   1   7
BRANCH   6  13
ATOM     13  N   LIG d   1      -7.650  76.592 117.723  0.00  0.00    -0.311 N 
ATOM     14  C   LIG d   1      -8.561  76.895 118.646  0.00  0.00     0.210 C 
ATOM     15  C   LIG d   1      -9.750  77.716 118.138  0.00  0.00     0.109 C 
ATOM     16  O   LIG d   1      -8.481  76.588 119.845  0.00  0.00    -0.276 OA
ATOM     17  H   LIG d   1      -7.779  76.909 116.781  0.00  0.00     0.149 HD
ENDBRANCH   6  13
BRANCH   5  18
ATOM     18  N   LIG d   1      -4.961  77.747 118.597  0.00  0.00     0.381 N 
ATOM     19  H   LIG d   1      -5.061  78.586 118.060  0.00  0.00    -0.090 HD
ATOM     20  H   LIG d   1      -4.035  77.732 118.986  0.00  0.00    -0.090 HD
ATOM     21  H   LIG d   1      -5.637  77.729 119.328  0.00  0.00    -0.090 HD
ENDBRANCH   5  18
BRANCH   3  22
ATOM     22  C   LIG d   1      -2.871  73.800 116.870  0.00  0.00     0.382 C 
ATOM     23  O   LIG d   1      -2.211  73.113 117.687  0.00  0.00    -0.241 OA
ATOM     24  O   LIG d   1      -2.444  73.948 115.709  0.00  0.00    -0.241 OA
ENDBRANCH   3  22
TORSDOF 7
ENDMDL
MODEL 2
REMARK VINA RESULT:      -5.9      1.702      5.128
REMARK  7 active torsions:
REMARK  status: ('A' for Active; 'I' for Inactive)
REMARK    1  A    between atoms: C_2  and  C_3 
REMARK    2  A    between atoms: C_3  and  O_6 
REMARK    3  A    between atoms: C_3  and  C_4 
REMARK    4  A    between atoms: C_7  and  O_6 
REMARK    5  A    between atoms: C_9  and  C_10 
REMARK    6  A    between atoms: N_15  and  C_14 
REMARK    7  A    between atoms: N_20  and  C_19 
REMARK       I    between atoms: C_22  and  N_20 
ROOT
ATOM      1  C   LIG d   1      -7.503  75.870 117.848  0.00  0.00     0.161 C 
ATOM      2  C   LIG d   1      -8.616  76.695 118.081  0.00  0.00     0.016 C 
ATOM      3  C   LIG d   1      -8.541  78.105 118.143  0.00  0.00     0.038 C 
ATOM      4  C   LIG d   1      -7.365  78.800 117.822  0.00  0.00     0.028 C 
ATOM      5  C   LIG d   1      -6.097  77.992 118.075  0.00  0.00    -0.047 C 
ATOM      6  C   LIG d   1      -6.233  76.615 117.386  0.00  0.00     0.091 C 
ENDROOT
BRANCH   1   7
ATOM      7  O   LIG d   1      -7.849  74.837 116.904  0.00  0.00    -0.368 OA
BRANCH   7   8
ATOM      8  C   LIG d   1      -8.234  73.560 117.470  0.00  0.00     0.119 C 
BRANCH   8   9
ATOM      9  C   LIG d   1      -7.097  72.563 117.176  0.00  0.00     0.028 C 
ATOM     10  C   LIG d   1      -7.592  71.107 117.125  0.00  0.00     0.006 C 
ENDBRANCH   8   9
BRANCH   8  11
ATOM     11  C   LIG d   1      -9.468  72.988 116.766  0.00  0.00     0.028 C 
ATOM     12  C   LIG d   1     -10.437  74.078 116.282  0.00  0.00     0.006 C 
ENDBRANCH   8  11
ENDBRANCH   7   8
ENDBRANCH   1   7
BRANCH   6  13
ATOM     13  N   LIG d   1      -5.070  75.729 117.654  0.00  0.00    -0.311 N 
ATOM     14  C   LIG d   1      -4.460  75.014 116.710  0.00  0.00     0.210 C 
ATOM     15  C   LIG d   1      -3.295  74.151 117.205  0.00  0.00     0.109 C 
ATOM     16  O   LIG d   1      -4.753  75.037 115.506  0.00  0.00    -0.276 OA
ATOM     17  H   LIG d   1      -4.746  75.675 118.600  0.00  0.00     0.149 HD
ENDBRANCH   6  13
BRANCH   5  18
ATOM     18  N   LIG d   1      -4.957  78.781 117.570  0.00  0.00     0.381 N 
ATOM     19  H   LIG d   1      -4.631  78.391 116.709  0.00  0.00    -0.090 HD
ATOM     20  H   LIG d   1      -4.209  78.737 118.240  0.00  0.00    -0.090 HD
ATOM     21  H   LIG d   1      -5.233  79.728 117.432  0.00  0.00    -0.090 HD
ENDBRANCH   5  18
BRANCH   3  22
ATOM     22  C   LIG d   1      -9.641  78.835 118.567  0.00  0.00     0.382 C 
ATOM     23  O   LIG d   1     -10.213  78.538 119.644  0.00  0.00    -0.241 OA
ATOM     24  O   LIG d   1     -10.097  79.757 117.865  0.00  0.00    -0.241 OA
ENDBRANCH   3  22
TORSDOF 7
ENDMDL
MODEL 3
REMARK VINA RESULT:      -5.8      0.723      1.604
REMARK  7 active torsions:
REMARK  status: ('A' for Active; 'I' for Inactive)
REMARK    1  A    between atoms: C_2  and  C_3 
REMARK    2  A    between atoms: C_3  and  O_6 
REMARK    3  A    between atoms: C_3  and  C_4 
REMARK    4  A    between atoms: C_7  and  O_6 
REMARK    5  A    between atoms: C_9  and  C_10 
REMARK    6  A    between atoms: N_15  and  C_14 
REMARK    7  A    between atoms: N_20  and  C_19 
REMARK       I    between atoms: C_22  and  N_20 
ROOT
ATOM      1  C   LIG d   1      -6.113  74.718 116.468  0.00  0.00     0.161 C 
ATOM      2  C   LIG d   1      -4.877  74.064 116.331  0.00  0.00     0.016 C 
ATOM      3  C   LIG d   1      -3.788  74.266 117.209  0.00  0.00     0.038 C 
ATOM      4  C   LIG d   1      -3.911  75.027 118.381  0.00  0.00     0.028 C 
ATOM      5  C   LIG d   1      -4.983  76.108 118.291  0.00  0.00    -0.047 C 
ATOM      6  C   LIG d   1      -6.303  75.466 117.804  0.00  0.00     0.091 C 
ENDROOT
BRANCH   1   7
ATOM      7  O   LIG d   1      -7.188  73.780 116.263  0.00  0.00    -0.368 OA
BRANCH   7   8
ATOM      8  C   LIG d   1      -7.646  73.067 117.438  0.00  0.00     0.119 C 
BRANCH   8   9
ATOM      9  C   LIG d   1      -7.250  71.588 117.266  0.00  0.00     0.028 C 
ATOM     10  C   LIG d   1      -8.473  70.659 117.180  0.00  0.00     0.006 C 
ENDBRANCH   8   9
BRANCH   8  11
ATOM     11  C   LIG d   1      -9.174  73.070 117.531  0.00  0.00     0.028 C 
ATOM     12  C   LIG d   1      -9.834  73.976 116.479  0.00  0.00     0.006 C 
ENDBRANCH   8  11
ENDBRANCH   7   8
ENDBRANCH   1   7
BRANCH   6  13
ATOM     13  N   LIG d   1      -7.382  76.469 117.608  0.00  0.00    -0.311 N 
ATOM     14  C   LIG d   1      -8.307  76.741 118.527  0.00  0.00     0.210 C 
ATOM     15  C   LIG d   1      -9.340  77.794 118.114  0.00  0.00     0.109 C 
ATOM     16  O   LIG d   1      -8.351  76.232 119.658  0.00  0.00    -0.276 OA
ATOM     17  H   LIG d   1      -7.403  76.951 116.731  0.00  0.00     0.149 HD
ENDBRANCH   6  13
BRANCH   5  18
ATOM     18  N   LIG d   1      -5.100  76.732 119.622  0.00  0.00     0.381 N 
ATOM     19  H   LIG d   1      -5.995  77.169 119.714  0.00  0.00    -0.090 HD
ATOM     20  H   LIG d   1      -4.392  77.439 119.713  0.00  0.00    -0.090 HD
ATOM     21  H   LIG d   1      -4.985  76.043 120.333  0.00  0.00    -0.090 HD
ENDBRANCH   5  18
BRANCH   3  22
ATOM     22  C   LIG d   1      -2.546  73.735 116.896  0.00  0.00     0.382 C 
ATOM     23  O   LIG d   1      -1.899  73.099 117.764  0.00  0.00    -0.241 OA
ATOM     24  O   LIG d   1      -2.044  73.921 115.772  0.00  0.00    -0.241 OA
ENDBRANCH   3  22
TORSDOF 7
ENDMDL
MODEL 4
REMARK VINA RESULT:      -5.7     15.547     18.430
REMARK  7 active torsions:
REMARK  status: ('A' for Active; 'I' for Inactive)
REMARK    1  A    between atoms: C_2  and  C_3 
REMARK    2  A    between atoms: C_3  and  O_6 
REMARK    3  A    between atoms: C_3  and  C_4 
REMARK    4  A    between atoms: C_7  and  O_6 
REMARK    5  A    between atoms: C_9  and  C_10 
REMARK    6  A    between atoms: N_15  and  C_14 
REMARK    7  A    between atoms: N_20  and  C_19 
REMARK       I    between atoms: C_22  and  N_20 
ROOT
ATOM      1  C   LIG d   1      -5.728  92.641 117.575  0.00  0.00     0.161 C 
ATOM      2  C   LIG d   1      -6.649  91.696 117.094  0.00  0.00     0.016 C 
ATOM      3  C   LIG d   1      -6.286  90.389 116.693  0.00  0.00     0.038 C 
ATOM      4  C   LIG d   1      -4.992  89.886 116.891  0.00  0.00     0.028 C 
ATOM      5  C   LIG d   1      -3.917  90.967 116.905  0.00  0.00    -0.047 C 
ATOM      6  C   LIG d   1      -4.331  92.074 117.902  0.00  0.00     0.091 C 
ENDROOT
BRANCH   1   7
ATOM      7  O   LIG d   1      -6.276  93.316 118.724  0.00  0.00    -0.368 OA
BRANCH   7   8
ATOM      8  C   LIG d   1      -7.023  94.528 118.455  0.00  0.00     0.119 C 
BRANCH   8   9
ATOM      9  C   LIG d   1      -6.437  95.640 119.346  0.00  0.00     0.028 C 
ATOM     10  C   LIG d   1      -5.371  95.112 120.320  0.00  0.00     0.006 C 
ENDBRANCH   8   9
BRANCH   8  11
ATOM     11  C   LIG d   1      -8.485  94.389 118.889  0.00  0.00     0.028 C 
ATOM     12  C   LIG d   1      -8.707  93.230 119.874  0.00  0.00     0.006 C 
ENDBRANCH   8  11
ENDBRANCH   7   8
ENDBRANCH   1   7
BRANCH   6  13
ATOM     13  N   LIG d   1      -3.375  93.212 117.915  0.00  0.00    -0.311 N 
ATOM     14  C   LIG d   1      -2.358  93.305 118.770  0.00  0.00     0.210 C 
ATOM     15  C   LIG d   1      -1.506  94.570 118.625  0.00  0.00     0.109 C 
ATOM     16  O   LIG d   1      -2.061  92.445 119.613  0.00  0.00    -0.276 OA
ATOM     17  H   LIG d   1      -3.523  93.939 117.244  0.00  0.00     0.149 HD
ENDBRANCH   6  13
BRANCH   5  18
ATOM     18  N   LIG d   1      -2.638  90.321 117.257  0.00  0.00     0.381 N 
ATOM     19  H   LIG d   1      -2.033  90.312 116.460  0.00  0.00    -0.090 HD
ATOM     20  H   LIG d   1      -2.818  89.370 117.527  0.00  0.00    -0.090 HD
ATOM     21  H   LIG d   1      -2.204  90.810 118.008  0.00  0.00    -0.090 HD
ENDBRANCH   5  18
BRANCH   3  22
ATOM     22  C   LIG d   1      -7.214  89.584 116.051  0.00  0.00     0.382 C 
ATOM     23  O   LIG d   1      -7.448  89.749 114.829  0.00  0.00    -0.241 OA
ATOM     24  O   LIG d   1      -7.854  88.726 116.688  0.00  0.00    -0.241 OA
ENDBRANCH   3  22
TORSDOF 7
ENDMDL
MODEL 5
REMARK VINA RESULT:      -5.0     14.904     17.527
REMARK  7 active torsions:
REMARK  status: ('A' for Active; 'I' for Inactive)
REMARK    1  A    between atoms: C_2  and  C_3 
REMARK    2  A    between atoms: C_3  and  O_6 
REMARK    3  A    between atoms: C_3  and  C_4 
REMARK    4  A    between atoms: C_7  and  O_6 
REMARK    5  A    between atoms: C_9  and  C_10 
REMARK    6  A    between atoms: N_15  and  C_14 
REMARK    7  A    between atoms: N_20  and  C_19 
REMARK       I    between atoms: C_22  and  N_20 
ROOT
ATOM      1  C   LIG d   1      -3.713  90.851 117.942  0.00  0.00     0.161 C 
ATOM      2  C   LIG d   1      -4.550  90.059 117.139  0.00  0.00     0.016 C 
ATOM      3  C   LIG d   1      -5.806  90.495 116.657  0.00  0.00     0.038 C 
ATOM      4  C   LIG d   1      -6.244  91.817 116.821  0.00  0.00     0.028 C 
ATOM      5  C   LIG d   1      -5.661  92.501 118.053  0.00  0.00    -0.047 C 
ATOM      6  C   LIG d   1      -4.124  92.335 118.038  0.00  0.00     0.091 C 
ENDROOT
BRANCH   1   7
ATOM      7  O   LIG d   1      -2.350  90.737 117.486  0.00  0.00    -0.368 OA
BRANCH   7   8
ATOM      8  C   LIG d   1      -1.485  89.879 118.271  0.00  0.00     0.119 C 
BRANCH   8   9
ATOM      9  C   LIG d   1      -2.365  89.168 119.317  0.00  0.00     0.028 C 
ATOM     10  C   LIG d   1      -2.365  87.640 119.143  0.00  0.00     0.006 C 
ENDBRANCH   8   9
BRANCH   8  11
ATOM     11  C   LIG d   1      -0.474  90.697 119.080  0.00  0.00     0.028 C 
ATOM     12  C   LIG d   1      -0.759  90.671 120.590  0.00  0.00     0.006 C 
ENDBRANCH   8  11
ENDBRANCH   7   8
ENDBRANCH   1   7
BRANCH   6  13
ATOM     13  N   LIG d   1      -3.481  92.902 119.252  0.00  0.00    -0.311 N 
ATOM     14  C   LIG d   1      -2.452  93.747 119.210  0.00  0.00     0.210 C 
ATOM     15  C   LIG d   1      -1.928  94.195 120.578  0.00  0.00     0.109 C 
ATOM     16  O   LIG d   1      -1.945  94.192 118.170  0.00  0.00    -0.276 OA
ATOM     17  H   LIG d   1      -3.850  92.618 120.139  0.00  0.00     0.149 HD
ENDBRANCH   6  13
BRANCH   5  18
ATOM     18  N   LIG d   1      -6.091  93.911 118.026  0.00  0.00     0.381 N 
ATOM     19  H   LIG d   1      -7.061  93.965 117.788  0.00  0.00    -0.090 HD
ATOM     20  H   LIG d   1      -5.566  94.398 117.320  0.00  0.00    -0.090 HD
ATOM     21  H   LIG d   1      -5.935  94.332 118.915  0.00  0.00    -0.090 HD
ENDBRANCH   5  18
BRANCH   3  22
ATOM     22  C   LIG d   1      -6.655  89.592 116.036  0.00  0.00     0.382 C 
ATOM     23  O   LIG d   1      -6.546  89.372 114.805  0.00  0.00    -0.241 OA
ATOM     24  O   LIG d   1      -7.558  89.027 116.682  0.00  0.00    -0.241 OA
ENDBRANCH   3  22
TORSDOF 7
ENDMDL
MODEL 6
REMARK VINA RESULT:      -4.9      2.617      5.679
REMARK  7 active torsions:
REMARK  status: ('A' for Active; 'I' for Inactive)
REMARK    1  A    between atoms: C_2  and  C_3 
REMARK    2  A    between atoms: C_3  and  O_6 
REMARK    3  A    between atoms: C_3  and  C_4 
REMARK    4  A    between atoms: C_7  and  O_6 
REMARK    5  A    between atoms: C_9  and  C_10 
REMARK    6  A    between atoms: N_15  and  C_14 
REMARK    7  A    between atoms: N_20  and  C_19 
REMARK       I    between atoms: C_22  and  N_20 
ROOT
ATOM      1  C   LIG d   1      -6.842  77.231 117.285  0.00  0.00     0.161 C 
ATOM      2  C   LIG d   1      -6.531  78.582 117.515  0.00  0.00     0.016 C 
ATOM      3  C   LIG d   1      -7.443  79.506 118.075  0.00  0.00     0.038 C 
ATOM      4  C   LIG d   1      -8.686  79.103 118.587  0.00  0.00     0.028 C 
ATOM      5  C   LIG d   1      -9.239  77.850 117.918  0.00  0.00    -0.047 C 
ATOM      6  C   LIG d   1      -8.153  76.749 117.939  0.00  0.00     0.091 C 
ENDROOT
BRANCH   1   7
ATOM      7  O   LIG d   1      -5.740  76.399 117.699  0.00  0.00    -0.368 OA
BRANCH   7   8
ATOM      8  C   LIG d   1      -4.738  76.120 116.691  0.00  0.00     0.119 C 
BRANCH   8   9
ATOM      9  C   LIG d   1      -5.236  74.919 115.863  0.00  0.00     0.028 C 
ATOM     10  C   LIG d   1      -5.146  73.594 116.639  0.00  0.00     0.006 C 
ENDBRANCH   8   9
BRANCH   8  11
ATOM     11  C   LIG d   1      -3.423  75.658 117.325  0.00  0.00     0.028 C 
ATOM     12  C   LIG d   1      -2.204  75.913 116.423  0.00  0.00     0.006 C 
ENDBRANCH   8  11
ENDBRANCH   7   8
ENDBRANCH   1   7
BRANCH   6  13
ATOM     13  N   LIG d   1      -8.583  75.516 117.230  0.00  0.00    -0.311 N 
ATOM     14  C   LIG d   1      -8.430  74.291 117.730  0.00  0.00     0.210 C 
ATOM     15  C   LIG d   1      -8.923  73.157 116.826  0.00  0.00     0.109 C 
ATOM     16  O   LIG d   1      -7.962  74.038 118.851  0.00  0.00    -0.276 OA
ATOM     17  H   LIG d   1      -9.001  75.631 116.327  0.00  0.00     0.149 HD
ENDBRANCH   6  13
BRANCH   5  18
ATOM     18  N   LIG d   1     -10.467  77.464 118.639  0.00  0.00     0.381 N 
ATOM     19  H   LIG d   1     -11.230  78.035 118.337  0.00  0.00    -0.090 HD
ATOM     20  H   LIG d   1     -10.328  77.619 119.623  0.00  0.00    -0.090 HD
ATOM     21  H   LIG d   1     -10.673  76.504 118.472  0.00  0.00    -0.090 HD
ENDBRANCH   5  18
BRANCH   3  22
ATOM     22  C   LIG d   1      -7.130  80.857 118.092  0.00  0.00     0.382 C 
ATOM     23  O   LIG d   1      -6.587  81.362 119.103  0.00  0.00    -0.241 OA
ATOM     24  O   LIG d   1      -7.425  81.585 117.125  0.00  0.00    -0.241 OA
ENDBRANCH   3  22
TORSDOF 7
ENDMDL
MODEL 7
REMARK VINA RESULT:      -4.6     14.942     17.543
REMARK  7 active torsions:
REMARK  status: ('A' for Active; 'I' for Inactive)
REMARK    1  A    between atoms: C_2  and  C_3 
REMARK    2  A    between atoms: C_3  and  O_6 
REMARK    3  A    between atoms: C_3  and  C_4 
REMARK    4  A    between atoms: C_7  and  O_6 
REMARK    5  A    between atoms: C_9  and  C_10 
REMARK    6  A    between atoms: N_15  and  C_14 
REMARK    7  A    between atoms: N_20  and  C_19 
REMARK       I    between atoms: C_22  and  N_20 
ROOT
ATOM      1  C   LIG d   1      -3.236  90.793 118.163  0.00  0.00     0.161 C 
ATOM      2  C   LIG d   1      -4.172  90.288 117.246  0.00  0.00     0.016 C 
ATOM      3  C   LIG d   1      -5.333  90.992 116.851  0.00  0.00     0.038 C 
ATOM      4  C   LIG d   1      -5.559  92.323 117.234  0.00  0.00     0.028 C 
ATOM      5  C   LIG d   1      -4.899  92.692 118.558  0.00  0.00    -0.047 C 
ATOM      6  C   LIG d   1      -3.408  92.288 118.506  0.00  0.00     0.091 C 
ENDROOT
BRANCH   1   7
ATOM      7  O   LIG d   1      -1.900  90.540 117.686  0.00  0.00    -0.368 OA
BRANCH   7   8
ATOM      8  C   LIG d   1      -1.091  89.652 118.498  0.00  0.00     0.119 C 
BRANCH   8   9
ATOM      9  C   LIG d   1       0.387  89.983 118.214  0.00  0.00     0.028 C 
ATOM     10  C   LIG d   1       0.994  89.076 117.130  0.00  0.00     0.006 C 
ENDBRANCH   8   9
BRANCH   8  11
ATOM     11  C   LIG d   1      -1.269  88.192 118.073  0.00  0.00     0.028 C 
ATOM     12  C   LIG d   1      -2.093  87.374 119.080  0.00  0.00     0.006 C 
ENDBRANCH   8  11
ENDBRANCH   7   8
ENDBRANCH   1   7
BRANCH   6  13
ATOM     13  N   LIG d   1      -2.708  92.538 119.793  0.00  0.00    -0.311 N 
ATOM     14  C   LIG d   1      -1.551  93.191 119.883  0.00  0.00     0.210 C 
ATOM     15  C   LIG d   1      -0.990  93.321 121.303  0.00  0.00     0.109 C 
ATOM     16  O   LIG d   1      -0.951  93.703 118.925  0.00  0.00    -0.276 OA
ATOM     17  H   LIG d   1      -3.140  92.184 120.624  0.00  0.00     0.149 HD
ENDBRANCH   6  13
BRANCH   5  18
ATOM     18  N   LIG d   1      -5.099  94.139 118.767  0.00  0.00     0.381 N 
ATOM     19  H   LIG d   1      -5.370  94.571 117.906  0.00  0.00    -0.090 HD
ATOM     20  H   LIG d   1      -4.231  94.547 119.065  0.00  0.00    -0.090 HD
ATOM     21  H   LIG d   1      -5.801  94.290 119.458  0.00  0.00    -0.090 HD
ENDBRANCH   5  18
BRANCH   3  22
ATOM     22  C   LIG d   1      -6.302  90.351 116.095  0.00  0.00     0.382 C 
ATOM     23  O   LIG d   1      -7.109  91.023 115.409  0.00  0.00    -0.241 OA
ATOM     24  O   LIG d   1      -6.409  89.110 116.126  0.00  0.00    -0.241 OA
ENDBRANCH   3  22
TORSDOF 7
ENDMDL
MODEL 8
REMARK VINA RESULT:      -4.4     10.732     14.480
REMARK  7 active torsions:
REMARK  status: ('A' for Active; 'I' for Inactive)
REMARK    1  A    between atoms: C_2  and  C_3 
REMARK    2  A    between atoms: C_3  and  O_6 
REMARK    3  A    between atoms: C_3  and  C_4 
REMARK    4  A    between atoms: C_7  and  O_6 
REMARK    5  A    between atoms: C_9  and  C_10 
REMARK    6  A    between atoms: N_15  and  C_14 
REMARK    7  A    between atoms: N_20  and  C_19 
REMARK       I    between atoms: C_22  and  N_20 
ROOT
ATOM      1  C   LIG d   1     -16.273  64.560 117.645  0.00  0.00     0.161 C 
ATOM      2  C   LIG d   1     -17.375  64.071 116.924  0.00  0.00     0.016 C 
ATOM      3  C   LIG d   1     -18.111  64.851 116.003  0.00  0.00     0.038 C 
ATOM      4  C   LIG d   1     -17.698  66.137 115.625  0.00  0.00     0.028 C 
ATOM      5  C   LIG d   1     -16.886  66.853 116.699  0.00  0.00    -0.047 C 
ATOM      6  C   LIG d   1     -15.740  65.926 117.163  0.00  0.00     0.091 C 
ENDROOT
BRANCH   1   7
ATOM      7  O   LIG d   1     -15.215  63.582 117.644  0.00  0.00    -0.368 OA
BRANCH   7   8
ATOM      8  C   LIG d   1     -15.147  62.715 118.803  0.00  0.00     0.119 C 
BRANCH   8   9
ATOM      9  C   LIG d   1     -13.858  63.069 119.570  0.00  0.00     0.028 C 
ATOM     10  C   LIG d   1     -14.115  64.052 120.726  0.00  0.00     0.006 C 
ENDBRANCH   8   9
BRANCH   8  11
ATOM     11  C   LIG d   1     -14.985  61.248 118.394  0.00  0.00     0.028 C 
ATOM     12  C   LIG d   1     -16.270  60.649 117.801  0.00  0.00     0.006 C 
ENDBRANCH   8  11
ENDBRANCH   7   8
ENDBRANCH   1   7
BRANCH   6  13
ATOM     13  N   LIG d   1     -14.947  66.517 118.273  0.00  0.00    -0.311 N 
ATOM     14  C   LIG d   1     -13.780  67.132 118.093  0.00  0.00     0.210 C 
ATOM     15  C   LIG d   1     -13.119  67.651 119.374  0.00  0.00     0.109 C 
ATOM     16  O   LIG d   1     -13.245  67.326 116.991  0.00  0.00    -0.276 OA
ATOM     17  H   LIG d   1     -15.323  66.432 119.197  0.00  0.00     0.149 HD
ENDBRANCH   6  13
BRANCH   5  18
ATOM     18  N   LIG d   1     -16.406  68.123 116.122  0.00  0.00     0.381 N 
ATOM     19  H   LIG d   1     -17.181  68.655 115.781  0.00  0.00    -0.090 HD
ATOM     20  H   LIG d   1     -15.799  67.919 115.347  0.00  0.00    -0.090 HD
ATOM     21  H   LIG d   1     -15.912  68.646 116.811  0.00  0.00    -0.090 HD
ENDBRANCH   5  18
BRANCH   3  22
ATOM     22  C   LIG d   1     -19.297  64.359 115.479  0.00  0.00     0.382 C 
ATOM     23  O   LIG d   1     -19.351  63.182 115.049  0.00  0.00    -0.241 OA
ATOM     24  O   LIG d   1     -20.301  65.092 115.392  0.00  0.00    -0.241 OA
ENDBRANCH   3  22
TORSDOF 7
ENDMDL
MODEL 9
REMARK VINA RESULT:      -4.4      2.380      5.304
REMARK  7 active torsions:
REMARK  status: ('A' for Active; 'I' for Inactive)
REMARK    1  A    between atoms: C_2  and  C_3 
REMARK    2  A    between atoms: C_3  and  O_6 
REMARK    3  A    between atoms: C_3  and  C_4 
REMARK    4  A    between atoms: C_7  and  O_6 
REMARK    5  A    between atoms: C_9  and  C_10 
REMARK    6  A    between atoms: N_15  and  C_14 
REMARK    7  A    between atoms: N_20  and  C_19 
REMARK       I    between atoms: C_22  and  N_20 
ROOT
ATOM      1  C   LIG d   1      -6.501  75.960 116.716  0.00  0.00     0.161 C 
ATOM      2  C   LIG d   1      -6.400  77.354 116.855  0.00  0.00     0.016 C 
ATOM      3  C   LIG d   1      -6.655  78.036 118.066  0.00  0.00     0.038 C 
ATOM      4  C   LIG d   1      -6.884  77.352 119.269  0.00  0.00     0.028 C 
ATOM      5  C   LIG d   1      -7.492  75.967 119.072  0.00  0.00    -0.047 C 
ATOM      6  C   LIG d   1      -6.641  75.187 118.045  0.00  0.00     0.091 C 
ENDROOT
BRANCH   1   7
ATOM      7  O   LIG d   1      -5.379  75.461 115.962  0.00  0.00    -0.368 OA
BRANCH   7   8
ATOM      8  C   LIG d   1      -4.119  75.379 116.672  0.00  0.00     0.119 C 
BRANCH   8   9
ATOM      9  C   LIG d   1      -3.081  76.183 115.867  0.00  0.00     0.028 C 
ATOM     10  C   LIG d   1      -2.754  77.538 116.519  0.00  0.00     0.006 C 
ENDBRANCH   8   9
BRANCH   8  11
ATOM     11  C   LIG d   1      -3.587  73.943 116.699  0.00  0.00     0.028 C 
ATOM     12  C   LIG d   1      -2.213  73.829 117.377  0.00  0.00     0.006 C 
ENDBRANCH   8  11
ENDBRANCH   7   8
ENDBRANCH   1   7
BRANCH   6  13
ATOM     13  N   LIG d   1      -7.215  73.852 117.730  0.00  0.00    -0.311 N 
ATOM     14  C   LIG d   1      -8.448  73.677 117.259  0.00  0.00     0.210 C 
ATOM     15  C   LIG d   1      -8.848  72.218 117.021  0.00  0.00     0.109 C 
ATOM     16  O   LIG d   1      -9.237  74.594 116.984  0.00  0.00    -0.276 OA
ATOM     17  H   LIG d   1      -6.631  73.055 117.894  0.00  0.00     0.149 HD
ENDBRANCH   6  13
BRANCH   5  18
ATOM     18  N   LIG d   1      -7.549  75.313 120.393  0.00  0.00     0.381 N 
ATOM     19  H   LIG d   1      -8.413  75.535 120.844  0.00  0.00    -0.090 HD
ATOM     20  H   LIG d   1      -6.797  75.662 120.961  0.00  0.00    -0.090 HD
ATOM     21  H   LIG d   1      -7.464  74.326 120.288  0.00  0.00    -0.090 HD
ENDBRANCH   5  18
BRANCH   3  22
ATOM     22  C   LIG d   1      -6.723  79.421 118.074  0.00  0.00     0.382 C 
ATOM     23  O   LIG d   1      -7.708  80.004 117.561  0.00  0.00    -0.241 OA
ATOM     24  O   LIG d   1      -5.790  80.097 118.548  0.00  0.00    -0.241 OA
ENDBRANCH   3  22
TORSDOF 7
ENDMDL
