MODEL 1
REMARK VINA RESULT:      -5.7      0.000      0.000
REMARK  7 active torsions:
REMARK  status: ('A' for Active; 'I' for Inactive)
REMARK    1  A    between atoms: C_2  and  C_3 
REMARK    2  A    between atoms: C_3  and  O_6 
REMARK    3  A    between atoms: C_3  and  C_4 
REMARK    4  A    between atoms: C_7  and  O_6 
REMARK    5  A    between atoms: C_9  and  C_10 
REMARK    6  A    between atoms: N_15  and  C_14 
REMARK    7  A    between atoms: N_20  and  C_19 
REMARK       I    between atoms: C_22  and  N_20 
ROOT
ATOM      1  C   LIG d   1      -7.619  76.181 117.709  0.00  0.00     0.161 C 
ATOM      2  C   LIG d   1      -8.640  77.140 117.807  0.00  0.00     0.016 C 
ATOM      3  C   LIG d   1      -8.404  78.534 117.784  0.00  0.00     0.038 C 
ATOM      4  C   LIG d   1      -7.136  79.066 117.507  0.00  0.00     0.028 C 
ATOM      5  C   LIG d   1      -5.991  78.140 117.903  0.00  0.00    -0.047 C 
ATOM      6  C   LIG d   1      -6.242  76.742 117.295  0.00  0.00     0.091 C 
ENDROOT
BRANCH   1   7
ATOM      7  O   LIG d   1      -8.022  75.128 116.810  0.00  0.00    -0.368 OA
BRANCH   7   8
ATOM      8  C   LIG d   1      -8.110  73.800 117.383  0.00  0.00     0.119 C 
BRANCH   8   9
ATOM      9  C   LIG d   1      -7.084  72.912 116.653  0.00  0.00     0.028 C 
ATOM     10  C   LIG d   1      -7.668  71.546 116.255  0.00  0.00     0.006 C 
ENDBRANCH   8   9
BRANCH   8  11
ATOM     11  C   LIG d   1      -9.473  73.161 117.101  0.00  0.00     0.028 C 
ATOM     12  C   LIG d   1     -10.575  74.199 116.838  0.00  0.00     0.006 C 
ENDBRANCH   8  11
ENDBRANCH   7   8
ENDBRANCH   1   7
BRANCH   6  13
ATOM     13  N   LIG d   1      -5.212  75.752 117.703  0.00  0.00    -0.311 N 
ATOM     14  C   LIG d   1      -4.111  75.506 116.995  0.00  0.00     0.210 C 
ATOM     15  C   LIG d   1      -3.189  74.433 117.585  0.00  0.00     0.109 C 
ATOM     16  O   LIG d   1      -3.794  76.097 115.952  0.00  0.00    -0.276 OA
ATOM     17  H   LIG d   1      -5.374  75.249 118.554  0.00  0.00     0.149 HD
ENDBRANCH   6  13
BRANCH   5  18
ATOM     18  N   LIG d   1      -4.736  78.758 117.433  0.00  0.00     0.381 N 
ATOM     19  H   LIG d   1      -4.887  79.202 116.550  0.00  0.00    -0.090 HD
ATOM     20  H   LIG d   1      -4.046  78.038 117.310  0.00  0.00    -0.090 HD
ATOM     21  H   LIG d   1      -4.415  79.426 118.099  0.00  0.00    -0.090 HD
ENDBRANCH   5  18
BRANCH   3  22
ATOM     22  C   LIG d   1      -9.436  79.411 118.079  0.00  0.00     0.382 C 
ATOM     23  O   LIG d   1     -10.475  78.990 118.642  0.00  0.00    -0.241 OA
ATOM     24  O   LIG d   1      -9.360  80.610 117.750  0.00  0.00    -0.241 OA
ENDBRANCH   3  22
TORSDOF 7
ENDMDL
MODEL 2
REMARK VINA RESULT:      -5.4      1.896      2.603
REMARK  7 active torsions:
REMARK  status: ('A' for Active; 'I' for Inactive)
REMARK    1  A    between atoms: C_2  and  C_3 
REMARK    2  A    between atoms: C_3  and  O_6 
REMARK    3  A    between atoms: C_3  and  C_4 
REMARK    4  A    between atoms: C_7  and  O_6 
REMARK    5  A    between atoms: C_9  and  C_10 
REMARK    6  A    between atoms: N_15  and  C_14 
REMARK    7  A    between atoms: N_20  and  C_19 
REMARK       I    between atoms: C_22  and  N_20 
ROOT
ATOM      1  C   LIG d   1      -6.975  77.786 117.332  0.00  0.00     0.161 C 
ATOM      2  C   LIG d   1      -8.270  78.188 117.698  0.00  0.00     0.016 C 
ATOM      3  C   LIG d   1      -8.650  79.541 117.855  0.00  0.00     0.038 C 
ATOM      4  C   LIG d   1      -7.794  80.596 117.507  0.00  0.00     0.028 C 
ATOM      5  C   LIG d   1      -6.316  80.238 117.615  0.00  0.00    -0.047 C 
ATOM      6  C   LIG d   1      -6.059  78.926 116.839  0.00  0.00     0.091 C 
ENDROOT
BRANCH   1   7
ATOM      7  O   LIG d   1      -7.050  76.741 116.342  0.00  0.00    -0.368 OA
BRANCH   7   8
ATOM      8  C   LIG d   1      -6.710  75.407 116.796  0.00  0.00     0.119 C 
BRANCH   8   9
ATOM      9  C   LIG d   1      -6.125  74.643 115.593  0.00  0.00     0.028 C 
ATOM     10  C   LIG d   1      -4.915  75.362 114.973  0.00  0.00     0.006 C 
ENDBRANCH   8   9
BRANCH   8  11
ATOM     11  C   LIG d   1      -7.960  74.623 117.206  0.00  0.00     0.028 C 
ATOM     12  C   LIG d   1      -7.641  73.430 118.122  0.00  0.00     0.006 C 
ENDBRANCH   8  11
ENDBRANCH   7   8
ENDBRANCH   1   7
BRANCH   6  13
ATOM     13  N   LIG d   1      -4.654  78.460 116.964  0.00  0.00    -0.311 N 
ATOM     14  C   LIG d   1      -3.708  78.731 116.066  0.00  0.00     0.210 C 
ATOM     15  C   LIG d   1      -2.331  78.137 116.377  0.00  0.00     0.109 C 
ATOM     16  O   LIG d   1      -3.872  79.434 115.058  0.00  0.00    -0.276 OA
ATOM     17  H   LIG d   1      -4.426  77.909 117.769  0.00  0.00     0.149 HD
ENDBRANCH   6  13
BRANCH   5  18
ATOM     18  N   LIG d   1      -5.542  81.380 117.092  0.00  0.00     0.381 N 
ATOM     19  H   LIG d   1      -4.977  81.768 117.821  0.00  0.00    -0.090 HD
ATOM     20  H   LIG d   1      -6.180  82.089 116.777  0.00  0.00    -0.090 HD
ATOM     21  H   LIG d   1      -4.964  81.083 116.337  0.00  0.00    -0.090 HD
ENDBRANCH   5  18
BRANCH   3  22
ATOM     22  C   LIG d   1      -9.886  79.848 118.404  0.00  0.00     0.382 C 
ATOM     23  O   LIG d   1     -10.555  80.806 117.945  0.00  0.00    -0.241 OA
ATOM     24  O   LIG d   1     -10.320  79.209 119.381  0.00  0.00    -0.241 OA
ENDBRANCH   3  22
TORSDOF 7
ENDMDL
MODEL 3
REMARK VINA RESULT:      -5.3      2.423      4.936
REMARK  7 active torsions:
REMARK  status: ('A' for Active; 'I' for Inactive)
REMARK    1  A    between atoms: C_2  and  C_3 
REMARK    2  A    between atoms: C_3  and  O_6 
REMARK    3  A    between atoms: C_3  and  C_4 
REMARK    4  A    between atoms: C_7  and  O_6 
REMARK    5  A    between atoms: C_9  and  C_10 
REMARK    6  A    between atoms: N_15  and  C_14 
REMARK    7  A    between atoms: N_20  and  C_19 
REMARK       I    between atoms: C_22  and  N_20 
ROOT
ATOM      1  C   LIG d   1      -5.147  75.530 116.372  0.00  0.00     0.161 C 
ATOM      2  C   LIG d   1      -4.853  76.901 116.443  0.00  0.00     0.016 C 
ATOM      3  C   LIG d   1      -5.817  77.889 116.748  0.00  0.00     0.038 C 
ATOM      4  C   LIG d   1      -7.118  77.556 117.154  0.00  0.00     0.028 C 
ATOM      5  C   LIG d   1      -7.597  76.215 116.608  0.00  0.00    -0.047 C 
ATOM      6  C   LIG d   1      -6.535  75.137 116.920  0.00  0.00     0.091 C 
ENDROOT
BRANCH   1   7
ATOM      7  O   LIG d   1      -4.114  74.773 117.034  0.00  0.00    -0.368 OA
BRANCH   7   8
ATOM      8  C   LIG d   1      -2.907  75.501 117.370  0.00  0.00     0.119 C 
BRANCH   8   9
ATOM      9  C   LIG d   1      -1.742  74.843 116.606  0.00  0.00     0.028 C 
ATOM     10  C   LIG d   1      -0.820  74.029 117.530  0.00  0.00     0.006 C 
ENDBRANCH   8   9
BRANCH   8  11
ATOM     11  C   LIG d   1      -2.558  75.347 118.854  0.00  0.00     0.028 C 
ATOM     12  C   LIG d   1      -3.010  76.547 119.700  0.00  0.00     0.006 C 
ENDBRANCH   8  11
ENDBRANCH   7   8
ENDBRANCH   1   7
BRANCH   6  13
ATOM     13  N   LIG d   1      -6.886  73.811 116.347  0.00  0.00    -0.311 N 
ATOM     14  C   LIG d   1      -7.488  72.848 117.043  0.00  0.00     0.210 C 
ATOM     15  C   LIG d   1      -7.742  71.552 116.266  0.00  0.00     0.109 C 
ATOM     16  O   LIG d   1      -7.864  72.955 118.220  0.00  0.00    -0.276 OA
ATOM     17  H   LIG d   1      -6.645  73.651 115.389  0.00  0.00     0.149 HD
ENDBRANCH   6  13
BRANCH   5  18
ATOM     18  N   LIG d   1      -8.909  75.929 117.219  0.00  0.00     0.381 N 
ATOM     19  H   LIG d   1      -8.944  74.974 117.515  0.00  0.00    -0.090 HD
ATOM     20  H   LIG d   1      -9.627  76.072 116.530  0.00  0.00    -0.090 HD
ATOM     21  H   LIG d   1      -9.061  76.531 117.998  0.00  0.00    -0.090 HD
ENDBRANCH   5  18
BRANCH   3  22
ATOM     22  C   LIG d   1      -5.494  79.231 116.609  0.00  0.00     0.382 C 
ATOM     23  O   LIG d   1      -6.382  80.107 116.744  0.00  0.00    -0.241 OA
ATOM     24  O   LIG d   1      -4.335  79.574 116.307  0.00  0.00    -0.241 OA
ENDBRANCH   3  22
TORSDOF 7
ENDMDL
MODEL 4
REMARK VINA RESULT:      -5.1      1.854      2.971
REMARK  7 active torsions:
REMARK  status: ('A' for Active; 'I' for Inactive)
REMARK    1  A    between atoms: C_2  and  C_3 
REMARK    2  A    between atoms: C_3  and  O_6 
REMARK    3  A    between atoms: C_3  and  C_4 
REMARK    4  A    between atoms: C_7  and  O_6 
REMARK    5  A    between atoms: C_9  and  C_10 
REMARK    6  A    between atoms: N_15  and  C_14 
REMARK    7  A    between atoms: N_20  and  C_19 
REMARK       I    between atoms: C_22  and  N_20 
ROOT
ATOM      1  C   LIG d   1      -6.650  77.721 117.108  0.00  0.00     0.161 C 
ATOM      2  C   LIG d   1      -7.958  78.028 117.521  0.00  0.00     0.016 C 
ATOM      3  C   LIG d   1      -8.407  79.345 117.766  0.00  0.00     0.038 C 
ATOM      4  C   LIG d   1      -7.618  80.466 117.466  0.00  0.00     0.028 C 
ATOM      5  C   LIG d   1      -6.120  80.185 117.527  0.00  0.00    -0.047 C 
ATOM      6  C   LIG d   1      -5.808  78.937 116.670  0.00  0.00     0.091 C 
ENDROOT
BRANCH   1   7
ATOM      7  O   LIG d   1      -6.688  76.733 116.059  0.00  0.00    -0.368 OA
BRANCH   7   8
ATOM      8  C   LIG d   1      -6.184  75.419 116.402  0.00  0.00     0.119 C 
BRANCH   8   9
ATOM      9  C   LIG d   1      -7.391  74.553 116.811  0.00  0.00     0.028 C 
ATOM     10  C   LIG d   1      -7.189  73.067 116.470  0.00  0.00     0.006 C 
ENDBRANCH   8   9
BRANCH   8  11
ATOM     11  C   LIG d   1      -5.285  75.473 117.641  0.00  0.00     0.028 C 
ATOM     12  C   LIG d   1      -3.875  74.921 117.378  0.00  0.00     0.006 C 
ENDBRANCH   8  11
ENDBRANCH   7   8
ENDBRANCH   1   7
BRANCH   6  13
ATOM     13  N   LIG d   1      -4.377  78.543 116.742  0.00  0.00    -0.311 N 
ATOM     14  C   LIG d   1      -3.467  78.918 115.845  0.00  0.00     0.210 C 
ATOM     15  C   LIG d   1      -2.053  78.385 116.095  0.00  0.00     0.109 C 
ATOM     16  O   LIG d   1      -3.690  79.669 114.882  0.00  0.00    -0.276 OA
ATOM     17  H   LIG d   1      -4.103  77.960 117.508  0.00  0.00     0.149 HD
ENDBRANCH   6  13
BRANCH   5  18
ATOM     18  N   LIG d   1      -5.420  81.397 117.061  0.00  0.00     0.381 N 
ATOM     19  H   LIG d   1      -5.935  82.211 117.333  0.00  0.00    -0.090 HD
ATOM     20  H   LIG d   1      -5.369  81.377 116.057  0.00  0.00    -0.090 HD
ATOM     21  H   LIG d   1      -4.503  81.431 117.447  0.00  0.00    -0.090 HD
ENDBRANCH   5  18
BRANCH   3  22
ATOM     22  C   LIG d   1      -9.646  79.551 118.353  0.00  0.00     0.382 C 
ATOM     23  O   LIG d   1      -9.941  80.678 118.818  0.00  0.00    -0.241 OA
ATOM     24  O   LIG d   1     -10.457  78.611 118.464  0.00  0.00    -0.241 OA
ENDBRANCH   3  22
TORSDOF 7
ENDMDL
MODEL 5
REMARK VINA RESULT:      -5.0      1.877      5.131
REMARK  7 active torsions:
REMARK  status: ('A' for Active; 'I' for Inactive)
REMARK    1  A    between atoms: C_2  and  C_3 
REMARK    2  A    between atoms: C_3  and  O_6 
REMARK    3  A    between atoms: C_3  and  C_4 
REMARK    4  A    between atoms: C_7  and  O_6 
REMARK    5  A    between atoms: C_9  and  C_10 
REMARK    6  A    between atoms: N_15  and  C_14 
REMARK    7  A    between atoms: N_20  and  C_19 
REMARK       I    between atoms: C_22  and  N_20 
ROOT
ATOM      1  C   LIG d   1      -7.836  76.714 117.452  0.00  0.00     0.161 C 
ATOM      2  C   LIG d   1      -8.804  75.698 117.368  0.00  0.00     0.016 C 
ATOM      3  C   LIG d   1      -8.485  74.322 117.309  0.00  0.00     0.038 C 
ATOM      4  C   LIG d   1      -7.173  73.857 117.484  0.00  0.00     0.028 C 
ATOM      5  C   LIG d   1      -6.111  74.869 117.066  0.00  0.00    -0.047 C 
ATOM      6  C   LIG d   1      -6.406  76.220 117.756  0.00  0.00     0.091 C 
ENDROOT
BRANCH   1   7
ATOM      7  O   LIG d   1      -8.243  77.697 118.424  0.00  0.00    -0.368 OA
BRANCH   7   8
ATOM      8  C   LIG d   1      -8.934  78.860 117.903  0.00  0.00     0.119 C 
BRANCH   8   9
ATOM      9  C   LIG d   1      -7.881  79.963 117.681  0.00  0.00     0.028 C 
ATOM     10  C   LIG d   1      -8.518  81.336 117.410  0.00  0.00     0.006 C 
ENDBRANCH   8   9
BRANCH   8  11
ATOM     11  C   LIG d   1      -9.913  79.434 118.931  0.00  0.00     0.028 C 
ATOM     12  C   LIG d   1      -9.430  79.253 120.379  0.00  0.00     0.006 C 
ENDBRANCH   8  11
ENDBRANCH   7   8
ENDBRANCH   1   7
BRANCH   6  13
ATOM     13  N   LIG d   1      -5.463  77.289 117.336  0.00  0.00    -0.311 N 
ATOM     14  C   LIG d   1      -5.349  77.713 116.078  0.00  0.00     0.210 C 
ATOM     15  C   LIG d   1      -4.302  78.810 115.858  0.00  0.00     0.109 C 
ATOM     16  O   LIG d   1      -6.037  77.308 115.130  0.00  0.00    -0.276 OA
ATOM     17  H   LIG d   1      -4.887  77.695 118.047  0.00  0.00     0.149 HD
ENDBRANCH   6  13
BRANCH   5  18
ATOM     18  N   LIG d   1      -4.795  74.309 117.429  0.00  0.00     0.381 N 
ATOM     19  H   LIG d   1      -4.758  73.341 117.180  0.00  0.00    -0.090 HD
ATOM     20  H   LIG d   1      -4.673  74.384 118.424  0.00  0.00    -0.090 HD
ATOM     21  H   LIG d   1      -4.071  74.808 116.960  0.00  0.00    -0.090 HD
ENDBRANCH   5  18
BRANCH   3  22
ATOM     22  C   LIG d   1      -9.480  73.397 117.033  0.00  0.00     0.382 C 
ATOM     23  O   LIG d   1     -10.661  73.782 116.856  0.00  0.00    -0.241 OA
ATOM     24  O   LIG d   1      -9.220  72.180 117.004  0.00  0.00    -0.241 OA
ENDBRANCH   3  22
TORSDOF 7
ENDMDL
MODEL 6
REMARK VINA RESULT:      -4.8      2.203      5.258
REMARK  7 active torsions:
REMARK  status: ('A' for Active; 'I' for Inactive)
REMARK    1  A    between atoms: C_2  and  C_3 
REMARK    2  A    between atoms: C_3  and  O_6 
REMARK    3  A    between atoms: C_3  and  C_4 
REMARK    4  A    between atoms: C_7  and  O_6 
REMARK    5  A    between atoms: C_9  and  C_10 
REMARK    6  A    between atoms: N_15  and  C_14 
REMARK    7  A    between atoms: N_20  and  C_19 
REMARK       I    between atoms: C_22  and  N_20 
ROOT
ATOM      1  C   LIG d   1      -7.365  76.049 117.650  0.00  0.00     0.161 C 
ATOM      2  C   LIG d   1      -8.002  74.798 117.680  0.00  0.00     0.016 C 
ATOM      3  C   LIG d   1      -7.618  73.709 116.863  0.00  0.00     0.038 C 
ATOM      4  C   LIG d   1      -6.466  73.752 116.064  0.00  0.00     0.028 C 
ATOM      5  C   LIG d   1      -6.087  75.162 115.623  0.00  0.00    -0.047 C 
ATOM      6  C   LIG d   1      -6.036  76.080 116.865  0.00  0.00     0.091 C 
ENDROOT
BRANCH   1   7
ATOM      7  O   LIG d   1      -7.163  76.527 118.995  0.00  0.00    -0.368 OA
BRANCH   7   8
ATOM      8  C   LIG d   1      -7.931  77.695 119.378  0.00  0.00     0.119 C 
BRANCH   8   9
ATOM      9  C   LIG d   1      -8.691  78.180 118.129  0.00  0.00     0.028 C 
ATOM     10  C   LIG d   1      -8.393  79.651 117.795  0.00  0.00     0.006 C 
ENDBRANCH   8   9
BRANCH   8  11
ATOM     11  C   LIG d   1      -7.016  78.858 119.773  0.00  0.00     0.028 C 
ATOM     12  C   LIG d   1      -5.760  78.398 120.529  0.00  0.00     0.006 C 
ENDBRANCH   8  11
ENDBRANCH   7   8
ENDBRANCH   1   7
BRANCH   6  13
ATOM     13  N   LIG d   1      -5.755  77.496 116.513  0.00  0.00    -0.311 N 
ATOM     14  C   LIG d   1      -4.690  78.164 116.953  0.00  0.00     0.210 C 
ATOM     15  C   LIG d   1      -4.601  79.620 116.486  0.00  0.00     0.109 C 
ATOM     16  O   LIG d   1      -3.793  77.678 117.659  0.00  0.00    -0.276 OA
ATOM     17  H   LIG d   1      -6.415  77.958 115.918  0.00  0.00     0.149 HD
ENDBRANCH   6  13
BRANCH   5  18
ATOM     18  N   LIG d   1      -4.796  75.076 114.914  0.00  0.00     0.381 N 
ATOM     19  H   LIG d   1      -4.079  74.791 115.551  0.00  0.00    -0.090 HD
ATOM     20  H   LIG d   1      -4.559  75.985 114.559  0.00  0.00    -0.090 HD
ATOM     21  H   LIG d   1      -4.862  74.424 114.164  0.00  0.00    -0.090 HD
ENDBRANCH   5  18
BRANCH   3  22
ATOM     22  C   LIG d   1      -8.414  72.575 116.811  0.00  0.00     0.382 C 
ATOM     23  O   LIG d   1      -7.938  71.494 116.387  0.00  0.00    -0.241 OA
ATOM     24  O   LIG d   1      -9.614  72.630 117.141  0.00  0.00    -0.241 OA
ENDBRANCH   3  22
TORSDOF 7
ENDMDL
MODEL 7
REMARK VINA RESULT:      -4.7      2.226      5.036
REMARK  7 active torsions:
REMARK  status: ('A' for Active; 'I' for Inactive)
REMARK    1  A    between atoms: C_2  and  C_3 
REMARK    2  A    between atoms: C_3  and  O_6 
REMARK    3  A    between atoms: C_3  and  C_4 
REMARK    4  A    between atoms: C_7  and  O_6 
REMARK    5  A    between atoms: C_9  and  C_10 
REMARK    6  A    between atoms: N_15  and  C_14 
REMARK    7  A    between atoms: N_20  and  C_19 
REMARK       I    between atoms: C_22  and  N_20 
ROOT
ATOM      1  C   LIG d   1      -6.035  77.119 115.799  0.00  0.00     0.161 C 
ATOM      2  C   LIG d   1      -7.268  76.604 116.232  0.00  0.00     0.016 C 
ATOM      3  C   LIG d   1      -7.390  75.440 117.025  0.00  0.00     0.038 C 
ATOM      4  C   LIG d   1      -6.270  74.794 117.570  0.00  0.00     0.028 C 
ATOM      5  C   LIG d   1      -5.001  74.983 116.746  0.00  0.00    -0.047 C 
ATOM      6  C   LIG d   1      -4.799  76.491 116.475  0.00  0.00     0.091 C 
ENDROOT
BRANCH   1   7
ATOM      7  O   LIG d   1      -6.021  78.551 115.959  0.00  0.00    -0.368 OA
BRANCH   7   8
ATOM      8  C   LIG d   1      -6.110  79.041 117.320  0.00  0.00     0.119 C 
BRANCH   8   9
ATOM      9  C   LIG d   1      -7.453  79.786 117.456  0.00  0.00     0.028 C 
ATOM     10  C   LIG d   1      -8.324  79.222 118.591  0.00  0.00     0.006 C 
ENDBRANCH   8   9
BRANCH   8  11
ATOM     11  C   LIG d   1      -5.033  80.091 117.606  0.00  0.00     0.028 C 
ATOM     12  C   LIG d   1      -4.032  80.248 116.450  0.00  0.00     0.006 C 
ENDBRANCH   8  11
ENDBRANCH   7   8
ENDBRANCH   1   7
BRANCH   6  13
ATOM     13  N   LIG d   1      -3.625  76.758 115.603  0.00  0.00    -0.311 N 
ATOM     14  C   LIG d   1      -2.406  77.019 116.074  0.00  0.00     0.210 C 
ATOM     15  C   LIG d   1      -1.343  77.285 115.003  0.00  0.00     0.109 C 
ATOM     16  O   LIG d   1      -2.098  77.023 117.275  0.00  0.00    -0.276 OA
ATOM     17  H   LIG d   1      -3.779  76.743 114.614  0.00  0.00     0.149 HD
ENDBRANCH   6  13
BRANCH   5  18
ATOM     18  N   LIG d   1      -3.887  74.375 117.497  0.00  0.00     0.381 N 
ATOM     19  H   LIG d   1      -3.960  73.378 117.464  0.00  0.00    -0.090 HD
ATOM     20  H   LIG d   1      -3.947  74.664 118.458  0.00  0.00    -0.090 HD
ATOM     21  H   LIG d   1      -3.016  74.665 117.110  0.00  0.00    -0.090 HD
ENDBRANCH   5  18
BRANCH   3  22
ATOM     22  C   LIG d   1      -8.642  74.888 117.249  0.00  0.00     0.382 C 
ATOM     23  O   LIG d   1      -9.665  75.612 117.191  0.00  0.00    -0.241 OA
ATOM     24  O   LIG d   1      -8.758  73.685 117.551  0.00  0.00    -0.241 OA
ENDBRANCH   3  22
TORSDOF 7
ENDMDL
MODEL 8
REMARK VINA RESULT:      -4.6      2.470      5.272
REMARK  7 active torsions:
REMARK  status: ('A' for Active; 'I' for Inactive)
REMARK    1  A    between atoms: C_2  and  C_3 
REMARK    2  A    between atoms: C_3  and  O_6 
REMARK    3  A    between atoms: C_3  and  C_4 
REMARK    4  A    between atoms: C_7  and  O_6 
REMARK    5  A    between atoms: C_9  and  C_10 
REMARK    6  A    between atoms: N_15  and  C_14 
REMARK    7  A    between atoms: N_20  and  C_19 
REMARK       I    between atoms: C_22  and  N_20 
ROOT
ATOM      1  C   LIG d   1      -6.263  78.974 116.943  0.00  0.00     0.161 C 
ATOM      2  C   LIG d   1      -7.428  79.529 117.499  0.00  0.00     0.016 C 
ATOM      3  C   LIG d   1      -8.572  78.767 117.831  0.00  0.00     0.038 C 
ATOM      4  C   LIG d   1      -8.572  77.365 117.769  0.00  0.00     0.028 C 
ATOM      5  C   LIG d   1      -7.597  76.804 116.739  0.00  0.00    -0.047 C 
ATOM      6  C   LIG d   1      -6.204  77.433 116.972  0.00  0.00     0.091 C 
ENDROOT
BRANCH   1   7
ATOM      7  O   LIG d   1      -5.101  79.533 117.587  0.00  0.00    -0.368 OA
BRANCH   7   8
ATOM      8  C   LIG d   1      -5.029  80.979 117.630  0.00  0.00     0.119 C 
BRANCH   8   9
ATOM      9  C   LIG d   1      -3.903  81.416 116.673  0.00  0.00     0.028 C 
ATOM     10  C   LIG d   1      -2.580  81.688 117.409  0.00  0.00     0.006 C 
ENDBRANCH   8   9
BRANCH   8  11
ATOM     11  C   LIG d   1      -4.600  81.475 119.014  0.00  0.00     0.028 C 
ATOM     12  C   LIG d   1      -4.975  80.497 120.140  0.00  0.00     0.006 C 
ENDBRANCH   8  11
ENDBRANCH   7   8
ENDBRANCH   1   7
BRANCH   6  13
ATOM     13  N   LIG d   1      -5.211  77.002 115.954  0.00  0.00    -0.311 N 
ATOM     14  C   LIG d   1      -4.407  75.951 116.113  0.00  0.00     0.210 C 
ATOM     15  C   LIG d   1      -3.443  75.693 114.951  0.00  0.00     0.109 C 
ATOM     16  O   LIG d   1      -4.423  75.190 117.092  0.00  0.00    -0.276 OA
ATOM     17  H   LIG d   1      -5.152  77.545 115.115  0.00  0.00     0.149 HD
ENDBRANCH   6  13
BRANCH   5  18
ATOM     18  N   LIG d   1      -7.599  75.336 116.877  0.00  0.00     0.381 N 
ATOM     19  H   LIG d   1      -7.078  75.071 117.689  0.00  0.00    -0.090 HD
ATOM     20  H   LIG d   1      -7.154  74.933 116.072  0.00  0.00    -0.090 HD
ATOM     21  H   LIG d   1      -8.535  75.001 116.951  0.00  0.00    -0.090 HD
ENDBRANCH   5  18
BRANCH   3  22
ATOM     22  C   LIG d   1      -9.745  79.410 118.193  0.00  0.00     0.382 C 
ATOM     23  O   LIG d   1     -10.013  80.540 117.718  0.00  0.00    -0.241 OA
ATOM     24  O   LIG d   1     -10.519  78.895 119.022  0.00  0.00    -0.241 OA
ENDBRANCH   3  22
TORSDOF 7
ENDMDL
MODEL 9
REMARK VINA RESULT:      -4.5      2.195      5.238
REMARK  7 active torsions:
REMARK  status: ('A' for Active; 'I' for Inactive)
REMARK    1  A    between atoms: C_2  and  C_3 
REMARK    2  A    between atoms: C_3  and  O_6 
REMARK    3  A    between atoms: C_3  and  C_4 
REMARK    4  A    between atoms: C_7  and  O_6 
REMARK    5  A    between atoms: C_9  and  C_10 
REMARK    6  A    between atoms: N_15  and  C_14 
REMARK    7  A    between atoms: N_20  and  C_19 
REMARK       I    between atoms: C_22  and  N_20 
ROOT
ATOM      1  C   LIG d   1      -6.533  77.295 116.195  0.00  0.00     0.161 C 
ATOM      2  C   LIG d   1      -7.219  76.113 116.521  0.00  0.00     0.016 C 
ATOM      3  C   LIG d   1      -6.569  74.894 116.822  0.00  0.00     0.038 C 
ATOM      4  C   LIG d   1      -5.176  74.811 116.964  0.00  0.00     0.028 C 
ATOM      5  C   LIG d   1      -4.421  75.857 116.150  0.00  0.00    -0.047 C 
ATOM      6  C   LIG d   1      -5.013  77.252 116.454  0.00  0.00     0.091 C 
ENDROOT
BRANCH   1   7
ATOM      7  O   LIG d   1      -7.128  78.411 116.885  0.00  0.00    -0.368 OA
BRANCH   7   8
ATOM      8  C   LIG d   1      -6.802  78.540 118.290  0.00  0.00     0.119 C 
BRANCH   8   9
ATOM      9  C   LIG d   1      -8.115  78.404 119.085  0.00  0.00     0.028 C 
ATOM     10  C   LIG d   1      -9.342  78.852 118.273  0.00  0.00     0.006 C 
ENDBRANCH   8   9
BRANCH   8  11
ATOM     11  C   LIG d   1      -6.275  79.941 118.614  0.00  0.00     0.028 C 
ATOM     12  C   LIG d   1      -6.337  80.894 117.411  0.00  0.00     0.006 C 
ENDBRANCH   8  11
ENDBRANCH   7   8
ENDBRANCH   1   7
BRANCH   6  13
ATOM     13  N   LIG d   1      -4.387  78.324 115.635  0.00  0.00    -0.311 N 
ATOM     14  C   LIG d   1      -3.402  79.103 116.077  0.00  0.00     0.210 C 
ATOM     15  C   LIG d   1      -2.914  80.158 115.078  0.00  0.00     0.109 C 
ATOM     16  O   LIG d   1      -2.863  79.000 117.189  0.00  0.00    -0.276 OA
ATOM     17  H   LIG d   1      -4.743  78.456 114.708  0.00  0.00     0.149 HD
ENDBRANCH   6  13
BRANCH   5  18
ATOM     18  N   LIG d   1      -2.992  75.746 116.498  0.00  0.00     0.381 N 
ATOM     19  H   LIG d   1      -2.549  75.078 115.900  0.00  0.00    -0.090 HD
ATOM     20  H   LIG d   1      -2.913  75.423 117.446  0.00  0.00    -0.090 HD
ATOM     21  H   LIG d   1      -2.549  76.633 116.404  0.00  0.00    -0.090 HD
ENDBRANCH   5  18
BRANCH   3  22
ATOM     22  C   LIG d   1      -7.314  73.730 116.944  0.00  0.00     0.382 C 
ATOM     23  O   LIG d   1      -8.328  73.709 117.682  0.00  0.00    -0.241 OA
ATOM     24  O   LIG d   1      -6.958  72.689 116.359  0.00  0.00    -0.241 OA
ENDBRANCH   3  22
TORSDOF 7
ENDMDL
