MODEL 1
REMARK VINA RESULT:      -5.5      0.000      0.000
REMARK  7 active torsions:
REMARK  status: ('A' for Active; 'I' for Inactive)
REMARK    1  A    between atoms: C_2  and  C_3 
REMARK    2  A    between atoms: C_3  and  O_6 
REMARK    3  A    between atoms: C_3  and  C_4 
REMARK    4  A    between atoms: C_7  and  O_6 
REMARK    5  A    between atoms: C_9  and  C_10 
REMARK    6  A    between atoms: N_15  and  C_14 
REMARK    7  A    between atoms: N_20  and  C_19 
REMARK       I    between atoms: C_22  and  N_20 
ROOT
ATOM      1  C   LIG d   1      -6.215  77.558 117.008  0.00  0.00     0.161 C 
ATOM      2  C   LIG d   1      -7.537  77.502 117.482  0.00  0.00     0.016 C 
ATOM      3  C   LIG d   1      -8.192  78.597 118.090  0.00  0.00     0.038 C 
ATOM      4  C   LIG d   1      -7.618  79.877 118.129  0.00  0.00     0.028 C 
ATOM      5  C   LIG d   1      -6.093  79.857 118.117  0.00  0.00    -0.047 C 
ATOM      6  C   LIG d   1      -5.612  78.976 116.941  0.00  0.00     0.091 C 
ENDROOT
BRANCH   1   7
ATOM      7  O   LIG d   1      -6.131  76.916 115.720  0.00  0.00    -0.368 OA
BRANCH   7   8
ATOM      8  C   LIG d   1      -5.455  75.635 115.690  0.00  0.00     0.119 C 
BRANCH   8   9
ATOM      9  C   LIG d   1      -4.203  75.792 114.805  0.00  0.00     0.028 C 
ATOM     10  C   LIG d   1      -2.907  75.444 115.556  0.00  0.00     0.006 C 
ENDBRANCH   8   9
BRANCH   8  11
ATOM     11  C   LIG d   1      -6.310  74.570 114.997  0.00  0.00     0.028 C 
ATOM     12  C   LIG d   1      -6.077  73.159 115.559  0.00  0.00     0.006 C 
ENDBRANCH   8  11
ENDBRANCH   7   8
ENDBRANCH   1   7
BRANCH   6  13
ATOM     13  N   LIG d   1      -4.133  78.834 116.908  0.00  0.00    -0.311 N 
ATOM     14  C   LIG d   1      -3.378  79.263 115.898  0.00  0.00     0.210 C 
ATOM     15  C   LIG d   1      -1.877  79.000 116.055  0.00  0.00     0.109 C 
ATOM     16  O   LIG d   1      -3.805  79.866 114.902  0.00  0.00    -0.276 OA
ATOM     17  H   LIG d   1      -3.700  78.385 117.691  0.00  0.00     0.149 HD
ENDBRANCH   6  13
BRANCH   5  18
ATOM     18  N   LIG d   1      -5.630  81.254 118.021  0.00  0.00     0.381 N 
ATOM     19  H   LIG d   1      -6.269  81.856 118.499  0.00  0.00    -0.090 HD
ATOM     20  H   LIG d   1      -5.607  81.523 117.053  0.00  0.00    -0.090 HD
ATOM     21  H   LIG d   1      -4.720  81.339 118.418  0.00  0.00    -0.090 HD
ENDBRANCH   5  18
BRANCH   3  22
ATOM     22  C   LIG d   1      -9.421  78.408 118.703  0.00  0.00     0.382 C 
ATOM     23  O   LIG d   1      -9.484  77.838 119.819  0.00  0.00    -0.241 OA
ATOM     24  O   LIG d   1     -10.472  78.762 118.135  0.00  0.00    -0.241 OA
ENDBRANCH   3  22
TORSDOF 7
ENDMDL
MODEL 2
REMARK VINA RESULT:      -5.5     13.149     15.525
REMARK  7 active torsions:
REMARK  status: ('A' for Active; 'I' for Inactive)
REMARK    1  A    between atoms: C_2  and  C_3 
REMARK    2  A    between atoms: C_3  and  O_6 
REMARK    3  A    between atoms: C_3  and  C_4 
REMARK    4  A    between atoms: C_7  and  O_6 
REMARK    5  A    between atoms: C_9  and  C_10 
REMARK    6  A    between atoms: N_15  and  C_14 
REMARK    7  A    between atoms: N_20  and  C_19 
REMARK       I    between atoms: C_22  and  N_20 
ROOT
ATOM      1  C   LIG d   1      -5.281  92.295 117.938  0.00  0.00     0.161 C 
ATOM      2  C   LIG d   1      -5.463  91.258 117.009  0.00  0.00     0.016 C 
ATOM      3  C   LIG d   1      -6.614  91.131 116.198  0.00  0.00     0.038 C 
ATOM      4  C   LIG d   1      -7.602  92.126 116.153  0.00  0.00     0.028 C 
ATOM      5  C   LIG d   1      -7.705  92.936 117.441  0.00  0.00    -0.047 C 
ATOM      6  C   LIG d   1      -6.298  93.451 117.824  0.00  0.00     0.091 C 
ENDROOT
BRANCH   1   7
ATOM      7  O   LIG d   1      -3.935  92.802 117.849  0.00  0.00    -0.368 OA
BRANCH   7   8
ATOM      8  C   LIG d   1      -3.060  92.486 118.959  0.00  0.00     0.119 C 
BRANCH   8   9
ATOM      9  C   LIG d   1      -2.427  93.806 119.440  0.00  0.00     0.028 C 
ATOM     10  C   LIG d   1      -2.258  94.825 118.302  0.00  0.00     0.006 C 
ENDBRANCH   8   9
BRANCH   8  11
ATOM     11  C   LIG d   1      -1.884  91.612 118.510  0.00  0.00     0.028 C 
ATOM     12  C   LIG d   1      -2.238  90.118 118.456  0.00  0.00     0.006 C 
ENDBRANCH   8  11
ENDBRANCH   7   8
ENDBRANCH   1   7
BRANCH   6  13
ATOM     13  N   LIG d   1      -6.294  94.182 119.118  0.00  0.00    -0.311 N 
ATOM     14  C   LIG d   1      -6.553  95.485 119.224  0.00  0.00     0.210 C 
ATOM     15  C   LIG d   1      -6.477  96.045 120.648  0.00  0.00     0.109 C 
ATOM     16  O   LIG d   1      -6.869  96.222 118.279  0.00  0.00    -0.276 OA
ATOM     17  H   LIG d   1      -6.079  93.654 119.940  0.00  0.00     0.149 HD
ENDBRANCH   6  13
BRANCH   5  18
ATOM     18  N   LIG d   1      -8.674  94.023 117.208  0.00  0.00     0.381 N 
ATOM     19  H   LIG d   1      -8.925  94.446 118.080  0.00  0.00    -0.090 HD
ATOM     20  H   LIG d   1      -9.504  93.636 116.795  0.00  0.00    -0.090 HD
ATOM     21  H   LIG d   1      -8.280  94.707 116.601  0.00  0.00    -0.090 HD
ENDBRANCH   5  18
BRANCH   3  22
ATOM     22  C   LIG d   1      -6.804  89.980 115.449  0.00  0.00     0.382 C 
ATOM     23  O   LIG d   1      -7.952  89.485 115.341  0.00  0.00    -0.241 OA
ATOM     24  O   LIG d   1      -5.836  89.405 114.917  0.00  0.00    -0.241 OA
ENDBRANCH   3  22
TORSDOF 7
ENDMDL
MODEL 3
REMARK VINA RESULT:      -5.3     12.465     14.541
REMARK  7 active torsions:
REMARK  status: ('A' for Active; 'I' for Inactive)
REMARK    1  A    between atoms: C_2  and  C_3 
REMARK    2  A    between atoms: C_3  and  O_6 
REMARK    3  A    between atoms: C_3  and  C_4 
REMARK    4  A    between atoms: C_7  and  O_6 
REMARK    5  A    between atoms: C_9  and  C_10 
REMARK    6  A    between atoms: N_15  and  C_14 
REMARK    7  A    between atoms: N_20  and  C_19 
REMARK       I    between atoms: C_22  and  N_20 
ROOT
ATOM      1  C   LIG d   1      -4.678  91.403 117.884  0.00  0.00     0.161 C 
ATOM      2  C   LIG d   1      -5.323  90.758 116.816  0.00  0.00     0.016 C 
ATOM      3  C   LIG d   1      -6.411  91.320 116.110  0.00  0.00     0.038 C 
ATOM      4  C   LIG d   1      -6.834  92.640 116.328  0.00  0.00     0.028 C 
ATOM      5  C   LIG d   1      -6.543  93.144 117.737  0.00  0.00    -0.047 C 
ATOM      6  C   LIG d   1      -5.053  92.889 118.063  0.00  0.00     0.091 C 
ENDROOT
BRANCH   1   7
ATOM      7  O   LIG d   1      -3.250  91.260 117.751  0.00  0.00    -0.368 OA
BRANCH   7   8
ATOM      8  C   LIG d   1      -2.685  90.023 118.250  0.00  0.00     0.119 C 
BRANCH   8   9
ATOM      9  C   LIG d   1      -2.921  89.987 119.773  0.00  0.00     0.028 C 
ATOM     10  C   LIG d   1      -2.984  88.553 120.324  0.00  0.00     0.006 C 
ENDBRANCH   8   9
BRANCH   8  11
ATOM     11  C   LIG d   1      -1.163  89.995 118.075  0.00  0.00     0.028 C 
ATOM     12  C   LIG d   1      -0.524  91.388 118.191  0.00  0.00     0.006 C 
ENDBRANCH   8  11
ENDBRANCH   7   8
ENDBRANCH   1   7
BRANCH   6  13
ATOM     13  N   LIG d   1      -4.703  93.277 119.455  0.00  0.00    -0.311 N 
ATOM     14  C   LIG d   1      -3.745  94.153 119.753  0.00  0.00     0.210 C 
ATOM     15  C   LIG d   1      -3.533  94.394 121.251  0.00  0.00     0.109 C 
ATOM     16  O   LIG d   1      -3.073  94.777 118.918  0.00  0.00    -0.276 OA
ATOM     17  H   LIG d   1      -5.221  92.842 120.193  0.00  0.00     0.149 HD
ENDBRANCH   6  13
BRANCH   5  18
ATOM     18  N   LIG d   1      -6.908  94.573 117.784  0.00  0.00     0.381 N 
ATOM     19  H   LIG d   1      -6.111  95.134 117.559  0.00  0.00    -0.090 HD
ATOM     20  H   LIG d   1      -7.202  94.803 118.717  0.00  0.00    -0.090 HD
ATOM     21  H   LIG d   1      -7.646  94.757 117.141  0.00  0.00    -0.090 HD
ENDBRANCH   5  18
BRANCH   3  22
ATOM     22  C   LIG d   1      -7.115  90.545 115.201  0.00  0.00     0.382 C 
ATOM     23  O   LIG d   1      -8.247  90.915 114.805  0.00  0.00    -0.241 OA
ATOM     24  O   LIG d   1      -6.652  89.458 114.806  0.00  0.00    -0.241 OA
ENDBRANCH   3  22
TORSDOF 7
ENDMDL
MODEL 4
REMARK VINA RESULT:      -5.3      1.512      2.262
REMARK  7 active torsions:
REMARK  status: ('A' for Active; 'I' for Inactive)
REMARK    1  A    between atoms: C_2  and  C_3 
REMARK    2  A    between atoms: C_3  and  O_6 
REMARK    3  A    between atoms: C_3  and  C_4 
REMARK    4  A    between atoms: C_7  and  O_6 
REMARK    5  A    between atoms: C_9  and  C_10 
REMARK    6  A    between atoms: N_15  and  C_14 
REMARK    7  A    between atoms: N_20  and  C_19 
REMARK       I    between atoms: C_22  and  N_20 
ROOT
ATOM      1  C   LIG d   1      -6.545  78.653 118.519  0.00  0.00     0.161 C 
ATOM      2  C   LIG d   1      -7.899  78.376 118.771  0.00  0.00     0.016 C 
ATOM      3  C   LIG d   1      -8.944  79.287 118.491  0.00  0.00     0.038 C 
ATOM      4  C   LIG d   1      -8.718  80.483 117.795  0.00  0.00     0.028 C 
ATOM      5  C   LIG d   1      -7.305  81.030 117.972  0.00  0.00    -0.047 C 
ATOM      6  C   LIG d   1      -6.290  79.907 117.658  0.00  0.00     0.091 C 
ENDROOT
BRANCH   1   7
ATOM      7  O   LIG d   1      -5.914  77.501 117.926  0.00  0.00    -0.368 OA
BRANCH   7   8
ATOM      8  C   LIG d   1      -6.041  77.375 116.488  0.00  0.00     0.119 C 
BRANCH   8   9
ATOM      9  C   LIG d   1      -7.078  76.270 116.210  0.00  0.00     0.028 C 
ATOM     10  C   LIG d   1      -6.422  74.919 115.875  0.00  0.00     0.006 C 
ENDBRANCH   8   9
BRANCH   8  11
ATOM     11  C   LIG d   1      -4.738  76.877 115.855  0.00  0.00     0.028 C 
ATOM     12  C   LIG d   1      -3.537  76.972 116.809  0.00  0.00     0.006 C 
ENDBRANCH   8  11
ENDBRANCH   7   8
ENDBRANCH   1   7
BRANCH   6  13
ATOM     13  N   LIG d   1      -4.885  80.333 117.888  0.00  0.00    -0.311 N 
ATOM     14  C   LIG d   1      -4.005  80.520 116.906  0.00  0.00     0.210 C 
ATOM     15  C   LIG d   1      -2.604  80.939 117.364  0.00  0.00     0.109 C 
ATOM     16  O   LIG d   1      -4.260  80.409 115.698  0.00  0.00    -0.276 OA
ATOM     17  H   LIG d   1      -4.602  80.476 118.838  0.00  0.00     0.149 HD
ENDBRANCH   6  13
BRANCH   5  18
ATOM     18  N   LIG d   1      -7.166  82.200 117.085  0.00  0.00     0.381 N 
ATOM     19  H   LIG d   1      -6.550  81.980 116.328  0.00  0.00    -0.090 HD
ATOM     20  H   LIG d   1      -6.764  82.958 117.608  0.00  0.00    -0.090 HD
ATOM     21  H   LIG d   1      -8.058  82.468 116.731  0.00  0.00    -0.090 HD
ENDBRANCH   5  18
BRANCH   3  22
ATOM     22  C   LIG d   1     -10.227  79.021 118.944  0.00  0.00     0.382 C 
ATOM     23  O   LIG d   1     -10.736  79.736 119.840  0.00  0.00    -0.241 OA
ATOM     24  O   LIG d   1     -10.865  78.047 118.500  0.00  0.00    -0.241 OA
ENDBRANCH   3  22
TORSDOF 7
ENDMDL
MODEL 5
REMARK VINA RESULT:      -5.1     19.886     21.653
REMARK  7 active torsions:
REMARK  status: ('A' for Active; 'I' for Inactive)
REMARK    1  A    between atoms: C_2  and  C_3 
REMARK    2  A    between atoms: C_3  and  O_6 
REMARK    3  A    between atoms: C_3  and  C_4 
REMARK    4  A    between atoms: C_7  and  O_6 
REMARK    5  A    between atoms: C_9  and  C_10 
REMARK    6  A    between atoms: N_15  and  C_14 
REMARK    7  A    between atoms: N_20  and  C_19 
REMARK       I    between atoms: C_22  and  N_20 
ROOT
ATOM      1  C   LIG d   1       0.293  57.219 118.959  0.00  0.00     0.161 C 
ATOM      2  C   LIG d   1      -1.088  57.134 119.199  0.00  0.00     0.016 C 
ATOM      3  C   LIG d   1      -2.062  57.726 118.361  0.00  0.00     0.038 C 
ATOM      4  C   LIG d   1      -1.723  58.319 117.136  0.00  0.00     0.028 C 
ATOM      5  C   LIG d   1      -0.301  58.870 117.102  0.00  0.00    -0.047 C 
ATOM      6  C   LIG d   1       0.675  57.766 117.568  0.00  0.00     0.091 C 
ENDROOT
BRANCH   1   7
ATOM      7  O   LIG d   1       0.907  55.933 119.177  0.00  0.00    -0.368 OA
BRANCH   7   8
ATOM      8  C   LIG d   1       0.083  54.777 118.888  0.00  0.00     0.119 C 
BRANCH   8   9
ATOM      9  C   LIG d   1       0.271  53.774 120.043  0.00  0.00     0.028 C 
ATOM     10  C   LIG d   1       0.159  54.442 121.424  0.00  0.00     0.006 C 
ENDBRANCH   8   9
BRANCH   8  11
ATOM     11  C   LIG d   1       0.570  54.045 117.634  0.00  0.00     0.028 C 
ATOM     12  C   LIG d   1      -0.217  54.437 116.373  0.00  0.00     0.006 C 
ENDBRANCH   8  11
ENDBRANCH   7   8
ENDBRANCH   1   7
BRANCH   6  13
ATOM     13  N   LIG d   1       2.079  58.248 117.644  0.00  0.00    -0.311 N 
ATOM     14  C   LIG d   1       2.467  59.258 118.421  0.00  0.00     0.210 C 
ATOM     15  C   LIG d   1       3.956  59.606 118.334  0.00  0.00     0.109 C 
ATOM     16  O   LIG d   1       1.725  59.879 119.197  0.00  0.00    -0.276 OA
ATOM     17  H   LIG d   1       2.754  57.780 117.071  0.00  0.00     0.149 HD
ENDBRANCH   6  13
BRANCH   5  18
ATOM     18  N   LIG d   1      -0.036  59.334 115.727  0.00  0.00     0.381 N 
ATOM     19  H   LIG d   1       0.720  59.989 115.730  0.00  0.00    -0.090 HD
ATOM     20  H   LIG d   1      -0.855  59.799 115.377  0.00  0.00    -0.090 HD
ATOM     21  H   LIG d   1       0.189  58.558 115.143  0.00  0.00    -0.090 HD
ENDBRANCH   5  18
BRANCH   3  22
ATOM     22  C   LIG d   1      -3.387  57.764 118.768  0.00  0.00     0.382 C 
ATOM     23  O   LIG d   1      -3.873  56.801 119.408  0.00  0.00    -0.241 OA
ATOM     24  O   LIG d   1      -4.114  58.728 118.463  0.00  0.00    -0.241 OA
ENDBRANCH   3  22
TORSDOF 7
ENDMDL
MODEL 6
REMARK VINA RESULT:      -5.1     18.618     21.795
REMARK  7 active torsions:
REMARK  status: ('A' for Active; 'I' for Inactive)
REMARK    1  A    between atoms: C_2  and  C_3 
REMARK    2  A    between atoms: C_3  and  O_6 
REMARK    3  A    between atoms: C_3  and  C_4 
REMARK    4  A    between atoms: C_7  and  O_6 
REMARK    5  A    between atoms: C_9  and  C_10 
REMARK    6  A    between atoms: N_15  and  C_14 
REMARK    7  A    between atoms: N_20  and  C_19 
REMARK       I    between atoms: C_22  and  N_20 
ROOT
ATOM      1  C   LIG d   1       0.880  57.886 118.785  0.00  0.00     0.161 C 
ATOM      2  C   LIG d   1       1.554  56.854 118.111  0.00  0.00     0.016 C 
ATOM      3  C   LIG d   1       0.901  55.891 117.308  0.00  0.00     0.038 C 
ATOM      4  C   LIG d   1      -0.465  55.986 117.001  0.00  0.00     0.028 C 
ATOM      5  C   LIG d   1      -1.276  56.717 118.066  0.00  0.00    -0.047 C 
ATOM      6  C   LIG d   1      -0.596  58.071 118.373  0.00  0.00     0.091 C 
ENDROOT
BRANCH   1   7
ATOM      7  O   LIG d   1       1.602  59.124 118.632  0.00  0.00    -0.368 OA
BRANCH   7   8
ATOM      8  C   LIG d   1       3.043  59.041 118.756  0.00  0.00     0.119 C 
BRANCH   8   9
ATOM      9  C   LIG d   1       3.439  59.771 120.054  0.00  0.00     0.028 C 
ATOM     10  C   LIG d   1       2.216  60.273 120.840  0.00  0.00     0.006 C 
ENDBRANCH   8   9
BRANCH   8  11
ATOM     11  C   LIG d   1       3.745  59.806 117.630  0.00  0.00     0.028 C 
ATOM     12  C   LIG d   1       5.059  60.461 118.084  0.00  0.00     0.006 C 
ENDBRANCH   8  11
ENDBRANCH   7   8
ENDBRANCH   1   7
BRANCH   6  13
ATOM     13  N   LIG d   1      -1.278  58.813 119.464  0.00  0.00    -0.311 N 
ATOM     14  C   LIG d   1      -2.184  59.766 119.249  0.00  0.00     0.210 C 
ATOM     15  C   LIG d   1      -2.750  60.418 120.514  0.00  0.00     0.109 C 
ATOM     16  O   LIG d   1      -2.596  60.109 118.131  0.00  0.00    -0.276 OA
ATOM     17  H   LIG d   1      -1.026  58.576 120.404  0.00  0.00     0.149 HD
ENDBRANCH   6  13
BRANCH   5  18
ATOM     18  N   LIG d   1      -2.652  56.864 117.555  0.00  0.00     0.381 N 
ATOM     19  H   LIG d   1      -3.145  56.000 117.657  0.00  0.00    -0.090 HD
ATOM     20  H   LIG d   1      -2.613  57.092 116.577  0.00  0.00    -0.090 HD
ATOM     21  H   LIG d   1      -3.125  57.586 118.053  0.00  0.00    -0.090 HD
ENDBRANCH   5  18
BRANCH   3  22
ATOM     22  C   LIG d   1       1.608  54.796 116.835  0.00  0.00     0.382 C 
ATOM     23  O   LIG d   1       1.410  54.378 115.669  0.00  0.00    -0.241 OA
ATOM     24  O   LIG d   1       2.409  54.194 117.575  0.00  0.00    -0.241 OA
ENDBRANCH   3  22
TORSDOF 7
ENDMDL
MODEL 7
REMARK VINA RESULT:      -4.8     18.950     21.182
REMARK  7 active torsions:
REMARK  status: ('A' for Active; 'I' for Inactive)
REMARK    1  A    between atoms: C_2  and  C_3 
REMARK    2  A    between atoms: C_3  and  O_6 
REMARK    3  A    between atoms: C_3  and  C_4 
REMARK    4  A    between atoms: C_7  and  O_6 
REMARK    5  A    between atoms: C_9  and  C_10 
REMARK    6  A    between atoms: N_15  and  C_14 
REMARK    7  A    between atoms: N_20  and  C_19 
REMARK       I    between atoms: C_22  and  N_20 
ROOT
ATOM      1  C   LIG d   1       0.275  58.788 117.385  0.00  0.00     0.161 C 
ATOM      2  C   LIG d   1       1.678  58.744 117.432  0.00  0.00     0.016 C 
ATOM      3  C   LIG d   1       2.440  59.311 118.479  0.00  0.00     0.038 C 
ATOM      4  C   LIG d   1       1.839  59.833 119.634  0.00  0.00     0.028 C 
ATOM      5  C   LIG d   1       0.425  60.353 119.399  0.00  0.00    -0.047 C 
ATOM      6  C   LIG d   1      -0.402  59.255 118.691  0.00  0.00     0.091 C 
ENDROOT
BRANCH   1   7
ATOM      7  O   LIG d   1      -0.242  57.503 116.985  0.00  0.00    -0.368 OA
BRANCH   7   8
ATOM      8  C   LIG d   1       0.496  56.346 117.452  0.00  0.00     0.119 C 
BRANCH   8   9
ATOM      9  C   LIG d   1       0.401  55.264 116.359  0.00  0.00     0.028 C 
ATOM     10  C   LIG d   1       1.559  54.256 116.429  0.00  0.00     0.006 C 
ENDBRANCH   8   9
BRANCH   8  11
ATOM     11  C   LIG d   1      -0.160  55.730 118.691  0.00  0.00     0.028 C 
ATOM     12  C   LIG d   1       0.724  55.830 119.945  0.00  0.00     0.006 C 
ENDBRANCH   8  11
ENDBRANCH   7   8
ENDBRANCH   1   7
BRANCH   6  13
ATOM     13  N   LIG d   1      -1.774  59.711 118.348  0.00  0.00    -0.311 N 
ATOM     14  C   LIG d   1      -2.871  59.011 118.630  0.00  0.00     0.210 C 
ATOM     15  C   LIG d   1      -4.184  59.653 118.172  0.00  0.00     0.109 C 
ATOM     16  O   LIG d   1      -2.884  57.933 119.244  0.00  0.00    -0.276 OA
ATOM     17  H   LIG d   1      -1.858  60.590 117.876  0.00  0.00     0.149 HD
ENDBRANCH   6  13
BRANCH   5  18
ATOM     18  N   LIG d   1      -0.131  60.740 120.710  0.00  0.00     0.381 N 
ATOM     19  H   LIG d   1      -0.747  61.521 120.599  0.00  0.00    -0.090 HD
ATOM     20  H   LIG d   1       0.623  61.015 121.314  0.00  0.00    -0.090 HD
ATOM     21  H   LIG d   1      -0.625  59.973 121.110  0.00  0.00    -0.090 HD
ENDBRANCH   5  18
BRANCH   3  22
ATOM     22  C   LIG d   1       3.818  59.396 118.357  0.00  0.00     0.382 C 
ATOM     23  O   LIG d   1       4.326  60.132 117.477  0.00  0.00    -0.241 OA
ATOM     24  O   LIG d   1       4.560  58.712 119.088  0.00  0.00    -0.241 OA
ENDBRANCH   3  22
TORSDOF 7
ENDMDL
MODEL 8
REMARK VINA RESULT:      -4.7      2.196      5.184
REMARK  7 active torsions:
REMARK  status: ('A' for Active; 'I' for Inactive)
REMARK    1  A    between atoms: C_2  and  C_3 
REMARK    2  A    between atoms: C_3  and  O_6 
REMARK    3  A    between atoms: C_3  and  C_4 
REMARK    4  A    between atoms: C_7  and  O_6 
REMARK    5  A    between atoms: C_9  and  C_10 
REMARK    6  A    between atoms: N_15  and  C_14 
REMARK    7  A    between atoms: N_20  and  C_19 
REMARK       I    between atoms: C_22  and  N_20 
ROOT
ATOM      1  C   LIG d   1      -4.780  78.171 116.603  0.00  0.00     0.161 C 
ATOM      2  C   LIG d   1      -4.678  76.945 115.923  0.00  0.00     0.016 C 
ATOM      3  C   LIG d   1      -5.736  76.010 115.842  0.00  0.00     0.038 C 
ATOM      4  C   LIG d   1      -7.024  76.306 116.310  0.00  0.00     0.028 C 
ATOM      5  C   LIG d   1      -7.038  77.323 117.447  0.00  0.00    -0.047 C 
ATOM      6  C   LIG d   1      -6.212  78.560 117.024  0.00  0.00     0.091 C 
ENDROOT
BRANCH   1   7
ATOM      7  O   LIG d   1      -4.189  79.219 115.810  0.00  0.00    -0.368 OA
BRANCH   7   8
ATOM      8  C   LIG d   1      -2.822  79.572 116.137  0.00  0.00     0.119 C 
BRANCH   8   9
ATOM      9  C   LIG d   1      -2.864  80.873 116.962  0.00  0.00     0.028 C 
ATOM     10  C   LIG d   1      -2.636  80.624 118.462  0.00  0.00     0.006 C 
ENDBRANCH   8   9
BRANCH   8  11
ATOM     11  C   LIG d   1      -2.019  79.915 114.879  0.00  0.00     0.028 C 
ATOM     12  C   LIG d   1      -0.824  80.838 115.168  0.00  0.00     0.006 C 
ENDBRANCH   8  11
ENDBRANCH   7   8
ENDBRANCH   1   7
BRANCH   6  13
ATOM     13  N   LIG d   1      -6.104  79.567 118.111  0.00  0.00    -0.311 N 
ATOM     14  C   LIG d   1      -6.496  80.833 117.978  0.00  0.00     0.210 C 
ATOM     15  C   LIG d   1      -6.276  81.711 119.215  0.00  0.00     0.109 C 
ATOM     16  O   LIG d   1      -7.034  81.305 116.965  0.00  0.00    -0.276 OA
ATOM     17  H   LIG d   1      -5.707  79.262 118.978  0.00  0.00     0.149 HD
ENDBRANCH   6  13
BRANCH   5  18
ATOM     18  N   LIG d   1      -8.447  77.642 117.743  0.00  0.00     0.381 N 
ATOM     19  H   LIG d   1      -8.944  76.803 117.968  0.00  0.00    -0.090 HD
ATOM     20  H   LIG d   1      -8.867  78.048 116.925  0.00  0.00    -0.090 HD
ATOM     21  H   LIG d   1      -8.499  78.282 118.505  0.00  0.00    -0.090 HD
ENDBRANCH   5  18
BRANCH   3  22
ATOM     22  C   LIG d   1      -5.497  74.747 115.323  0.00  0.00     0.382 C 
ATOM     23  O   LIG d   1      -6.376  73.856 115.413  0.00  0.00    -0.241 OA
ATOM     24  O   LIG d   1      -4.398  74.473 114.805  0.00  0.00    -0.241 OA
ENDBRANCH   3  22
TORSDOF 7
ENDMDL
MODEL 9
REMARK VINA RESULT:      -4.6     14.166     16.804
REMARK  7 active torsions:
REMARK  status: ('A' for Active; 'I' for Inactive)
REMARK    1  A    between atoms: C_2  and  C_3 
REMARK    2  A    between atoms: C_3  and  O_6 
REMARK    3  A    between atoms: C_3  and  C_4 
REMARK    4  A    between atoms: C_7  and  O_6 
REMARK    5  A    between atoms: C_9  and  C_10 
REMARK    6  A    between atoms: N_15  and  C_14 
REMARK    7  A    between atoms: N_20  and  C_19 
REMARK       I    between atoms: C_22  and  N_20 
ROOT
ATOM      1  C   LIG d   1     -16.103  64.860 116.946  0.00  0.00     0.161 C 
ATOM      2  C   LIG d   1     -16.142  66.086 116.262  0.00  0.00     0.016 C 
ATOM      3  C   LIG d   1     -15.300  67.178 116.573  0.00  0.00     0.038 C 
ATOM      4  C   LIG d   1     -14.249  67.064 117.496  0.00  0.00     0.028 C 
ATOM      5  C   LIG d   1     -14.496  66.007 118.567  0.00  0.00    -0.047 C 
ATOM      6  C   LIG d   1     -14.889  64.679 117.881  0.00  0.00     0.091 C 
ENDROOT
BRANCH   1   7
ATOM      7  O   LIG d   1     -16.174  63.772 116.002  0.00  0.00    -0.368 OA
BRANCH   7   8
ATOM      8  C   LIG d   1     -17.395  62.992 116.021  0.00  0.00     0.119 C 
BRANCH   8   9
ATOM      9  C   LIG d   1     -18.238  63.422 114.805  0.00  0.00     0.028 C 
ATOM     10  C   LIG d   1     -19.372  64.387 115.189  0.00  0.00     0.006 C 
ENDBRANCH   8   9
BRANCH   8  11
ATOM     11  C   LIG d   1     -18.251  63.325 117.246  0.00  0.00     0.028 C 
ATOM     12  C   LIG d   1     -18.436  62.125 118.188  0.00  0.00     0.006 C 
ENDBRANCH   8  11
ENDBRANCH   7   8
ENDBRANCH   1   7
BRANCH   6  13
ATOM     13  N   LIG d   1     -15.229  63.614 118.860  0.00  0.00    -0.311 N 
ATOM     14  C   LIG d   1     -14.372  62.669 119.242  0.00  0.00     0.210 C 
ATOM     15  C   LIG d   1     -14.933  61.656 120.245  0.00  0.00     0.109 C 
ATOM     16  O   LIG d   1     -13.192  62.592 118.870  0.00  0.00    -0.276 OA
ATOM     17  H   LIG d   1     -16.157  63.620 119.236  0.00  0.00     0.149 HD
ENDBRANCH   6  13
BRANCH   5  18
ATOM     18  N   LIG d   1     -13.268  65.899 119.377  0.00  0.00     0.381 N 
ATOM     19  H   LIG d   1     -13.428  65.291 120.155  0.00  0.00    -0.090 HD
ATOM     20  H   LIG d   1     -13.030  66.808 119.731  0.00  0.00    -0.090 HD
ATOM     21  H   LIG d   1     -12.521  65.546 118.819  0.00  0.00    -0.090 HD
ENDBRANCH   5  18
BRANCH   3  22
ATOM     22  C   LIG d   1     -15.530  68.413 115.986  0.00  0.00     0.382 C 
ATOM     23  O   LIG d   1     -16.388  69.188 116.472  0.00  0.00    -0.241 OA
ATOM     24  O   LIG d   1     -14.922  68.743 114.950  0.00  0.00    -0.241 OA
ENDBRANCH   3  22
TORSDOF 7
ENDMDL
