MODEL 1
REMARK VINA RESULT:      -5.8      0.000      0.000
REMARK  7 active torsions:
REMARK  status: ('A' for Active; 'I' for Inactive)
REMARK    1  A    between atoms: C_2  and  C_3 
REMARK    2  A    between atoms: C_3  and  O_6 
REMARK    3  A    between atoms: C_3  and  C_4 
REMARK    4  A    between atoms: C_7  and  O_6 
REMARK    5  A    between atoms: C_9  and  C_10 
REMARK    6  A    between atoms: N_15  and  C_14 
REMARK    7  A    between atoms: N_20  and  C_19 
REMARK       I    between atoms: C_22  and  N_20 
ROOT
ATOM      1  C   LIG d   1      -8.683  77.336 117.927  0.00  0.00     0.161 C 
ATOM      2  C   LIG d   1      -9.578  78.382 118.207  0.00  0.00     0.016 C 
ATOM      3  C   LIG d   1      -9.236  79.749 118.095  0.00  0.00     0.038 C 
ATOM      4  C   LIG d   1      -8.014  80.166 117.546  0.00  0.00     0.028 C 
ATOM      5  C   LIG d   1      -6.893  79.148 117.722  0.00  0.00    -0.047 C 
ATOM      6  C   LIG d   1      -7.382  77.770 117.220  0.00  0.00     0.091 C 
ENDROOT
BRANCH   1   7
ATOM      7  O   LIG d   1      -9.351  76.313 117.162  0.00  0.00    -0.368 OA
BRANCH   7   8
ATOM      8  C   LIG d   1      -9.590  75.059 117.847  0.00  0.00     0.119 C 
BRANCH   8   9
ATOM      9  C   LIG d   1      -9.181  75.251 119.321  0.00  0.00     0.028 C 
ATOM     10  C   LIG d   1      -9.581  74.056 120.201  0.00  0.00     0.006 C 
ENDBRANCH   8   9
BRANCH   8  11
ATOM     11  C   LIG d   1      -8.678  73.950 117.315  0.00  0.00     0.028 C 
ATOM     12  C   LIG d   1      -9.461  72.740 116.781  0.00  0.00     0.006 C 
ENDBRANCH   8  11
ENDBRANCH   7   8
ENDBRANCH   1   7
BRANCH   6  13
ATOM     13  N   LIG d   1      -6.374  76.699 117.433  0.00  0.00    -0.311 N 
ATOM     14  C   LIG d   1      -5.495  76.324 116.506  0.00  0.00     0.210 C 
ATOM     15  C   LIG d   1      -4.558  75.187 116.926  0.00  0.00     0.109 C 
ATOM     16  O   LIG d   1      -5.380  76.847 115.388  0.00  0.00    -0.276 OA
ATOM     17  H   LIG d   1      -6.376  76.242 118.324  0.00  0.00     0.149 HD
ENDBRANCH   6  13
BRANCH   5  18
ATOM     18  N   LIG d   1      -5.717  79.648 116.984  0.00  0.00     0.381 N 
ATOM     19  H   LIG d   1      -5.531  79.055 116.201  0.00  0.00    -0.090 HD
ATOM     20  H   LIG d   1      -4.918  79.627 117.593  0.00  0.00    -0.090 HD
ATOM     21  H   LIG d   1      -5.881  80.580 116.672  0.00  0.00    -0.090 HD
ENDBRANCH   5  18
BRANCH   3  22
ATOM     22  C   LIG d   1     -10.107  80.717 118.573  0.00  0.00     0.382 C 
ATOM     23  O   LIG d   1     -10.696  81.481 117.771  0.00  0.00    -0.241 OA
ATOM     24  O   LIG d   1     -10.277  80.864 119.798  0.00  0.00    -0.241 OA
ENDBRANCH   3  22
TORSDOF 7
ENDMDL
MODEL 2
REMARK VINA RESULT:      -5.7      2.681      4.929
REMARK  7 active torsions:
REMARK  status: ('A' for Active; 'I' for Inactive)
REMARK    1  A    between atoms: C_2  and  C_3 
REMARK    2  A    between atoms: C_3  and  O_6 
REMARK    3  A    between atoms: C_3  and  C_4 
REMARK    4  A    between atoms: C_7  and  O_6 
REMARK    5  A    between atoms: C_9  and  C_10 
REMARK    6  A    between atoms: N_15  and  C_14 
REMARK    7  A    between atoms: N_20  and  C_19 
REMARK       I    between atoms: C_22  and  N_20 
ROOT
ATOM      1  C   LIG d   1      -8.907  75.893 117.236  0.00  0.00     0.161 C 
ATOM      2  C   LIG d   1      -7.822  75.742 116.355  0.00  0.00     0.016 C 
ATOM      3  C   LIG d   1      -6.549  76.311 116.586  0.00  0.00     0.038 C 
ATOM      4  C   LIG d   1      -6.228  76.947 117.794  0.00  0.00     0.028 C 
ATOM      5  C   LIG d   1      -7.436  77.559 118.496  0.00  0.00    -0.047 C 
ATOM      6  C   LIG d   1      -8.545  76.489 118.612  0.00  0.00     0.091 C 
ENDROOT
BRANCH   1   7
ATOM      7  O   LIG d   1      -9.582  74.630 117.399  0.00  0.00    -0.368 OA
BRANCH   7   8
ATOM      8  C   LIG d   1      -8.812  73.570 118.016  0.00  0.00     0.119 C 
BRANCH   8   9
ATOM      9  C   LIG d   1      -8.941  72.322 117.121  0.00  0.00     0.028 C 
ATOM     10  C   LIG d   1      -7.618  71.957 116.427  0.00  0.00     0.006 C 
ENDBRANCH   8   9
BRANCH   8  11
ATOM     11  C   LIG d   1      -9.406  73.163 119.367  0.00  0.00     0.028 C 
ATOM     12  C   LIG d   1      -9.646  71.649 119.481  0.00  0.00     0.006 C 
ENDBRANCH   8  11
ENDBRANCH   7   8
ENDBRANCH   1   7
BRANCH   6  13
ATOM     13  N   LIG d   1      -9.793  77.028 119.211  0.00  0.00    -0.311 N 
ATOM     14  C   LIG d   1     -10.106  76.894 120.498  0.00  0.00     0.210 C 
ATOM     15  C   LIG d   1     -11.450  77.507 120.905  0.00  0.00     0.109 C 
ATOM     16  O   LIG d   1      -9.385  76.352 121.349  0.00  0.00    -0.276 OA
ATOM     17  H   LIG d   1     -10.422  77.510 118.598  0.00  0.00     0.149 HD
ENDBRANCH   6  13
BRANCH   5  18
ATOM     18  N   LIG d   1      -6.981  78.066 119.804  0.00  0.00     0.381 N 
ATOM     19  H   LIG d   1      -6.066  77.716 120.004  0.00  0.00    -0.090 HD
ATOM     20  H   LIG d   1      -7.608  77.734 120.517  0.00  0.00    -0.090 HD
ATOM     21  H   LIG d   1      -6.971  79.062 119.799  0.00  0.00    -0.090 HD
ENDBRANCH   5  18
BRANCH   3  22
ATOM     22  C   LIG d   1      -5.591  76.281 115.583  0.00  0.00     0.382 C 
ATOM     23  O   LIG d   1      -5.435  75.243 114.896  0.00  0.00    -0.241 OA
ATOM     24  O   LIG d   1      -4.852  77.264 115.386  0.00  0.00    -0.241 OA
ENDBRANCH   3  22
TORSDOF 7
ENDMDL
MODEL 3
REMARK VINA RESULT:      -5.7     13.641     16.020
REMARK  7 active torsions:
REMARK  status: ('A' for Active; 'I' for Inactive)
REMARK    1  A    between atoms: C_2  and  C_3 
REMARK    2  A    between atoms: C_3  and  O_6 
REMARK    3  A    between atoms: C_3  and  C_4 
REMARK    4  A    between atoms: C_7  and  O_6 
REMARK    5  A    between atoms: C_9  and  C_10 
REMARK    6  A    between atoms: N_15  and  C_14 
REMARK    7  A    between atoms: N_20  and  C_19 
REMARK       I    between atoms: C_22  and  N_20 
ROOT
ATOM      1  C   LIG d   1      -5.138  91.860 118.237  0.00  0.00     0.161 C 
ATOM      2  C   LIG d   1      -5.450  90.963 117.201  0.00  0.00     0.016 C 
ATOM      3  C   LIG d   1      -6.230  91.315 116.076  0.00  0.00     0.038 C 
ATOM      4  C   LIG d   1      -6.628  92.638 115.834  0.00  0.00     0.028 C 
ATOM      5  C   LIG d   1      -6.766  93.471 117.103  0.00  0.00    -0.047 C 
ATOM      6  C   LIG d   1      -5.470  93.336 117.935  0.00  0.00     0.091 C 
ENDROOT
BRANCH   1   7
ATOM      7  O   LIG d   1      -3.750  91.723 118.601  0.00  0.00    -0.368 OA
BRANCH   7   8
ATOM      8  C   LIG d   1      -3.482  91.001 119.828  0.00  0.00     0.119 C 
BRANCH   8   9
ATOM      9  C   LIG d   1      -2.995  92.027 120.871  0.00  0.00     0.028 C 
ATOM     10  C   LIG d   1      -2.035  93.066 120.268  0.00  0.00     0.006 C 
ENDBRANCH   8   9
BRANCH   8  11
ATOM     11  C   LIG d   1      -2.321  90.018 119.654  0.00  0.00     0.028 C 
ATOM     12  C   LIG d   1      -2.596  88.956 118.578  0.00  0.00     0.006 C 
ENDBRANCH   8  11
ENDBRANCH   7   8
ENDBRANCH   1   7
BRANCH   6  13
ATOM     13  N   LIG d   1      -5.553  94.053 119.234  0.00  0.00    -0.311 N 
ATOM     14  C   LIG d   1      -5.010  95.251 119.447  0.00  0.00     0.210 C 
ATOM     15  C   LIG d   1      -5.195  95.802 120.864  0.00  0.00     0.109 C 
ATOM     16  O   LIG d   1      -4.420  95.923 118.587  0.00  0.00    -0.276 OA
ATOM     17  H   LIG d   1      -6.041  93.594 119.978  0.00  0.00     0.149 HD
ENDBRANCH   6  13
BRANCH   5  18
ATOM     18  N   LIG d   1      -7.050  94.860 116.696  0.00  0.00     0.381 N 
ATOM     19  H   LIG d   1      -8.027  95.050 116.800  0.00  0.00    -0.090 HD
ATOM     20  H   LIG d   1      -6.809  94.971 115.727  0.00  0.00    -0.090 HD
ATOM     21  H   LIG d   1      -6.520  95.494 117.253  0.00  0.00    -0.090 HD
ENDBRANCH   5  18
BRANCH   3  22
ATOM     22  C   LIG d   1      -6.654  90.328 115.198  0.00  0.00     0.382 C 
ATOM     23  O   LIG d   1      -7.853  90.290 114.830  0.00  0.00    -0.241 OA
ATOM     24  O   LIG d   1      -5.863  89.449 114.806  0.00  0.00    -0.241 OA
ENDBRANCH   3  22
TORSDOF 7
ENDMDL
MODEL 4
REMARK VINA RESULT:      -5.7      2.456      4.772
REMARK  7 active torsions:
REMARK  status: ('A' for Active; 'I' for Inactive)
REMARK    1  A    between atoms: C_2  and  C_3 
REMARK    2  A    between atoms: C_3  and  O_6 
REMARK    3  A    between atoms: C_3  and  C_4 
REMARK    4  A    between atoms: C_7  and  O_6 
REMARK    5  A    between atoms: C_9  and  C_10 
REMARK    6  A    between atoms: N_15  and  C_14 
REMARK    7  A    between atoms: N_20  and  C_19 
REMARK       I    between atoms: C_22  and  N_20 
ROOT
ATOM      1  C   LIG d   1      -8.527  75.582 116.924  0.00  0.00     0.161 C 
ATOM      2  C   LIG d   1      -8.472  76.976 117.088  0.00  0.00     0.016 C 
ATOM      3  C   LIG d   1      -8.904  77.639 118.259  0.00  0.00     0.038 C 
ATOM      4  C   LIG d   1      -9.283  76.936 119.412  0.00  0.00     0.028 C 
ATOM      5  C   LIG d   1      -9.832  75.544 119.120  0.00  0.00    -0.047 C 
ATOM      6  C   LIG d   1      -8.833  74.790 118.213  0.00  0.00     0.091 C 
ENDROOT
BRANCH   1   7
ATOM      7  O   LIG d   1      -7.302  75.111 116.326  0.00  0.00    -0.368 OA
BRANCH   7   8
ATOM      8  C   LIG d   1      -6.244  76.091 116.187  0.00  0.00     0.119 C 
BRANCH   8   9
ATOM      9  C   LIG d   1      -5.596  75.880 114.805  0.00  0.00     0.028 C 
ATOM     10  C   LIG d   1      -4.106  75.510 114.905  0.00  0.00     0.006 C 
ENDBRANCH   8   9
BRANCH   8  11
ATOM     11  C   LIG d   1      -5.123  75.847 117.202  0.00  0.00     0.028 C 
ATOM     12  C   LIG d   1      -4.924  77.027 118.166  0.00  0.00     0.006 C 
ENDBRANCH   8  11
ENDBRANCH   7   8
ENDBRANCH   1   7
BRANCH   6  13
ATOM     13  N   LIG d   1      -9.332  73.450 117.810  0.00  0.00    -0.311 N 
ATOM     14  C   LIG d   1      -9.216  72.365 118.573  0.00  0.00     0.210 C 
ATOM     15  C   LIG d   1      -9.781  71.079 117.960  0.00  0.00     0.109 C 
ATOM     16  O   LIG d   1      -8.729  72.351 119.714  0.00  0.00    -0.276 OA
ATOM     17  H   LIG d   1      -9.770  73.377 116.912  0.00  0.00     0.149 HD
ENDBRANCH   6  13
BRANCH   5  18
ATOM     18  N   LIG d   1     -10.057  74.873 120.414  0.00  0.00     0.381 N 
ATOM     19  H   LIG d   1      -9.317  74.223 120.592  0.00  0.00    -0.090 HD
ATOM     20  H   LIG d   1     -10.921  74.362 120.370  0.00  0.00    -0.090 HD
ATOM     21  H   LIG d   1     -10.099  75.548 121.146  0.00  0.00    -0.090 HD
ENDBRANCH   5  18
BRANCH   3  22
ATOM     22  C   LIG d   1      -8.999  79.022 118.270  0.00  0.00     0.382 C 
ATOM     23  O   LIG d   1     -10.114  79.576 118.116  0.00  0.00    -0.241 OA
ATOM     24  O   LIG d   1      -7.977  79.724 118.388  0.00  0.00    -0.241 OA
ENDBRANCH   3  22
TORSDOF 7
ENDMDL
MODEL 5
REMARK VINA RESULT:      -5.5      2.385      4.795
REMARK  7 active torsions:
REMARK  status: ('A' for Active; 'I' for Inactive)
REMARK    1  A    between atoms: C_2  and  C_3 
REMARK    2  A    between atoms: C_3  and  O_6 
REMARK    3  A    between atoms: C_3  and  C_4 
REMARK    4  A    between atoms: C_7  and  O_6 
REMARK    5  A    between atoms: C_9  and  C_10 
REMARK    6  A    between atoms: N_15  and  C_14 
REMARK    7  A    between atoms: N_20  and  C_19 
REMARK       I    between atoms: C_22  and  N_20 
ROOT
ATOM      1  C   LIG d   1      -6.933  76.438 116.755  0.00  0.00     0.161 C 
ATOM      2  C   LIG d   1      -6.616  77.796 116.928  0.00  0.00     0.016 C 
ATOM      3  C   LIG d   1      -7.467  78.716 117.581  0.00  0.00     0.038 C 
ATOM      4  C   LIG d   1      -8.633  78.306 118.245  0.00  0.00     0.028 C 
ATOM      5  C   LIG d   1      -9.245  77.035 117.665  0.00  0.00    -0.047 C 
ATOM      6  C   LIG d   1      -8.149  75.949 117.570  0.00  0.00     0.091 C 
ENDROOT
BRANCH   1   7
ATOM      7  O   LIG d   1      -5.777  75.626 117.045  0.00  0.00    -0.368 OA
BRANCH   7   8
ATOM      8  C   LIG d   1      -4.489  76.238 116.790  0.00  0.00     0.119 C 
BRANCH   8   9
ATOM      9  C   LIG d   1      -3.918  75.598 115.509  0.00  0.00     0.028 C 
ATOM     10  C   LIG d   1      -2.381  75.617 115.479  0.00  0.00     0.006 C 
ENDBRANCH   8   9
BRANCH   8  11
ATOM     11  C   LIG d   1      -3.483  75.900 117.895  0.00  0.00     0.028 C 
ATOM     12  C   LIG d   1      -3.551  76.877 119.080  0.00  0.00     0.006 C 
ENDBRANCH   8  11
ENDBRANCH   7   8
ENDBRANCH   1   7
BRANCH   6  13
ATOM     13  N   LIG d   1      -8.643  74.700 116.934  0.00  0.00    -0.311 N 
ATOM     14  C   LIG d   1      -9.111  73.661 117.625  0.00  0.00     0.210 C 
ATOM     15  C   LIG d   1      -9.550  72.465 116.775  0.00  0.00     0.109 C 
ATOM     16  O   LIG d   1      -9.234  73.630 118.858  0.00  0.00    -0.276 OA
ATOM     17  H   LIG d   1      -8.609  74.652 115.935  0.00  0.00     0.149 HD
ENDBRANCH   6  13
BRANCH   5  18
ATOM     18  N   LIG d   1     -10.371  76.646 118.534  0.00  0.00     0.381 N 
ATOM     19  H   LIG d   1     -10.027  76.376 119.434  0.00  0.00    -0.090 HD
ATOM     20  H   LIG d   1     -10.839  75.856 118.126  0.00  0.00    -0.090 HD
ATOM     21  H   LIG d   1     -11.008  77.406 118.628  0.00  0.00    -0.090 HD
ENDBRANCH   5  18
BRANCH   3  22
ATOM     22  C   LIG d   1      -7.174  80.071 117.541  0.00  0.00     0.382 C 
ATOM     23  O   LIG d   1      -7.736  80.809 116.696  0.00  0.00    -0.241 OA
ATOM     24  O   LIG d   1      -6.323  80.556 118.310  0.00  0.00    -0.241 OA
ENDBRANCH   3  22
TORSDOF 7
ENDMDL
MODEL 6
REMARK VINA RESULT:      -5.3     12.509     14.591
REMARK  7 active torsions:
REMARK  status: ('A' for Active; 'I' for Inactive)
REMARK    1  A    between atoms: C_2  and  C_3 
REMARK    2  A    between atoms: C_3  and  O_6 
REMARK    3  A    between atoms: C_3  and  C_4 
REMARK    4  A    between atoms: C_7  and  O_6 
REMARK    5  A    between atoms: C_9  and  C_10 
REMARK    6  A    between atoms: N_15  and  C_14 
REMARK    7  A    between atoms: N_20  and  C_19 
REMARK       I    between atoms: C_22  and  N_20 
ROOT
ATOM      1  C   LIG d   1      -3.987  90.437 117.770  0.00  0.00     0.161 C 
ATOM      2  C   LIG d   1      -4.863  90.207 116.696  0.00  0.00     0.016 C 
ATOM      3  C   LIG d   1      -5.749  91.186 116.191  0.00  0.00     0.038 C 
ATOM      4  C   LIG d   1      -5.712  92.518 116.631  0.00  0.00     0.028 C 
ATOM      5  C   LIG d   1      -5.196  92.670 118.058  0.00  0.00    -0.047 C 
ATOM      6  C   LIG d   1      -3.853  91.916 118.190  0.00  0.00     0.091 C 
ENDROOT
BRANCH   1   7
ATOM      7  O   LIG d   1      -2.691  89.882 117.471  0.00  0.00    -0.368 OA
BRANCH   7   8
ATOM      8  C   LIG d   1      -2.478  88.507 117.876  0.00  0.00     0.119 C 
BRANCH   8   9
ATOM      9  C   LIG d   1      -2.730  88.427 119.394  0.00  0.00     0.028 C 
ATOM     10  C   LIG d   1      -2.326  87.066 119.986  0.00  0.00     0.006 C 
ENDBRANCH   8   9
BRANCH   8  11
ATOM     11  C   LIG d   1      -1.017  88.090 117.685  0.00  0.00     0.028 C 
ATOM     12  C   LIG d   1      -0.086  89.284 117.420  0.00  0.00     0.006 C 
ENDBRANCH   8  11
ENDBRANCH   7   8
ENDBRANCH   1   7
BRANCH   6  13
ATOM     13  N   LIG d   1      -3.322  91.944 119.577  0.00  0.00    -0.311 N 
ATOM     14  C   LIG d   1      -2.035  92.132 119.866  0.00  0.00     0.210 C 
ATOM     15  C   LIG d   1      -1.697  92.105 121.360  0.00  0.00     0.109 C 
ATOM     16  O   LIG d   1      -1.147  92.352 119.028  0.00  0.00    -0.276 OA
ATOM     17  H   LIG d   1      -3.978  91.805 120.320  0.00  0.00     0.149 HD
ENDBRANCH   6  13
BRANCH   5  18
ATOM     18  N   LIG d   1      -5.079  94.113 118.338  0.00  0.00     0.381 N 
ATOM     19  H   LIG d   1      -4.428  94.262 119.083  0.00  0.00    -0.090 HD
ATOM     20  H   LIG d   1      -5.976  94.462 118.629  0.00  0.00    -0.090 HD
ATOM     21  H   LIG d   1      -4.776  94.596 117.521  0.00  0.00    -0.090 HD
ENDBRANCH   5  18
BRANCH   3  22
ATOM     22  C   LIG d   1      -6.713  90.826 115.262  0.00  0.00     0.382 C 
ATOM     23  O   LIG d   1      -7.500  91.692 114.807  0.00  0.00    -0.241 OA
ATOM     24  O   LIG d   1      -6.835  89.639 114.906  0.00  0.00    -0.241 OA
ENDBRANCH   3  22
TORSDOF 7
ENDMDL
MODEL 7
REMARK VINA RESULT:      -5.3      2.429      5.967
REMARK  7 active torsions:
REMARK  status: ('A' for Active; 'I' for Inactive)
REMARK    1  A    between atoms: C_2  and  C_3 
REMARK    2  A    between atoms: C_3  and  O_6 
REMARK    3  A    between atoms: C_3  and  C_4 
REMARK    4  A    between atoms: C_7  and  O_6 
REMARK    5  A    between atoms: C_9  and  C_10 
REMARK    6  A    between atoms: N_15  and  C_14 
REMARK    7  A    between atoms: N_20  and  C_19 
REMARK       I    between atoms: C_22  and  N_20 
ROOT
ATOM      1  C   LIG d   1      -7.439  77.501 118.566  0.00  0.00     0.161 C 
ATOM      2  C   LIG d   1      -6.451  77.492 117.568  0.00  0.00     0.016 C 
ATOM      3  C   LIG d   1      -6.469  76.610 116.463  0.00  0.00     0.038 C 
ATOM      4  C   LIG d   1      -7.565  75.774 116.200  0.00  0.00     0.028 C 
ATOM      5  C   LIG d   1      -8.347  75.390 117.450  0.00  0.00    -0.047 C 
ATOM      6  C   LIG d   1      -8.699  76.673 118.237  0.00  0.00     0.091 C 
ENDROOT
BRANCH   1   7
ATOM      7  O   LIG d   1      -7.802  78.860 118.883  0.00  0.00    -0.368 OA
BRANCH   7   8
ATOM      8  C   LIG d   1      -8.610  79.550 117.898  0.00  0.00     0.119 C 
BRANCH   8   9
ATOM      9  C   LIG d   1      -7.819  80.788 117.435  0.00  0.00     0.028 C 
ATOM     10  C   LIG d   1      -8.725  81.865 116.814  0.00  0.00     0.006 C 
ENDBRANCH   8   9
BRANCH   8  11
ATOM     11  C   LIG d   1      -9.897  80.100 118.521  0.00  0.00     0.028 C 
ATOM     12  C   LIG d   1      -9.830  80.179 120.054  0.00  0.00     0.006 C 
ENDBRANCH   8  11
ENDBRANCH   7   8
ENDBRANCH   1   7
BRANCH   6  13
ATOM     13  N   LIG d   1      -9.392  76.381 119.519  0.00  0.00    -0.311 N 
ATOM     14  C   LIG d   1     -10.690  76.606 119.718  0.00  0.00     0.210 C 
ATOM     15  C   LIG d   1     -11.200  76.252 121.119  0.00  0.00     0.109 C 
ATOM     16  O   LIG d   1     -11.473  77.035 118.858  0.00  0.00    -0.276 OA
ATOM     17  H   LIG d   1      -8.838  76.001 120.261  0.00  0.00     0.149 HD
ENDBRANCH   6  13
BRANCH   5  18
ATOM     18  N   LIG d   1      -9.537  74.634 117.017  0.00  0.00     0.381 N 
ATOM     19  H   LIG d   1      -9.650  74.718 116.026  0.00  0.00    -0.090 HD
ATOM     20  H   LIG d   1     -10.350  75.024 117.461  0.00  0.00    -0.090 HD
ATOM     21  H   LIG d   1      -9.441  73.674 117.267  0.00  0.00    -0.090 HD
ENDBRANCH   5  18
BRANCH   3  22
ATOM     22  C   LIG d   1      -5.365  76.531 115.629  0.00  0.00     0.382 C 
ATOM     23  O   LIG d   1      -4.553  77.486 115.570  0.00  0.00    -0.241 OA
ATOM     24  O   LIG d   1      -5.193  75.535 114.901  0.00  0.00    -0.241 OA
ENDBRANCH   3  22
TORSDOF 7
ENDMDL
MODEL 8
REMARK VINA RESULT:      -5.3      2.276      5.701
REMARK  7 active torsions:
REMARK  status: ('A' for Active; 'I' for Inactive)
REMARK    1  A    between atoms: C_2  and  C_3 
REMARK    2  A    between atoms: C_3  and  O_6 
REMARK    3  A    between atoms: C_3  and  C_4 
REMARK    4  A    between atoms: C_7  and  O_6 
REMARK    5  A    between atoms: C_9  and  C_10 
REMARK    6  A    between atoms: N_15  and  C_14 
REMARK    7  A    between atoms: N_20  and  C_19 
REMARK       I    between atoms: C_22  and  N_20 
ROOT
ATOM      1  C   LIG d   1      -6.864  76.416 117.287  0.00  0.00     0.161 C 
ATOM      2  C   LIG d   1      -7.336  75.123 117.003  0.00  0.00     0.016 C 
ATOM      3  C   LIG d   1      -8.648  74.690 117.303  0.00  0.00     0.038 C 
ATOM      4  C   LIG d   1      -9.630  75.573 117.774  0.00  0.00     0.028 C 
ATOM      5  C   LIG d   1      -9.060  76.757 118.548  0.00  0.00    -0.047 C 
ATOM      6  C   LIG d   1      -7.955  77.426 117.699  0.00  0.00     0.091 C 
ENDROOT
BRANCH   1   7
ATOM      7  O   LIG d   1      -6.113  76.919 116.165  0.00  0.00    -0.368 OA
BRANCH   7   8
ATOM      8  C   LIG d   1      -4.670  76.884 116.296  0.00  0.00     0.119 C 
BRANCH   8   9
ATOM      9  C   LIG d   1      -4.180  78.340 116.413  0.00  0.00     0.028 C 
ATOM     10  C   LIG d   1      -3.632  78.664 117.812  0.00  0.00     0.006 C 
ENDBRANCH   8   9
BRANCH   8  11
ATOM     11  C   LIG d   1      -4.009  76.334 115.029  0.00  0.00     0.028 C 
ATOM     12  C   LIG d   1      -2.589  75.804 115.280  0.00  0.00     0.006 C 
ENDBRANCH   8  11
ENDBRANCH   7   8
ENDBRANCH   1   7
BRANCH   6  13
ATOM     13  N   LIG d   1      -7.287  78.543 118.416  0.00  0.00    -0.311 N 
ATOM     14  C   LIG d   1      -7.310  79.805 117.992  0.00  0.00     0.210 C 
ATOM     15  C   LIG d   1      -6.540  80.796 118.870  0.00  0.00     0.109 C 
ATOM     16  O   LIG d   1      -7.922  80.203 116.990  0.00  0.00    -0.276 OA
ATOM     17  H   LIG d   1      -6.793  78.314 119.256  0.00  0.00     0.149 HD
ENDBRANCH   6  13
BRANCH   5  18
ATOM     18  N   LIG d   1     -10.179  77.666 118.860  0.00  0.00     0.381 N 
ATOM     19  H   LIG d   1     -10.582  78.012 118.012  0.00  0.00    -0.090 HD
ATOM     20  H   LIG d   1      -9.827  78.448 119.384  0.00  0.00    -0.090 HD
ATOM     21  H   LIG d   1     -10.871  77.185 119.392  0.00  0.00    -0.090 HD
ENDBRANCH   5  18
BRANCH   3  22
ATOM     22  C   LIG d   1      -8.976  73.349 117.170  0.00  0.00     0.382 C 
ATOM     23  O   LIG d   1      -8.366  72.485 117.844  0.00  0.00    -0.241 OA
ATOM     24  O   LIG d   1      -9.844  72.990 116.353  0.00  0.00    -0.241 OA
ENDBRANCH   3  22
TORSDOF 7
ENDMDL
MODEL 9
REMARK VINA RESULT:      -5.2      1.733      5.171
REMARK  7 active torsions:
REMARK  status: ('A' for Active; 'I' for Inactive)
REMARK    1  A    between atoms: C_2  and  C_3 
REMARK    2  A    between atoms: C_3  and  O_6 
REMARK    3  A    between atoms: C_3  and  C_4 
REMARK    4  A    between atoms: C_7  and  O_6 
REMARK    5  A    between atoms: C_9  and  C_10 
REMARK    6  A    between atoms: N_15  and  C_14 
REMARK    7  A    between atoms: N_20  and  C_19 
REMARK       I    between atoms: C_22  and  N_20 
ROOT
ATOM      1  C   LIG d   1      -7.108  76.621 116.390  0.00  0.00     0.161 C 
ATOM      2  C   LIG d   1      -5.990  75.789 116.212  0.00  0.00     0.016 C 
ATOM      3  C   LIG d   1      -4.800  75.914 116.966  0.00  0.00     0.038 C 
ATOM      4  C   LIG d   1      -4.703  76.789 118.058  0.00  0.00     0.028 C 
ATOM      5  C   LIG d   1      -5.626  77.997 117.951  0.00  0.00    -0.047 C 
ATOM      6  C   LIG d   1      -7.061  77.507 117.652  0.00  0.00     0.091 C 
ENDROOT
BRANCH   1   7
ATOM      7  O   LIG d   1      -8.313  75.829 116.378  0.00  0.00    -0.368 OA
BRANCH   7   8
ATOM      8  C   LIG d   1      -8.546  75.007 117.547  0.00  0.00     0.119 C 
BRANCH   8   9
ATOM      9  C   LIG d   1      -8.932  73.599 117.053  0.00  0.00     0.028 C 
ATOM     10  C   LIG d   1      -8.642  72.510 118.099  0.00  0.00     0.006 C 
ENDBRANCH   8   9
BRANCH   8  11
ATOM     11  C   LIG d   1      -9.756  75.502 118.345  0.00  0.00     0.028 C 
ATOM     12  C   LIG d   1      -9.500  75.531 119.860  0.00  0.00     0.006 C 
ENDBRANCH   8  11
ENDBRANCH   7   8
ENDBRANCH   1   7
BRANCH   6  13
ATOM     13  N   LIG d   1      -8.013  78.631 117.448  0.00  0.00    -0.311 N 
ATOM     14  C   LIG d   1      -8.728  79.174 118.432  0.00  0.00     0.210 C 
ATOM     15  C   LIG d   1      -9.663  80.308 118.002  0.00  0.00     0.109 C 
ATOM     16  O   LIG d   1      -8.652  78.845 119.625  0.00  0.00    -0.276 OA
ATOM     17  H   LIG d   1      -8.113  78.980 116.515  0.00  0.00     0.149 HD
ENDBRANCH   6  13
BRANCH   5  18
ATOM     18  N   LIG d   1      -5.524  78.750 119.216  0.00  0.00     0.381 N 
ATOM     19  H   LIG d   1      -5.137  78.164 119.928  0.00  0.00    -0.090 HD
ATOM     20  H   LIG d   1      -6.445  79.029 119.503  0.00  0.00    -0.090 HD
ATOM     21  H   LIG d   1      -4.950  79.554 119.089  0.00  0.00    -0.090 HD
ENDBRANCH   5  18
BRANCH   3  22
ATOM     22  C   LIG d   1      -3.677  75.187 116.602  0.00  0.00     0.382 C 
ATOM     23  O   LIG d   1      -3.105  74.454 117.445  0.00  0.00    -0.241 OA
ATOM     24  O   LIG d   1      -3.203  75.288 115.455  0.00  0.00    -0.241 OA
ENDBRANCH   3  22
TORSDOF 7
ENDMDL
