MODEL 1
REMARK VINA RESULT:      -5.6      0.000      0.000
REMARK  7 active torsions:
REMARK  status: ('A' for Active; 'I' for Inactive)
REMARK    1  A    between atoms: C_2  and  C_3 
REMARK    2  A    between atoms: C_3  and  O_6 
REMARK    3  A    between atoms: C_3  and  C_4 
REMARK    4  A    between atoms: C_7  and  O_6 
REMARK    5  A    between atoms: C_9  and  C_10 
REMARK    6  A    between atoms: N_15  and  C_14 
REMARK    7  A    between atoms: N_20  and  C_19 
REMARK       I    between atoms: C_22  and  N_20 
ROOT
ATOM      1  C   LIG d   1      -6.046  76.094 117.026  0.00  0.00     0.161 C 
ATOM      2  C   LIG d   1      -6.285  74.813 116.500  0.00  0.00     0.016 C 
ATOM      3  C   LIG d   1      -7.560  74.202 116.488  0.00  0.00     0.038 C 
ATOM      4  C   LIG d   1      -8.718  74.897 116.866  0.00  0.00     0.028 C 
ATOM      5  C   LIG d   1      -8.454  76.010 117.874  0.00  0.00    -0.047 C 
ATOM      6  C   LIG d   1      -7.316  76.910 117.342  0.00  0.00     0.091 C 
ENDROOT
BRANCH   1   7
ATOM      7  O   LIG d   1      -5.182  76.833 116.139  0.00  0.00    -0.368 OA
BRANCH   7   8
ATOM      8  C   LIG d   1      -3.873  77.170 116.659  0.00  0.00     0.119 C 
BRANCH   8   9
ATOM      9  C   LIG d   1      -3.460  78.517 116.035  0.00  0.00     0.028 C 
ATOM     10  C   LIG d   1      -4.069  79.719 116.776  0.00  0.00     0.006 C 
ENDBRANCH   8   9
BRANCH   8  11
ATOM     11  C   LIG d   1      -2.813  76.166 116.195  0.00  0.00     0.028 C 
ATOM     12  C   LIG d   1      -2.412  75.172 117.296  0.00  0.00     0.006 C 
ENDBRANCH   8  11
ENDBRANCH   7   8
ENDBRANCH   1   7
BRANCH   6  13
ATOM     13  N   LIG d   1      -6.938  77.976 118.306  0.00  0.00    -0.311 N 
ATOM     14  C   LIG d   1      -7.468  79.198 118.294  0.00  0.00     0.210 C 
ATOM     15  C   LIG d   1      -6.922  80.150 119.363  0.00  0.00     0.109 C 
ATOM     16  O   LIG d   1      -8.361  79.573 117.520  0.00  0.00    -0.276 OA
ATOM     17  H   LIG d   1      -6.242  77.747 118.989  0.00  0.00     0.149 HD
ENDBRANCH   6  13
BRANCH   5  18
ATOM     18  N   LIG d   1      -9.721  76.739 118.075  0.00  0.00     0.381 N 
ATOM     19  H   LIG d   1     -10.258  76.724 117.231  0.00  0.00    -0.090 HD
ATOM     20  H   LIG d   1      -9.514  77.696 118.301  0.00  0.00    -0.090 HD
ATOM     21  H   LIG d   1     -10.241  76.321 118.815  0.00  0.00    -0.090 HD
ENDBRANCH   5  18
BRANCH   3  22
ATOM     22  C   LIG d   1      -7.679  72.868 116.131  0.00  0.00     0.382 C 
ATOM     23  O   LIG d   1      -8.673  72.203 116.512  0.00  0.00    -0.241 OA
ATOM     24  O   LIG d   1      -6.784  72.308 115.470  0.00  0.00    -0.241 OA
ENDBRANCH   3  22
TORSDOF 7
ENDMDL
MODEL 2
REMARK VINA RESULT:      -5.5      1.979      4.702
REMARK  7 active torsions:
REMARK  status: ('A' for Active; 'I' for Inactive)
REMARK    1  A    between atoms: C_2  and  C_3 
REMARK    2  A    between atoms: C_3  and  O_6 
REMARK    3  A    between atoms: C_3  and  C_4 
REMARK    4  A    between atoms: C_7  and  O_6 
REMARK    5  A    between atoms: C_9  and  C_10 
REMARK    6  A    between atoms: N_15  and  C_14 
REMARK    7  A    between atoms: N_20  and  C_19 
REMARK       I    between atoms: C_22  and  N_20 
ROOT
ATOM      1  C   LIG d   1      -5.879  75.984 117.096  0.00  0.00     0.161 C 
ATOM      2  C   LIG d   1      -4.686  75.250 116.981  0.00  0.00     0.016 C 
ATOM      3  C   LIG d   1      -3.442  75.705 117.476  0.00  0.00     0.038 C 
ATOM      4  C   LIG d   1      -3.335  76.864 118.259  0.00  0.00     0.028 C 
ATOM      5  C   LIG d   1      -4.423  77.893 117.971  0.00  0.00    -0.047 C 
ATOM      6  C   LIG d   1      -5.802  77.198 118.045  0.00  0.00     0.091 C 
ENDROOT
BRANCH   1   7
ATOM      7  O   LIG d   1      -6.954  75.108 117.490  0.00  0.00    -0.368 OA
BRANCH   7   8
ATOM      8  C   LIG d   1      -8.008  74.915 116.514  0.00  0.00     0.119 C 
BRANCH   8   9
ATOM      9  C   LIG d   1      -9.294  75.537 117.091  0.00  0.00     0.028 C 
ATOM     10  C   LIG d   1      -9.298  75.554 118.629  0.00  0.00     0.006 C 
ENDBRANCH   8   9
BRANCH   8  11
ATOM     11  C   LIG d   1      -8.326  73.428 116.324  0.00  0.00     0.028 C 
ATOM     12  C   LIG d   1      -7.076  72.585 116.028  0.00  0.00     0.006 C 
ENDBRANCH   8  11
ENDBRANCH   7   8
ENDBRANCH   1   7
BRANCH   6  13
ATOM     13  N   LIG d   1      -6.918  78.115 117.693  0.00  0.00    -0.311 N 
ATOM     14  C   LIG d   1      -7.614  78.803 118.596  0.00  0.00     0.210 C 
ATOM     15  C   LIG d   1      -8.735  79.675 118.021  0.00  0.00     0.109 C 
ATOM     16  O   LIG d   1      -7.388  78.800 119.816  0.00  0.00    -0.276 OA
ATOM     17  H   LIG d   1      -7.148  78.202 116.722  0.00  0.00     0.149 HD
ENDBRANCH   6  13
BRANCH   5  18
ATOM     18  N   LIG d   1      -4.273  78.986 118.950  0.00  0.00     0.381 N 
ATOM     19  H   LIG d   1      -5.114  79.527 118.985  0.00  0.00    -0.090 HD
ATOM     20  H   LIG d   1      -3.524  79.587 118.654  0.00  0.00    -0.090 HD
ATOM     21  H   LIG d   1      -4.072  78.612 119.851  0.00  0.00    -0.090 HD
ENDBRANCH   5  18
BRANCH   3  22
ATOM     22  C   LIG d   1      -2.282  75.017 117.155  0.00  0.00     0.382 C 
ATOM     23  O   LIG d   1      -1.879  74.087 117.894  0.00  0.00    -0.241 OA
ATOM     24  O   LIG d   1      -1.609  75.345 116.159  0.00  0.00    -0.241 OA
ENDBRANCH   3  22
TORSDOF 7
ENDMDL
MODEL 3
REMARK VINA RESULT:      -5.4     13.162     14.711
REMARK  7 active torsions:
REMARK  status: ('A' for Active; 'I' for Inactive)
REMARK    1  A    between atoms: C_2  and  C_3 
REMARK    2  A    between atoms: C_3  and  O_6 
REMARK    3  A    between atoms: C_3  and  C_4 
REMARK    4  A    between atoms: C_7  and  O_6 
REMARK    5  A    between atoms: C_9  and  C_10 
REMARK    6  A    between atoms: N_15  and  C_14 
REMARK    7  A    between atoms: N_20  and  C_19 
REMARK       I    between atoms: C_22  and  N_20 
ROOT
ATOM      1  C   LIG d   1      -3.242  90.147 118.097  0.00  0.00     0.161 C 
ATOM      2  C   LIG d   1      -3.675  89.352 117.023  0.00  0.00     0.016 C 
ATOM      3  C   LIG d   1      -4.812  89.655 116.239  0.00  0.00     0.038 C 
ATOM      4  C   LIG d   1      -5.511  90.863 116.383  0.00  0.00     0.028 C 
ATOM      5  C   LIG d   1      -5.414  91.456 117.784  0.00  0.00    -0.047 C 
ATOM      6  C   LIG d   1      -3.926  91.526 118.198  0.00  0.00     0.091 C 
ENDROOT
BRANCH   1   7
ATOM      7  O   LIG d   1      -1.810  90.300 118.045  0.00  0.00    -0.368 OA
BRANCH   7   8
ATOM      8  C   LIG d   1      -1.078  89.858 119.215  0.00  0.00     0.119 C 
BRANCH   8   9
ATOM      9  C   LIG d   1       0.113  89.013 118.724  0.00  0.00     0.028 C 
ATOM     10  C   LIG d   1       0.189  88.941 117.189  0.00  0.00     0.006 C 
ENDBRANCH   8   9
BRANCH   8  11
ATOM     11  C   LIG d   1      -1.921  88.910 120.073  0.00  0.00     0.028 C 
ATOM     12  C   LIG d   1      -1.955  89.319 121.554  0.00  0.00     0.006 C 
ENDBRANCH   8  11
ENDBRANCH   7   8
ENDBRANCH   1   7
BRANCH   6  13
ATOM     13  N   LIG d   1      -3.747  92.016 119.589  0.00  0.00    -0.311 N 
ATOM     14  C   LIG d   1      -2.831  92.918 119.937  0.00  0.00     0.210 C 
ATOM     15  C   LIG d   1      -2.802  93.270 121.427  0.00  0.00     0.109 C 
ATOM     16  O   LIG d   1      -2.060  93.485 119.146  0.00  0.00    -0.276 OA
ATOM     17  H   LIG d   1      -4.351  91.633 120.289  0.00  0.00     0.149 HD
ENDBRANCH   6  13
BRANCH   5  18
ATOM     18  N   LIG d   1      -6.069  92.778 117.755  0.00  0.00     0.381 N 
ATOM     19  H   LIG d   1      -6.747  92.804 117.020  0.00  0.00    -0.090 HD
ATOM     20  H   LIG d   1      -5.375  93.480 117.570  0.00  0.00    -0.090 HD
ATOM     21  H   LIG d   1      -6.509  92.959 118.630  0.00  0.00    -0.090 HD
ENDBRANCH   5  18
BRANCH   3  22
ATOM     22  C   LIG d   1      -5.285  88.726 115.326  0.00  0.00     0.382 C 
ATOM     23  O   LIG d   1      -4.497  87.899 114.806  0.00  0.00    -0.241 OA
ATOM     24  O   LIG d   1      -6.482  88.731 114.981  0.00  0.00    -0.241 OA
ENDBRANCH   3  22
TORSDOF 7
ENDMDL
MODEL 4
REMARK VINA RESULT:      -5.2      2.253      4.546
REMARK  7 active torsions:
REMARK  status: ('A' for Active; 'I' for Inactive)
REMARK    1  A    between atoms: C_2  and  C_3 
REMARK    2  A    between atoms: C_3  and  O_6 
REMARK    3  A    between atoms: C_3  and  C_4 
REMARK    4  A    between atoms: C_7  and  O_6 
REMARK    5  A    between atoms: C_9  and  C_10 
REMARK    6  A    between atoms: N_15  and  C_14 
REMARK    7  A    between atoms: N_20  and  C_19 
REMARK       I    between atoms: C_22  and  N_20 
ROOT
ATOM      1  C   LIG d   1      -7.749  76.147 118.164  0.00  0.00     0.161 C 
ATOM      2  C   LIG d   1      -7.994  74.774 117.994  0.00  0.00     0.016 C 
ATOM      3  C   LIG d   1      -7.194  73.935 117.185  0.00  0.00     0.038 C 
ATOM      4  C   LIG d   1      -5.996  74.385 116.608  0.00  0.00     0.028 C 
ATOM      5  C   LIG d   1      -5.979  75.886 116.340  0.00  0.00    -0.047 C 
ATOM      6  C   LIG d   1      -6.384  76.631 117.632  0.00  0.00     0.091 C 
ENDROOT
BRANCH   1   7
ATOM      7  O   LIG d   1      -7.899  76.501 119.553  0.00  0.00    -0.368 OA
BRANCH   7   8
ATOM      8  C   LIG d   1      -8.915  77.490 119.852  0.00  0.00     0.119 C 
BRANCH   8   9
ATOM      9  C   LIG d   1      -9.874  76.870 120.887  0.00  0.00     0.028 C 
ATOM     10  C   LIG d   1     -10.895  75.917 120.244  0.00  0.00     0.006 C 
ENDBRANCH   8   9
BRANCH   8  11
ATOM     11  C   LIG d   1      -9.781  77.788 118.625  0.00  0.00     0.028 C 
ATOM     12  C   LIG d   1      -9.801  79.281 118.259  0.00  0.00     0.006 C 
ENDBRANCH   8  11
ENDBRANCH   7   8
ENDBRANCH   1   7
BRANCH   6  13
ATOM     13  N   LIG d   1      -6.474  78.101 117.434  0.00  0.00    -0.311 N 
ATOM     14  C   LIG d   1      -5.833  78.984 118.197  0.00  0.00     0.210 C 
ATOM     15  C   LIG d   1      -6.080  80.452 117.834  0.00  0.00     0.109 C 
ATOM     16  O   LIG d   1      -5.058  78.691 119.120  0.00  0.00    -0.276 OA
ATOM     17  H   LIG d   1      -7.057  78.426 116.687  0.00  0.00     0.149 HD
ENDBRANCH   6  13
BRANCH   5  18
ATOM     18  N   LIG d   1      -4.627  76.239 115.868  0.00  0.00     0.381 N 
ATOM     19  H   LIG d   1      -4.554  77.231 115.761  0.00  0.00    -0.090 HD
ATOM     20  H   LIG d   1      -4.474  75.813 114.971  0.00  0.00    -0.090 HD
ATOM     21  H   LIG d   1      -3.944  75.916 116.517  0.00  0.00    -0.090 HD
ENDBRANCH   5  18
BRANCH   3  22
ATOM     22  C   LIG d   1      -7.610  72.641 116.913  0.00  0.00     0.382 C 
ATOM     23  O   LIG d   1      -6.889  71.668 117.242  0.00  0.00    -0.241 OA
ATOM     24  O   LIG d   1      -8.677  72.435 116.305  0.00  0.00    -0.241 OA
ENDBRANCH   3  22
TORSDOF 7
ENDMDL
MODEL 5
REMARK VINA RESULT:      -5.0     13.782     15.578
REMARK  7 active torsions:
REMARK  status: ('A' for Active; 'I' for Inactive)
REMARK    1  A    between atoms: C_2  and  C_3 
REMARK    2  A    between atoms: C_3  and  O_6 
REMARK    3  A    between atoms: C_3  and  C_4 
REMARK    4  A    between atoms: C_7  and  O_6 
REMARK    5  A    between atoms: C_9  and  C_10 
REMARK    6  A    between atoms: N_15  and  C_14 
REMARK    7  A    between atoms: N_20  and  C_19 
REMARK       I    between atoms: C_22  and  N_20 
ROOT
ATOM      1  C   LIG d   1      -4.770  91.233 118.663  0.00  0.00     0.161 C 
ATOM      2  C   LIG d   1      -5.656  91.191 117.574  0.00  0.00     0.016 C 
ATOM      3  C   LIG d   1      -5.401  90.459 116.392  0.00  0.00     0.038 C 
ATOM      4  C   LIG d   1      -4.304  89.592 116.278  0.00  0.00     0.028 C 
ATOM      5  C   LIG d   1      -3.122  89.993 117.154  0.00  0.00    -0.047 C 
ATOM      6  C   LIG d   1      -3.620  90.205 118.602  0.00  0.00     0.091 C 
ENDROOT
BRANCH   1   7
ATOM      7  O   LIG d   1      -5.503  91.092 119.896  0.00  0.00    -0.368 OA
BRANCH   7   8
ATOM      8  C   LIG d   1      -5.502  92.244 120.774  0.00  0.00     0.119 C 
BRANCH   8   9
ATOM      9  C   LIG d   1      -6.970  92.651 121.005  0.00  0.00     0.028 C 
ATOM     10  C   LIG d   1      -7.531  93.502 119.852  0.00  0.00     0.006 C 
ENDBRANCH   8   9
BRANCH   8  11
ATOM     11  C   LIG d   1      -4.845  93.455 120.104  0.00  0.00     0.028 C 
ATOM     12  C   LIG d   1      -3.621  93.971 120.875  0.00  0.00     0.006 C 
ENDBRANCH   8  11
ENDBRANCH   7   8
ENDBRANCH   1   7
BRANCH   6  13
ATOM     13  N   LIG d   1      -2.542  90.681 119.508  0.00  0.00    -0.311 N 
ATOM     14  C   LIG d   1      -1.793  89.865 120.247  0.00  0.00     0.210 C 
ATOM     15  C   LIG d   1      -0.752  90.564 121.127  0.00  0.00     0.109 C 
ATOM     16  O   LIG d   1      -1.870  88.628 120.234  0.00  0.00    -0.276 OA
ATOM     17  H   LIG d   1      -2.391  91.670 119.557  0.00  0.00     0.149 HD
ENDBRANCH   6  13
BRANCH   5  18
ATOM     18  N   LIG d   1      -2.104  88.931 117.042  0.00  0.00     0.381 N 
ATOM     19  H   LIG d   1      -1.226  89.330 116.777  0.00  0.00    -0.090 HD
ATOM     20  H   LIG d   1      -2.386  88.285 116.326  0.00  0.00    -0.090 HD
ATOM     21  H   LIG d   1      -2.012  88.455 117.912  0.00  0.00    -0.090 HD
ENDBRANCH   5  18
BRANCH   3  22
ATOM     22  C   LIG d   1      -6.229  90.622 115.291  0.00  0.00     0.382 C 
ATOM     23  O   LIG d   1      -6.410  91.765 114.806  0.00  0.00    -0.241 OA
ATOM     24  O   LIG d   1      -6.833  89.647 114.805  0.00  0.00    -0.241 OA
ENDBRANCH   3  22
TORSDOF 7
ENDMDL
MODEL 6
REMARK VINA RESULT:      -4.9      2.424      6.366
REMARK  7 active torsions:
REMARK  status: ('A' for Active; 'I' for Inactive)
REMARK    1  A    between atoms: C_2  and  C_3 
REMARK    2  A    between atoms: C_3  and  O_6 
REMARK    3  A    between atoms: C_3  and  C_4 
REMARK    4  A    between atoms: C_7  and  O_6 
REMARK    5  A    between atoms: C_9  and  C_10 
REMARK    6  A    between atoms: N_15  and  C_14 
REMARK    7  A    between atoms: N_20  and  C_19 
REMARK       I    between atoms: C_22  and  N_20 
ROOT
ATOM      1  C   LIG d   1      -6.570  78.358 117.931  0.00  0.00     0.161 C 
ATOM      2  C   LIG d   1      -5.803  79.489 117.605  0.00  0.00     0.016 C 
ATOM      3  C   LIG d   1      -4.553  79.420 116.948  0.00  0.00     0.038 C 
ATOM      4  C   LIG d   1      -4.053  78.215 116.433  0.00  0.00     0.028 C 
ATOM      5  C   LIG d   1      -4.551  76.983 117.181  0.00  0.00    -0.047 C 
ATOM      6  C   LIG d   1      -6.092  77.044 117.278  0.00  0.00     0.091 C 
ENDROOT
BRANCH   1   7
ATOM      7  O   LIG d   1      -7.955  78.599 117.615  0.00  0.00    -0.368 OA
BRANCH   7   8
ATOM      8  C   LIG d   1      -8.871  78.617 118.738  0.00  0.00     0.119 C 
BRANCH   8   9
ATOM      9  C   LIG d   1      -9.980  77.587 118.448  0.00  0.00     0.028 C 
ATOM     10  C   LIG d   1     -10.289  76.699 119.664  0.00  0.00     0.006 C 
ENDBRANCH   8   9
BRANCH   8  11
ATOM     11  C   LIG d   1      -9.589  79.965 118.850  0.00  0.00     0.028 C 
ATOM     12  C   LIG d   1      -9.492  80.801 117.564  0.00  0.00     0.006 C 
ENDBRANCH   8  11
ENDBRANCH   7   8
ENDBRANCH   1   7
BRANCH   6  13
ATOM     13  N   LIG d   1      -6.655  75.918 118.069  0.00  0.00    -0.311 N 
ATOM     14  C   LIG d   1      -7.509  75.027 117.569  0.00  0.00     0.210 C 
ATOM     15  C   LIG d   1      -7.983  73.959 118.561  0.00  0.00     0.109 C 
ATOM     16  O   LIG d   1      -7.895  75.000 116.391  0.00  0.00    -0.276 OA
ATOM     17  H   LIG d   1      -6.371  75.846 119.026  0.00  0.00     0.149 HD
ENDBRANCH   6  13
BRANCH   5  18
ATOM     18  N   LIG d   1      -4.063  75.794 116.456  0.00  0.00     0.381 N 
ATOM     19  H   LIG d   1      -3.080  75.686 116.606  0.00  0.00    -0.090 HD
ATOM     20  H   LIG d   1      -4.220  75.926 115.473  0.00  0.00    -0.090 HD
ATOM     21  H   LIG d   1      -4.546  74.981 116.771  0.00  0.00    -0.090 HD
ENDBRANCH   5  18
BRANCH   3  22
ATOM     22  C   LIG d   1      -3.772  80.559 116.835  0.00  0.00     0.382 C 
ATOM     23  O   LIG d   1      -3.811  81.246 115.786  0.00  0.00    -0.241 OA
ATOM     24  O   LIG d   1      -2.995  80.886 117.753  0.00  0.00    -0.241 OA
ENDBRANCH   3  22
TORSDOF 7
ENDMDL
MODEL 7
REMARK VINA RESULT:      -4.9      2.234      4.554
REMARK  7 active torsions:
REMARK  status: ('A' for Active; 'I' for Inactive)
REMARK    1  A    between atoms: C_2  and  C_3 
REMARK    2  A    between atoms: C_3  and  O_6 
REMARK    3  A    between atoms: C_3  and  C_4 
REMARK    4  A    between atoms: C_7  and  O_6 
REMARK    5  A    between atoms: C_9  and  C_10 
REMARK    6  A    between atoms: N_15  and  C_14 
REMARK    7  A    between atoms: N_20  and  C_19 
REMARK       I    between atoms: C_22  and  N_20 
ROOT
ATOM      1  C   LIG d   1      -6.810  77.415 117.960  0.00  0.00     0.161 C 
ATOM      2  C   LIG d   1      -5.650  77.392 117.168  0.00  0.00     0.016 C 
ATOM      3  C   LIG d   1      -5.254  76.273 116.399  0.00  0.00     0.038 C 
ATOM      4  C   LIG d   1      -6.077  75.147 116.252  0.00  0.00     0.028 C 
ATOM      5  C   LIG d   1      -7.015  74.923 117.433  0.00  0.00    -0.047 C 
ATOM      6  C   LIG d   1      -7.777  76.236 117.724  0.00  0.00     0.091 C 
ENDROOT
BRANCH   1   7
ATOM      7  O   LIG d   1      -7.497  78.670 117.784  0.00  0.00    -0.368 OA
BRANCH   7   8
ATOM      8  C   LIG d   1      -7.445  79.588 118.904  0.00  0.00     0.119 C 
BRANCH   8   9
ATOM      9  C   LIG d   1      -8.860  80.167 119.095  0.00  0.00     0.028 C 
ATOM     10  C   LIG d   1      -9.770  79.904 117.883  0.00  0.00     0.006 C 
ENDBRANCH   8   9
BRANCH   8  11
ATOM     11  C   LIG d   1      -6.552  80.793 118.595  0.00  0.00     0.028 C 
ATOM     12  C   LIG d   1      -5.571  81.115 119.734  0.00  0.00     0.006 C 
ENDBRANCH   8  11
ENDBRANCH   7   8
ENDBRANCH   1   7
BRANCH   6  13
ATOM     13  N   LIG d   1      -8.655  76.130 118.919  0.00  0.00    -0.311 N 
ATOM     14  C   LIG d   1      -9.980  76.257 118.869  0.00  0.00     0.210 C 
ATOM     15  C   LIG d   1     -10.693  76.132 120.218  0.00  0.00     0.109 C 
ATOM     16  O   LIG d   1     -10.635  76.429 117.830  0.00  0.00    -0.276 OA
ATOM     17  H   LIG d   1      -8.209  75.959 119.799  0.00  0.00     0.149 HD
ENDBRANCH   6  13
BRANCH   5  18
ATOM     18  N   LIG d   1      -7.908  73.801 117.087  0.00  0.00     0.381 N 
ATOM     19  H   LIG d   1      -7.399  72.941 117.121  0.00  0.00    -0.090 HD
ATOM     20  H   LIG d   1      -8.245  73.931 116.150  0.00  0.00    -0.090 HD
ATOM     21  H   LIG d   1      -8.675  73.767 117.722  0.00  0.00    -0.090 HD
ENDBRANCH   5  18
BRANCH   3  22
ATOM     22  C   LIG d   1      -4.004  76.259 115.800  0.00  0.00     0.382 C 
ATOM     23  O   LIG d   1      -3.777  76.988 114.805  0.00  0.00    -0.241 OA
ATOM     24  O   LIG d   1      -3.114  75.492 116.215  0.00  0.00    -0.241 OA
ENDBRANCH   3  22
TORSDOF 7
ENDMDL
MODEL 8
REMARK VINA RESULT:      -4.9     14.058     16.727
REMARK  7 active torsions:
REMARK  status: ('A' for Active; 'I' for Inactive)
REMARK    1  A    between atoms: C_2  and  C_3 
REMARK    2  A    between atoms: C_3  and  O_6 
REMARK    3  A    between atoms: C_3  and  C_4 
REMARK    4  A    between atoms: C_7  and  O_6 
REMARK    5  A    between atoms: C_9  and  C_10 
REMARK    6  A    between atoms: N_15  and  C_14 
REMARK    7  A    between atoms: N_20  and  C_19 
REMARK       I    between atoms: C_22  and  N_20 
ROOT
ATOM      1  C   LIG d   1      -4.761  91.884 118.833  0.00  0.00     0.161 C 
ATOM      2  C   LIG d   1      -6.040  92.437 118.654  0.00  0.00     0.016 C 
ATOM      3  C   LIG d   1      -6.448  93.658 119.239  0.00  0.00     0.038 C 
ATOM      4  C   LIG d   1      -5.549  94.489 119.924  0.00  0.00     0.028 C 
ATOM      5  C   LIG d   1      -4.385  93.732 120.556  0.00  0.00    -0.047 C 
ATOM      6  C   LIG d   1      -3.732  92.830 119.484  0.00  0.00     0.091 C 
ENDROOT
BRANCH   1   7
ATOM      7  O   LIG d   1      -4.262  91.391 117.573  0.00  0.00    -0.368 OA
BRANCH   7   8
ATOM      8  C   LIG d   1      -4.617  90.028 117.236  0.00  0.00     0.119 C 
BRANCH   8   9
ATOM      9  C   LIG d   1      -3.306  89.249 117.017  0.00  0.00     0.028 C 
ATOM     10  C   LIG d   1      -2.689  88.753 118.336  0.00  0.00     0.006 C 
ENDBRANCH   8   9
BRANCH   8  11
ATOM     11  C   LIG d   1      -5.358  89.959 115.898  0.00  0.00     0.028 C 
ATOM     12  C   LIG d   1      -6.728  89.270 116.010  0.00  0.00     0.006 C 
ENDBRANCH   8  11
ENDBRANCH   7   8
ENDBRANCH   1   7
BRANCH   6  13
ATOM     13  N   LIG d   1      -2.638  91.992 120.040  0.00  0.00    -0.311 N 
ATOM     14  C   LIG d   1      -1.388  92.018 119.580  0.00  0.00     0.210 C 
ATOM     15  C   LIG d   1      -0.421  91.059 120.282  0.00  0.00     0.109 C 
ATOM     16  O   LIG d   1      -0.981  92.768 118.680  0.00  0.00    -0.276 OA
ATOM     17  H   LIG d   1      -2.873  91.376 120.794  0.00  0.00     0.149 HD
ENDBRANCH   6  13
BRANCH   5  18
ATOM     18  N   LIG d   1      -3.456  94.731 121.117  0.00  0.00     0.381 N 
ATOM     19  H   LIG d   1      -3.967  95.416 121.637  0.00  0.00    -0.090 HD
ATOM     20  H   LIG d   1      -2.985  95.197 120.361  0.00  0.00    -0.090 HD
ATOM     21  H   LIG d   1      -2.790  94.284 121.707  0.00  0.00    -0.090 HD
ENDBRANCH   5  18
BRANCH   3  22
ATOM     22  C   LIG d   1      -7.779  94.040 119.176  0.00  0.00     0.382 C 
ATOM     23  O   LIG d   1      -8.610  93.555 119.982  0.00  0.00    -0.241 OA
ATOM     24  O   LIG d   1      -8.169  94.829 118.294  0.00  0.00    -0.241 OA
ENDBRANCH   3  22
TORSDOF 7
ENDMDL
MODEL 9
REMARK VINA RESULT:      -4.8      1.879      4.966
REMARK  7 active torsions:
REMARK  status: ('A' for Active; 'I' for Inactive)
REMARK    1  A    between atoms: C_2  and  C_3 
REMARK    2  A    between atoms: C_3  and  O_6 
REMARK    3  A    between atoms: C_3  and  C_4 
REMARK    4  A    between atoms: C_7  and  O_6 
REMARK    5  A    between atoms: C_9  and  C_10 
REMARK    6  A    between atoms: N_15  and  C_14 
REMARK    7  A    between atoms: N_20  and  C_19 
REMARK       I    between atoms: C_22  and  N_20 
ROOT
ATOM      1  C   LIG d   1      -6.758  76.840 117.349  0.00  0.00     0.161 C 
ATOM      2  C   LIG d   1      -6.818  78.212 117.644  0.00  0.00     0.016 C 
ATOM      3  C   LIG d   1      -7.984  78.856 118.116  0.00  0.00     0.038 C 
ATOM      4  C   LIG d   1      -9.136  78.137 118.470  0.00  0.00     0.028 C 
ATOM      5  C   LIG d   1      -9.287  76.822 117.713  0.00  0.00    -0.047 C 
ATOM      6  C   LIG d   1      -7.971  76.020 117.834  0.00  0.00     0.091 C 
ENDROOT
BRANCH   1   7
ATOM      7  O   LIG d   1      -5.535  76.281 117.869  0.00  0.00    -0.368 OA
BRANCH   7   8
ATOM      8  C   LIG d   1      -4.307  76.903 117.417  0.00  0.00     0.119 C 
BRANCH   8   9
ATOM      9  C   LIG d   1      -3.549  75.866 116.565  0.00  0.00     0.028 C 
ATOM     10  C   LIG d   1      -2.615  74.983 117.410  0.00  0.00     0.006 C 
ENDBRANCH   8   9
BRANCH   8  11
ATOM     11  C   LIG d   1      -3.377  77.220 118.592  0.00  0.00     0.028 C 
ATOM     12  C   LIG d   1      -4.139  77.475 119.902  0.00  0.00     0.006 C 
ENDBRANCH   8  11
ENDBRANCH   7   8
ENDBRANCH   1   7
BRANCH   6  13
ATOM     13  N   LIG d   1      -8.003  74.757 117.052  0.00  0.00    -0.311 N 
ATOM     14  C   LIG d   1      -7.984  73.548 117.610  0.00  0.00     0.210 C 
ATOM     15  C   LIG d   1      -8.003  72.378 116.620  0.00  0.00     0.109 C 
ATOM     16  O   LIG d   1      -7.985  73.332 118.831  0.00  0.00    -0.276 OA
ATOM     17  H   LIG d   1      -8.035  74.839 116.054  0.00  0.00     0.149 HD
ENDBRANCH   6  13
BRANCH   5  18
ATOM     18  N   LIG d   1     -10.451  76.114 118.277  0.00  0.00     0.381 N 
ATOM     19  H   LIG d   1     -10.539  75.213 117.850  0.00  0.00    -0.090 HD
ATOM     20  H   LIG d   1     -11.282  76.641 118.075  0.00  0.00    -0.090 HD
ATOM     21  H   LIG d   1     -10.344  76.013 119.262  0.00  0.00    -0.090 HD
ENDBRANCH   5  18
BRANCH   3  22
ATOM     22  C   LIG d   1      -8.020  80.239 118.199  0.00  0.00     0.382 C 
ATOM     23  O   LIG d   1      -8.312  80.921 117.187  0.00  0.00    -0.241 OA
ATOM     24  O   LIG d   1      -7.719  80.816 119.261  0.00  0.00    -0.241 OA
ENDBRANCH   3  22
TORSDOF 7
ENDMDL
