MODEL 1
REMARK VINA RESULT:      -5.9      0.000      0.000
REMARK  7 active torsions:
REMARK  status: ('A' for Active; 'I' for Inactive)
REMARK    1  A    between atoms: C_2  and  C_3 
REMARK    2  A    between atoms: C_3  and  O_6 
REMARK    3  A    between atoms: C_3  and  C_4 
REMARK    4  A    between atoms: C_7  and  O_6 
REMARK    5  A    between atoms: C_9  and  C_10 
REMARK    6  A    between atoms: N_15  and  C_14 
REMARK    7  A    between atoms: N_20  and  C_19 
REMARK       I    between atoms: C_22  and  N_20 
ROOT
ATOM      1  C   LIG d   1      -8.248  75.440 118.274  0.00  0.00     0.161 C 
ATOM      2  C   LIG d   1      -9.506  75.805 118.781  0.00  0.00     0.016 C 
ATOM      3  C   LIG d   1      -9.909  77.146 118.973  0.00  0.00     0.038 C 
ATOM      4  C   LIG d   1      -9.131  78.225 118.526  0.00  0.00     0.028 C 
ATOM      5  C   LIG d   1      -7.639  77.913 118.470  0.00  0.00    -0.047 C 
ATOM      6  C   LIG d   1      -7.429  76.603 117.677  0.00  0.00     0.091 C 
ENDROOT
BRANCH   1   7
ATOM      7  O   LIG d   1      -8.400  74.384 117.304  0.00  0.00    -0.368 OA
BRANCH   7   8
ATOM      8  C   LIG d   1      -8.556  73.046 117.838  0.00  0.00     0.119 C 
BRANCH   8   9
ATOM      9  C   LIG d   1      -7.318  72.232 117.414  0.00  0.00     0.028 C 
ATOM     10  C   LIG d   1      -6.587  72.857 116.214  0.00  0.00     0.006 C 
ENDBRANCH   8   9
BRANCH   8  11
ATOM     11  C   LIG d   1      -9.750  72.329 117.202  0.00  0.00     0.028 C 
ATOM     12  C   LIG d   1      -9.706  70.806 117.402  0.00  0.00     0.006 C 
ENDBRANCH   8  11
ENDBRANCH   7   8
ENDBRANCH   1   7
BRANCH   6  13
ATOM     13  N   LIG d   1      -6.004  76.181 117.646  0.00  0.00    -0.311 N 
ATOM     14  C   LIG d   1      -5.168  76.494 116.658  0.00  0.00     0.210 C 
ATOM     15  C   LIG d   1      -3.748  75.941 116.813  0.00  0.00     0.109 C 
ATOM     16  O   LIG d   1      -5.459  77.204 115.684  0.00  0.00    -0.276 OA
ATOM     17  H   LIG d   1      -5.676  75.628 118.414  0.00  0.00     0.149 HD
ENDBRANCH   6  13
BRANCH   5  18
ATOM     18  N   LIG d   1      -6.964  79.074 117.858  0.00  0.00     0.381 N 
ATOM     19  H   LIG d   1      -6.583  79.660 118.573  0.00  0.00    -0.090 HD
ATOM     20  H   LIG d   1      -7.640  79.607 117.340  0.00  0.00    -0.090 HD
ATOM     21  H   LIG d   1      -6.238  78.764 117.250  0.00  0.00    -0.090 HD
ENDBRANCH   5  18
BRANCH   3  22
ATOM     22  C   LIG d   1     -11.084  77.421 119.655  0.00  0.00     0.382 C 
ATOM     23  O   LIG d   1     -12.167  76.924 119.262  0.00  0.00    -0.241 OA
ATOM     24  O   LIG d   1     -11.083  78.193 120.632  0.00  0.00    -0.241 OA
ENDBRANCH   3  22
TORSDOF 7
ENDMDL
MODEL 2
REMARK VINA RESULT:      -5.5      1.936      5.115
REMARK  7 active torsions:
REMARK  status: ('A' for Active; 'I' for Inactive)
REMARK    1  A    between atoms: C_2  and  C_3 
REMARK    2  A    between atoms: C_3  and  O_6 
REMARK    3  A    between atoms: C_3  and  C_4 
REMARK    4  A    between atoms: C_7  and  O_6 
REMARK    5  A    between atoms: C_9  and  C_10 
REMARK    6  A    between atoms: N_15  and  C_14 
REMARK    7  A    between atoms: N_20  and  C_19 
REMARK       I    between atoms: C_22  and  N_20 
ROOT
ATOM      1  C   LIG d   1      -8.836  74.838 117.722  0.00  0.00     0.161 C 
ATOM      2  C   LIG d   1      -9.518  73.610 117.760  0.00  0.00     0.016 C 
ATOM      3  C   LIG d   1      -8.911  72.373 117.445  0.00  0.00     0.038 C 
ATOM      4  C   LIG d   1      -7.532  72.260 117.216  0.00  0.00     0.028 C 
ATOM      5  C   LIG d   1      -6.902  73.538 116.672  0.00  0.00    -0.047 C 
ATOM      6  C   LIG d   1      -7.303  74.722 117.582  0.00  0.00     0.091 C 
ENDROOT
BRANCH   1   7
ATOM      7  O   LIG d   1      -9.175  75.622 118.883  0.00  0.00    -0.368 OA
BRANCH   7   8
ATOM      8  C   LIG d   1      -9.847  76.880 118.628  0.00  0.00     0.119 C 
BRANCH   8   9
ATOM      9  C   LIG d   1      -9.099  77.972 119.417  0.00  0.00     0.028 C 
ATOM     10  C   LIG d   1      -8.757  79.194 118.549  0.00  0.00     0.006 C 
ENDBRANCH   8   9
BRANCH   8  11
ATOM     11  C   LIG d   1     -11.271  76.875 119.192  0.00  0.00     0.028 C 
ATOM     12  C   LIG d   1     -11.407  77.714 120.472  0.00  0.00     0.006 C 
ENDBRANCH   8  11
ENDBRANCH   7   8
ENDBRANCH   1   7
BRANCH   6  13
ATOM     13  N   LIG d   1      -6.798  76.024 117.073  0.00  0.00    -0.311 N 
ATOM     14  C   LIG d   1      -5.977  76.813 117.765  0.00  0.00     0.210 C 
ATOM     15  C   LIG d   1      -5.594  78.120 117.065  0.00  0.00     0.109 C 
ATOM     16  O   LIG d   1      -5.505  76.539 118.878  0.00  0.00    -0.276 OA
ATOM     17  H   LIG d   1      -7.107  76.310 116.165  0.00  0.00     0.149 HD
ENDBRANCH   6  13
BRANCH   5  18
ATOM     18  N   LIG d   1      -5.444  73.325 116.610  0.00  0.00     0.381 N 
ATOM     19  H   LIG d   1      -5.249  72.355 116.462  0.00  0.00    -0.090 HD
ATOM     20  H   LIG d   1      -5.038  73.598 117.488  0.00  0.00    -0.090 HD
ATOM     21  H   LIG d   1      -5.051  73.867 115.872  0.00  0.00    -0.090 HD
ENDBRANCH   5  18
BRANCH   3  22
ATOM     22  C   LIG d   1      -9.695  71.236 117.319  0.00  0.00     0.382 C 
ATOM     23  O   LIG d   1     -10.159  70.677 118.342  0.00  0.00    -0.241 OA
ATOM     24  O   LIG d   1      -9.906  70.736 116.198  0.00  0.00    -0.241 OA
ENDBRANCH   3  22
TORSDOF 7
ENDMDL
MODEL 3
REMARK VINA RESULT:      -5.5     15.473     18.169
REMARK  7 active torsions:
REMARK  status: ('A' for Active; 'I' for Inactive)
REMARK    1  A    between atoms: C_2  and  C_3 
REMARK    2  A    between atoms: C_3  and  O_6 
REMARK    3  A    between atoms: C_3  and  C_4 
REMARK    4  A    between atoms: C_7  and  O_6 
REMARK    5  A    between atoms: C_9  and  C_10 
REMARK    6  A    between atoms: N_15  and  C_14 
REMARK    7  A    between atoms: N_20  and  C_19 
REMARK       I    between atoms: C_22  and  N_20 
ROOT
ATOM      1  C   LIG d   1      -6.132  93.468 117.764  0.00  0.00     0.161 C 
ATOM      2  C   LIG d   1      -7.084  92.599 117.205  0.00  0.00     0.016 C 
ATOM      3  C   LIG d   1      -6.769  91.312 116.712  0.00  0.00     0.038 C 
ATOM      4  C   LIG d   1      -5.498  90.743 116.884  0.00  0.00     0.028 C 
ATOM      5  C   LIG d   1      -4.381  91.776 116.988  0.00  0.00    -0.047 C 
ATOM      6  C   LIG d   1      -4.763  92.821 118.061  0.00  0.00     0.091 C 
ENDROOT
BRANCH   1   7
ATOM      7  O   LIG d   1      -6.667  94.077 118.956  0.00  0.00    -0.368 OA
BRANCH   7   8
ATOM      8  C   LIG d   1      -7.897  94.826 118.792  0.00  0.00     0.119 C 
BRANCH   8   9
ATOM      9  C   LIG d   1      -7.515  96.309 118.615  0.00  0.00     0.028 C 
ATOM     10  C   LIG d   1      -8.692  97.161 118.111  0.00  0.00     0.006 C 
ENDBRANCH   8   9
BRANCH   8  11
ATOM     11  C   LIG d   1      -8.753  94.776 120.060  0.00  0.00     0.028 C 
ATOM     12  C   LIG d   1      -8.606  93.452 120.826  0.00  0.00     0.006 C 
ENDBRANCH   8  11
ENDBRANCH   7   8
ENDBRANCH   1   7
BRANCH   6  13
ATOM     13  N   LIG d   1      -3.763  93.915 118.168  0.00  0.00    -0.311 N 
ATOM     14  C   LIG d   1      -2.753  93.903 119.037  0.00  0.00     0.210 C 
ATOM     15  C   LIG d   1      -1.849  95.140 118.995  0.00  0.00     0.109 C 
ATOM     16  O   LIG d   1      -2.501  92.972 119.816  0.00  0.00    -0.276 OA
ATOM     17  H   LIG d   1      -3.873  94.696 117.552  0.00  0.00     0.149 HD
ENDBRANCH   6  13
BRANCH   5  18
ATOM     18  N   LIG d   1      -3.134  91.054 117.302  0.00  0.00     0.381 N 
ATOM     19  H   LIG d   1      -3.135  90.163 116.847  0.00  0.00    -0.090 HD
ATOM     20  H   LIG d   1      -3.088  90.902 118.294  0.00  0.00    -0.090 HD
ATOM     21  H   LIG d   1      -2.347  91.586 117.003  0.00  0.00    -0.090 HD
ENDBRANCH   5  18
BRANCH   3  22
ATOM     22  C   LIG d   1      -7.721  90.596 116.002  0.00  0.00     0.382 C 
ATOM     23  O   LIG d   1      -7.730  89.342 116.055  0.00  0.00    -0.241 OA
ATOM     24  O   LIG d   1      -8.543  91.185 115.276  0.00  0.00    -0.241 OA
ENDBRANCH   3  22
TORSDOF 7
ENDMDL
MODEL 4
REMARK VINA RESULT:      -5.5      2.001      5.175
REMARK  7 active torsions:
REMARK  status: ('A' for Active; 'I' for Inactive)
REMARK    1  A    between atoms: C_2  and  C_3 
REMARK    2  A    between atoms: C_3  and  O_6 
REMARK    3  A    between atoms: C_3  and  C_4 
REMARK    4  A    between atoms: C_7  and  O_6 
REMARK    5  A    between atoms: C_9  and  C_10 
REMARK    6  A    between atoms: N_15  and  C_14 
REMARK    7  A    between atoms: N_20  and  C_19 
REMARK       I    between atoms: C_22  and  N_20 
ROOT
ATOM      1  C   LIG d   1      -6.682  75.407 116.470  0.00  0.00     0.161 C 
ATOM      2  C   LIG d   1      -5.434  74.886 116.090  0.00  0.00     0.016 C 
ATOM      3  C   LIG d   1      -4.227  75.190 116.761  0.00  0.00     0.038 C 
ATOM      4  C   LIG d   1      -4.208  75.921 117.958  0.00  0.00     0.028 C 
ATOM      5  C   LIG d   1      -5.381  76.886 118.097  0.00  0.00    -0.047 C 
ATOM      6  C   LIG d   1      -6.696  76.117 117.840  0.00  0.00     0.091 C 
ENDROOT
BRANCH   1   7
ATOM      7  O   LIG d   1      -7.677  74.365 116.435  0.00  0.00    -0.368 OA
BRANCH   7   8
ATOM      8  C   LIG d   1      -8.078  73.823 117.718  0.00  0.00     0.119 C 
BRANCH   8   9
ATOM      9  C   LIG d   1      -7.564  72.372 117.789  0.00  0.00     0.028 C 
ATOM     10  C   LIG d   1      -7.443  71.724 116.400  0.00  0.00     0.006 C 
ENDBRANCH   8   9
BRANCH   8  11
ATOM     11  C   LIG d   1      -9.602  73.719 117.827  0.00  0.00     0.028 C 
ATOM     12  C   LIG d   1     -10.334  74.545 116.758  0.00  0.00     0.006 C 
ENDBRANCH   8  11
ENDBRANCH   7   8
ENDBRANCH   1   7
BRANCH   6  13
ATOM     13  N   LIG d   1      -7.888  77.004 117.874  0.00  0.00    -0.311 N 
ATOM     14  C   LIG d   1      -8.639  77.183 118.960  0.00  0.00     0.210 C 
ATOM     15  C   LIG d   1      -9.832  78.125 118.773  0.00  0.00     0.109 C 
ATOM     16  O   LIG d   1      -8.411  76.676 120.068  0.00  0.00    -0.276 OA
ATOM     17  H   LIG d   1      -8.127  77.480 117.026  0.00  0.00     0.149 HD
ENDBRANCH   6  13
BRANCH   5  18
ATOM     18  N   LIG d   1      -5.312  77.479 119.446  0.00  0.00     0.381 N 
ATOM     19  H   LIG d   1      -4.495  78.051 119.523  0.00  0.00    -0.090 HD
ATOM     20  H   LIG d   1      -5.244  76.740 120.123  0.00  0.00    -0.090 HD
ATOM     21  H   LIG d   1      -6.126  78.025 119.620  0.00  0.00    -0.090 HD
ENDBRANCH   5  18
BRANCH   3  22
ATOM     22  C   LIG d   1      -3.017  74.794 116.211  0.00  0.00     0.382 C 
ATOM     23  O   LIG d   1      -2.884  74.734 114.965  0.00  0.00    -0.241 OA
ATOM     24  O   LIG d   1      -2.071  74.454 116.946  0.00  0.00    -0.241 OA
ENDBRANCH   3  22
TORSDOF 7
ENDMDL
MODEL 5
REMARK VINA RESULT:      -5.4      2.124      5.067
REMARK  7 active torsions:
REMARK  status: ('A' for Active; 'I' for Inactive)
REMARK    1  A    between atoms: C_2  and  C_3 
REMARK    2  A    between atoms: C_3  and  O_6 
REMARK    3  A    between atoms: C_3  and  C_4 
REMARK    4  A    between atoms: C_7  and  O_6 
REMARK    5  A    between atoms: C_9  and  C_10 
REMARK    6  A    between atoms: N_15  and  C_14 
REMARK    7  A    between atoms: N_20  and  C_19 
REMARK       I    between atoms: C_22  and  N_20 
ROOT
ATOM      1  C   LIG d   1      -7.643  75.431 117.110  0.00  0.00     0.161 C 
ATOM      2  C   LIG d   1      -7.888  74.088 116.778  0.00  0.00     0.016 C 
ATOM      3  C   LIG d   1      -9.024  73.372 117.219  0.00  0.00     0.038 C 
ATOM      4  C   LIG d   1     -10.077  74.000 117.902  0.00  0.00     0.028 C 
ATOM      5  C   LIG d   1      -9.639  75.228 118.692  0.00  0.00    -0.047 C 
ATOM      6  C   LIG d   1      -8.835  76.164 117.761  0.00  0.00     0.091 C 
ENDROOT
BRANCH   1   7
ATOM      7  O   LIG d   1      -7.191  76.147 115.944  0.00  0.00    -0.368 OA
BRANCH   7   8
ATOM      8  C   LIG d   1      -5.809  76.583 115.960  0.00  0.00     0.119 C 
BRANCH   8   9
ATOM      9  C   LIG d   1      -5.083  75.863 114.807  0.00  0.00     0.028 C 
ATOM     10  C   LIG d   1      -4.569  74.472 115.215  0.00  0.00     0.006 C 
ENDBRANCH   8   9
BRANCH   8  11
ATOM     11  C   LIG d   1      -5.095  76.127 117.236  0.00  0.00     0.028 C 
ATOM     12  C   LIG d   1      -4.356  77.272 117.947  0.00  0.00     0.006 C 
ENDBRANCH   8  11
ENDBRANCH   7   8
ENDBRANCH   1   7
BRANCH   6  13
ATOM     13  N   LIG d   1      -8.297  77.350 118.476  0.00  0.00    -0.311 N 
ATOM     14  C   LIG d   1      -9.017  78.442 118.730  0.00  0.00     0.210 C 
ATOM     15  C   LIG d   1      -8.263  79.557 119.462  0.00  0.00     0.109 C 
ATOM     16  O   LIG d   1     -10.216  78.579 118.448  0.00  0.00    -0.276 OA
ATOM     17  H   LIG d   1      -7.340  77.311 118.769  0.00  0.00     0.149 HD
ENDBRANCH   6  13
BRANCH   5  18
ATOM     18  N   LIG d   1     -10.853  75.862 119.240  0.00  0.00     0.381 N 
ATOM     19  H   LIG d   1     -10.788  76.856 119.147  0.00  0.00    -0.090 HD
ATOM     20  H   LIG d   1     -10.923  75.641 120.218  0.00  0.00    -0.090 HD
ATOM     21  H   LIG d   1     -11.659  75.528 118.758  0.00  0.00    -0.090 HD
ENDBRANCH   5  18
BRANCH   3  22
ATOM     22  C   LIG d   1      -9.097  72.003 117.013  0.00  0.00     0.382 C 
ATOM     23  O   LIG d   1      -9.981  71.327 117.592  0.00  0.00    -0.241 OA
ATOM     24  O   LIG d   1      -8.263  71.428 116.288  0.00  0.00    -0.241 OA
ENDBRANCH   3  22
TORSDOF 7
ENDMDL
MODEL 6
REMARK VINA RESULT:      -5.2      2.042      4.479
REMARK  7 active torsions:
REMARK  status: ('A' for Active; 'I' for Inactive)
REMARK    1  A    between atoms: C_2  and  C_3 
REMARK    2  A    between atoms: C_3  and  O_6 
REMARK    3  A    between atoms: C_3  and  C_4 
REMARK    4  A    between atoms: C_7  and  O_6 
REMARK    5  A    between atoms: C_9  and  C_10 
REMARK    6  A    between atoms: N_15  and  C_14 
REMARK    7  A    between atoms: N_20  and  C_19 
REMARK       I    between atoms: C_22  and  N_20 
ROOT
ATOM      1  C   LIG d   1      -7.606  76.101 117.692  0.00  0.00     0.161 C 
ATOM      2  C   LIG d   1      -8.495  77.017 118.277  0.00  0.00     0.016 C 
ATOM      3  C   LIG d   1      -9.817  76.687 118.653  0.00  0.00     0.038 C 
ATOM      4  C   LIG d   1     -10.293  75.368 118.609  0.00  0.00     0.028 C 
ATOM      5  C   LIG d   1      -9.600  74.509 117.556  0.00  0.00    -0.047 C 
ATOM      6  C   LIG d   1      -8.070  74.630 117.738  0.00  0.00     0.091 C 
ENDROOT
BRANCH   1   7
ATOM      7  O   LIG d   1      -6.302  76.234 118.293  0.00  0.00    -0.368 OA
BRANCH   7   8
ATOM      8  C   LIG d   1      -5.312  76.949 117.515  0.00  0.00     0.119 C 
BRANCH   8   9
ATOM      9  C   LIG d   1      -3.968  76.216 117.689  0.00  0.00     0.028 C 
ATOM     10  C   LIG d   1      -3.907  74.903 116.891  0.00  0.00     0.006 C 
ENDBRANCH   8   9
BRANCH   8  11
ATOM     11  C   LIG d   1      -5.080  78.358 118.068  0.00  0.00     0.028 C 
ATOM     12  C   LIG d   1      -4.675  79.366 116.981  0.00  0.00     0.006 C 
ENDBRANCH   8  11
ENDBRANCH   7   8
ENDBRANCH   1   7
BRANCH   6  13
ATOM     13  N   LIG d   1      -7.315  73.887 116.696  0.00  0.00    -0.311 N 
ATOM     14  C   LIG d   1      -6.983  72.602 116.806  0.00  0.00     0.210 C 
ATOM     15  C   LIG d   1      -6.188  72.035 115.626  0.00  0.00     0.109 C 
ATOM     16  O   LIG d   1      -7.301  71.869 117.755  0.00  0.00    -0.276 OA
ATOM     17  H   LIG d   1      -7.044  74.397 115.878  0.00  0.00     0.149 HD
ENDBRANCH   6  13
BRANCH   5  18
ATOM     18  N   LIG d   1     -10.094  73.128 117.712  0.00  0.00     0.381 N 
ATOM     19  H   LIG d   1      -9.711  72.548 116.992  0.00  0.00    -0.090 HD
ATOM     20  H   LIG d   1     -11.094  73.128 117.619  0.00  0.00    -0.090 HD
ATOM     21  H   LIG d   1      -9.836  72.773 118.606  0.00  0.00    -0.090 HD
ENDBRANCH   5  18
BRANCH   3  22
ATOM     22  C   LIG d   1     -10.692  77.690 119.043  0.00  0.00     0.382 C 
ATOM     23  O   LIG d   1     -11.787  77.393 119.578  0.00  0.00    -0.241 OA
ATOM     24  O   LIG d   1     -10.419  78.885 118.826  0.00  0.00    -0.241 OA
ENDBRANCH   3  22
TORSDOF 7
ENDMDL
MODEL 7
REMARK VINA RESULT:      -5.1      1.712      2.163
REMARK  7 active torsions:
REMARK  status: ('A' for Active; 'I' for Inactive)
REMARK    1  A    between atoms: C_2  and  C_3 
REMARK    2  A    between atoms: C_3  and  O_6 
REMARK    3  A    between atoms: C_3  and  C_4 
REMARK    4  A    between atoms: C_7  and  O_6 
REMARK    5  A    between atoms: C_9  and  C_10 
REMARK    6  A    between atoms: N_15  and  C_14 
REMARK    7  A    between atoms: N_20  and  C_19 
REMARK       I    between atoms: C_22  and  N_20 
ROOT
ATOM      1  C   LIG d   1      -7.571  77.196 117.969  0.00  0.00     0.161 C 
ATOM      2  C   LIG d   1      -8.609  78.003 118.463  0.00  0.00     0.016 C 
ATOM      3  C   LIG d   1      -8.516  79.410 118.573  0.00  0.00     0.038 C 
ATOM      4  C   LIG d   1      -7.426  80.124 118.053  0.00  0.00     0.028 C 
ATOM      5  C   LIG d   1      -6.137  79.311 118.004  0.00  0.00    -0.047 C 
ATOM      6  C   LIG d   1      -6.418  77.967 117.293  0.00  0.00     0.091 C 
ENDROOT
BRANCH   1   7
ATOM      7  O   LIG d   1      -8.107  76.206 117.069  0.00  0.00    -0.368 OA
BRANCH   7   8
ATOM      8  C   LIG d   1      -8.420  74.917 117.652  0.00  0.00     0.119 C 
BRANCH   8   9
ATOM      9  C   LIG d   1      -7.251  73.967 117.326  0.00  0.00     0.028 C 
ATOM     10  C   LIG d   1      -6.705  74.175 115.903  0.00  0.00     0.006 C 
ENDBRANCH   8   9
BRANCH   8  11
ATOM     11  C   LIG d   1      -9.650  74.290 116.990  0.00  0.00     0.028 C 
ATOM     12  C   LIG d   1      -9.889  72.838 117.433  0.00  0.00     0.006 C 
ENDBRANCH   8  11
ENDBRANCH   7   8
ENDBRANCH   1   7
BRANCH   6  13
ATOM     13  N   LIG d   1      -5.229  77.075 117.277  0.00  0.00    -0.311 N 
ATOM     14  C   LIG d   1      -4.348  77.046 116.279  0.00  0.00     0.210 C 
ATOM     15  C   LIG d   1      -3.206  76.040 116.453  0.00  0.00     0.109 C 
ATOM     16  O   LIG d   1      -4.385  77.782 115.281  0.00  0.00    -0.276 OA
ATOM     17  H   LIG d   1      -5.105  76.467 118.063  0.00  0.00     0.149 HD
ENDBRANCH   6  13
BRANCH   5  18
ATOM     18  N   LIG d   1      -5.121  80.128 117.315  0.00  0.00     0.381 N 
ATOM     19  H   LIG d   1      -5.570  80.801 116.726  0.00  0.00    -0.090 HD
ATOM     20  H   LIG d   1      -4.559  79.528 116.736  0.00  0.00    -0.090 HD
ATOM     21  H   LIG d   1      -4.545  80.591 117.983  0.00  0.00    -0.090 HD
ENDBRANCH   5  18
BRANCH   3  22
ATOM     22  C   LIG d   1      -9.503  80.113 119.247  0.00  0.00     0.382 C 
ATOM     23  O   LIG d   1     -10.600  79.562 119.504  0.00  0.00    -0.241 OA
ATOM     24  O   LIG d   1      -9.327  81.306 119.561  0.00  0.00    -0.241 OA
ENDBRANCH   3  22
TORSDOF 7
ENDMDL
MODEL 8
REMARK VINA RESULT:      -5.1      2.134      5.150
REMARK  7 active torsions:
REMARK  status: ('A' for Active; 'I' for Inactive)
REMARK    1  A    between atoms: C_2  and  C_3 
REMARK    2  A    between atoms: C_3  and  O_6 
REMARK    3  A    between atoms: C_3  and  C_4 
REMARK    4  A    between atoms: C_7  and  O_6 
REMARK    5  A    between atoms: C_9  and  C_10 
REMARK    6  A    between atoms: N_15  and  C_14 
REMARK    7  A    between atoms: N_20  and  C_19 
REMARK       I    between atoms: C_22  and  N_20 
ROOT
ATOM      1  C   LIG d   1      -7.503  75.694 117.222  0.00  0.00     0.161 C 
ATOM      2  C   LIG d   1      -7.695  74.318 117.017  0.00  0.00     0.016 C 
ATOM      3  C   LIG d   1      -6.661  73.438 116.620  0.00  0.00     0.038 C 
ATOM      4  C   LIG d   1      -5.323  73.852 116.548  0.00  0.00     0.028 C 
ATOM      5  C   LIG d   1      -5.164  75.340 116.256  0.00  0.00    -0.047 C 
ATOM      6  C   LIG d   1      -6.027  76.143 117.256  0.00  0.00     0.091 C 
ENDROOT
BRANCH   1   7
ATOM      7  O   LIG d   1      -8.180  76.108 118.426  0.00  0.00    -0.368 OA
BRANCH   7   8
ATOM      8  C   LIG d   1      -9.410  76.851 118.241  0.00  0.00     0.119 C 
BRANCH   8   9
ATOM      9  C   LIG d   1      -9.305  78.137 119.084  0.00  0.00     0.028 C 
ATOM     10  C   LIG d   1      -8.041  78.163 119.959  0.00  0.00     0.006 C 
ENDBRANCH   8   9
BRANCH   8  11
ATOM     11  C   LIG d   1     -10.611  76.090 118.811  0.00  0.00     0.028 C 
ATOM     12  C   LIG d   1     -11.594  77.003 119.561  0.00  0.00     0.006 C 
ENDBRANCH   8  11
ENDBRANCH   7   8
ENDBRANCH   1   7
BRANCH   6  13
ATOM     13  N   LIG d   1      -5.995  77.604 116.987  0.00  0.00    -0.311 N 
ATOM     14  C   LIG d   1      -5.168  78.446 117.605  0.00  0.00     0.210 C 
ATOM     15  C   LIG d   1      -5.313  79.914 117.193  0.00  0.00     0.109 C 
ATOM     16  O   LIG d   1      -4.306  78.111 118.431  0.00  0.00    -0.276 OA
ATOM     17  H   LIG d   1      -6.640  77.957 116.307  0.00  0.00     0.149 HD
ENDBRANCH   6  13
BRANCH   5  18
ATOM     18  N   LIG d   1      -3.727  75.661 116.344  0.00  0.00     0.381 N 
ATOM     19  H   LIG d   1      -3.590  76.437 116.961  0.00  0.00    -0.090 HD
ATOM     20  H   LIG d   1      -3.395  75.920 115.432  0.00  0.00    -0.090 HD
ATOM     21  H   LIG d   1      -3.221  74.870 116.677  0.00  0.00    -0.090 HD
ENDBRANCH   5  18
BRANCH   3  22
ATOM     22  C   LIG d   1      -6.970  72.137 116.253  0.00  0.00     0.382 C 
ATOM     23  O   LIG d   1      -6.369  71.598 115.292  0.00  0.00    -0.241 OA
ATOM     24  O   LIG d   1      -7.872  71.511 116.841  0.00  0.00    -0.241 OA
ENDBRANCH   3  22
TORSDOF 7
ENDMDL
MODEL 9
REMARK VINA RESULT:      -4.9      2.324      5.600
REMARK  7 active torsions:
REMARK  status: ('A' for Active; 'I' for Inactive)
REMARK    1  A    between atoms: C_2  and  C_3 
REMARK    2  A    between atoms: C_3  and  O_6 
REMARK    3  A    between atoms: C_3  and  C_4 
REMARK    4  A    between atoms: C_7  and  O_6 
REMARK    5  A    between atoms: C_9  and  C_10 
REMARK    6  A    between atoms: N_15  and  C_14 
REMARK    7  A    between atoms: N_20  and  C_19 
REMARK       I    between atoms: C_22  and  N_20 
ROOT
ATOM      1  C   LIG d   1      -7.143  76.571 117.645  0.00  0.00     0.161 C 
ATOM      2  C   LIG d   1      -6.147  77.538 117.427  0.00  0.00     0.016 C 
ATOM      3  C   LIG d   1      -5.131  77.402 116.452  0.00  0.00     0.038 C 
ATOM      4  C   LIG d   1      -5.132  76.353 115.522  0.00  0.00     0.028 C 
ATOM      5  C   LIG d   1      -5.825  75.093 116.030  0.00  0.00    -0.047 C 
ATOM      6  C   LIG d   1      -7.225  75.472 116.565  0.00  0.00     0.091 C 
ENDROOT
BRANCH   1   7
ATOM      7  O   LIG d   1      -8.422  77.215 117.804  0.00  0.00    -0.368 OA
BRANCH   7   8
ATOM      8  C   LIG d   1      -8.800  77.558 119.160  0.00  0.00     0.119 C 
BRANCH   8   9
ATOM      9  C   LIG d   1      -8.620  76.295 120.024  0.00  0.00     0.028 C 
ATOM     10  C   LIG d   1      -7.778  76.562 121.284  0.00  0.00     0.006 C 
ENDBRANCH   8   9
BRANCH   8  11
ATOM     11  C   LIG d   1     -10.289  77.905 119.253  0.00  0.00     0.028 C 
ATOM     12  C   LIG d   1     -11.190  76.660 119.270  0.00  0.00     0.006 C 
ENDBRANCH   8  11
ENDBRANCH   7   8
ENDBRANCH   1   7
BRANCH   6  13
ATOM     13  N   LIG d   1      -7.938  74.311 117.159  0.00  0.00    -0.311 N 
ATOM     14  C   LIG d   1      -9.251  74.121 117.045  0.00  0.00     0.210 C 
ATOM     15  C   LIG d   1      -9.787  72.870 117.749  0.00  0.00     0.109 C 
ATOM     16  O   LIG d   1     -10.018  74.852 116.401  0.00  0.00    -0.276 OA
ATOM     17  H   LIG d   1      -7.387  73.651 117.673  0.00  0.00     0.149 HD
ENDBRANCH   6  13
BRANCH   5  18
ATOM     18  N   LIG d   1      -5.874  74.130 114.913  0.00  0.00     0.381 N 
ATOM     19  H   LIG d   1      -5.763  74.613 114.044  0.00  0.00    -0.090 HD
ATOM     20  H   LIG d   1      -6.773  73.680 114.912  0.00  0.00    -0.090 HD
ATOM     21  H   LIG d   1      -5.154  73.450 115.018  0.00  0.00    -0.090 HD
ENDBRANCH   5  18
BRANCH   3  22
ATOM     22  C   LIG d   1      -4.078  78.303 116.428  0.00  0.00     0.382 C 
ATOM     23  O   LIG d   1      -2.901  77.896 116.580  0.00  0.00    -0.241 OA
ATOM     24  O   LIG d   1      -4.293  79.524 116.301  0.00  0.00    -0.241 OA
ENDBRANCH   3  22
TORSDOF 7
ENDMDL
