MODEL 1
REMARK VINA RESULT:      -5.3      0.000      0.000
REMARK  7 active torsions:
REMARK  status: ('A' for Active; 'I' for Inactive)
REMARK    1  A    between atoms: C_2  and  C_3 
REMARK    2  A    between atoms: C_3  and  O_6 
REMARK    3  A    between atoms: C_3  and  C_4 
REMARK    4  A    between atoms: C_7  and  O_6 
REMARK    5  A    between atoms: C_9  and  C_10 
REMARK    6  A    between atoms: N_15  and  C_14 
REMARK    7  A    between atoms: N_20  and  C_19 
REMARK       I    between atoms: C_22  and  N_20 
ROOT
ATOM      1  C   LIG d   1      -6.343  93.406 118.126  0.00  0.00     0.161 C 
ATOM      2  C   LIG d   1      -7.212  92.688 117.288  0.00  0.00     0.016 C 
ATOM      3  C   LIG d   1      -6.811  91.563 116.532  0.00  0.00     0.038 C 
ATOM      4  C   LIG d   1      -5.541  90.985 116.679  0.00  0.00     0.028 C 
ATOM      5  C   LIG d   1      -4.474  91.975 117.131  0.00  0.00    -0.047 C 
ATOM      6  C   LIG d   1      -4.983  92.724 118.384  0.00  0.00     0.091 C 
ENDROOT
BRANCH   1   7
ATOM      7  O   LIG d   1      -7.000  93.702 119.374  0.00  0.00    -0.368 OA
BRANCH   7   8
ATOM      8  C   LIG d   1      -7.133  95.106 119.707  0.00  0.00     0.119 C 
BRANCH   8   9
ATOM      9  C   LIG d   1      -8.213  95.222 120.799  0.00  0.00     0.028 C 
ATOM     10  C   LIG d   1      -9.637  95.218 120.219  0.00  0.00     0.006 C 
ENDBRANCH   8   9
BRANCH   8  11
ATOM     11  C   LIG d   1      -7.667  95.912 118.520  0.00  0.00     0.028 C 
ATOM     12  C   LIG d   1      -7.055  97.319 118.431  0.00  0.00     0.006 C 
ENDBRANCH   8  11
ENDBRANCH   7   8
ENDBRANCH   1   7
BRANCH   6  13
ATOM     13  N   LIG d   1      -4.034  93.772 118.843  0.00  0.00    -0.311 N 
ATOM     14  C   LIG d   1      -3.104  93.562 119.773  0.00  0.00     0.210 C 
ATOM     15  C   LIG d   1      -2.243  94.783 120.113  0.00  0.00     0.109 C 
ATOM     16  O   LIG d   1      -2.889  92.473 120.325  0.00  0.00    -0.276 OA
ATOM     17  H   LIG d   1      -4.118  94.677 118.424  0.00  0.00     0.149 HD
ENDBRANCH   6  13
BRANCH   5  18
ATOM     18  N   LIG d   1      -3.235  91.213 117.377  0.00  0.00     0.381 N 
ATOM     19  H   LIG d   1      -3.459  90.317 117.760  0.00  0.00    -0.090 HD
ATOM     20  H   LIG d   1      -2.674  91.711 118.046  0.00  0.00    -0.090 HD
ATOM     21  H   LIG d   1      -2.729  91.102 116.526  0.00  0.00    -0.090 HD
ENDBRANCH   5  18
BRANCH   3  22
ATOM     22  C   LIG d   1      -7.673  91.028 115.586  0.00  0.00     0.382 C 
ATOM     23  O   LIG d   1      -8.296  91.787 114.805  0.00  0.00    -0.241 OA
ATOM     24  O   LIG d   1      -7.869  89.799 115.533  0.00  0.00    -0.241 OA
ENDBRANCH   3  22
TORSDOF 7
ENDMDL
MODEL 2
REMARK VINA RESULT:      -5.3      2.029      4.473
REMARK  7 active torsions:
REMARK  status: ('A' for Active; 'I' for Inactive)
REMARK    1  A    between atoms: C_2  and  C_3 
REMARK    2  A    between atoms: C_3  and  O_6 
REMARK    3  A    between atoms: C_3  and  C_4 
REMARK    4  A    between atoms: C_7  and  O_6 
REMARK    5  A    between atoms: C_9  and  C_10 
REMARK    6  A    between atoms: N_15  and  C_14 
REMARK    7  A    between atoms: N_20  and  C_19 
REMARK       I    between atoms: C_22  and  N_20 
ROOT
ATOM      1  C   LIG d   1      -5.073  92.198 117.940  0.00  0.00     0.161 C 
ATOM      2  C   LIG d   1      -5.438  91.408 116.838  0.00  0.00     0.016 C 
ATOM      3  C   LIG d   1      -6.680  91.528 116.172  0.00  0.00     0.038 C 
ATOM      4  C   LIG d   1      -7.586  92.556 116.472  0.00  0.00     0.028 C 
ATOM      5  C   LIG d   1      -7.479  93.058 117.908  0.00  0.00    -0.047 C 
ATOM      6  C   LIG d   1      -6.002  93.400 118.211  0.00  0.00     0.091 C 
ENDROOT
BRANCH   1   7
ATOM      7  O   LIG d   1      -3.710  92.642 117.793  0.00  0.00    -0.368 OA
BRANCH   7   8
ATOM      8  C   LIG d   1      -2.769  92.153 118.781  0.00  0.00     0.119 C 
BRANCH   8   9
ATOM      9  C   LIG d   1      -2.240  93.372 119.560  0.00  0.00     0.028 C 
ATOM     10  C   LIG d   1      -2.302  94.668 118.734  0.00  0.00     0.006 C 
ENDBRANCH   8   9
BRANCH   8  11
ATOM     11  C   LIG d   1      -1.538  91.530 118.117  0.00  0.00     0.028 C 
ATOM     12  C   LIG d   1      -1.621  89.998 118.025  0.00  0.00     0.006 C 
ENDBRANCH   8  11
ENDBRANCH   7   8
ENDBRANCH   1   7
BRANCH   6  13
ATOM     13  N   LIG d   1      -5.795  93.819 119.622  0.00  0.00    -0.311 N 
ATOM     14  C   LIG d   1      -5.835  95.088 120.023  0.00  0.00     0.210 C 
ATOM     15  C   LIG d   1      -5.575  95.303 121.518  0.00  0.00     0.109 C 
ATOM     16  O   LIG d   1      -6.091  96.054 119.289  0.00  0.00    -0.276 OA
ATOM     17  H   LIG d   1      -5.612  93.096 120.291  0.00  0.00     0.149 HD
ENDBRANCH   6  13
BRANCH   5  18
ATOM     18  N   LIG d   1      -8.380  94.218 118.043  0.00  0.00     0.381 N 
ATOM     19  H   LIG d   1      -8.204  94.872 117.306  0.00  0.00    -0.090 HD
ATOM     20  H   LIG d   1      -8.194  94.674 118.919  0.00  0.00    -0.090 HD
ATOM     21  H   LIG d   1      -9.329  93.918 118.011  0.00  0.00    -0.090 HD
ENDBRANCH   5  18
BRANCH   3  22
ATOM     22  C   LIG d   1      -7.043  90.587 115.221  0.00  0.00     0.382 C 
ATOM     23  O   LIG d   1      -8.226  90.540 114.806  0.00  0.00    -0.241 OA
ATOM     24  O   LIG d   1      -6.214  89.756 114.805  0.00  0.00    -0.241 OA
ENDBRANCH   3  22
TORSDOF 7
ENDMDL
MODEL 3
REMARK VINA RESULT:      -5.2      2.312      4.524
REMARK  7 active torsions:
REMARK  status: ('A' for Active; 'I' for Inactive)
REMARK    1  A    between atoms: C_2  and  C_3 
REMARK    2  A    between atoms: C_3  and  O_6 
REMARK    3  A    between atoms: C_3  and  C_4 
REMARK    4  A    between atoms: C_7  and  O_6 
REMARK    5  A    between atoms: C_9  and  C_10 
REMARK    6  A    between atoms: N_15  and  C_14 
REMARK    7  A    between atoms: N_20  and  C_19 
REMARK       I    between atoms: C_22  and  N_20 
ROOT
ATOM      1  C   LIG d   1      -4.582  91.505 117.779  0.00  0.00     0.161 C 
ATOM      2  C   LIG d   1      -5.335  91.036 116.689  0.00  0.00     0.016 C 
ATOM      3  C   LIG d   1      -6.569  91.603 116.295  0.00  0.00     0.038 C 
ATOM      4  C   LIG d   1      -7.063  92.781 116.874  0.00  0.00     0.028 C 
ATOM      5  C   LIG d   1      -6.589  92.996 118.308  0.00  0.00    -0.047 C 
ATOM      6  C   LIG d   1      -5.050  92.859 118.354  0.00  0.00     0.091 C 
ENDROOT
BRANCH   1   7
ATOM      7  O   LIG d   1      -3.188  91.569 117.418  0.00  0.00    -0.368 OA
BRANCH   7   8
ATOM      8  C   LIG d   1      -2.340  90.531 117.967  0.00  0.00     0.119 C 
BRANCH   8   9
ATOM      9  C   LIG d   1      -3.140  89.815 119.072  0.00  0.00     0.028 C 
ATOM     10  C   LIG d   1      -2.528  90.021 120.467  0.00  0.00     0.006 C 
ENDBRANCH   8   9
BRANCH   8  11
ATOM     11  C   LIG d   1      -1.117  91.125 118.672  0.00  0.00     0.028 C 
ATOM     12  C   LIG d   1      -0.671  92.465 118.065  0.00  0.00     0.006 C 
ENDBRANCH   8  11
ENDBRANCH   7   8
ENDBRANCH   1   7
BRANCH   6  13
ATOM     13  N   LIG d   1      -4.512  92.971 119.734  0.00  0.00    -0.311 N 
ATOM     14  C   LIG d   1      -3.563  93.838 120.083  0.00  0.00     0.210 C 
ATOM     15  C   LIG d   1      -3.138  93.775 121.553  0.00  0.00     0.109 C 
ATOM     16  O   LIG d   1      -3.056  94.676 119.322  0.00  0.00    -0.276 OA
ATOM     17  H   LIG d   1      -4.890  92.350 120.423  0.00  0.00     0.149 HD
ENDBRANCH   6  13
BRANCH   5  18
ATOM     18  N   LIG d   1      -7.064  94.323 118.740  0.00  0.00     0.381 N 
ATOM     19  H   LIG d   1      -6.581  94.602 119.570  0.00  0.00    -0.090 HD
ATOM     20  H   LIG d   1      -8.045  94.265 118.950  0.00  0.00    -0.090 HD
ATOM     21  H   LIG d   1      -6.912  94.992 118.018  0.00  0.00    -0.090 HD
ENDBRANCH   5  18
BRANCH   3  22
ATOM     22  C   LIG d   1      -7.342  90.966 115.336  0.00  0.00     0.382 C 
ATOM     23  O   LIG d   1      -7.048  89.805 114.963  0.00  0.00    -0.241 OA
ATOM     24  O   LIG d   1      -8.303  91.555 114.806  0.00  0.00    -0.241 OA
ENDBRANCH   3  22
TORSDOF 7
ENDMDL
MODEL 4
REMARK VINA RESULT:      -5.2     14.939     17.695
REMARK  7 active torsions:
REMARK  status: ('A' for Active; 'I' for Inactive)
REMARK    1  A    between atoms: C_2  and  C_3 
REMARK    2  A    between atoms: C_3  and  O_6 
REMARK    3  A    between atoms: C_3  and  C_4 
REMARK    4  A    between atoms: C_7  and  O_6 
REMARK    5  A    between atoms: C_9  and  C_10 
REMARK    6  A    between atoms: N_15  and  C_14 
REMARK    7  A    between atoms: N_20  and  C_19 
REMARK       I    between atoms: C_22  and  N_20 
ROOT
ATOM      1  C   LIG d   1      -3.874  75.886 116.020  0.00  0.00     0.161 C 
ATOM      2  C   LIG d   1      -4.643  74.758 115.689  0.00  0.00     0.016 C 
ATOM      3  C   LIG d   1      -6.018  74.635 115.996  0.00  0.00     0.038 C 
ATOM      4  C   LIG d   1      -6.758  75.704 116.523  0.00  0.00     0.028 C 
ATOM      5  C   LIG d   1      -5.915  76.681 117.337  0.00  0.00    -0.047 C 
ATOM      6  C   LIG d   1      -4.690  77.107 116.496  0.00  0.00     0.091 C 
ENDROOT
BRANCH   1   7
ATOM      7  O   LIG d   1      -3.034  76.248 114.907  0.00  0.00    -0.368 OA
BRANCH   7   8
ATOM      8  C   LIG d   1      -1.624  75.946 115.047  0.00  0.00     0.119 C 
BRANCH   8   9
ATOM      9  C   LIG d   1      -1.404  75.423 116.480  0.00  0.00     0.028 C 
ATOM     10  C   LIG d   1      -0.514  74.169 116.517  0.00  0.00     0.006 C 
ENDBRANCH   8   9
BRANCH   8  11
ATOM     11  C   LIG d   1      -0.769  77.212 114.942  0.00  0.00     0.028 C 
ATOM     12  C   LIG d   1      -0.398  77.797 116.314  0.00  0.00     0.006 C 
ENDBRANCH   8  11
ENDBRANCH   7   8
ENDBRANCH   1   7
BRANCH   6  13
ATOM     13  N   LIG d   1      -3.768  77.997 117.249  0.00  0.00    -0.311 N 
ATOM     14  C   LIG d   1      -3.882  79.324 117.267  0.00  0.00     0.210 C 
ATOM     15  C   LIG d   1      -2.816  80.054 118.089  0.00  0.00     0.109 C 
ATOM     16  O   LIG d   1      -4.785  79.964 116.706  0.00  0.00    -0.276 OA
ATOM     17  H   LIG d   1      -3.025  77.559 117.758  0.00  0.00     0.149 HD
ENDBRANCH   6  13
BRANCH   5  18
ATOM     18  N   LIG d   1      -6.782  77.814 117.710  0.00  0.00     0.381 N 
ATOM     19  H   LIG d   1      -7.344  77.566 118.499  0.00  0.00    -0.090 HD
ATOM     20  H   LIG d   1      -7.395  78.022 116.940  0.00  0.00    -0.090 HD
ATOM     21  H   LIG d   1      -6.227  78.612 117.926  0.00  0.00    -0.090 HD
ENDBRANCH   5  18
BRANCH   3  22
ATOM     22  C   LIG d   1      -6.658  73.419 115.811  0.00  0.00     0.382 C 
ATOM     23  O   LIG d   1      -5.997  72.409 115.467  0.00  0.00    -0.241 OA
ATOM     24  O   LIG d   1      -7.893  73.329 115.941  0.00  0.00    -0.241 OA
ENDBRANCH   3  22
TORSDOF 7
ENDMDL
MODEL 5
REMARK VINA RESULT:      -5.1     13.177     16.026
REMARK  7 active torsions:
REMARK  status: ('A' for Active; 'I' for Inactive)
REMARK    1  A    between atoms: C_2  and  C_3 
REMARK    2  A    between atoms: C_3  and  O_6 
REMARK    3  A    between atoms: C_3  and  C_4 
REMARK    4  A    between atoms: C_7  and  O_6 
REMARK    5  A    between atoms: C_9  and  C_10 
REMARK    6  A    between atoms: N_15  and  C_14 
REMARK    7  A    between atoms: N_20  and  C_19 
REMARK       I    between atoms: C_22  and  N_20 
ROOT
ATOM      1  C   LIG d   1      -5.744  77.881 117.434  0.00  0.00     0.161 C 
ATOM      2  C   LIG d   1      -6.940  78.610 117.551  0.00  0.00     0.016 C 
ATOM      3  C   LIG d   1      -6.998  79.937 118.036  0.00  0.00     0.038 C 
ATOM      4  C   LIG d   1      -5.838  80.682 118.296  0.00  0.00     0.028 C 
ATOM      5  C   LIG d   1      -4.637  79.823 118.672  0.00  0.00    -0.047 C 
ATOM      6  C   LIG d   1      -4.458  78.716 117.608  0.00  0.00     0.091 C 
ENDROOT
BRANCH   1   7
ATOM      7  O   LIG d   1      -5.721  77.180 116.175  0.00  0.00    -0.368 OA
BRANCH   7   8
ATOM      8  C   LIG d   1      -5.405  75.768 116.237  0.00  0.00     0.119 C 
BRANCH   8   9
ATOM      9  C   LIG d   1      -4.639  75.407 114.950  0.00  0.00     0.028 C 
ATOM     10  C   LIG d   1      -3.136  75.195 115.202  0.00  0.00     0.006 C 
ENDBRANCH   8   9
BRANCH   8  11
ATOM     11  C   LIG d   1      -6.675  74.912 116.206  0.00  0.00     0.028 C 
ATOM     12  C   LIG d   1      -6.378  73.410 116.064  0.00  0.00     0.006 C 
ENDBRANCH   8  11
ENDBRANCH   7   8
ENDBRANCH   1   7
BRANCH   6  13
ATOM     13  N   LIG d   1      -3.355  77.778 117.945  0.00  0.00    -0.311 N 
ATOM     14  C   LIG d   1      -2.110  77.920 117.495  0.00  0.00     0.210 C 
ATOM     15  C   LIG d   1      -1.131  76.831 117.946  0.00  0.00     0.109 C 
ATOM     16  O   LIG d   1      -1.714  78.863 116.793  0.00  0.00    -0.276 OA
ATOM     17  H   LIG d   1      -3.581  77.002 118.535  0.00  0.00     0.149 HD
ENDBRANCH   6  13
BRANCH   5  18
ATOM     18  N   LIG d   1      -3.467  80.714 118.781  0.00  0.00     0.381 N 
ATOM     19  H   LIG d   1      -2.842  80.370 119.482  0.00  0.00    -0.090 HD
ATOM     20  H   LIG d   1      -3.779  81.628 119.058  0.00  0.00    -0.090 HD
ATOM     21  H   LIG d   1      -2.996  80.768 117.904  0.00  0.00    -0.090 HD
ENDBRANCH   5  18
BRANCH   3  22
ATOM     22  C   LIG d   1      -8.228  80.517 118.303  0.00  0.00     0.382 C 
ATOM     23  O   LIG d   1      -9.270  79.818 118.282  0.00  0.00    -0.241 OA
ATOM     24  O   LIG d   1      -8.315  81.741 118.521  0.00  0.00    -0.241 OA
ENDBRANCH   3  22
TORSDOF 7
ENDMDL
MODEL 6
REMARK VINA RESULT:      -5.1      2.362      6.136
REMARK  7 active torsions:
REMARK  status: ('A' for Active; 'I' for Inactive)
REMARK    1  A    between atoms: C_2  and  C_3 
REMARK    2  A    between atoms: C_3  and  O_6 
REMARK    3  A    between atoms: C_3  and  C_4 
REMARK    4  A    between atoms: C_7  and  O_6 
REMARK    5  A    between atoms: C_9  and  C_10 
REMARK    6  A    between atoms: N_15  and  C_14 
REMARK    7  A    between atoms: N_20  and  C_19 
REMARK       I    between atoms: C_22  and  N_20 
ROOT
ATOM      1  C   LIG d   1      -5.446  93.247 118.722  0.00  0.00     0.161 C 
ATOM      2  C   LIG d   1      -5.554  94.199 119.750  0.00  0.00     0.016 C 
ATOM      3  C   LIG d   1      -6.727  94.949 119.996  0.00  0.00     0.038 C 
ATOM      4  C   LIG d   1      -7.929  94.688 119.322  0.00  0.00     0.028 C 
ATOM      5  C   LIG d   1      -7.727  94.087 117.935  0.00  0.00    -0.047 C 
ATOM      6  C   LIG d   1      -6.782  92.870 118.048  0.00  0.00     0.091 C 
ENDROOT
BRANCH   1   7
ATOM      7  O   LIG d   1      -4.783  92.067 119.216  0.00  0.00    -0.368 OA
BRANCH   7   8
ATOM      8  C   LIG d   1      -3.446  91.829 118.712  0.00  0.00     0.119 C 
BRANCH   8   9
ATOM      9  C   LIG d   1      -3.499  90.560 117.839  0.00  0.00     0.028 C 
ATOM     10  C   LIG d   1      -2.992  89.313 118.584  0.00  0.00     0.006 C 
ENDBRANCH   8   9
BRANCH   8  11
ATOM     11  C   LIG d   1      -2.473  91.498 119.848  0.00  0.00     0.028 C 
ATOM     12  C   LIG d   1      -1.341  92.529 119.982  0.00  0.00     0.006 C 
ENDBRANCH   8  11
ENDBRANCH   7   8
ENDBRANCH   1   7
BRANCH   6  13
ATOM     13  N   LIG d   1      -6.464  92.274 116.724  0.00  0.00    -0.311 N 
ATOM     14  C   LIG d   1      -7.185  91.303 116.165  0.00  0.00     0.210 C 
ATOM     15  C   LIG d   1      -6.673  90.819 114.805  0.00  0.00     0.109 C 
ATOM     16  O   LIG d   1      -8.219  90.821 116.651  0.00  0.00    -0.276 OA
ATOM     17  H   LIG d   1      -5.660  92.628 116.245  0.00  0.00     0.149 HD
ENDBRANCH   6  13
BRANCH   5  18
ATOM     18  N   LIG d   1      -9.058  93.739 117.403  0.00  0.00     0.381 N 
ATOM     19  H   LIG d   1      -9.215  92.755 117.500  0.00  0.00    -0.090 HD
ATOM     20  H   LIG d   1      -9.087  93.968 116.425  0.00  0.00    -0.090 HD
ATOM     21  H   LIG d   1      -9.764  94.244 117.891  0.00  0.00    -0.090 HD
ENDBRANCH   5  18
BRANCH   3  22
ATOM     22  C   LIG d   1      -6.693  96.000 120.900  0.00  0.00     0.382 C 
ATOM     23  O   LIG d   1      -7.743  96.359 121.484  0.00  0.00    -0.241 OA
ATOM     24  O   LIG d   1      -5.634  96.624 121.104  0.00  0.00    -0.241 OA
ENDBRANCH   3  22
TORSDOF 7
ENDMDL
MODEL 7
REMARK VINA RESULT:      -5.0      2.228      4.324
REMARK  7 active torsions:
REMARK  status: ('A' for Active; 'I' for Inactive)
REMARK    1  A    between atoms: C_2  and  C_3 
REMARK    2  A    between atoms: C_3  and  O_6 
REMARK    3  A    between atoms: C_3  and  C_4 
REMARK    4  A    between atoms: C_7  and  O_6 
REMARK    5  A    between atoms: C_9  and  C_10 
REMARK    6  A    between atoms: N_15  and  C_14 
REMARK    7  A    between atoms: N_20  and  C_19 
REMARK       I    between atoms: C_22  and  N_20 
ROOT
ATOM      1  C   LIG d   1      -4.892  92.654 118.749  0.00  0.00     0.161 C 
ATOM      2  C   LIG d   1      -6.105  93.362 118.758  0.00  0.00     0.016 C 
ATOM      3  C   LIG d   1      -7.127  93.169 117.801  0.00  0.00     0.038 C 
ATOM      4  C   LIG d   1      -7.067  92.138 116.851  0.00  0.00     0.028 C 
ATOM      5  C   LIG d   1      -5.643  91.731 116.487  0.00  0.00    -0.047 C 
ATOM      6  C   LIG d   1      -4.855  91.448 117.786  0.00  0.00     0.091 C 
ENDROOT
BRANCH   1   7
ATOM      7  O   LIG d   1      -4.560  92.236 120.087  0.00  0.00    -0.368 OA
BRANCH   7   8
ATOM      8  C   LIG d   1      -3.506  92.983 120.744  0.00  0.00     0.119 C 
BRANCH   8   9
ATOM      9  C   LIG d   1      -2.873  93.914 119.692  0.00  0.00     0.028 C 
ATOM     10  C   LIG d   1      -2.959  95.396 120.092  0.00  0.00     0.006 C 
ENDBRANCH   8   9
BRANCH   8  11
ATOM     11  C   LIG d   1      -2.372  92.060 121.203  0.00  0.00     0.028 C 
ATOM     12  C   LIG d   1      -1.070  92.279 120.417  0.00  0.00     0.006 C 
ENDBRANCH   8  11
ENDBRANCH   7   8
ENDBRANCH   1   7
BRANCH   6  13
ATOM     13  N   LIG d   1      -3.429  91.125 117.525  0.00  0.00    -0.311 N 
ATOM     14  C   LIG d   1      -2.824  90.037 118.000  0.00  0.00     0.210 C 
ATOM     15  C   LIG d   1      -1.344  89.905 117.629  0.00  0.00     0.109 C 
ATOM     16  O   LIG d   1      -3.381  89.153 118.668  0.00  0.00    -0.276 OA
ATOM     17  H   LIG d   1      -2.909  91.772 116.965  0.00  0.00     0.149 HD
ENDBRANCH   6  13
BRANCH   5  18
ATOM     18  N   LIG d   1      -5.729  90.559 115.595  0.00  0.00     0.381 N 
ATOM     19  H   LIG d   1      -5.157  89.820 115.952  0.00  0.00    -0.090 HD
ATOM     20  H   LIG d   1      -5.383  90.816 114.687  0.00  0.00    -0.090 HD
ATOM     21  H   LIG d   1      -6.674  90.253 115.524  0.00  0.00    -0.090 HD
ENDBRANCH   5  18
BRANCH   3  22
ATOM     22  C   LIG d   1      -8.207  94.038 117.763  0.00  0.00     0.382 C 
ATOM     23  O   LIG d   1      -8.042  95.254 118.020  0.00  0.00    -0.241 OA
ATOM     24  O   LIG d   1      -9.352  93.612 117.517  0.00  0.00    -0.241 OA
ENDBRANCH   3  22
TORSDOF 7
ENDMDL
MODEL 8
REMARK VINA RESULT:      -4.9      2.324      4.642
REMARK  7 active torsions:
REMARK  status: ('A' for Active; 'I' for Inactive)
REMARK    1  A    between atoms: C_2  and  C_3 
REMARK    2  A    between atoms: C_3  and  O_6 
REMARK    3  A    between atoms: C_3  and  C_4 
REMARK    4  A    between atoms: C_7  and  O_6 
REMARK    5  A    between atoms: C_9  and  C_10 
REMARK    6  A    between atoms: N_15  and  C_14 
REMARK    7  A    between atoms: N_20  and  C_19 
REMARK       I    between atoms: C_22  and  N_20 
ROOT
ATOM      1  C   LIG d   1      -5.778  93.534 119.280  0.00  0.00     0.161 C 
ATOM      2  C   LIG d   1      -5.188  92.584 118.430  0.00  0.00     0.016 C 
ATOM      3  C   LIG d   1      -5.836  92.047 117.294  0.00  0.00     0.038 C 
ATOM      4  C   LIG d   1      -7.070  92.539 116.843  0.00  0.00     0.028 C 
ATOM      5  C   LIG d   1      -7.926  93.138 117.954  0.00  0.00    -0.047 C 
ATOM      6  C   LIG d   1      -7.079  94.164 118.742  0.00  0.00     0.091 C 
ENDROOT
BRANCH   1   7
ATOM      7  O   LIG d   1      -4.820  94.561 119.604  0.00  0.00    -0.368 OA
BRANCH   7   8
ATOM      8  C   LIG d   1      -3.424  94.194 119.478  0.00  0.00     0.119 C 
BRANCH   8   9
ATOM      9  C   LIG d   1      -2.834  94.121 120.900  0.00  0.00     0.028 C 
ATOM     10  C   LIG d   1      -2.707  92.675 121.408  0.00  0.00     0.006 C 
ENDBRANCH   8   9
BRANCH   8  11
ATOM     11  C   LIG d   1      -2.624  95.287 118.763  0.00  0.00     0.028 C 
ATOM     12  C   LIG d   1      -1.597  94.719 117.770  0.00  0.00     0.006 C 
ENDBRANCH   8  11
ENDBRANCH   7   8
ENDBRANCH   1   7
BRANCH   6  13
ATOM     13  N   LIG d   1      -7.814  94.737 119.899  0.00  0.00    -0.311 N 
ATOM     14  C   LIG d   1      -8.533  95.856 119.831  0.00  0.00     0.210 C 
ATOM     15  C   LIG d   1      -9.194  96.281 121.145  0.00  0.00     0.109 C 
ATOM     16  O   LIG d   1      -8.712  96.519 118.798  0.00  0.00    -0.276 OA
ATOM     17  H   LIG d   1      -7.749  94.245 120.769  0.00  0.00     0.149 HD
ENDBRANCH   6  13
BRANCH   5  18
ATOM     18  N   LIG d   1      -9.119  93.735 117.325  0.00  0.00     0.381 N 
ATOM     19  H   LIG d   1      -9.173  94.707 117.554  0.00  0.00    -0.090 HD
ATOM     20  H   LIG d   1      -9.939  93.280 117.687  0.00  0.00    -0.090 HD
ATOM     21  H   LIG d   1      -9.076  93.621 116.336  0.00  0.00    -0.090 HD
ENDBRANCH   5  18
BRANCH   3  22
ATOM     22  C   LIG d   1      -5.267  90.978 116.619  0.00  0.00     0.382 C 
ATOM     23  O   LIG d   1      -5.858  90.471 115.635  0.00  0.00    -0.241 OA
ATOM     24  O   LIG d   1      -4.192  90.484 117.010  0.00  0.00    -0.241 OA
ENDBRANCH   3  22
TORSDOF 7
ENDMDL
MODEL 9
REMARK VINA RESULT:      -4.6      2.513      4.562
REMARK  7 active torsions:
REMARK  status: ('A' for Active; 'I' for Inactive)
REMARK    1  A    between atoms: C_2  and  C_3 
REMARK    2  A    between atoms: C_3  and  O_6 
REMARK    3  A    between atoms: C_3  and  C_4 
REMARK    4  A    between atoms: C_7  and  O_6 
REMARK    5  A    between atoms: C_9  and  C_10 
REMARK    6  A    between atoms: N_15  and  C_14 
REMARK    7  A    between atoms: N_20  and  C_19 
REMARK       I    between atoms: C_22  and  N_20 
ROOT
ATOM      1  C   LIG d   1      -5.214  93.171 119.981  0.00  0.00     0.161 C 
ATOM      2  C   LIG d   1      -4.207  92.297 119.537  0.00  0.00     0.016 C 
ATOM      3  C   LIG d   1      -4.238  91.646 118.283  0.00  0.00     0.038 C 
ATOM      4  C   LIG d   1      -5.211  91.944 117.317  0.00  0.00     0.028 C 
ATOM      5  C   LIG d   1      -6.525  92.438 117.914  0.00  0.00    -0.047 C 
ATOM      6  C   LIG d   1      -6.227  93.593 118.896  0.00  0.00     0.091 C 
ENDROOT
BRANCH   1   7
ATOM      7  O   LIG d   1      -4.619  94.333 120.591  0.00  0.00    -0.368 OA
BRANCH   7   8
ATOM      8  C   LIG d   1      -4.286  95.423 119.696  0.00  0.00     0.119 C 
BRANCH   8   9
ATOM      9  C   LIG d   1      -2.751  95.555 119.679  0.00  0.00     0.028 C 
ATOM     10  C   LIG d   1      -2.146  95.199 118.311  0.00  0.00     0.006 C 
ENDBRANCH   8   9
BRANCH   8  11
ATOM     11  C   LIG d   1      -4.803  96.761 120.232  0.00  0.00     0.028 C 
ATOM     12  C   LIG d   1      -5.257  97.714 119.115  0.00  0.00     0.006 C 
ENDBRANCH   8  11
ENDBRANCH   7   8
ENDBRANCH   1   7
BRANCH   6  13
ATOM     13  N   LIG d   1      -7.449  94.079 119.588  0.00  0.00    -0.311 N 
ATOM     14  C   LIG d   1      -8.187  95.096 119.145  0.00  0.00     0.210 C 
ATOM     15  C   LIG d   1      -9.395  95.448 120.019  0.00  0.00     0.109 C 
ATOM     16  O   LIG d   1      -7.974  95.720 118.094  0.00  0.00    -0.276 OA
ATOM     17  H   LIG d   1      -7.713  93.610 120.432  0.00  0.00     0.149 HD
ENDBRANCH   6  13
BRANCH   5  18
ATOM     18  N   LIG d   1      -7.398  92.841 116.795  0.00  0.00     0.381 N 
ATOM     19  H   LIG d   1      -7.947  92.060 116.496  0.00  0.00    -0.090 HD
ATOM     20  H   LIG d   1      -6.825  93.137 116.025  0.00  0.00    -0.090 HD
ATOM     21  H   LIG d   1      -7.995  93.586 117.080  0.00  0.00    -0.090 HD
ENDBRANCH   5  18
BRANCH   3  22
ATOM     22  C   LIG d   1      -3.310  90.655 117.999  0.00  0.00     0.382 C 
ATOM     23  O   LIG d   1      -3.636  89.447 118.091  0.00  0.00    -0.241 OA
ATOM     24  O   LIG d   1      -2.140  90.954 117.696  0.00  0.00    -0.241 OA
ENDBRANCH   3  22
TORSDOF 7
ENDMDL
