MODEL 1
REMARK VINA RESULT:      -6.1      0.000      0.000
REMARK  7 active torsions:
REMARK  status: ('A' for Active; 'I' for Inactive)
REMARK    1  A    between atoms: C_2  and  C_3 
REMARK    2  A    between atoms: C_3  and  O_6 
REMARK    3  A    between atoms: C_3  and  C_4 
REMARK    4  A    between atoms: C_7  and  O_6 
REMARK    5  A    between atoms: C_9  and  C_10 
REMARK    6  A    between atoms: N_15  and  C_14 
REMARK    7  A    between atoms: N_20  and  C_19 
REMARK       I    between atoms: C_22  and  N_20 
ROOT
ATOM      1  C   LIG d   1      -9.795  74.282 117.851  0.00  0.00     0.161 C 
ATOM      2  C   LIG d   1      -9.550  72.955 117.459  0.00  0.00     0.016 C 
ATOM      3  C   LIG d   1      -8.283  72.489 117.039  0.00  0.00     0.038 C 
ATOM      4  C   LIG d   1      -7.133  73.287 117.128  0.00  0.00     0.028 C 
ATOM      5  C   LIG d   1      -7.424  74.781 117.039  0.00  0.00    -0.047 C 
ATOM      6  C   LIG d   1      -8.529  75.138 118.060  0.00  0.00     0.091 C 
ENDROOT
BRANCH   1   7
ATOM      7  O   LIG d   1     -10.612  74.297 119.038  0.00  0.00    -0.368 OA
BRANCH   7   8
ATOM      8  C   LIG d   1     -11.937  73.727 118.907  0.00  0.00     0.119 C 
BRANCH   8   9
ATOM      9  C   LIG d   1     -12.954  74.864 119.124  0.00  0.00     0.028 C 
ATOM     10  C   LIG d   1     -12.280  76.243 119.226  0.00  0.00     0.006 C 
ENDBRANCH   8   9
BRANCH   8  11
ATOM     11  C   LIG d   1     -12.220  72.713 120.020  0.00  0.00     0.028 C 
ATOM     12  C   LIG d   1     -13.400  73.124 120.914  0.00  0.00     0.006 C 
ENDBRANCH   8  11
ENDBRANCH   7   8
ENDBRANCH   1   7
BRANCH   6  13
ATOM     13  N   LIG d   1      -8.933  76.566 117.981  0.00  0.00    -0.311 N 
ATOM     14  C   LIG d   1      -8.433  77.515 118.770  0.00  0.00     0.210 C 
ATOM     15  C   LIG d   1      -9.002  78.918 118.536  0.00  0.00     0.109 C 
ATOM     16  O   LIG d   1      -7.549  77.334 119.620  0.00  0.00    -0.276 OA
ATOM     17  H   LIG d   1      -9.624  76.807 117.297  0.00  0.00     0.149 HD
ENDBRANCH   6  13
BRANCH   5  18
ATOM     18  N   LIG d   1      -6.158  75.497 117.284  0.00  0.00     0.381 N 
ATOM     19  H   LIG d   1      -6.165  75.896 118.201  0.00  0.00    -0.090 HD
ATOM     20  H   LIG d   1      -6.072  76.244 116.616  0.00  0.00    -0.090 HD
ATOM     21  H   LIG d   1      -5.388  74.871 117.192  0.00  0.00    -0.090 HD
ENDBRANCH   5  18
BRANCH   3  22
ATOM     22  C   LIG d   1      -8.165  71.223 116.487  0.00  0.00     0.382 C 
ATOM     23  O   LIG d   1      -7.246  70.979 115.668  0.00  0.00    -0.241 OA
ATOM     24  O   LIG d   1      -8.992  70.333 116.763  0.00  0.00    -0.241 OA
ENDBRANCH   3  22
TORSDOF 7
ENDMDL
MODEL 2
REMARK VINA RESULT:      -6.0      1.995      4.576
REMARK  7 active torsions:
REMARK  status: ('A' for Active; 'I' for Inactive)
REMARK    1  A    between atoms: C_2  and  C_3 
REMARK    2  A    between atoms: C_3  and  O_6 
REMARK    3  A    between atoms: C_3  and  C_4 
REMARK    4  A    between atoms: C_7  and  O_6 
REMARK    5  A    between atoms: C_9  and  C_10 
REMARK    6  A    between atoms: N_15  and  C_14 
REMARK    7  A    between atoms: N_20  and  C_19 
REMARK       I    between atoms: C_22  and  N_20 
ROOT
ATOM      1  C   LIG d   1      -8.434  74.603 117.786  0.00  0.00     0.161 C 
ATOM      2  C   LIG d   1      -8.052  73.407 117.155  0.00  0.00     0.016 C 
ATOM      3  C   LIG d   1      -8.854  72.243 117.144  0.00  0.00     0.038 C 
ATOM      4  C   LIG d   1     -10.167  72.243 117.637  0.00  0.00     0.028 C 
ATOM      5  C   LIG d   1     -10.404  73.278 118.731  0.00  0.00    -0.047 C 
ATOM      6  C   LIG d   1      -9.910  74.656 118.233  0.00  0.00     0.091 C 
ENDROOT
BRANCH   1   7
ATOM      7  O   LIG d   1      -8.128  75.724 116.934  0.00  0.00    -0.368 OA
BRANCH   7   8
ATOM      8  C   LIG d   1      -6.722  75.978 116.694  0.00  0.00     0.119 C 
BRANCH   8   9
ATOM      9  C   LIG d   1      -6.442  77.442 117.086  0.00  0.00     0.028 C 
ATOM     10  C   LIG d   1      -7.562  78.042 117.952  0.00  0.00     0.006 C 
ENDBRANCH   8   9
BRANCH   8  11
ATOM     11  C   LIG d   1      -6.385  75.887 115.203  0.00  0.00     0.028 C 
ATOM     12  C   LIG d   1      -5.806  74.520 114.805  0.00  0.00     0.006 C 
ENDBRANCH   8  11
ENDBRANCH   7   8
ENDBRANCH   1   7
BRANCH   6  13
ATOM     13  N   LIG d   1     -10.027  75.710 119.274  0.00  0.00    -0.311 N 
ATOM     14  C   LIG d   1     -11.049  76.561 119.344  0.00  0.00     0.210 C 
ATOM     15  C   LIG d   1     -10.964  77.582 120.482  0.00  0.00     0.109 C 
ATOM     16  O   LIG d   1     -12.034  76.546 118.590  0.00  0.00    -0.276 OA
ATOM     17  H   LIG d   1      -9.286  75.773 119.945  0.00  0.00     0.149 HD
ENDBRANCH   6  13
BRANCH   5  18
ATOM     18  N   LIG d   1     -11.843  73.263 119.056  0.00  0.00     0.381 N 
ATOM     19  H   LIG d   1     -12.229  72.366 118.839  0.00  0.00    -0.090 HD
ATOM     20  H   LIG d   1     -12.310  73.952 118.493  0.00  0.00    -0.090 HD
ATOM     21  H   LIG d   1     -11.977  73.466 120.022  0.00  0.00    -0.090 HD
ENDBRANCH   5  18
BRANCH   3  22
ATOM     22  C   LIG d   1      -8.328  71.051 116.670  0.00  0.00     0.382 C 
ATOM     23  O   LIG d   1      -8.814  69.957 117.047  0.00  0.00    -0.241 OA
ATOM     24  O   LIG d   1      -7.344  71.054 115.906  0.00  0.00    -0.241 OA
ENDBRANCH   3  22
TORSDOF 7
ENDMDL
MODEL 3
REMARK VINA RESULT:      -5.7      2.318      4.400
REMARK  7 active torsions:
REMARK  status: ('A' for Active; 'I' for Inactive)
REMARK    1  A    between atoms: C_2  and  C_3 
REMARK    2  A    between atoms: C_3  and  O_6 
REMARK    3  A    between atoms: C_3  and  C_4 
REMARK    4  A    between atoms: C_7  and  O_6 
REMARK    5  A    between atoms: C_9  and  C_10 
REMARK    6  A    between atoms: N_15  and  C_14 
REMARK    7  A    between atoms: N_20  and  C_19 
REMARK       I    between atoms: C_22  and  N_20 
ROOT
ATOM      1  C   LIG d   1      -8.233  74.462 118.369  0.00  0.00     0.161 C 
ATOM      2  C   LIG d   1      -7.008  74.679 117.717  0.00  0.00     0.016 C 
ATOM      3  C   LIG d   1      -6.506  73.833 116.702  0.00  0.00     0.038 C 
ATOM      4  C   LIG d   1      -7.272  72.789 116.161  0.00  0.00     0.028 C 
ATOM      5  C   LIG d   1      -8.302  72.226 117.135  0.00  0.00    -0.047 C 
ATOM      6  C   LIG d   1      -9.133  73.392 117.716  0.00  0.00     0.091 C 
ENDROOT
BRANCH   1   7
ATOM      7  O   LIG d   1      -8.947  75.708 118.496  0.00  0.00    -0.368 OA
BRANCH   7   8
ATOM      8  C   LIG d   1      -8.825  76.386 119.770  0.00  0.00     0.119 C 
BRANCH   8   9
ATOM      9  C   LIG d   1     -10.200  76.322 120.462  0.00  0.00     0.028 C 
ATOM     10  C   LIG d   1     -11.288  77.071 119.674  0.00  0.00     0.006 C 
ENDBRANCH   8   9
BRANCH   8  11
ATOM     11  C   LIG d   1      -8.534  77.878 119.582  0.00  0.00     0.028 C 
ATOM     12  C   LIG d   1      -8.033  78.214 118.169  0.00  0.00     0.006 C 
ENDBRANCH   8  11
ENDBRANCH   7   8
ENDBRANCH   1   7
BRANCH   6  13
ATOM     13  N   LIG d   1     -10.108  72.938 118.741  0.00  0.00    -0.311 N 
ATOM     14  C   LIG d   1     -11.378  73.337 118.773  0.00  0.00     0.210 C 
ATOM     15  C   LIG d   1     -12.208  72.763 119.926  0.00  0.00     0.109 C 
ATOM     16  O   LIG d   1     -11.905  74.086 117.937  0.00  0.00    -0.276 OA
ATOM     17  H   LIG d   1      -9.773  72.304 119.440  0.00  0.00     0.149 HD
ENDBRANCH   6  13
BRANCH   5  18
ATOM     18  N   LIG d   1      -9.120  71.243 116.399  0.00  0.00     0.381 N 
ATOM     19  H   LIG d   1      -9.723  71.717 115.758  0.00  0.00    -0.090 HD
ATOM     20  H   LIG d   1      -9.690  70.739 117.055  0.00  0.00    -0.090 HD
ATOM     21  H   LIG d   1      -8.530  70.610 115.906  0.00  0.00    -0.090 HD
ENDBRANCH   5  18
BRANCH   3  22
ATOM     22  C   LIG d   1      -5.208  74.002 116.244  0.00  0.00     0.382 C 
ATOM     23  O   LIG d   1      -4.995  74.211 115.026  0.00  0.00    -0.241 OA
ATOM     24  O   LIG d   1      -4.245  73.905 117.028  0.00  0.00    -0.241 OA
ENDBRANCH   3  22
TORSDOF 7
ENDMDL
MODEL 4
REMARK VINA RESULT:      -5.2     16.710     19.012
REMARK  7 active torsions:
REMARK  status: ('A' for Active; 'I' for Inactive)
REMARK    1  A    between atoms: C_2  and  C_3 
REMARK    2  A    between atoms: C_3  and  O_6 
REMARK    3  A    between atoms: C_3  and  C_4 
REMARK    4  A    between atoms: C_7  and  O_6 
REMARK    5  A    between atoms: C_9  and  C_10 
REMARK    6  A    between atoms: N_15  and  C_14 
REMARK    7  A    between atoms: N_20  and  C_19 
REMARK       I    between atoms: C_22  and  N_20 
ROOT
ATOM      1  C   LIG d   1      -6.096  92.903 118.470  0.00  0.00     0.161 C 
ATOM      2  C   LIG d   1      -6.673  91.898 117.676  0.00  0.00     0.016 C 
ATOM      3  C   LIG d   1      -5.919  91.013 116.872  0.00  0.00     0.038 C 
ATOM      4  C   LIG d   1      -4.518  90.975 116.923  0.00  0.00     0.028 C 
ATOM      5  C   LIG d   1      -3.891  92.306 117.325  0.00  0.00    -0.047 C 
ATOM      6  C   LIG d   1      -4.564  92.805 118.624  0.00  0.00     0.091 C 
ENDROOT
BRANCH   1   7
ATOM      7  O   LIG d   1      -6.729  92.929 119.764  0.00  0.00    -0.368 OA
BRANCH   7   8
ATOM      8  C   LIG d   1      -7.228  94.215 120.205  0.00  0.00     0.119 C 
BRANCH   8   9
ATOM      9  C   LIG d   1      -8.534  93.964 120.983  0.00  0.00     0.028 C 
ATOM     10  C   LIG d   1      -8.766  92.472 121.274  0.00  0.00     0.006 C 
ENDBRANCH   8   9
BRANCH   8  11
ATOM     11  C   LIG d   1      -7.627  95.095 119.016  0.00  0.00     0.028 C 
ATOM     12  C   LIG d   1      -9.008  95.746 119.193  0.00  0.00     0.006 C 
ENDBRANCH   8  11
ENDBRANCH   7   8
ENDBRANCH   1   7
BRANCH   6  13
ATOM     13  N   LIG d   1      -4.067  94.143 119.041  0.00  0.00    -0.311 N 
ATOM     14  C   LIG d   1      -3.069  94.317 119.905  0.00  0.00     0.210 C 
ATOM     15  C   LIG d   1      -2.728  95.779 120.213  0.00  0.00     0.109 C 
ATOM     16  O   LIG d   1      -2.411  93.401 120.421  0.00  0.00    -0.276 OA
ATOM     17  H   LIG d   1      -4.523  94.942 118.647  0.00  0.00     0.149 HD
ENDBRANCH   6  13
BRANCH   5  18
ATOM     18  N   LIG d   1      -2.439  92.087 117.473  0.00  0.00     0.381 N 
ATOM     19  H   LIG d   1      -2.058  92.764 118.104  0.00  0.00    -0.090 HD
ATOM     20  H   LIG d   1      -2.000  92.208 116.577  0.00  0.00    -0.090 HD
ATOM     21  H   LIG d   1      -2.266  91.168 117.815  0.00  0.00    -0.090 HD
ENDBRANCH   5  18
BRANCH   3  22
ATOM     22  C   LIG d   1      -6.568  90.179 115.974  0.00  0.00     0.382 C 
ATOM     23  O   LIG d   1      -7.669  89.662 116.281  0.00  0.00    -0.241 OA
ATOM     24  O   LIG d   1      -6.045  89.902 114.878  0.00  0.00    -0.241 OA
ENDBRANCH   3  22
TORSDOF 7
ENDMDL
MODEL 5
REMARK VINA RESULT:      -5.2      2.249      4.350
REMARK  7 active torsions:
REMARK  status: ('A' for Active; 'I' for Inactive)
REMARK    1  A    between atoms: C_2  and  C_3 
REMARK    2  A    between atoms: C_3  and  O_6 
REMARK    3  A    between atoms: C_3  and  C_4 
REMARK    4  A    between atoms: C_7  and  O_6 
REMARK    5  A    between atoms: C_9  and  C_10 
REMARK    6  A    between atoms: N_15  and  C_14 
REMARK    7  A    between atoms: N_20  and  C_19 
REMARK       I    between atoms: C_22  and  N_20 
ROOT
ATOM      1  C   LIG d   1      -7.760  74.631 118.990  0.00  0.00     0.161 C 
ATOM      2  C   LIG d   1      -6.554  74.738 118.278  0.00  0.00     0.016 C 
ATOM      3  C   LIG d   1      -6.274  73.998 117.106  0.00  0.00     0.038 C 
ATOM      4  C   LIG d   1      -7.248  73.206 116.479  0.00  0.00     0.028 C 
ATOM      5  C   LIG d   1      -8.308  72.676 117.439  0.00  0.00    -0.047 C 
ATOM      6  C   LIG d   1      -8.877  73.856 118.260  0.00  0.00     0.091 C 
ENDROOT
BRANCH   1   7
ATOM      7  O   LIG d   1      -8.224  75.943 119.366  0.00  0.00    -0.368 OA
BRANCH   7   8
ATOM      8  C   LIG d   1      -8.902  76.699 118.332  0.00  0.00     0.119 C 
BRANCH   8   9
ATOM      9  C   LIG d   1      -7.979  77.866 117.930  0.00  0.00     0.028 C 
ATOM     10  C   LIG d   1      -8.490  79.222 118.443  0.00  0.00     0.006 C 
ENDBRANCH   8   9
BRANCH   8  11
ATOM     11  C   LIG d   1     -10.177  77.357 118.869  0.00  0.00     0.028 C 
ATOM     12  C   LIG d   1     -10.596  76.811 120.243  0.00  0.00     0.006 C 
ENDBRANCH   8  11
ENDBRANCH   7   8
ENDBRANCH   1   7
BRANCH   6  13
ATOM     13  N   LIG d   1      -9.860  73.414 119.282  0.00  0.00    -0.311 N 
ATOM     14  C   LIG d   1     -11.178  73.438 119.091  0.00  0.00     0.210 C 
ATOM     15  C   LIG d   1     -12.013  72.957 120.281  0.00  0.00     0.109 C 
ATOM     16  O   LIG d   1     -11.733  73.782 118.036  0.00  0.00    -0.276 OA
ATOM     17  H   LIG d   1      -9.495  73.090 120.156  0.00  0.00     0.149 HD
ENDBRANCH   6  13
BRANCH   5  18
ATOM     18  N   LIG d   1      -9.333  71.985 116.634  0.00  0.00     0.381 N 
ATOM     19  H   LIG d   1      -8.998  71.854 115.700  0.00  0.00    -0.090 HD
ATOM     20  H   LIG d   1     -10.157  72.558 116.596  0.00  0.00    -0.090 HD
ATOM     21  H   LIG d   1      -9.550  71.103 117.043  0.00  0.00    -0.090 HD
ENDBRANCH   5  18
BRANCH   3  22
ATOM     22  C   LIG d   1      -4.995  74.014 116.572  0.00  0.00     0.382 C 
ATOM     23  O   LIG d   1      -4.830  74.222 115.346  0.00  0.00    -0.241 OA
ATOM     24  O   LIG d   1      -4.006  73.779 117.293  0.00  0.00    -0.241 OA
ENDBRANCH   3  22
TORSDOF 7
ENDMDL
MODEL 6
REMARK VINA RESULT:      -5.2      2.339      5.404
REMARK  7 active torsions:
REMARK  status: ('A' for Active; 'I' for Inactive)
REMARK    1  A    between atoms: C_2  and  C_3 
REMARK    2  A    between atoms: C_3  and  O_6 
REMARK    3  A    between atoms: C_3  and  C_4 
REMARK    4  A    between atoms: C_7  and  O_6 
REMARK    5  A    between atoms: C_9  and  C_10 
REMARK    6  A    between atoms: N_15  and  C_14 
REMARK    7  A    between atoms: N_20  and  C_19 
REMARK       I    between atoms: C_22  and  N_20 
ROOT
ATOM      1  C   LIG d   1      -8.387  75.745 118.231  0.00  0.00     0.161 C 
ATOM      2  C   LIG d   1      -9.470  76.358 118.883  0.00  0.00     0.016 C 
ATOM      3  C   LIG d   1      -9.598  77.758 119.031  0.00  0.00     0.038 C 
ATOM      4  C   LIG d   1      -8.722  78.653 118.400  0.00  0.00     0.028 C 
ATOM      5  C   LIG d   1      -7.333  78.071 118.155  0.00  0.00    -0.047 C 
ATOM      6  C   LIG d   1      -7.479  76.709 117.439  0.00  0.00     0.091 C 
ENDROOT
BRANCH   1   7
ATOM      7  O   LIG d   1      -8.867  74.691 117.373  0.00  0.00    -0.368 OA
BRANCH   7   8
ATOM      8  C   LIG d   1      -8.547  73.339 117.784  0.00  0.00     0.119 C 
BRANCH   8   9
ATOM      9  C   LIG d   1      -7.564  72.760 116.748  0.00  0.00     0.028 C 
ATOM     10  C   LIG d   1      -7.929  71.326 116.329  0.00  0.00     0.006 C 
ENDBRANCH   8   9
BRANCH   8  11
ATOM     11  C   LIG d   1      -9.780  72.432 117.724  0.00  0.00     0.028 C 
ATOM     12  C   LIG d   1     -10.876  72.850 118.717  0.00  0.00     0.006 C 
ENDBRANCH   8  11
ENDBRANCH   7   8
ENDBRANCH   1   7
BRANCH   6  13
ATOM     13  N   LIG d   1      -6.171  76.032 117.238  0.00  0.00    -0.311 N 
ATOM     14  C   LIG d   1      -5.461  76.130 116.116  0.00  0.00     0.210 C 
ATOM     15  C   LIG d   1      -4.151  75.336 116.109  0.00  0.00     0.109 C 
ATOM     16  O   LIG d   1      -5.775  76.824 115.137  0.00  0.00    -0.276 OA
ATOM     17  H   LIG d   1      -5.826  75.473 117.993  0.00  0.00     0.149 HD
ENDBRANCH   6  13
BRANCH   5  18
ATOM     18  N   LIG d   1      -6.568  79.058 117.370  0.00  0.00     0.381 N 
ATOM     19  H   LIG d   1      -6.224  79.778 117.974  0.00  0.00    -0.090 HD
ATOM     20  H   LIG d   1      -7.180  79.480 116.694  0.00  0.00    -0.090 HD
ATOM     21  H   LIG d   1      -5.808  78.611 116.908  0.00  0.00    -0.090 HD
ENDBRANCH   5  18
BRANCH   3  22
ATOM     22  C   LIG d   1     -10.590  78.275 119.851  0.00  0.00     0.382 C 
ATOM     23  O   LIG d   1     -11.429  77.507 120.380  0.00  0.00    -0.241 OA
ATOM     24  O   LIG d   1     -10.682  79.503 120.033  0.00  0.00    -0.241 OA
ENDBRANCH   3  22
TORSDOF 7
ENDMDL
MODEL 7
REMARK VINA RESULT:      -5.1      1.887      4.683
REMARK  7 active torsions:
REMARK  status: ('A' for Active; 'I' for Inactive)
REMARK    1  A    between atoms: C_2  and  C_3 
REMARK    2  A    between atoms: C_3  and  O_6 
REMARK    3  A    between atoms: C_3  and  C_4 
REMARK    4  A    between atoms: C_7  and  O_6 
REMARK    5  A    between atoms: C_9  and  C_10 
REMARK    6  A    between atoms: N_15  and  C_14 
REMARK    7  A    between atoms: N_20  and  C_19 
REMARK       I    between atoms: C_22  and  N_20 
ROOT
ATOM      1  C   LIG d   1      -8.290  74.790 118.739  0.00  0.00     0.161 C 
ATOM      2  C   LIG d   1      -7.816  76.098 118.547  0.00  0.00     0.016 C 
ATOM      3  C   LIG d   1      -7.061  76.494 117.419  0.00  0.00     0.038 C 
ATOM      4  C   LIG d   1      -6.856  75.639 116.326  0.00  0.00     0.028 C 
ATOM      5  C   LIG d   1      -6.883  74.161 116.701  0.00  0.00    -0.047 C 
ATOM      6  C   LIG d   1      -8.171  73.871 117.506  0.00  0.00     0.091 C 
ENDROOT
BRANCH   1   7
ATOM      7  O   LIG d   1      -9.652  74.828 119.207  0.00  0.00    -0.368 OA
BRANCH   7   8
ATOM      8  C   LIG d   1     -10.662  75.103 118.205  0.00  0.00     0.119 C 
BRANCH   8   9
ATOM      9  C   LIG d   1     -11.486  76.309 118.697  0.00  0.00     0.028 C 
ATOM     10  C   LIG d   1     -11.059  76.779 120.097  0.00  0.00     0.006 C 
ENDBRANCH   8   9
BRANCH   8  11
ATOM     11  C   LIG d   1     -11.663  73.949 118.091  0.00  0.00     0.028 C 
ATOM     12  C   LIG d   1     -11.640  73.017 119.313  0.00  0.00     0.006 C 
ENDBRANCH   8  11
ENDBRANCH   7   8
ENDBRANCH   1   7
BRANCH   6  13
ATOM     13  N   LIG d   1      -8.236  72.465 117.984  0.00  0.00    -0.311 N 
ATOM     14  C   LIG d   1      -8.880  71.498 117.332  0.00  0.00     0.210 C 
ATOM     15  C   LIG d   1      -8.840  70.125 118.009  0.00  0.00     0.109 C 
ATOM     16  O   LIG d   1      -9.452  71.640 116.241  0.00  0.00    -0.276 OA
ATOM     17  H   LIG d   1      -7.772  72.255 118.846  0.00  0.00     0.149 HD
ENDBRANCH   6  13
BRANCH   5  18
ATOM     18  N   LIG d   1      -6.795  73.382 115.451  0.00  0.00     0.381 N 
ATOM     19  H   LIG d   1      -6.672  74.001 114.674  0.00  0.00    -0.090 HD
ATOM     20  H   LIG d   1      -7.655  72.879 115.320  0.00  0.00    -0.090 HD
ATOM     21  H   LIG d   1      -6.033  72.743 115.500  0.00  0.00    -0.090 HD
ENDBRANCH   5  18
BRANCH   3  22
ATOM     22  C   LIG d   1      -6.468  77.748 117.394  0.00  0.00     0.382 C 
ATOM     23  O   LIG d   1      -6.651  78.547 118.344  0.00  0.00    -0.241 OA
ATOM     24  O   LIG d   1      -5.788  78.106 116.414  0.00  0.00    -0.241 OA
ENDBRANCH   3  22
TORSDOF 7
ENDMDL
MODEL 8
REMARK VINA RESULT:      -5.1     16.833     18.991
REMARK  7 active torsions:
REMARK  status: ('A' for Active; 'I' for Inactive)
REMARK    1  A    between atoms: C_2  and  C_3 
REMARK    2  A    between atoms: C_3  and  O_6 
REMARK    3  A    between atoms: C_3  and  C_4 
REMARK    4  A    between atoms: C_7  and  O_6 
REMARK    5  A    between atoms: C_9  and  C_10 
REMARK    6  A    between atoms: N_15  and  C_14 
REMARK    7  A    between atoms: N_20  and  C_19 
REMARK       I    between atoms: C_22  and  N_20 
ROOT
ATOM      1  C   LIG d   1      -3.816  91.485 118.118  0.00  0.00     0.161 C 
ATOM      2  C   LIG d   1      -4.530  90.689 117.206  0.00  0.00     0.016 C 
ATOM      3  C   LIG d   1      -5.771  91.070 116.646  0.00  0.00     0.038 C 
ATOM      4  C   LIG d   1      -6.313  92.349 116.845  0.00  0.00     0.028 C 
ATOM      5  C   LIG d   1      -5.878  92.994 118.156  0.00  0.00    -0.047 C 
ATOM      6  C   LIG d   1      -4.337  92.931 118.260  0.00  0.00     0.091 C 
ENDROOT
BRANCH   1   7
ATOM      7  O   LIG d   1      -2.417  91.488 117.772  0.00  0.00    -0.368 OA
BRANCH   7   8
ATOM      8  C   LIG d   1      -1.546  90.712 118.631  0.00  0.00     0.119 C 
BRANCH   8   9
ATOM      9  C   LIG d   1      -0.315  91.582 118.950  0.00  0.00     0.028 C 
ATOM     10  C   LIG d   1       0.386  92.095 117.681  0.00  0.00     0.006 C 
ENDBRANCH   8   9
BRANCH   8  11
ATOM     11  C   LIG d   1      -0.996  89.483 117.902  0.00  0.00     0.028 C 
ATOM     12  C   LIG d   1      -0.248  88.520 118.839  0.00  0.00     0.006 C 
ENDBRANCH   8  11
ENDBRANCH   7   8
ENDBRANCH   1   7
BRANCH   6  13
ATOM     13  N   LIG d   1      -3.833  93.465 119.552  0.00  0.00    -0.311 N 
ATOM     14  C   LIG d   1      -2.821  94.325 119.645  0.00  0.00     0.210 C 
ATOM     15  C   LIG d   1      -2.449  94.734 121.074  0.00  0.00     0.109 C 
ATOM     16  O   LIG d   1      -2.217  94.814 118.678  0.00  0.00    -0.276 OA
ATOM     17  H   LIG d   1      -4.286  93.145 120.386  0.00  0.00     0.149 HD
ENDBRANCH   6  13
BRANCH   5  18
ATOM     18  N   LIG d   1      -6.402  94.373 118.170  0.00  0.00     0.381 N 
ATOM     19  H   LIG d   1      -7.280  94.397 118.650  0.00  0.00    -0.090 HD
ATOM     20  H   LIG d   1      -6.551  94.673 117.223  0.00  0.00    -0.090 HD
ATOM     21  H   LIG d   1      -5.752  94.980 118.620  0.00  0.00    -0.090 HD
ENDBRANCH   5  18
BRANCH   3  22
ATOM     22  C   LIG d   1      -6.503  90.152 115.909  0.00  0.00     0.382 C 
ATOM     23  O   LIG d   1      -6.067  89.742 114.807  0.00  0.00    -0.241 OA
ATOM     24  O   LIG d   1      -7.616  89.762 116.312  0.00  0.00    -0.241 OA
ENDBRANCH   3  22
TORSDOF 7
ENDMDL
MODEL 9
REMARK VINA RESULT:      -4.9      2.407      6.455
REMARK  7 active torsions:
REMARK  status: ('A' for Active; 'I' for Inactive)
REMARK    1  A    between atoms: C_2  and  C_3 
REMARK    2  A    between atoms: C_3  and  O_6 
REMARK    3  A    between atoms: C_3  and  C_4 
REMARK    4  A    between atoms: C_7  and  O_6 
REMARK    5  A    between atoms: C_9  and  C_10 
REMARK    6  A    between atoms: N_15  and  C_14 
REMARK    7  A    between atoms: N_20  and  C_19 
REMARK       I    between atoms: C_22  and  N_20 
ROOT
ATOM      1  C   LIG d   1      -8.877  75.512 117.678  0.00  0.00     0.161 C 
ATOM      2  C   LIG d   1      -9.217  76.742 118.267  0.00  0.00     0.016 C 
ATOM      3  C   LIG d   1     -10.134  76.865 119.337  0.00  0.00     0.038 C 
ATOM      4  C   LIG d   1     -10.662  75.743 119.994  0.00  0.00     0.028 C 
ATOM      5  C   LIG d   1     -10.738  74.503 119.109  0.00  0.00    -0.047 C 
ATOM      6  C   LIG d   1      -9.358  74.268 118.454  0.00  0.00     0.091 C 
ENDROOT
BRANCH   1   7
ATOM      7  O   LIG d   1      -7.453  75.451 117.465  0.00  0.00    -0.368 OA
BRANCH   7   8
ATOM      8  C   LIG d   1      -6.985  75.868 116.159  0.00  0.00     0.119 C 
BRANCH   8   9
ATOM      9  C   LIG d   1      -6.387  74.629 115.464  0.00  0.00     0.028 C 
ATOM     10  C   LIG d   1      -5.912  73.565 116.468  0.00  0.00     0.006 C 
ENDBRANCH   8   9
BRANCH   8  11
ATOM     11  C   LIG d   1      -5.830  76.866 116.273  0.00  0.00     0.028 C 
ATOM     12  C   LIG d   1      -5.528  77.264 117.727  0.00  0.00     0.006 C 
ENDBRANCH   8  11
ENDBRANCH   7   8
ENDBRANCH   1   7
BRANCH   6  13
ATOM     13  N   LIG d   1      -9.367  73.123 117.507  0.00  0.00    -0.311 N 
ATOM     14  C   LIG d   1      -8.968  71.896 117.836  0.00  0.00     0.210 C 
ATOM     15  C   LIG d   1      -9.040  70.867 116.704  0.00  0.00     0.109 C 
ATOM     16  O   LIG d   1      -8.591  71.555 118.967  0.00  0.00    -0.276 OA
ATOM     17  H   LIG d   1      -9.688  73.304 116.576  0.00  0.00     0.149 HD
ENDBRANCH   6  13
BRANCH   5  18
ATOM     18  N   LIG d   1     -11.175  73.378 119.956  0.00  0.00     0.381 N 
ATOM     19  H   LIG d   1     -10.434  73.110 120.573  0.00  0.00    -0.090 HD
ATOM     20  H   LIG d   1     -11.394  72.594 119.368  0.00  0.00    -0.090 HD
ATOM     21  H   LIG d   1     -11.978  73.640 120.485  0.00  0.00    -0.090 HD
ENDBRANCH   5  18
BRANCH   3  22
ATOM     22  C   LIG d   1     -10.562  78.123 119.733  0.00  0.00     0.382 C 
ATOM     23  O   LIG d   1     -10.525  79.081 118.925  0.00  0.00    -0.241 OA
ATOM     24  O   LIG d   1     -10.945  78.321 120.902  0.00  0.00    -0.241 OA
ENDBRANCH   3  22
TORSDOF 7
ENDMDL
