MODEL 1
REMARK VINA RESULT:      -5.6      0.000      0.000
REMARK  7 active torsions:
REMARK  status: ('A' for Active; 'I' for Inactive)
REMARK    1  A    between atoms: C_2  and  C_3 
REMARK    2  A    between atoms: C_3  and  O_6 
REMARK    3  A    between atoms: C_3  and  C_4 
REMARK    4  A    between atoms: C_7  and  O_6 
REMARK    5  A    between atoms: C_9  and  C_10 
REMARK    6  A    between atoms: N_15  and  C_14 
REMARK    7  A    between atoms: N_20  and  C_19 
REMARK       I    between atoms: C_22  and  N_20 
ROOT
ATOM      1  C   LIG d   1      -5.741  78.029 117.210  0.00  0.00     0.161 C 
ATOM      2  C   LIG d   1      -5.632  76.743 116.658  0.00  0.00     0.016 C 
ATOM      3  C   LIG d   1      -6.727  75.858 116.524  0.00  0.00     0.038 C 
ATOM      4  C   LIG d   1      -8.043  76.260 116.798  0.00  0.00     0.028 C 
ATOM      5  C   LIG d   1      -8.132  77.377 117.832  0.00  0.00    -0.047 C 
ATOM      6  C   LIG d   1      -7.188  78.526 117.412  0.00  0.00     0.091 C 
ENDROOT
BRANCH   1   7
ATOM      7  O   LIG d   1      -4.996  78.969 116.411  0.00  0.00    -0.368 OA
BRANCH   7   8
ATOM      8  C   LIG d   1      -3.652  79.266 116.865  0.00  0.00     0.119 C 
BRANCH   8   9
ATOM      9  C   LIG d   1      -3.748  80.443 117.856  0.00  0.00     0.028 C 
ATOM     10  C   LIG d   1      -3.377  80.034 119.291  0.00  0.00     0.006 C 
ENDBRANCH   8   9
BRANCH   8  11
ATOM     11  C   LIG d   1      -2.775  79.774 115.717  0.00  0.00     0.028 C 
ATOM     12  C   LIG d   1      -1.332  80.069 116.154  0.00  0.00     0.006 C 
ENDBRANCH   8  11
ENDBRANCH   7   8
ENDBRANCH   1   7
BRANCH   6  13
ATOM     13  N   LIG d   1      -7.152  79.624 118.413  0.00  0.00    -0.311 N 
ATOM     14  C   LIG d   1      -7.381  80.901 118.109  0.00  0.00     0.210 C 
ATOM     15  C   LIG d   1      -7.273  81.875 119.287  0.00  0.00     0.109 C 
ATOM     16  O   LIG d   1      -7.695  81.315 116.983  0.00  0.00    -0.276 OA
ATOM     17  H   LIG d   1      -6.935  79.373 119.357  0.00  0.00     0.149 HD
ENDBRANCH   6  13
BRANCH   5  18
ATOM     18  N   LIG d   1      -9.545  77.792 117.919  0.00  0.00     0.381 N 
ATOM     19  H   LIG d   1     -10.119  76.999 118.128  0.00  0.00    -0.090 HD
ATOM     20  H   LIG d   1      -9.831  78.162 117.029  0.00  0.00    -0.090 HD
ATOM     21  H   LIG d   1      -9.654  78.485 118.626  0.00  0.00    -0.090 HD
ENDBRANCH   5  18
BRANCH   3  22
ATOM     22  C   LIG d   1      -6.505  74.541 116.150  0.00  0.00     0.382 C 
ATOM     23  O   LIG d   1      -5.727  74.282 115.201  0.00  0.00    -0.241 OA
ATOM     24  O   LIG d   1      -7.107  73.612 116.721  0.00  0.00    -0.241 OA
ENDBRANCH   3  22
TORSDOF 7
ENDMDL
MODEL 2
REMARK VINA RESULT:      -5.3      2.713      4.598
REMARK  7 active torsions:
REMARK  status: ('A' for Active; 'I' for Inactive)
REMARK    1  A    between atoms: C_2  and  C_3 
REMARK    2  A    between atoms: C_3  and  O_6 
REMARK    3  A    between atoms: C_3  and  C_4 
REMARK    4  A    between atoms: C_7  and  O_6 
REMARK    5  A    between atoms: C_9  and  C_10 
REMARK    6  A    between atoms: N_15  and  C_14 
REMARK    7  A    between atoms: N_20  and  C_19 
REMARK       I    between atoms: C_22  and  N_20 
ROOT
ATOM      1  C   LIG d   1      -5.836  77.558 116.697  0.00  0.00     0.161 C 
ATOM      2  C   LIG d   1      -7.178  77.619 117.105  0.00  0.00     0.016 C 
ATOM      3  C   LIG d   1      -8.040  76.499 117.117  0.00  0.00     0.038 C 
ATOM      4  C   LIG d   1      -7.572  75.201 116.863  0.00  0.00     0.028 C 
ATOM      5  C   LIG d   1      -6.346  75.166 115.957  0.00  0.00    -0.047 C 
ATOM      6  C   LIG d   1      -5.278  76.130 116.522  0.00  0.00     0.091 C 
ENDROOT
BRANCH   1   7
ATOM      7  O   LIG d   1      -5.012  78.309 117.610  0.00  0.00    -0.368 OA
BRANCH   7   8
ATOM      8  C   LIG d   1      -4.854  79.719 117.314  0.00  0.00     0.119 C 
BRANCH   8   9
ATOM      9  C   LIG d   1      -3.343  80.005 117.216  0.00  0.00     0.028 C 
ATOM     10  C   LIG d   1      -2.858  80.099 115.759  0.00  0.00     0.006 C 
ENDBRANCH   8   9
BRANCH   8  11
ATOM     11  C   LIG d   1      -5.357  80.590 118.469  0.00  0.00     0.028 C 
ATOM     12  C   LIG d   1      -6.767  81.151 118.222  0.00  0.00     0.006 C 
ENDBRANCH   8  11
ENDBRANCH   7   8
ENDBRANCH   1   7
BRANCH   6  13
ATOM     13  N   LIG d   1      -4.078  76.220 115.650  0.00  0.00    -0.311 N 
ATOM     14  C   LIG d   1      -2.887  75.729 115.988  0.00  0.00     0.210 C 
ATOM     15  C   LIG d   1      -1.779  75.946 114.952  0.00  0.00     0.109 C 
ATOM     16  O   LIG d   1      -2.650  75.105 117.034  0.00  0.00    -0.276 OA
ATOM     17  H   LIG d   1      -4.188  76.683 114.769  0.00  0.00     0.149 HD
ENDBRANCH   6  13
BRANCH   5  18
ATOM     18  N   LIG d   1      -5.883  73.767 115.887  0.00  0.00     0.381 N 
ATOM     19  H   LIG d   1      -6.640  73.173 115.615  0.00  0.00    -0.090 HD
ATOM     20  H   LIG d   1      -5.571  73.482 116.799  0.00  0.00    -0.090 HD
ATOM     21  H   LIG d   1      -5.136  73.687 115.233  0.00  0.00    -0.090 HD
ENDBRANCH   5  18
BRANCH   3  22
ATOM     22  C   LIG d   1      -9.396  76.677 117.347  0.00  0.00     0.382 C 
ATOM     23  O   LIG d   1      -9.819  77.774 117.784  0.00  0.00    -0.241 OA
ATOM     24  O   LIG d   1     -10.196  75.739 117.166  0.00  0.00    -0.241 OA
ENDBRANCH   3  22
TORSDOF 7
ENDMDL
MODEL 3
REMARK VINA RESULT:      -5.2      1.321      2.130
REMARK  7 active torsions:
REMARK  status: ('A' for Active; 'I' for Inactive)
REMARK    1  A    between atoms: C_2  and  C_3 
REMARK    2  A    between atoms: C_3  and  O_6 
REMARK    3  A    between atoms: C_3  and  C_4 
REMARK    4  A    between atoms: C_7  and  O_6 
REMARK    5  A    between atoms: C_9  and  C_10 
REMARK    6  A    between atoms: N_15  and  C_14 
REMARK    7  A    between atoms: N_20  and  C_19 
REMARK       I    between atoms: C_22  and  N_20 
ROOT
ATOM      1  C   LIG d   1      -5.975  78.437 117.369  0.00  0.00     0.161 C 
ATOM      2  C   LIG d   1      -5.325  77.387 116.699  0.00  0.00     0.016 C 
ATOM      3  C   LIG d   1      -5.972  76.189 116.318  0.00  0.00     0.038 C 
ATOM      4  C   LIG d   1      -7.358  76.021 116.448  0.00  0.00     0.028 C 
ATOM      5  C   LIG d   1      -7.965  76.848 117.576  0.00  0.00    -0.047 C 
ATOM      6  C   LIG d   1      -7.512  78.318 117.420  0.00  0.00     0.091 C 
ENDROOT
BRANCH   1   7
ATOM      7  O   LIG d   1      -5.589  79.699 116.790  0.00  0.00    -0.368 OA
BRANCH   7   8
ATOM      8  C   LIG d   1      -4.643  80.488 117.553  0.00  0.00     0.119 C 
BRANCH   8   9
ATOM      9  C   LIG d   1      -3.228  80.049 117.130  0.00  0.00     0.028 C 
ATOM     10  C   LIG d   1      -2.973  80.256 115.627  0.00  0.00     0.006 C 
ENDBRANCH   8   9
BRANCH   8  11
ATOM     11  C   LIG d   1      -4.735  80.174 119.049  0.00  0.00     0.028 C 
ATOM     12  C   LIG d   1      -3.440  80.506 119.808  0.00  0.00     0.006 C 
ENDBRANCH   8  11
ENDBRANCH   7   8
ENDBRANCH   1   7
BRANCH   6  13
ATOM     13  N   LIG d   1      -7.993  79.180 118.531  0.00  0.00    -0.311 N 
ATOM     14  C   LIG d   1      -9.143  79.852 118.493  0.00  0.00     0.210 C 
ATOM     15  C   LIG d   1      -9.440  80.697 119.736  0.00  0.00     0.109 C 
ATOM     16  O   LIG d   1      -9.960  79.802 117.561  0.00  0.00    -0.276 OA
ATOM     17  H   LIG d   1      -7.407  79.252 119.339  0.00  0.00     0.149 HD
ENDBRANCH   6  13
BRANCH   5  18
ATOM     18  N   LIG d   1      -9.430  76.684 117.511  0.00  0.00     0.381 N 
ATOM     19  H   LIG d   1      -9.878  77.549 117.739  0.00  0.00    -0.090 HD
ATOM     20  H   LIG d   1      -9.710  75.995 118.186  0.00  0.00    -0.090 HD
ATOM     21  H   LIG d   1      -9.700  76.393 116.597  0.00  0.00    -0.090 HD
ENDBRANCH   5  18
BRANCH   3  22
ATOM     22  C   LIG d   1      -5.222  75.126 115.836  0.00  0.00     0.382 C 
ATOM     23  O   LIG d   1      -5.778  74.031 115.582  0.00  0.00    -0.241 OA
ATOM     24  O   LIG d   1      -3.989  75.236 115.694  0.00  0.00    -0.241 OA
ENDBRANCH   3  22
TORSDOF 7
ENDMDL
MODEL 4
REMARK VINA RESULT:      -5.1     11.535     13.671
REMARK  7 active torsions:
REMARK  status: ('A' for Active; 'I' for Inactive)
REMARK    1  A    between atoms: C_2  and  C_3 
REMARK    2  A    between atoms: C_3  and  O_6 
REMARK    3  A    between atoms: C_3  and  C_4 
REMARK    4  A    between atoms: C_7  and  O_6 
REMARK    5  A    between atoms: C_9  and  C_10 
REMARK    6  A    between atoms: N_15  and  C_14 
REMARK    7  A    between atoms: N_20  and  C_19 
REMARK       I    between atoms: C_22  and  N_20 
ROOT
ATOM      1  C   LIG d   1      -3.051  90.924 117.884  0.00  0.00     0.161 C 
ATOM      2  C   LIG d   1      -3.790  90.071 117.047  0.00  0.00     0.016 C 
ATOM      3  C   LIG d   1      -5.043  90.419 116.492  0.00  0.00     0.038 C 
ATOM      4  C   LIG d   1      -5.575  91.711 116.615  0.00  0.00     0.028 C 
ATOM      5  C   LIG d   1      -5.106  92.442 117.868  0.00  0.00    -0.047 C 
ATOM      6  C   LIG d   1      -3.563  92.378 117.939  0.00  0.00     0.091 C 
ENDROOT
BRANCH   1   7
ATOM      7  O   LIG d   1      -1.661  90.896 117.505  0.00  0.00    -0.368 OA
BRANCH   7   8
ATOM      8  C   LIG d   1      -0.779  90.139 118.369  0.00  0.00     0.119 C 
BRANCH   8   9
ATOM      9  C   LIG d   1       0.436  91.031 118.688  0.00  0.00     0.028 C 
ATOM     10  C   LIG d   1       0.978  91.752 117.441  0.00  0.00     0.006 C 
ENDBRANCH   8   9
BRANCH   8  11
ATOM     11  C   LIG d   1      -0.206  88.916 117.648  0.00  0.00     0.028 C 
ATOM     12  C   LIG d   1      -1.066  87.656 117.836  0.00  0.00     0.006 C 
ENDBRANCH   8  11
ENDBRANCH   7   8
ENDBRANCH   1   7
BRANCH   6  13
ATOM     13  N   LIG d   1      -3.027  92.997 119.179  0.00  0.00    -0.311 N 
ATOM     14  C   LIG d   1      -2.059  93.913 119.182  0.00  0.00     0.210 C 
ATOM     15  C   LIG d   1      -1.640  94.406 120.570  0.00  0.00     0.109 C 
ATOM     16  O   LIG d   1      -1.531  94.387 118.165  0.00  0.00    -0.276 OA
ATOM     17  H   LIG d   1      -3.420  92.693 120.048  0.00  0.00     0.149 HD
ENDBRANCH   6  13
BRANCH   5  18
ATOM     18  N   LIG d   1      -5.625  93.821 117.800  0.00  0.00     0.381 N 
ATOM     19  H   LIG d   1      -6.611  93.804 117.633  0.00  0.00    -0.090 HD
ATOM     20  H   LIG d   1      -5.183  94.297 117.034  0.00  0.00    -0.090 HD
ATOM     21  H   LIG d   1      -5.434  94.300 118.653  0.00  0.00    -0.090 HD
ENDBRANCH   5  18
BRANCH   3  22
ATOM     22  C   LIG d   1      -5.796  89.456 115.837  0.00  0.00     0.382 C 
ATOM     23  O   LIG d   1      -6.901  89.097 116.309  0.00  0.00    -0.241 OA
ATOM     24  O   LIG d   1      -5.363  88.909 114.805  0.00  0.00    -0.241 OA
ENDBRANCH   3  22
TORSDOF 7
ENDMDL
MODEL 5
REMARK VINA RESULT:      -5.0      2.436      4.643
REMARK  7 active torsions:
REMARK  status: ('A' for Active; 'I' for Inactive)
REMARK    1  A    between atoms: C_2  and  C_3 
REMARK    2  A    between atoms: C_3  and  O_6 
REMARK    3  A    between atoms: C_3  and  C_4 
REMARK    4  A    between atoms: C_7  and  O_6 
REMARK    5  A    between atoms: C_9  and  C_10 
REMARK    6  A    between atoms: N_15  and  C_14 
REMARK    7  A    between atoms: N_20  and  C_19 
REMARK       I    between atoms: C_22  and  N_20 
ROOT
ATOM      1  C   LIG d   1      -5.665  78.621 117.324  0.00  0.00     0.161 C 
ATOM      2  C   LIG d   1      -4.577  77.871 117.800  0.00  0.00     0.016 C 
ATOM      3  C   LIG d   1      -4.163  77.871 119.152  0.00  0.00     0.038 C 
ATOM      4  C   LIG d   1      -4.908  78.509 120.155  0.00  0.00     0.028 C 
ATOM      5  C   LIG d   1      -5.726  79.690 119.644  0.00  0.00    -0.047 C 
ATOM      6  C   LIG d   1      -6.557  79.235 118.424  0.00  0.00     0.091 C 
ENDROOT
BRANCH   1   7
ATOM      7  O   LIG d   1      -6.457  77.818 116.427  0.00  0.00    -0.368 OA
BRANCH   7   8
ATOM      8  C   LIG d   1      -6.178  76.396 116.430  0.00  0.00     0.119 C 
BRANCH   8   9
ATOM      9  C   LIG d   1      -6.144  75.928 114.962  0.00  0.00     0.028 C 
ATOM     10  C   LIG d   1      -5.514  74.533 114.805  0.00  0.00     0.006 C 
ENDBRANCH   8   9
BRANCH   8  11
ATOM     11  C   LIG d   1      -7.317  75.606 117.081  0.00  0.00     0.028 C 
ATOM     12  C   LIG d   1      -8.660  76.352 117.038  0.00  0.00     0.006 C 
ENDBRANCH   8  11
ENDBRANCH   7   8
ENDBRANCH   1   7
BRANCH   6  13
ATOM     13  N   LIG d   1      -7.322  80.351 117.810  0.00  0.00    -0.311 N 
ATOM     14  C   LIG d   1      -8.653  80.390 117.765  0.00  0.00     0.210 C 
ATOM     15  C   LIG d   1      -9.240  81.622 117.070  0.00  0.00     0.109 C 
ATOM     16  O   LIG d   1      -9.403  79.537 118.263  0.00  0.00    -0.276 OA
ATOM     17  H   LIG d   1      -6.793  81.101 117.410  0.00  0.00     0.149 HD
ENDBRANCH   6  13
BRANCH   5  18
ATOM     18  N   LIG d   1      -6.557  80.174 120.763  0.00  0.00     0.381 N 
ATOM     19  H   LIG d   1      -5.972  80.535 121.489  0.00  0.00    -0.090 HD
ATOM     20  H   LIG d   1      -7.082  79.402 121.135  0.00  0.00    -0.090 HD
ATOM     21  H   LIG d   1      -7.179  80.884 120.443  0.00  0.00    -0.090 HD
ENDBRANCH   5  18
BRANCH   3  22
ATOM     22  C   LIG d   1      -2.969  77.261 119.506  0.00  0.00     0.382 C 
ATOM     23  O   LIG d   1      -2.131  76.964 118.621  0.00  0.00    -0.241 OA
ATOM     24  O   LIG d   1      -2.739  76.965 120.694  0.00  0.00    -0.241 OA
ENDBRANCH   3  22
TORSDOF 7
ENDMDL
MODEL 6
REMARK VINA RESULT:      -4.9     19.867     22.441
REMARK  7 active torsions:
REMARK  status: ('A' for Active; 'I' for Inactive)
REMARK    1  A    between atoms: C_2  and  C_3 
REMARK    2  A    between atoms: C_3  and  O_6 
REMARK    3  A    between atoms: C_3  and  C_4 
REMARK    4  A    between atoms: C_7  and  O_6 
REMARK    5  A    between atoms: C_9  and  C_10 
REMARK    6  A    between atoms: N_15  and  C_14 
REMARK    7  A    between atoms: N_20  and  C_19 
REMARK       I    between atoms: C_22  and  N_20 
ROOT
ATOM      1  C   LIG d   1       1.406  57.842 119.118  0.00  0.00     0.161 C 
ATOM      2  C   LIG d   1       0.822  58.897 118.398  0.00  0.00     0.016 C 
ATOM      3  C   LIG d   1      -0.275  58.729 117.522  0.00  0.00     0.038 C 
ATOM      4  C   LIG d   1      -0.963  57.511 117.422  0.00  0.00     0.028 C 
ATOM      5  C   LIG d   1      -0.098  56.297 117.746  0.00  0.00    -0.047 C 
ATOM      6  C   LIG d   1       0.598  56.527 119.107  0.00  0.00     0.091 C 
ENDROOT
BRANCH   1   7
ATOM      7  O   LIG d   1       1.664  58.259 120.473  0.00  0.00    -0.368 OA
BRANCH   7   8
ATOM      8  C   LIG d   1       3.055  58.468 120.821  0.00  0.00     0.119 C 
BRANCH   8   9
ATOM      9  C   LIG d   1       3.279  59.988 120.941  0.00  0.00     0.028 C 
ATOM     10  C   LIG d   1       4.577  60.446 120.255  0.00  0.00     0.006 C 
ENDBRANCH   8   9
BRANCH   8  11
ATOM     11  C   LIG d   1       3.987  58.008 119.696  0.00  0.00     0.028 C 
ATOM     12  C   LIG d   1       4.957  56.902 120.140  0.00  0.00     0.006 C 
ENDBRANCH   8  11
ENDBRANCH   7   8
ENDBRANCH   1   7
BRANCH   6  13
ATOM     13  N   LIG d   1       1.530  55.424 119.460  0.00  0.00    -0.311 N 
ATOM     14  C   LIG d   1       2.304  54.805 118.571  0.00  0.00     0.210 C 
ATOM     15  C   LIG d   1       3.175  53.682 119.142  0.00  0.00     0.109 C 
ATOM     16  O   LIG d   1       2.376  55.101 117.369  0.00  0.00    -0.276 OA
ATOM     17  H   LIG d   1       1.558  55.141 120.420  0.00  0.00     0.149 HD
ENDBRANCH   6  13
BRANCH   5  18
ATOM     18  N   LIG d   1      -0.974  55.110 117.738  0.00  0.00     0.381 N 
ATOM     19  H   LIG d   1      -1.762  55.275 117.144  0.00  0.00    -0.090 HD
ATOM     20  H   LIG d   1      -1.310  54.948 118.670  0.00  0.00    -0.090 HD
ATOM     21  H   LIG d   1      -0.467  54.315 117.416  0.00  0.00    -0.090 HD
ENDBRANCH   5  18
BRANCH   3  22
ATOM     22  C   LIG d   1      -0.668  59.777 116.704  0.00  0.00     0.382 C 
ATOM     23  O   LIG d   1      -1.821  60.259 116.813  0.00  0.00    -0.241 OA
ATOM     24  O   LIG d   1       0.100  60.218 115.828  0.00  0.00    -0.241 OA
ENDBRANCH   3  22
TORSDOF 7
ENDMDL
MODEL 7
REMARK VINA RESULT:      -4.9      4.356      6.252
REMARK  7 active torsions:
REMARK  status: ('A' for Active; 'I' for Inactive)
REMARK    1  A    between atoms: C_2  and  C_3 
REMARK    2  A    between atoms: C_3  and  O_6 
REMARK    3  A    between atoms: C_3  and  C_4 
REMARK    4  A    between atoms: C_7  and  O_6 
REMARK    5  A    between atoms: C_9  and  C_10 
REMARK    6  A    between atoms: N_15  and  C_14 
REMARK    7  A    between atoms: N_20  and  C_19 
REMARK       I    between atoms: C_22  and  N_20 
ROOT
ATOM      1  C   LIG d   1      -1.201  77.585 115.912  0.00  0.00     0.161 C 
ATOM      2  C   LIG d   1      -2.566  77.324 115.703  0.00  0.00     0.016 C 
ATOM      3  C   LIG d   1      -3.194  76.115 116.081  0.00  0.00     0.038 C 
ATOM      4  C   LIG d   1      -2.528  75.138 116.836  0.00  0.00     0.028 C 
ATOM      5  C   LIG d   1      -1.017  75.139 116.630  0.00  0.00    -0.047 C 
ATOM      6  C   LIG d   1      -0.484  76.576 116.834  0.00  0.00     0.091 C 
ENDROOT
BRANCH   1   7
ATOM      7  O   LIG d   1      -1.031  78.927 116.410  0.00  0.00    -0.368 OA
BRANCH   7   8
ATOM      8  C   LIG d   1      -1.260  79.114 117.828  0.00  0.00     0.119 C 
BRANCH   8   9
ATOM      9  C   LIG d   1      -2.492  80.027 117.982  0.00  0.00     0.028 C 
ATOM     10  C   LIG d   1      -2.759  80.411 119.447  0.00  0.00     0.006 C 
ENDBRANCH   8   9
BRANCH   8  11
ATOM     11  C   LIG d   1      -0.105  79.878 118.483  0.00  0.00     0.028 C 
ATOM     12  C   LIG d   1       0.948  80.351 117.468  0.00  0.00     0.006 C 
ENDBRANCH   8  11
ENDBRANCH   7   8
ENDBRANCH   1   7
BRANCH   6  13
ATOM     13  N   LIG d   1       0.974  76.682 116.568  0.00  0.00    -0.311 N 
ATOM     14  C   LIG d   1       1.892  76.741 117.531  0.00  0.00     0.210 C 
ATOM     15  C   LIG d   1       3.338  76.869 117.040  0.00  0.00     0.109 C 
ATOM     16  O   LIG d   1       1.649  76.668 118.745  0.00  0.00    -0.276 OA
ATOM     17  H   LIG d   1       1.262  76.717 115.610  0.00  0.00     0.149 HD
ENDBRANCH   6  13
BRANCH   5  18
ATOM     18  N   LIG d   1      -0.438  74.168 117.577  0.00  0.00     0.381 N 
ATOM     19  H   LIG d   1       0.414  74.531 117.956  0.00  0.00    -0.090 HD
ATOM     20  H   LIG d   1      -0.226  73.319 117.083  0.00  0.00    -0.090 HD
ATOM     21  H   LIG d   1      -1.084  73.981 118.312  0.00  0.00    -0.090 HD
ENDBRANCH   5  18
BRANCH   3  22
ATOM     22  C   LIG d   1      -4.493  75.857 115.669  0.00  0.00     0.382 C 
ATOM     23  O   LIG d   1      -5.179  76.771 115.149  0.00  0.00    -0.241 OA
ATOM     24  O   LIG d   1      -5.002  74.735 115.850  0.00  0.00    -0.241 OA
ENDBRANCH   3  22
TORSDOF 7
ENDMDL
MODEL 8
REMARK VINA RESULT:      -4.8     11.385     14.421
REMARK  7 active torsions:
REMARK  status: ('A' for Active; 'I' for Inactive)
REMARK    1  A    between atoms: C_2  and  C_3 
REMARK    2  A    between atoms: C_3  and  O_6 
REMARK    3  A    between atoms: C_3  and  C_4 
REMARK    4  A    between atoms: C_7  and  O_6 
REMARK    5  A    between atoms: C_9  and  C_10 
REMARK    6  A    between atoms: N_15  and  C_14 
REMARK    7  A    between atoms: N_20  and  C_19 
REMARK       I    between atoms: C_22  and  N_20 
ROOT
ATOM      1  C   LIG d   1       0.454  90.073 117.089  0.00  0.00     0.161 C 
ATOM      2  C   LIG d   1       1.783  90.510 117.210  0.00  0.00     0.016 C 
ATOM      3  C   LIG d   1       2.139  91.822 117.598  0.00  0.00     0.038 C 
ATOM      4  C   LIG d   1       1.184  92.749 118.041  0.00  0.00     0.028 C 
ATOM      5  C   LIG d   1      -0.204  92.515 117.454  0.00  0.00    -0.047 C 
ATOM      6  C   LIG d   1      -0.600  91.037 117.674  0.00  0.00     0.091 C 
ENDROOT
BRANCH   1   7
ATOM      7  O   LIG d   1       0.314  88.763 117.674  0.00  0.00    -0.368 OA
BRANCH   7   8
ATOM      8  C   LIG d   1      -0.106  87.706 116.777  0.00  0.00     0.119 C 
BRANCH   8   9
ATOM      9  C   LIG d   1      -1.429  87.134 117.323  0.00  0.00     0.028 C 
ATOM     10  C   LIG d   1      -1.667  87.509 118.795  0.00  0.00     0.006 C 
ENDBRANCH   8   9
BRANCH   8  11
ATOM     11  C   LIG d   1       0.881  86.534 116.796  0.00  0.00     0.028 C 
ATOM     12  C   LIG d   1       1.804  86.552 118.024  0.00  0.00     0.006 C 
ENDBRANCH   8  11
ENDBRANCH   7   8
ENDBRANCH   1   7
BRANCH   6  13
ATOM     13  N   LIG d   1      -1.909  90.702 117.056  0.00  0.00    -0.311 N 
ATOM     14  C   LIG d   1      -3.059  90.705 117.728  0.00  0.00     0.210 C 
ATOM     15  C   LIG d   1      -4.289  90.310 116.905  0.00  0.00     0.109 C 
ATOM     16  O   LIG d   1      -3.182  91.028 118.919  0.00  0.00    -0.276 OA
ATOM     17  H   LIG d   1      -1.906  90.458 116.085  0.00  0.00     0.149 HD
ENDBRANCH   6  13
BRANCH   5  18
ATOM     18  N   LIG d   1      -1.128  93.463 118.104  0.00  0.00     0.381 N 
ATOM     19  H   LIG d   1      -0.702  93.843 118.926  0.00  0.00    -0.090 HD
ATOM     20  H   LIG d   1      -1.960  92.971 118.379  0.00  0.00    -0.090 HD
ATOM     21  H   LIG d   1      -1.362  94.198 117.473  0.00  0.00    -0.090 HD
ENDBRANCH   5  18
BRANCH   3  22
ATOM     22  C   LIG d   1       3.461  92.231 117.508  0.00  0.00     0.382 C 
ATOM     23  O   LIG d   1       3.735  93.376 117.075  0.00  0.00    -0.241 OA
ATOM     24  O   LIG d   1       4.385  91.453 117.811  0.00  0.00    -0.241 OA
ENDBRANCH   3  22
TORSDOF 7
ENDMDL
MODEL 9
REMARK VINA RESULT:      -4.8     12.098     14.717
REMARK  7 active torsions:
REMARK  status: ('A' for Active; 'I' for Inactive)
REMARK    1  A    between atoms: C_2  and  C_3 
REMARK    2  A    between atoms: C_3  and  O_6 
REMARK    3  A    between atoms: C_3  and  C_4 
REMARK    4  A    between atoms: C_7  and  O_6 
REMARK    5  A    between atoms: C_9  and  C_10 
REMARK    6  A    between atoms: N_15  and  C_14 
REMARK    7  A    between atoms: N_20  and  C_19 
REMARK       I    between atoms: C_22  and  N_20 
ROOT
ATOM      1  C   LIG d   1      -3.208  92.746 117.887  0.00  0.00     0.161 C 
ATOM      2  C   LIG d   1      -4.303  92.039 117.363  0.00  0.00     0.016 C 
ATOM      3  C   LIG d   1      -4.277  90.651 117.097  0.00  0.00     0.038 C 
ATOM      4  C   LIG d   1      -3.197  89.842 117.481  0.00  0.00     0.028 C 
ATOM      5  C   LIG d   1      -1.872  90.594 117.551  0.00  0.00    -0.047 C 
ATOM      6  C   LIG d   1      -2.060  91.861 118.416  0.00  0.00     0.091 C 
ENDROOT
BRANCH   1   7
ATOM      7  O   LIG d   1      -3.658  93.651 118.915  0.00  0.00    -0.368 OA
BRANCH   7   8
ATOM      8  C   LIG d   1      -5.011  93.450 119.393  0.00  0.00     0.119 C 
BRANCH   8   9
ATOM      9  C   LIG d   1      -5.763  94.784 119.225  0.00  0.00     0.028 C 
ATOM     10  C   LIG d   1      -7.219  94.584 118.772  0.00  0.00     0.006 C 
ENDBRANCH   8   9
BRANCH   8  11
ATOM     11  C   LIG d   1      -5.033  93.159 120.897  0.00  0.00     0.028 C 
ATOM     12  C   LIG d   1      -4.405  91.802 121.250  0.00  0.00     0.006 C 
ENDBRANCH   8  11
ENDBRANCH   7   8
ENDBRANCH   1   7
BRANCH   6  13
ATOM     13  N   LIG d   1      -0.834  92.699 118.468  0.00  0.00    -0.311 N 
ATOM     14  C   LIG d   1       0.075  92.609 119.437  0.00  0.00     0.210 C 
ATOM     15  C   LIG d   1       1.254  93.579 119.310  0.00  0.00     0.109 C 
ATOM     16  O   LIG d   1       0.033  91.796 120.373  0.00  0.00    -0.276 OA
ATOM     17  H   LIG d   1      -0.704  93.364 117.731  0.00  0.00     0.149 HD
ENDBRANCH   6  13
BRANCH   5  18
ATOM     18  N   LIG d   1      -0.862  89.667 118.095  0.00  0.00     0.381 N 
ATOM     19  H   LIG d   1      -0.445  89.145 117.351  0.00  0.00    -0.090 HD
ATOM     20  H   LIG d   1      -1.316  89.021 118.718  0.00  0.00    -0.090 HD
ATOM     21  H   LIG d   1      -0.161  90.176 118.587  0.00  0.00    -0.090 HD
ENDBRANCH   5  18
BRANCH   3  22
ATOM     22  C   LIG d   1      -5.325  90.065 116.403  0.00  0.00     0.382 C 
ATOM     23  O   LIG d   1      -6.415  90.674 116.281  0.00  0.00    -0.241 OA
ATOM     24  O   LIG d   1      -5.208  88.916 115.935  0.00  0.00    -0.241 OA
ENDBRANCH   3  22
TORSDOF 7
ENDMDL
