MODEL 1
REMARK VINA RESULT:      -5.6      0.000      0.000
REMARK  7 active torsions:
REMARK  status: ('A' for Active; 'I' for Inactive)
REMARK    1  A    between atoms: C_2  and  C_3 
REMARK    2  A    between atoms: C_3  and  O_6 
REMARK    3  A    between atoms: C_3  and  C_4 
REMARK    4  A    between atoms: C_7  and  O_6 
REMARK    5  A    between atoms: C_9  and  C_10 
REMARK    6  A    between atoms: N_15  and  C_14 
REMARK    7  A    between atoms: N_20  and  C_19 
REMARK       I    between atoms: C_22  and  N_20 
ROOT
ATOM      1  C   LIG d   1      -7.556  75.049 117.902  0.00  0.00     0.161 C 
ATOM      2  C   LIG d   1      -8.845  75.313 118.395  0.00  0.00     0.016 C 
ATOM      3  C   LIG d   1      -9.335  76.617 118.634  0.00  0.00     0.038 C 
ATOM      4  C   LIG d   1      -8.618  77.760 118.249  0.00  0.00     0.028 C 
ATOM      5  C   LIG d   1      -7.109  77.545 118.214  0.00  0.00    -0.047 C 
ATOM      6  C   LIG d   1      -6.801  76.286 117.372  0.00  0.00     0.091 C 
ENDROOT
BRANCH   1   7
ATOM      7  O   LIG d   1      -7.621  74.029 116.886  0.00  0.00    -0.368 OA
BRANCH   7   8
ATOM      8  C   LIG d   1      -7.536  72.659 117.351  0.00  0.00     0.119 C 
BRANCH   8   9
ATOM      9  C   LIG d   1      -6.568  71.911 116.415  0.00  0.00     0.028 C 
ATOM     10  C   LIG d   1      -5.633  72.866 115.653  0.00  0.00     0.006 C 
ENDBRANCH   8   9
BRANCH   8  11
ATOM     11  C   LIG d   1      -8.879  71.937 117.206  0.00  0.00     0.028 C 
ATOM     12  C   LIG d   1      -8.844  70.499 117.747  0.00  0.00     0.006 C 
ENDBRANCH   8  11
ENDBRANCH   7   8
ENDBRANCH   1   7
BRANCH   6  13
ATOM     13  N   LIG d   1      -5.352  75.956 117.355  0.00  0.00    -0.311 N 
ATOM     14  C   LIG d   1      -4.523  76.342 116.387  0.00  0.00     0.210 C 
ATOM     15  C   LIG d   1      -3.073  75.877 116.554  0.00  0.00     0.109 C 
ATOM     16  O   LIG d   1      -4.844  77.053 115.423  0.00  0.00    -0.276 OA
ATOM     17  H   LIG d   1      -5.000  75.408 118.116  0.00  0.00     0.149 HD
ENDBRANCH   6  13
BRANCH   5  18
ATOM     18  N   LIG d   1      -6.497  78.771 117.666  0.00  0.00     0.381 N 
ATOM     19  H   LIG d   1      -6.762  79.559 118.222  0.00  0.00    -0.090 HD
ATOM     20  H   LIG d   1      -6.839  78.915 116.732  0.00  0.00    -0.090 HD
ATOM     21  H   LIG d   1      -5.505  78.681 117.654  0.00  0.00    -0.090 HD
ENDBRANCH   5  18
BRANCH   3  22
ATOM     22  C   LIG d   1     -10.539  76.788 119.300  0.00  0.00     0.382 C 
ATOM     23  O   LIG d   1     -10.715  76.254 120.422  0.00  0.00    -0.241 OA
ATOM     24  O   LIG d   1     -11.466  77.431 118.774  0.00  0.00    -0.241 OA
ENDBRANCH   3  22
TORSDOF 7
ENDMDL
MODEL 2
REMARK VINA RESULT:      -5.3      2.312      4.561
REMARK  7 active torsions:
REMARK  status: ('A' for Active; 'I' for Inactive)
REMARK    1  A    between atoms: C_2  and  C_3 
REMARK    2  A    between atoms: C_3  and  O_6 
REMARK    3  A    between atoms: C_3  and  C_4 
REMARK    4  A    between atoms: C_7  and  O_6 
REMARK    5  A    between atoms: C_9  and  C_10 
REMARK    6  A    between atoms: N_15  and  C_14 
REMARK    7  A    between atoms: N_20  and  C_19 
REMARK       I    between atoms: C_22  and  N_20 
ROOT
ATOM      1  C   LIG d   1      -6.471  76.224 117.016  0.00  0.00     0.161 C 
ATOM      2  C   LIG d   1      -6.215  77.601 117.123  0.00  0.00     0.016 C 
ATOM      3  C   LIG d   1      -7.091  78.508 117.763  0.00  0.00     0.038 C 
ATOM      4  C   LIG d   1      -8.217  78.073 118.477  0.00  0.00     0.028 C 
ATOM      5  C   LIG d   1      -8.783  76.752 117.969  0.00  0.00    -0.047 C 
ATOM      6  C   LIG d   1      -7.640  75.715 117.886  0.00  0.00     0.091 C 
ENDROOT
BRANCH   1   7
ATOM      7  O   LIG d   1      -5.271  75.480 117.305  0.00  0.00    -0.368 OA
BRANCH   7   8
ATOM      8  C   LIG d   1      -4.407  75.203 116.175  0.00  0.00     0.119 C 
BRANCH   8   9
ATOM      9  C   LIG d   1      -5.258  74.497 115.103  0.00  0.00     0.028 C 
ATOM     10  C   LIG d   1      -5.445  72.998 115.394  0.00  0.00     0.006 C 
ENDBRANCH   8   9
BRANCH   8  11
ATOM     11  C   LIG d   1      -3.309  74.201 116.547  0.00  0.00     0.028 C 
ATOM     12  C   LIG d   1      -1.986  74.467 115.812  0.00  0.00     0.006 C 
ENDBRANCH   8  11
ENDBRANCH   7   8
ENDBRANCH   1   7
BRANCH   6  13
ATOM     13  N   LIG d   1      -8.091  74.418 117.318  0.00  0.00    -0.311 N 
ATOM     14  C   LIG d   1      -8.441  73.372 118.065  0.00  0.00     0.210 C 
ATOM     15  C   LIG d   1      -8.856  72.125 117.277  0.00  0.00     0.109 C 
ATOM     16  O   LIG d   1      -8.478  73.369 119.304  0.00  0.00    -0.276 OA
ATOM     17  H   LIG d   1      -8.121  74.343 116.320  0.00  0.00     0.149 HD
ENDBRANCH   6  13
BRANCH   5  18
ATOM     18  N   LIG d   1      -9.865  76.348 118.886  0.00  0.00     0.381 N 
ATOM     19  H   LIG d   1     -10.662  76.050 118.360  0.00  0.00    -0.090 HD
ATOM     20  H   LIG d   1     -10.133  77.141 119.442  0.00  0.00    -0.090 HD
ATOM     21  H   LIG d   1      -9.553  75.609 119.477  0.00  0.00    -0.090 HD
ENDBRANCH   5  18
BRANCH   3  22
ATOM     22  C   LIG d   1      -6.864  79.872 117.658  0.00  0.00     0.382 C 
ATOM     23  O   LIG d   1      -5.689  80.314 117.651  0.00  0.00    -0.241 OA
ATOM     24  O   LIG d   1      -7.819  80.670 117.615  0.00  0.00    -0.241 OA
ENDBRANCH   3  22
TORSDOF 7
ENDMDL
MODEL 3
REMARK VINA RESULT:      -5.1      1.675      2.132
REMARK  7 active torsions:
REMARK  status: ('A' for Active; 'I' for Inactive)
REMARK    1  A    between atoms: C_2  and  C_3 
REMARK    2  A    between atoms: C_3  and  O_6 
REMARK    3  A    between atoms: C_3  and  C_4 
REMARK    4  A    between atoms: C_7  and  O_6 
REMARK    5  A    between atoms: C_9  and  C_10 
REMARK    6  A    between atoms: N_15  and  C_14 
REMARK    7  A    between atoms: N_20  and  C_19 
REMARK       I    between atoms: C_22  and  N_20 
ROOT
ATOM      1  C   LIG d   1      -7.192  76.975 117.889  0.00  0.00     0.161 C 
ATOM      2  C   LIG d   1      -8.458  77.504 118.190  0.00  0.00     0.016 C 
ATOM      3  C   LIG d   1      -8.710  78.888 118.330  0.00  0.00     0.038 C 
ATOM      4  C   LIG d   1      -7.738  79.853 118.028  0.00  0.00     0.028 C 
ATOM      5  C   LIG d   1      -6.310  79.351 118.212  0.00  0.00    -0.047 C 
ATOM      6  C   LIG d   1      -6.144  78.018 117.447  0.00  0.00     0.091 C 
ENDROOT
BRANCH   1   7
ATOM      7  O   LIG d   1      -7.319  75.939 116.895  0.00  0.00    -0.368 OA
BRANCH   7   8
ATOM      8  C   LIG d   1      -7.262  74.576 117.384  0.00  0.00     0.119 C 
BRANCH   8   9
ATOM      9  C   LIG d   1      -6.292  73.798 116.473  0.00  0.00     0.028 C 
ATOM     10  C   LIG d   1      -5.698  74.678 115.361  0.00  0.00     0.006 C 
ENDBRANCH   8   9
BRANCH   8  11
ATOM     11  C   LIG d   1      -8.614  73.873 117.230  0.00  0.00     0.028 C 
ATOM     12  C   LIG d   1      -8.522  72.354 117.441  0.00  0.00     0.006 C 
ENDBRANCH   8  11
ENDBRANCH   7   8
ENDBRANCH   1   7
BRANCH   6  13
ATOM     13  N   LIG d   1      -4.800  77.415 117.643  0.00  0.00    -0.311 N 
ATOM     14  C   LIG d   1      -3.785  77.598 116.801  0.00  0.00     0.210 C 
ATOM     15  C   LIG d   1      -2.491  76.870 117.179  0.00  0.00     0.109 C 
ATOM     16  O   LIG d   1      -3.823  78.319 115.793  0.00  0.00    -0.276 OA
ATOM     17  H   LIG d   1      -4.671  76.840 118.453  0.00  0.00     0.149 HD
ENDBRANCH   6  13
BRANCH   5  18
ATOM     18  N   LIG d   1      -5.401  80.409 117.732  0.00  0.00     0.381 N 
ATOM     19  H   LIG d   1      -4.571  79.997 117.354  0.00  0.00    -0.090 HD
ATOM     20  H   LIG d   1      -5.139  80.990 118.509  0.00  0.00    -0.090 HD
ATOM     21  H   LIG d   1      -5.854  80.958 117.035  0.00  0.00    -0.090 HD
ENDBRANCH   5  18
BRANCH   3  22
ATOM     22  C   LIG d   1      -9.936  79.317 118.815  0.00  0.00     0.382 C 
ATOM     23  O   LIG d   1     -10.097  80.519 119.138  0.00  0.00    -0.241 OA
ATOM     24  O   LIG d   1     -10.870  78.509 118.977  0.00  0.00    -0.241 OA
ENDBRANCH   3  22
TORSDOF 7
ENDMDL
MODEL 4
REMARK VINA RESULT:      -5.1      2.356      4.209
REMARK  7 active torsions:
REMARK  status: ('A' for Active; 'I' for Inactive)
REMARK    1  A    between atoms: C_2  and  C_3 
REMARK    2  A    between atoms: C_3  and  O_6 
REMARK    3  A    between atoms: C_3  and  C_4 
REMARK    4  A    between atoms: C_7  and  O_6 
REMARK    5  A    between atoms: C_9  and  C_10 
REMARK    6  A    between atoms: N_15  and  C_14 
REMARK    7  A    between atoms: N_20  and  C_19 
REMARK       I    between atoms: C_22  and  N_20 
ROOT
ATOM      1  C   LIG d   1      -8.299  75.290 116.974  0.00  0.00     0.161 C 
ATOM      2  C   LIG d   1      -8.258  76.640 117.361  0.00  0.00     0.016 C 
ATOM      3  C   LIG d   1      -8.386  77.070 118.702  0.00  0.00     0.038 C 
ATOM      4  C   LIG d   1      -8.413  76.163 119.772  0.00  0.00     0.028 C 
ATOM      5  C   LIG d   1      -8.966  74.794 119.391  0.00  0.00    -0.047 C 
ATOM      6  C   LIG d   1      -8.217  74.281 118.139  0.00  0.00     0.091 C 
ENDROOT
BRANCH   1   7
ATOM      7  O   LIG d   1      -7.262  75.026 116.009  0.00  0.00    -0.368 OA
BRANCH   7   8
ATOM      8  C   LIG d   1      -6.006  74.537 116.540  0.00  0.00     0.119 C 
BRANCH   8   9
ATOM      9  C   LIG d   1      -5.038  75.733 116.616  0.00  0.00     0.028 C 
ATOM     10  C   LIG d   1      -4.711  76.132 118.065  0.00  0.00     0.006 C 
ENDBRANCH   8   9
BRANCH   8  11
ATOM     11  C   LIG d   1      -5.346  73.541 115.582  0.00  0.00     0.028 C 
ATOM     12  C   LIG d   1      -5.923  72.122 115.706  0.00  0.00     0.006 C 
ENDBRANCH   8  11
ENDBRANCH   7   8
ENDBRANCH   1   7
BRANCH   6  13
ATOM     13  N   LIG d   1      -8.753  72.985 117.649  0.00  0.00    -0.311 N 
ATOM     14  C   LIG d   1      -8.406  71.806 118.164  0.00  0.00     0.210 C 
ATOM     15  C   LIG d   1      -9.061  70.592 117.499  0.00  0.00     0.109 C 
ATOM     16  O   LIG d   1      -7.643  71.654 119.130  0.00  0.00    -0.276 OA
ATOM     17  H   LIG d   1      -9.403  73.018 116.888  0.00  0.00     0.149 HD
ENDBRANCH   6  13
BRANCH   5  18
ATOM     18  N   LIG d   1      -8.809  73.909 120.561  0.00  0.00     0.381 N 
ATOM     19  H   LIG d   1      -8.288  73.095 120.302  0.00  0.00    -0.090 HD
ATOM     20  H   LIG d   1      -9.719  73.616 120.871  0.00  0.00    -0.090 HD
ATOM     21  H   LIG d   1      -8.340  74.393 121.294  0.00  0.00    -0.090 HD
ENDBRANCH   5  18
BRANCH   3  22
ATOM     22  C   LIG d   1      -8.528  78.421 118.980  0.00  0.00     0.382 C 
ATOM     23  O   LIG d   1      -7.997  79.275 118.230  0.00  0.00    -0.241 OA
ATOM     24  O   LIG d   1      -9.144  78.796 119.996  0.00  0.00    -0.241 OA
ENDBRANCH   3  22
TORSDOF 7
ENDMDL
MODEL 5
REMARK VINA RESULT:      -4.9      2.477      5.128
REMARK  7 active torsions:
REMARK  status: ('A' for Active; 'I' for Inactive)
REMARK    1  A    between atoms: C_2  and  C_3 
REMARK    2  A    between atoms: C_3  and  O_6 
REMARK    3  A    between atoms: C_3  and  C_4 
REMARK    4  A    between atoms: C_7  and  O_6 
REMARK    5  A    between atoms: C_9  and  C_10 
REMARK    6  A    between atoms: N_15  and  C_14 
REMARK    7  A    between atoms: N_20  and  C_19 
REMARK       I    between atoms: C_22  and  N_20 
ROOT
ATOM      1  C   LIG d   1      -7.585  74.793 117.903  0.00  0.00     0.161 C 
ATOM      2  C   LIG d   1      -7.671  73.434 117.559  0.00  0.00     0.016 C 
ATOM      3  C   LIG d   1      -8.221  72.449 118.411  0.00  0.00     0.038 C 
ATOM      4  C   LIG d   1      -8.865  72.783 119.612  0.00  0.00     0.028 C 
ATOM      5  C   LIG d   1      -8.354  74.079 120.233  0.00  0.00    -0.047 C 
ATOM      6  C   LIG d   1      -8.383  75.193 119.162  0.00  0.00     0.091 C 
ENDROOT
BRANCH   1   7
ATOM      7  O   LIG d   1      -7.980  75.607 116.780  0.00  0.00    -0.368 OA
BRANCH   7   8
ATOM      8  C   LIG d   1      -6.953  76.463 116.222  0.00  0.00     0.119 C 
BRANCH   8   9
ATOM      9  C   LIG d   1      -6.606  75.917 114.823  0.00  0.00     0.028 C 
ATOM     10  C   LIG d   1      -5.410  74.950 114.850  0.00  0.00     0.006 C 
ENDBRANCH   8   9
BRANCH   8  11
ATOM     11  C   LIG d   1      -5.653  76.372 117.026  0.00  0.00     0.028 C 
ATOM     12  C   LIG d   1      -5.147  77.744 117.498  0.00  0.00     0.006 C 
ENDBRANCH   8  11
ENDBRANCH   7   8
ENDBRANCH   1   7
BRANCH   6  13
ATOM     13  N   LIG d   1      -7.820  76.475 119.662  0.00  0.00    -0.311 N 
ATOM     14  C   LIG d   1      -8.502  77.619 119.677  0.00  0.00     0.210 C 
ATOM     15  C   LIG d   1      -7.728  78.826 120.215  0.00  0.00     0.109 C 
ATOM     16  O   LIG d   1      -9.685  77.741 119.325  0.00  0.00    -0.276 OA
ATOM     17  H   LIG d   1      -6.876  76.459 119.995  0.00  0.00     0.149 HD
ENDBRANCH   6  13
BRANCH   5  18
ATOM     18  N   LIG d   1      -9.203  74.378 121.401  0.00  0.00     0.381 N 
ATOM     19  H   LIG d   1      -8.845  75.178 121.884  0.00  0.00    -0.090 HD
ATOM     20  H   LIG d   1      -9.180  73.594 122.029  0.00  0.00    -0.090 HD
ATOM     21  H   LIG d   1     -10.140  74.550 121.108  0.00  0.00    -0.090 HD
ENDBRANCH   5  18
BRANCH   3  22
ATOM     22  C   LIG d   1      -8.094  71.108 118.083  0.00  0.00     0.382 C 
ATOM     23  O   LIG d   1      -8.961  70.284 118.463  0.00  0.00    -0.241 OA
ATOM     24  O   LIG d   1      -7.102  70.704 117.448  0.00  0.00    -0.241 OA
ENDBRANCH   3  22
TORSDOF 7
ENDMDL
MODEL 6
REMARK VINA RESULT:      -4.7      2.569      5.381
REMARK  7 active torsions:
REMARK  status: ('A' for Active; 'I' for Inactive)
REMARK    1  A    between atoms: C_2  and  C_3 
REMARK    2  A    between atoms: C_3  and  O_6 
REMARK    3  A    between atoms: C_3  and  C_4 
REMARK    4  A    between atoms: C_7  and  O_6 
REMARK    5  A    between atoms: C_9  and  C_10 
REMARK    6  A    between atoms: N_15  and  C_14 
REMARK    7  A    between atoms: N_20  and  C_19 
REMARK       I    between atoms: C_22  and  N_20 
ROOT
ATOM      1  C   LIG d   1      -6.450  77.552 117.725  0.00  0.00     0.161 C 
ATOM      2  C   LIG d   1      -6.896  76.221 117.669  0.00  0.00     0.016 C 
ATOM      3  C   LIG d   1      -8.223  75.832 117.963  0.00  0.00     0.038 C 
ATOM      4  C   LIG d   1      -9.239  76.773 118.189  0.00  0.00     0.028 C 
ATOM      5  C   LIG d   1      -8.726  78.095 118.751  0.00  0.00    -0.047 C 
ATOM      6  C   LIG d   1      -7.570  78.604 117.861  0.00  0.00     0.091 C 
ENDROOT
BRANCH   1   7
ATOM      7  O   LIG d   1      -5.628  77.840 116.576  0.00  0.00    -0.368 OA
BRANCH   7   8
ATOM      8  C   LIG d   1      -4.197  77.862 116.806  0.00  0.00     0.119 C 
BRANCH   8   9
ATOM      9  C   LIG d   1      -3.747  79.336 116.782  0.00  0.00     0.028 C 
ATOM     10  C   LIG d   1      -3.380  79.860 118.180  0.00  0.00     0.006 C 
ENDBRANCH   8   9
BRANCH   8  11
ATOM     11  C   LIG d   1      -3.439  77.188 115.659  0.00  0.00     0.028 C 
ATOM     12  C   LIG d   1      -2.451  78.135 114.960  0.00  0.00     0.006 C 
ENDBRANCH   8  11
ENDBRANCH   7   8
ENDBRANCH   1   7
BRANCH   6  13
ATOM     13  N   LIG d   1      -6.955  79.850 118.388  0.00  0.00    -0.311 N 
ATOM     14  C   LIG d   1      -7.321  81.070 117.999  0.00  0.00     0.210 C 
ATOM     15  C   LIG d   1      -6.545  82.218 118.653  0.00  0.00     0.109 C 
ATOM     16  O   LIG d   1      -8.237  81.312 117.198  0.00  0.00    -0.276 OA
ATOM     17  H   LIG d   1      -6.225  79.747 119.065  0.00  0.00     0.149 HD
ENDBRANCH   6  13
BRANCH   5  18
ATOM     18  N   LIG d   1      -9.867  79.028 118.808  0.00  0.00     0.381 N 
ATOM     19  H   LIG d   1     -10.355  79.019 117.935  0.00  0.00    -0.090 HD
ATOM     20  H   LIG d   1      -9.519  79.957 118.966  0.00  0.00    -0.090 HD
ATOM     21  H   LIG d   1     -10.485  78.767 119.545  0.00  0.00    -0.090 HD
ENDBRANCH   5  18
BRANCH   3  22
ATOM     22  C   LIG d   1      -8.536  74.486 118.074  0.00  0.00     0.382 C 
ATOM     23  O   LIG d   1      -8.812  73.820 117.047  0.00  0.00    -0.241 OA
ATOM     24  O   LIG d   1      -8.590  73.939 119.192  0.00  0.00    -0.241 OA
ENDBRANCH   3  22
TORSDOF 7
ENDMDL
MODEL 7
REMARK VINA RESULT:      -4.6     10.988     14.271
REMARK  7 active torsions:
REMARK  status: ('A' for Active; 'I' for Inactive)
REMARK    1  A    between atoms: C_2  and  C_3 
REMARK    2  A    between atoms: C_3  and  O_6 
REMARK    3  A    between atoms: C_3  and  C_4 
REMARK    4  A    between atoms: C_7  and  O_6 
REMARK    5  A    between atoms: C_9  and  C_10 
REMARK    6  A    between atoms: N_15  and  C_14 
REMARK    7  A    between atoms: N_20  and  C_19 
REMARK       I    between atoms: C_22  and  N_20 
ROOT
ATOM      1  C   LIG d   1     -15.253  64.486 119.015  0.00  0.00     0.161 C 
ATOM      2  C   LIG d   1     -15.297  63.166 119.495  0.00  0.00     0.016 C 
ATOM      3  C   LIG d   1     -15.913  62.104 118.795  0.00  0.00     0.038 C 
ATOM      4  C   LIG d   1     -16.399  62.260 117.488  0.00  0.00     0.028 C 
ATOM      5  C   LIG d   1     -16.828  63.688 117.168  0.00  0.00    -0.047 C 
ATOM      6  C   LIG d   1     -15.679  64.652 117.541  0.00  0.00     0.091 C 
ENDROOT
BRANCH   1   7
ATOM      7  O   LIG d   1     -13.937  65.037 119.221  0.00  0.00    -0.368 OA
BRANCH   7   8
ATOM      8  C   LIG d   1     -13.801  65.968 120.322  0.00  0.00     0.119 C 
BRANCH   8   9
ATOM      9  C   LIG d   1     -13.477  67.350 119.722  0.00  0.00     0.028 C 
ATOM     10  C   LIG d   1     -12.636  68.220 120.672  0.00  0.00     0.006 C 
ENDBRANCH   8   9
BRANCH   8  11
ATOM     11  C   LIG d   1     -12.599  65.617 121.204  0.00  0.00     0.028 C 
ATOM     12  C   LIG d   1     -12.312  64.108 121.246  0.00  0.00     0.006 C 
ENDBRANCH   8  11
ENDBRANCH   7   8
ENDBRANCH   1   7
BRANCH   6  13
ATOM     13  N   LIG d   1     -16.047  66.078 117.338  0.00  0.00    -0.311 N 
ATOM     14  C   LIG d   1     -15.831  66.736 116.200  0.00  0.00     0.210 C 
ATOM     15  C   LIG d   1     -16.269  68.204 116.209  0.00  0.00     0.109 C 
ATOM     16  O   LIG d   1     -15.348  66.234 115.174  0.00  0.00    -0.276 OA
ATOM     17  H   LIG d   1     -16.473  66.553 118.109  0.00  0.00     0.149 HD
ENDBRANCH   6  13
BRANCH   5  18
ATOM     18  N   LIG d   1     -17.182  63.736 115.737  0.00  0.00     0.381 N 
ATOM     19  H   LIG d   1     -16.360  63.611 115.180  0.00  0.00    -0.090 HD
ATOM     20  H   LIG d   1     -17.569  64.640 115.528  0.00  0.00    -0.090 HD
ATOM     21  H   LIG d   1     -17.847  63.025 115.525  0.00  0.00    -0.090 HD
ENDBRANCH   5  18
BRANCH   3  22
ATOM     22  C   LIG d   1     -16.085  60.878 119.419  0.00  0.00     0.382 C 
ATOM     23  O   LIG d   1     -17.234  60.390 119.538  0.00  0.00    -0.241 OA
ATOM     24  O   LIG d   1     -15.109  60.274 119.905  0.00  0.00    -0.241 OA
ENDBRANCH   3  22
TORSDOF 7
ENDMDL
MODEL 8
REMARK VINA RESULT:      -4.6     10.576     12.869
REMARK  7 active torsions:
REMARK  status: ('A' for Active; 'I' for Inactive)
REMARK    1  A    between atoms: C_2  and  C_3 
REMARK    2  A    between atoms: C_3  and  O_6 
REMARK    3  A    between atoms: C_3  and  C_4 
REMARK    4  A    between atoms: C_7  and  O_6 
REMARK    5  A    between atoms: C_9  and  C_10 
REMARK    6  A    between atoms: N_15  and  C_14 
REMARK    7  A    between atoms: N_20  and  C_19 
REMARK       I    between atoms: C_22  and  N_20 
ROOT
ATOM      1  C   LIG d   1     -15.849  65.780 118.847  0.00  0.00     0.161 C 
ATOM      2  C   LIG d   1     -15.839  67.180 118.962  0.00  0.00     0.016 C 
ATOM      3  C   LIG d   1     -14.822  67.898 119.632  0.00  0.00     0.038 C 
ATOM      4  C   LIG d   1     -13.660  67.271 120.106  0.00  0.00     0.028 C 
ATOM      5  C   LIG d   1     -13.865  65.802 120.457  0.00  0.00    -0.047 C 
ATOM      6  C   LIG d   1     -14.533  65.088 119.260  0.00  0.00     0.091 C 
ENDROOT
BRANCH   1   7
ATOM      7  O   LIG d   1     -16.213  65.402 117.505  0.00  0.00    -0.368 OA
BRANCH   7   8
ATOM      8  C   LIG d   1     -16.747  66.458 116.669  0.00  0.00     0.119 C 
BRANCH   8   9
ATOM      9  C   LIG d   1     -18.165  66.035 116.238  0.00  0.00     0.028 C 
ATOM     10  C   LIG d   1     -19.246  66.527 117.215  0.00  0.00     0.006 C 
ENDBRANCH   8   9
BRANCH   8  11
ATOM     11  C   LIG d   1     -15.952  66.594 115.367  0.00  0.00     0.028 C 
ATOM     12  C   LIG d   1     -15.966  68.026 114.807  0.00  0.00     0.006 C 
ENDBRANCH   8  11
ENDBRANCH   7   8
ENDBRANCH   1   7
BRANCH   6  13
ATOM     13  N   LIG d   1     -14.846  63.664 119.552  0.00  0.00    -0.311 N 
ATOM     14  C   LIG d   1     -13.998  62.664 119.319  0.00  0.00     0.210 C 
ATOM     15  C   LIG d   1     -14.527  61.271 119.674  0.00  0.00     0.109 C 
ATOM     16  O   LIG d   1     -12.845  62.802 118.883  0.00  0.00    -0.276 OA
ATOM     17  H   LIG d   1     -15.749  63.465 119.937  0.00  0.00     0.149 HD
ENDBRANCH   6  13
BRANCH   5  18
ATOM     18  N   LIG d   1     -12.547  65.238 120.804  0.00  0.00     0.381 N 
ATOM     19  H   LIG d   1     -12.078  64.937 119.974  0.00  0.00    -0.090 HD
ATOM     20  H   LIG d   1     -12.681  64.439 121.399  0.00  0.00    -0.090 HD
ATOM     21  H   LIG d   1     -11.996  65.923 121.275  0.00  0.00    -0.090 HD
ENDBRANCH   5  18
BRANCH   3  22
ATOM     22  C   LIG d   1     -14.982  69.255 119.870  0.00  0.00     0.382 C 
ATOM     23  O   LIG d   1     -14.615  69.748 120.964  0.00  0.00    -0.241 OA
ATOM     24  O   LIG d   1     -15.529  69.985 119.022  0.00  0.00    -0.241 OA
ENDBRANCH   3  22
TORSDOF 7
ENDMDL
MODEL 9
REMARK VINA RESULT:      -4.6      2.141      4.411
REMARK  7 active torsions:
REMARK  status: ('A' for Active; 'I' for Inactive)
REMARK    1  A    between atoms: C_2  and  C_3 
REMARK    2  A    between atoms: C_3  and  O_6 
REMARK    3  A    between atoms: C_3  and  C_4 
REMARK    4  A    between atoms: C_7  and  O_6 
REMARK    5  A    between atoms: C_9  and  C_10 
REMARK    6  A    between atoms: N_15  and  C_14 
REMARK    7  A    between atoms: N_20  and  C_19 
REMARK       I    between atoms: C_22  and  N_20 
ROOT
ATOM      1  C   LIG d   1      -6.487  76.064 116.982  0.00  0.00     0.161 C 
ATOM      2  C   LIG d   1      -7.044  74.776 117.046  0.00  0.00     0.016 C 
ATOM      3  C   LIG d   1      -8.151  74.447 117.862  0.00  0.00     0.038 C 
ATOM      4  C   LIG d   1      -8.876  75.425 118.558  0.00  0.00     0.028 C 
ATOM      5  C   LIG d   1      -8.045  76.652 118.920  0.00  0.00    -0.047 C 
ATOM      6  C   LIG d   1      -7.333  77.169 117.649  0.00  0.00     0.091 C 
ENDROOT
BRANCH   1   7
ATOM      7  O   LIG d   1      -6.208  76.407 115.610  0.00  0.00    -0.368 OA
BRANCH   7   8
ATOM      8  C   LIG d   1      -4.821  76.317 115.200  0.00  0.00     0.119 C 
BRANCH   8   9
ATOM      9  C   LIG d   1      -4.549  74.853 114.805  0.00  0.00     0.028 C 
ATOM     10  C   LIG d   1      -3.538  74.170 115.742  0.00  0.00     0.006 C 
ENDBRANCH   8   9
BRANCH   8  11
ATOM     11  C   LIG d   1      -3.875  76.604 116.370  0.00  0.00     0.028 C 
ATOM     12  C   LIG d   1      -3.240  78.001 116.294  0.00  0.00     0.006 C 
ENDBRANCH   8  11
ENDBRANCH   7   8
ENDBRANCH   1   7
BRANCH   6  13
ATOM     13  N   LIG d   1      -6.432  78.317 117.931  0.00  0.00    -0.311 N 
ATOM     14  C   LIG d   1      -6.820  79.589 117.854  0.00  0.00     0.210 C 
ATOM     15  C   LIG d   1      -5.728  80.617 118.165  0.00  0.00     0.109 C 
ATOM     16  O   LIG d   1      -7.973  79.962 117.590  0.00  0.00    -0.276 OA
ATOM     17  H   LIG d   1      -5.487  78.103 118.183  0.00  0.00     0.149 HD
ENDBRANCH   6  13
BRANCH   5  18
ATOM     18  N   LIG d   1      -8.955  77.646 119.518  0.00  0.00     0.381 N 
ATOM     19  H   LIG d   1      -9.787  77.719 118.967  0.00  0.00    -0.090 HD
ATOM     20  H   LIG d   1      -8.500  78.543 119.522  0.00  0.00    -0.090 HD
ATOM     21  H   LIG d   1      -9.187  77.380 120.450  0.00  0.00    -0.090 HD
ENDBRANCH   5  18
BRANCH   3  22
ATOM     22  C   LIG d   1      -8.519  73.119 118.018  0.00  0.00     0.382 C 
ATOM     23  O   LIG d   1      -9.048  72.499 117.064  0.00  0.00    -0.241 OA
ATOM     24  O   LIG d   1      -8.369  72.547 119.114  0.00  0.00    -0.241 OA
ENDBRANCH   3  22
TORSDOF 7
ENDMDL
