MODEL 1
REMARK VINA RESULT:      -5.7      0.000      0.000
REMARK  7 active torsions:
REMARK  status: ('A' for Active; 'I' for Inactive)
REMARK    1  A    between atoms: C_2  and  C_3 
REMARK    2  A    between atoms: C_3  and  O_6 
REMARK    3  A    between atoms: C_3  and  C_4 
REMARK    4  A    between atoms: C_7  and  O_6 
REMARK    5  A    between atoms: C_9  and  C_10 
REMARK    6  A    between atoms: N_15  and  C_14 
REMARK    7  A    between atoms: N_20  and  C_19 
REMARK       I    between atoms: C_22  and  N_20 
ROOT
ATOM      1  C   LIG d   1       0.350  57.862 116.627  0.00  0.00     0.161 C 
ATOM      2  C   LIG d   1      -0.374  59.034 116.898  0.00  0.00     0.016 C 
ATOM      3  C   LIG d   1      -1.746  59.040 117.243  0.00  0.00     0.038 C 
ATOM      4  C   LIG d   1      -2.453  57.854 117.489  0.00  0.00     0.028 C 
ATOM      5  C   LIG d   1      -1.897  56.650 116.737  0.00  0.00    -0.047 C 
ATOM      6  C   LIG d   1      -0.377  56.552 116.999  0.00  0.00     0.091 C 
ENDROOT
BRANCH   1   7
ATOM      7  O   LIG d   1       1.637  57.921 117.274  0.00  0.00    -0.368 OA
BRANCH   7   8
ATOM      8  C   LIG d   1       2.040  59.221 117.771  0.00  0.00     0.119 C 
BRANCH   8   9
ATOM      9  C   LIG d   1       3.435  59.526 117.191  0.00  0.00     0.028 C 
ATOM     10  C   LIG d   1       4.319  60.314 118.172  0.00  0.00     0.006 C 
ENDBRANCH   8   9
BRANCH   8  11
ATOM     11  C   LIG d   1       2.229  59.202 119.291  0.00  0.00     0.028 C 
ATOM     12  C   LIG d   1       1.051  59.838 120.045  0.00  0.00     0.006 C 
ENDBRANCH   8  11
ENDBRANCH   7   8
ENDBRANCH   1   7
BRANCH   6  13
ATOM     13  N   LIG d   1       0.261  55.450 116.232  0.00  0.00    -0.311 N 
ATOM     14  C   LIG d   1       0.975  54.479 116.800  0.00  0.00     0.210 C 
ATOM     15  C   LIG d   1       1.562  53.454 115.825  0.00  0.00     0.109 C 
ATOM     16  O   LIG d   1       1.150  54.352 118.021  0.00  0.00    -0.276 OA
ATOM     17  H   LIG d   1       0.143  55.459 115.238  0.00  0.00     0.149 HD
ENDBRANCH   6  13
BRANCH   5  18
ATOM     18  N   LIG d   1      -2.640  55.459 117.190  0.00  0.00     0.381 N 
ATOM     19  H   LIG d   1      -2.149  54.630 116.920  0.00  0.00    -0.090 HD
ATOM     20  H   LIG d   1      -3.542  55.450 116.747  0.00  0.00    -0.090 HD
ATOM     21  H   LIG d   1      -2.748  55.481 118.180  0.00  0.00    -0.090 HD
ENDBRANCH   5  18
BRANCH   3  22
ATOM     22  C   LIG d   1      -2.433  60.242 117.306  0.00  0.00     0.382 C 
ATOM     23  O   LIG d   1      -1.902  61.241 117.850  0.00  0.00    -0.241 OA
ATOM     24  O   LIG d   1      -3.596  60.329 116.866  0.00  0.00    -0.241 OA
ENDBRANCH   3  22
TORSDOF 7
ENDMDL
MODEL 2
REMARK VINA RESULT:      -5.5     33.163     35.030
REMARK  7 active torsions:
REMARK  status: ('A' for Active; 'I' for Inactive)
REMARK    1  A    between atoms: C_2  and  C_3 
REMARK    2  A    between atoms: C_3  and  O_6 
REMARK    3  A    between atoms: C_3  and  C_4 
REMARK    4  A    between atoms: C_7  and  O_6 
REMARK    5  A    between atoms: C_9  and  C_10 
REMARK    6  A    between atoms: N_15  and  C_14 
REMARK    7  A    between atoms: N_20  and  C_19 
REMARK       I    between atoms: C_22  and  N_20 
ROOT
ATOM      1  C   LIG d   1      -4.702  92.443 118.916  0.00  0.00     0.161 C 
ATOM      2  C   LIG d   1      -5.648  91.920 118.018  0.00  0.00     0.016 C 
ATOM      3  C   LIG d   1      -5.304  91.118 116.906  0.00  0.00     0.038 C 
ATOM      4  C   LIG d   1      -3.996  90.656 116.700  0.00  0.00     0.028 C 
ATOM      5  C   LIG d   1      -2.930  91.571 117.294  0.00  0.00    -0.047 C 
ATOM      6  C   LIG d   1      -3.281  91.858 118.772  0.00  0.00     0.091 C 
ENDROOT
BRANCH   1   7
ATOM      7  O   LIG d   1      -5.174  92.286 120.269  0.00  0.00    -0.368 OA
BRANCH   7   8
ATOM      8  C   LIG d   1      -5.545  93.504 120.960  0.00  0.00     0.119 C 
BRANCH   8   9
ATOM      9  C   LIG d   1      -7.076  93.488 121.134  0.00  0.00     0.028 C 
ATOM     10  C   LIG d   1      -7.800  94.292 120.040  0.00  0.00     0.006 C 
ENDBRANCH   8   9
BRANCH   8  11
ATOM     11  C   LIG d   1      -5.247  94.741 120.108  0.00  0.00     0.028 C 
ATOM     12  C   LIG d   1      -4.189  95.659 120.741  0.00  0.00     0.006 C 
ENDBRANCH   8  11
ENDBRANCH   7   8
ENDBRANCH   1   7
BRANCH   6  13
ATOM     13  N   LIG d   1      -2.335  92.813 119.404  0.00  0.00    -0.311 N 
ATOM     14  C   LIG d   1      -1.222  92.437 120.031  0.00  0.00     0.210 C 
ATOM     15  C   LIG d   1      -0.398  93.581 120.630  0.00  0.00     0.109 C 
ATOM     16  O   LIG d   1      -0.822  91.266 120.120  0.00  0.00    -0.276 OA
ATOM     17  H   LIG d   1      -2.566  93.786 119.352  0.00  0.00     0.149 HD
ENDBRANCH   6  13
BRANCH   5  18
ATOM     18  N   LIG d   1      -1.626  90.902 117.129  0.00  0.00     0.381 N 
ATOM     19  H   LIG d   1      -1.757  90.000 116.717  0.00  0.00    -0.090 HD
ATOM     20  H   LIG d   1      -1.207  90.778 118.034  0.00  0.00    -0.090 HD
ATOM     21  H   LIG d   1      -1.030  91.455 116.553  0.00  0.00    -0.090 HD
ENDBRANCH   5  18
BRANCH   3  22
ATOM     22  C   LIG d   1      -6.270  90.803 115.961  0.00  0.00     0.382 C 
ATOM     23  O   LIG d   1      -7.202  90.017 116.256  0.00  0.00    -0.241 OA
ATOM     24  O   LIG d   1      -6.195  91.260 114.805  0.00  0.00    -0.241 OA
ENDBRANCH   3  22
TORSDOF 7
ENDMDL
MODEL 3
REMARK VINA RESULT:      -5.2      2.761      4.116
REMARK  7 active torsions:
REMARK  status: ('A' for Active; 'I' for Inactive)
REMARK    1  A    between atoms: C_2  and  C_3 
REMARK    2  A    between atoms: C_3  and  O_6 
REMARK    3  A    between atoms: C_3  and  C_4 
REMARK    4  A    between atoms: C_7  and  O_6 
REMARK    5  A    between atoms: C_9  and  C_10 
REMARK    6  A    between atoms: N_15  and  C_14 
REMARK    7  A    between atoms: N_20  and  C_19 
REMARK       I    between atoms: C_22  and  N_20 
ROOT
ATOM      1  C   LIG d   1       0.403  59.490 118.700  0.00  0.00     0.161 C 
ATOM      2  C   LIG d   1      -0.987  59.389 118.524  0.00  0.00     0.016 C 
ATOM      3  C   LIG d   1      -1.607  59.310 117.256  0.00  0.00     0.038 C 
ATOM      4  C   LIG d   1      -0.864  59.174 116.074  0.00  0.00     0.028 C 
ATOM      5  C   LIG d   1       0.533  59.779 116.164  0.00  0.00    -0.047 C 
ATOM      6  C   LIG d   1       1.237  59.232 117.427  0.00  0.00     0.091 C 
ENDROOT
BRANCH   1   7
ATOM      7  O   LIG d   1       0.827  58.614 119.763  0.00  0.00    -0.368 OA
BRANCH   7   8
ATOM      8  C   LIG d   1       0.946  57.210 119.422  0.00  0.00     0.119 C 
BRANCH   8   9
ATOM      9  C   LIG d   1      -0.143  56.450 120.203  0.00  0.00     0.028 C 
ATOM     10  C   LIG d   1      -1.176  55.788 119.277  0.00  0.00     0.006 C 
ENDBRANCH   8   9
BRANCH   8  11
ATOM     11  C   LIG d   1       2.276  56.629 119.910  0.00  0.00     0.028 C 
ATOM     12  C   LIG d   1       3.074  57.615 120.778  0.00  0.00     0.006 C 
ENDBRANCH   8  11
ENDBRANCH   7   8
ENDBRANCH   1   7
BRANCH   6  13
ATOM     13  N   LIG d   1       2.577  59.838 117.637  0.00  0.00    -0.311 N 
ATOM     14  C   LIG d   1       3.718  59.170 117.468  0.00  0.00     0.210 C 
ATOM     15  C   LIG d   1       4.988  59.977 117.757  0.00  0.00     0.109 C 
ATOM     16  O   LIG d   1       3.799  57.996 117.077  0.00  0.00    -0.276 OA
ATOM     17  H   LIG d   1       2.605  60.796 117.925  0.00  0.00     0.149 HD
ENDBRANCH   6  13
BRANCH   5  18
ATOM     18  N   LIG d   1       1.245  59.446 114.916  0.00  0.00     0.381 N 
ATOM     19  H   LIG d   1       2.091  59.976 114.856  0.00  0.00    -0.090 HD
ATOM     20  H   LIG d   1       0.663  59.693 114.134  0.00  0.00    -0.090 HD
ATOM     21  H   LIG d   1       1.452  58.472 114.891  0.00  0.00    -0.090 HD
ENDBRANCH   5  18
BRANCH   3  22
ATOM     22  C   LIG d   1      -2.987  59.407 117.159  0.00  0.00     0.382 C 
ATOM     23  O   LIG d   1      -3.514  60.471 116.753  0.00  0.00    -0.241 OA
ATOM     24  O   LIG d   1      -3.713  58.459 117.513  0.00  0.00    -0.241 OA
ENDBRANCH   3  22
TORSDOF 7
ENDMDL
MODEL 4
REMARK VINA RESULT:      -4.8      2.242      4.702
REMARK  7 active torsions:
REMARK  status: ('A' for Active; 'I' for Inactive)
REMARK    1  A    between atoms: C_2  and  C_3 
REMARK    2  A    between atoms: C_3  and  O_6 
REMARK    3  A    between atoms: C_3  and  C_4 
REMARK    4  A    between atoms: C_7  and  O_6 
REMARK    5  A    between atoms: C_9  and  C_10 
REMARK    6  A    between atoms: N_15  and  C_14 
REMARK    7  A    between atoms: N_20  and  C_19 
REMARK       I    between atoms: C_22  and  N_20 
ROOT
ATOM      1  C   LIG d   1       0.619  58.151 119.005  0.00  0.00     0.161 C 
ATOM      2  C   LIG d   1       1.739  58.903 118.615  0.00  0.00     0.016 C 
ATOM      3  C   LIG d   1       2.844  58.354 117.924  0.00  0.00     0.038 C 
ATOM      4  C   LIG d   1       2.835  57.037 117.440  0.00  0.00     0.028 C 
ATOM      5  C   LIG d   1       1.943  56.101 118.247  0.00  0.00    -0.047 C 
ATOM      6  C   LIG d   1       0.542  56.739 118.387  0.00  0.00     0.091 C 
ENDROOT
BRANCH   1   7
ATOM      7  O   LIG d   1      -0.587  58.888 118.722  0.00  0.00    -0.368 OA
BRANCH   7   8
ATOM      8  C   LIG d   1      -1.240  58.583 117.465  0.00  0.00     0.119 C 
BRANCH   8   9
ATOM      9  C   LIG d   1      -0.939  59.741 116.494  0.00  0.00     0.028 C 
ATOM     10  C   LIG d   1      -0.079  59.297 115.299  0.00  0.00     0.006 C 
ENDBRANCH   8   9
BRANCH   8  11
ATOM     11  C   LIG d   1      -2.764  58.568 117.618  0.00  0.00     0.028 C 
ATOM     12  C   LIG d   1      -3.422  59.880 117.162  0.00  0.00     0.006 C 
ENDBRANCH   8  11
ENDBRANCH   7   8
ENDBRANCH   1   7
BRANCH   6  13
ATOM     13  N   LIG d   1      -0.369  55.926 119.236  0.00  0.00    -0.311 N 
ATOM     14  C   LIG d   1      -1.247  55.055 118.743  0.00  0.00     0.210 C 
ATOM     15  C   LIG d   1      -2.103  54.336 119.790  0.00  0.00     0.109 C 
ATOM     16  O   LIG d   1      -1.376  54.785 117.539  0.00  0.00    -0.276 OA
ATOM     17  H   LIG d   1      -0.309  56.059 120.226  0.00  0.00     0.149 HD
ENDBRANCH   6  13
BRANCH   5  18
ATOM     18  N   LIG d   1       1.919  54.799 117.553  0.00  0.00     0.381 N 
ATOM     19  H   LIG d   1       2.807  54.626 117.127  0.00  0.00    -0.090 HD
ATOM     20  H   LIG d   1       1.222  54.830 116.830  0.00  0.00    -0.090 HD
ATOM     21  H   LIG d   1       1.705  54.072 118.200  0.00  0.00    -0.090 HD
ENDBRANCH   5  18
BRANCH   3  22
ATOM     22  C   LIG d   1       3.990  59.113 117.746  0.00  0.00     0.382 C 
ATOM     23  O   LIG d   1       3.898  60.317 117.407  0.00  0.00    -0.241 OA
ATOM     24  O   LIG d   1       5.116  58.597 117.878  0.00  0.00    -0.241 OA
ENDBRANCH   3  22
TORSDOF 7
ENDMDL
MODEL 5
REMARK VINA RESULT:      -4.8     18.803     21.547
REMARK  7 active torsions:
REMARK  status: ('A' for Active; 'I' for Inactive)
REMARK    1  A    between atoms: C_2  and  C_3 
REMARK    2  A    between atoms: C_3  and  O_6 
REMARK    3  A    between atoms: C_3  and  C_4 
REMARK    4  A    between atoms: C_7  and  O_6 
REMARK    5  A    between atoms: C_9  and  C_10 
REMARK    6  A    between atoms: N_15  and  C_14 
REMARK    7  A    between atoms: N_20  and  C_19 
REMARK       I    between atoms: C_22  and  N_20 
ROOT
ATOM      1  C   LIG d   1      -6.012  77.718 117.962  0.00  0.00     0.161 C 
ATOM      2  C   LIG d   1      -7.231  77.021 118.001  0.00  0.00     0.016 C 
ATOM      3  C   LIG d   1      -8.476  77.645 118.246  0.00  0.00     0.038 C 
ATOM      4  C   LIG d   1      -8.605  79.040 118.319  0.00  0.00     0.028 C 
ATOM      5  C   LIG d   1      -7.335  79.742 118.788  0.00  0.00    -0.047 C 
ATOM      6  C   LIG d   1      -6.146  79.255 117.929  0.00  0.00     0.091 C 
ENDROOT
BRANCH   1   7
ATOM      7  O   LIG d   1      -5.223  77.260 116.846  0.00  0.00    -0.368 OA
BRANCH   7   8
ATOM      8  C   LIG d   1      -4.926  75.842 116.814  0.00  0.00     0.119 C 
BRANCH   8   9
ATOM      9  C   LIG d   1      -3.394  75.689 116.880  0.00  0.00     0.028 C 
ATOM     10  C   LIG d   1      -2.956  74.585 117.857  0.00  0.00     0.006 C 
ENDBRANCH   8   9
BRANCH   8  11
ATOM     11  C   LIG d   1      -5.339  75.216 115.480  0.00  0.00     0.028 C 
ATOM     12  C   LIG d   1      -6.175  73.938 115.655  0.00  0.00     0.006 C 
ENDBRANCH   8  11
ENDBRANCH   7   8
ENDBRANCH   1   7
BRANCH   6  13
ATOM     13  N   LIG d   1      -4.850  79.829 118.377  0.00  0.00    -0.311 N 
ATOM     14  C   LIG d   1      -4.325  80.941 117.866  0.00  0.00     0.210 C 
ATOM     15  C   LIG d   1      -2.971  81.348 118.456  0.00  0.00     0.109 C 
ATOM     16  O   LIG d   1      -4.867  81.647 117.002  0.00  0.00    -0.276 OA
ATOM     17  H   LIG d   1      -4.357  79.337 119.097  0.00  0.00     0.149 HD
ENDBRANCH   6  13
BRANCH   5  18
ATOM     18  N   LIG d   1      -7.565  81.195 118.686  0.00  0.00     0.381 N 
ATOM     19  H   LIG d   1      -7.168  81.542 117.836  0.00  0.00    -0.090 HD
ATOM     20  H   LIG d   1      -7.109  81.651 119.457  0.00  0.00    -0.090 HD
ATOM     21  H   LIG d   1      -8.542  81.388 118.708  0.00  0.00    -0.090 HD
ENDBRANCH   5  18
BRANCH   3  22
ATOM     22  C   LIG d   1      -9.604  76.867 118.460  0.00  0.00     0.382 C 
ATOM     23  O   LIG d   1      -9.517  75.616 118.429  0.00  0.00    -0.241 OA
ATOM     24  O   LIG d   1     -10.715  77.401 118.639  0.00  0.00    -0.241 OA
ENDBRANCH   3  22
TORSDOF 7
ENDMDL
MODEL 6
REMARK VINA RESULT:      -4.6     19.717     22.381
REMARK  7 active torsions:
REMARK  status: ('A' for Active; 'I' for Inactive)
REMARK    1  A    between atoms: C_2  and  C_3 
REMARK    2  A    between atoms: C_3  and  O_6 
REMARK    3  A    between atoms: C_3  and  C_4 
REMARK    4  A    between atoms: C_7  and  O_6 
REMARK    5  A    between atoms: C_9  and  C_10 
REMARK    6  A    between atoms: N_15  and  C_14 
REMARK    7  A    between atoms: N_20  and  C_19 
REMARK       I    between atoms: C_22  and  N_20 
ROOT
ATOM      1  C   LIG d   1      -6.233  78.449 118.310  0.00  0.00     0.161 C 
ATOM      2  C   LIG d   1      -7.391  77.654 118.285  0.00  0.00     0.016 C 
ATOM      3  C   LIG d   1      -8.700  78.186 118.341  0.00  0.00     0.038 C 
ATOM      4  C   LIG d   1      -8.944  79.566 118.273  0.00  0.00     0.028 C 
ATOM      5  C   LIG d   1      -7.792  80.411 118.806  0.00  0.00    -0.047 C 
ATOM      6  C   LIG d   1      -6.480  79.960 118.124  0.00  0.00     0.091 C 
ENDROOT
BRANCH   1   7
ATOM      7  O   LIG d   1      -5.291  77.971 117.329  0.00  0.00    -0.368 OA
BRANCH   7   8
ATOM      8  C   LIG d   1      -4.141  77.256 117.844  0.00  0.00     0.119 C 
BRANCH   8   9
ATOM      9  C   LIG d   1      -2.890  78.093 117.513  0.00  0.00     0.028 C 
ATOM     10  C   LIG d   1      -2.985  78.771 116.135  0.00  0.00     0.006 C 
ENDBRANCH   8   9
BRANCH   8  11
ATOM     11  C   LIG d   1      -3.941  75.923 117.117  0.00  0.00     0.028 C 
ATOM     12  C   LIG d   1      -5.100  75.583 116.166  0.00  0.00     0.006 C 
ENDBRANCH   8  11
ENDBRANCH   7   8
ENDBRANCH   1   7
BRANCH   6  13
ATOM     13  N   LIG d   1      -5.291  80.679 118.650  0.00  0.00    -0.311 N 
ATOM     14  C   LIG d   1      -4.589  81.557 117.935  0.00  0.00     0.210 C 
ATOM     15  C   LIG d   1      -3.388  82.169 118.662  0.00  0.00     0.109 C 
ATOM     16  O   LIG d   1      -4.866  81.910 116.779  0.00  0.00    -0.276 OA
ATOM     17  H   LIG d   1      -5.015  80.476 119.591  0.00  0.00     0.149 HD
ENDBRANCH   6  13
BRANCH   5  18
ATOM     18  N   LIG d   1      -8.121  81.826 118.549  0.00  0.00     0.381 N 
ATOM     19  H   LIG d   1      -8.011  82.357 119.389  0.00  0.00    -0.090 HD
ATOM     20  H   LIG d   1      -9.081  81.889 118.260  0.00  0.00    -0.090 HD
ATOM     21  H   LIG d   1      -7.527  82.190 117.837  0.00  0.00    -0.090 HD
ENDBRANCH   5  18
BRANCH   3  22
ATOM     22  C   LIG d   1      -9.781  77.334 118.506  0.00  0.00     0.382 C 
ATOM     23  O   LIG d   1     -10.832  77.752 119.050  0.00  0.00    -0.241 OA
ATOM     24  O   LIG d   1      -9.704  76.140 118.158  0.00  0.00    -0.241 OA
ENDBRANCH   3  22
TORSDOF 7
ENDMDL
MODEL 7
REMARK VINA RESULT:      -4.6     15.838     18.952
REMARK  7 active torsions:
REMARK  status: ('A' for Active; 'I' for Inactive)
REMARK    1  A    between atoms: C_2  and  C_3 
REMARK    2  A    between atoms: C_3  and  O_6 
REMARK    3  A    between atoms: C_3  and  C_4 
REMARK    4  A    between atoms: C_7  and  O_6 
REMARK    5  A    between atoms: C_9  and  C_10 
REMARK    6  A    between atoms: N_15  and  C_14 
REMARK    7  A    between atoms: N_20  and  C_19 
REMARK       I    between atoms: C_22  and  N_20 
ROOT
ATOM      1  C   LIG d   1     -16.803  64.841 117.914  0.00  0.00     0.161 C 
ATOM      2  C   LIG d   1     -15.710  65.480 117.303  0.00  0.00     0.016 C 
ATOM      3  C   LIG d   1     -15.804  66.732 116.653  0.00  0.00     0.038 C 
ATOM      4  C   LIG d   1     -16.973  67.507 116.703  0.00  0.00     0.028 C 
ATOM      5  C   LIG d   1     -18.242  66.679 116.873  0.00  0.00    -0.047 C 
ATOM      6  C   LIG d   1     -18.059  65.722 118.074  0.00  0.00     0.091 C 
ENDROOT
BRANCH   1   7
ATOM      7  O   LIG d   1     -16.403  64.302 119.189  0.00  0.00    -0.368 OA
BRANCH   7   8
ATOM      8  C   LIG d   1     -14.986  64.352 119.486  0.00  0.00     0.119 C 
BRANCH   8   9
ATOM      9  C   LIG d   1     -14.546  62.930 119.886  0.00  0.00     0.028 C 
ATOM     10  C   LIG d   1     -13.575  62.308 118.869  0.00  0.00     0.006 C 
ENDBRANCH   8   9
BRANCH   8  11
ATOM     11  C   LIG d   1     -14.704  65.224 120.714  0.00  0.00     0.028 C 
ATOM     12  C   LIG d   1     -13.926  66.504 120.370  0.00  0.00     0.006 C 
ENDBRANCH   8  11
ENDBRANCH   7   8
ENDBRANCH   1   7
BRANCH   6  13
ATOM     13  N   LIG d   1     -19.223  64.816 118.259  0.00  0.00    -0.311 N 
ATOM     14  C   LIG d   1     -20.238  65.085 119.078  0.00  0.00     0.210 C 
ATOM     15  C   LIG d   1     -21.325  64.007 119.135  0.00  0.00     0.109 C 
ATOM     16  O   LIG d   1     -20.357  66.127 119.739  0.00  0.00    -0.276 OA
ATOM     17  H   LIG d   1     -19.223  63.962 117.737  0.00  0.00     0.149 HD
ENDBRANCH   6  13
BRANCH   5  18
ATOM     18  N   LIG d   1     -19.366  67.617 117.047  0.00  0.00     0.381 N 
ATOM     19  H   LIG d   1     -19.587  68.048 116.171  0.00  0.00    -0.090 HD
ATOM     20  H   LIG d   1     -19.092  68.337 117.692  0.00  0.00    -0.090 HD
ATOM     21  H   LIG d   1     -20.163  67.133 117.398  0.00  0.00    -0.090 HD
ENDBRANCH   5  18
BRANCH   3  22
ATOM     22  C   LIG d   1     -14.732  67.203 115.911  0.00  0.00     0.382 C 
ATOM     23  O   LIG d   1     -14.937  67.852 114.857  0.00  0.00    -0.241 OA
ATOM     24  O   LIG d   1     -13.563  66.950 116.258  0.00  0.00    -0.241 OA
ENDBRANCH   3  22
TORSDOF 7
ENDMDL
MODEL 8
REMARK VINA RESULT:      -4.5     17.533     19.617
REMARK  7 active torsions:
REMARK  status: ('A' for Active; 'I' for Inactive)
REMARK    1  A    between atoms: C_2  and  C_3 
REMARK    2  A    between atoms: C_3  and  O_6 
REMARK    3  A    between atoms: C_3  and  C_4 
REMARK    4  A    between atoms: C_7  and  O_6 
REMARK    5  A    between atoms: C_9  and  C_10 
REMARK    6  A    between atoms: N_15  and  C_14 
REMARK    7  A    between atoms: N_20  and  C_19 
REMARK       I    between atoms: C_22  and  N_20 
ROOT
ATOM      1  C   LIG d   1     -17.045  65.122 118.072  0.00  0.00     0.161 C 
ATOM      2  C   LIG d   1     -16.214  66.135 117.566  0.00  0.00     0.016 C 
ATOM      3  C   LIG d   1     -15.703  66.137 116.247  0.00  0.00     0.038 C 
ATOM      4  C   LIG d   1     -16.116  65.197 115.291  0.00  0.00     0.028 C 
ATOM      5  C   LIG d   1     -16.558  63.870 115.898  0.00  0.00    -0.047 C 
ATOM      6  C   LIG d   1     -17.595  64.147 117.010  0.00  0.00     0.091 C 
ENDROOT
BRANCH   1   7
ATOM      7  O   LIG d   1     -18.127  65.708 118.823  0.00  0.00    -0.368 OA
BRANCH   7   8
ATOM      8  C   LIG d   1     -18.596  66.999 118.363  0.00  0.00     0.119 C 
BRANCH   8   9
ATOM      9  C   LIG d   1     -18.824  67.878 119.608  0.00  0.00     0.028 C 
ATOM     10  C   LIG d   1     -17.761  67.645 120.695  0.00  0.00     0.006 C 
ENDBRANCH   8   9
BRANCH   8  11
ATOM     11  C   LIG d   1     -19.967  66.887 117.689  0.00  0.00     0.028 C 
ATOM     12  C   LIG d   1     -21.093  67.521 118.520  0.00  0.00     0.006 C 
ENDBRANCH   8  11
ENDBRANCH   7   8
ENDBRANCH   1   7
BRANCH   6  13
ATOM     13  N   LIG d   1     -18.018  62.908 117.713  0.00  0.00    -0.311 N 
ATOM     14  C   LIG d   1     -19.290  62.541 117.853  0.00  0.00     0.210 C 
ATOM     15  C   LIG d   1     -19.507  61.239 118.630  0.00  0.00     0.109 C 
ATOM     16  O   LIG d   1     -20.259  63.155 117.380  0.00  0.00    -0.276 OA
ATOM     17  H   LIG d   1     -17.294  62.335 118.101  0.00  0.00     0.149 HD
ENDBRANCH   6  13
BRANCH   5  18
ATOM     18  N   LIG d   1     -17.091  63.035 114.805  0.00  0.00     0.381 N 
ATOM     19  H   LIG d   1     -17.288  63.606 114.008  0.00  0.00    -0.090 HD
ATOM     20  H   LIG d   1     -17.949  62.611 115.109  0.00  0.00    -0.090 HD
ATOM     21  H   LIG d   1     -16.431  62.329 114.562  0.00  0.00    -0.090 HD
ENDBRANCH   5  18
BRANCH   3  22
ATOM     22  C   LIG d   1     -14.739  67.065 115.885  0.00  0.00     0.382 C 
ATOM     23  O   LIG d   1     -15.012  67.961 115.050  0.00  0.00    -0.241 OA
ATOM     24  O   LIG d   1     -13.585  66.990 116.349  0.00  0.00    -0.241 OA
ENDBRANCH   3  22
TORSDOF 7
ENDMDL
MODEL 9
REMARK VINA RESULT:      -4.4     33.180     35.635
REMARK  7 active torsions:
REMARK  status: ('A' for Active; 'I' for Inactive)
REMARK    1  A    between atoms: C_2  and  C_3 
REMARK    2  A    between atoms: C_3  and  O_6 
REMARK    3  A    between atoms: C_3  and  C_4 
REMARK    4  A    between atoms: C_7  and  O_6 
REMARK    5  A    between atoms: C_9  and  C_10 
REMARK    6  A    between atoms: N_15  and  C_14 
REMARK    7  A    between atoms: N_20  and  C_19 
REMARK       I    between atoms: C_22  and  N_20 
ROOT
ATOM      1  C   LIG d   1      -4.787  92.737 119.527  0.00  0.00     0.161 C 
ATOM      2  C   LIG d   1      -5.416  92.065 118.466  0.00  0.00     0.016 C 
ATOM      3  C   LIG d   1      -4.744  91.170 117.603  0.00  0.00     0.038 C 
ATOM      4  C   LIG d   1      -3.420  90.768 117.837  0.00  0.00     0.028 C 
ATOM      5  C   LIG d   1      -2.598  91.804 118.596  0.00  0.00    -0.047 C 
ATOM      6  C   LIG d   1      -3.371  92.226 119.866  0.00  0.00     0.091 C 
ENDROOT
BRANCH   1   7
ATOM      7  O   LIG d   1      -5.627  92.698 120.697  0.00  0.00    -0.368 OA
BRANCH   7   8
ATOM      8  C   LIG d   1      -6.205  93.961 121.109  0.00  0.00     0.119 C 
BRANCH   8   9
ATOM      9  C   LIG d   1      -7.737  93.816 121.034  0.00  0.00     0.028 C 
ATOM     10  C   LIG d   1      -8.289  94.137 119.635  0.00  0.00     0.006 C 
ENDBRANCH   8   9
BRANCH   8  11
ATOM     11  C   LIG d   1      -5.855  95.081 120.125  0.00  0.00     0.028 C 
ATOM     12  C   LIG d   1      -5.137  96.263 120.797  0.00  0.00     0.006 C 
ENDBRANCH   8  11
ENDBRANCH   7   8
ENDBRANCH   1   7
BRANCH   6  13
ATOM     13  N   LIG d   1      -2.675  93.299 120.623  0.00  0.00    -0.311 N 
ATOM     14  C   LIG d   1      -1.981  94.275 120.040  0.00  0.00     0.210 C 
ATOM     15  C   LIG d   1      -1.325  95.268 121.005  0.00  0.00     0.109 C 
ATOM     16  O   LIG d   1      -1.872  94.432 118.815  0.00  0.00    -0.276 OA
ATOM     17  H   LIG d   1      -2.737  93.267 121.622  0.00  0.00     0.149 HD
ENDBRANCH   6  13
BRANCH   5  18
ATOM     18  N   LIG d   1      -1.285  91.200 118.892  0.00  0.00     0.381 N 
ATOM     19  H   LIG d   1      -1.002  90.614 118.132  0.00  0.00    -0.090 HD
ATOM     20  H   LIG d   1      -1.367  90.632 119.716  0.00  0.00    -0.090 HD
ATOM     21  H   LIG d   1      -0.606  91.915 119.039  0.00  0.00    -0.090 HD
ENDBRANCH   5  18
BRANCH   3  22
ATOM     22  C   LIG d   1      -5.384  90.698 116.467  0.00  0.00     0.382 C 
ATOM     23  O   LIG d   1      -6.573  91.026 116.236  0.00  0.00    -0.241 OA
ATOM     24  O   LIG d   1      -4.803  89.913 115.694  0.00  0.00    -0.241 OA
ENDBRANCH   3  22
TORSDOF 7
ENDMDL
