MODEL 1
REMARK VINA RESULT:      -5.5      0.000      0.000
REMARK  7 active torsions:
REMARK  status: ('A' for Active; 'I' for Inactive)
REMARK    1  A    between atoms: C_2  and  C_3 
REMARK    2  A    between atoms: C_3  and  O_6 
REMARK    3  A    between atoms: C_3  and  C_4 
REMARK    4  A    between atoms: C_7  and  O_6 
REMARK    5  A    between atoms: C_9  and  C_10 
REMARK    6  A    between atoms: N_15  and  C_14 
REMARK    7  A    between atoms: N_20  and  C_19 
REMARK       I    between atoms: C_22  and  N_20 
ROOT
ATOM      1  C   LIG d   1      -7.562  74.715 118.614  0.00  0.00     0.161 C 
ATOM      2  C   LIG d   1      -7.520  73.443 118.020  0.00  0.00     0.016 C 
ATOM      3  C   LIG d   1      -8.594  72.891 117.285  0.00  0.00     0.038 C 
ATOM      4  C   LIG d   1      -9.736  73.641 116.964  0.00  0.00     0.028 C 
ATOM      5  C   LIG d   1     -10.034  74.749 117.969  0.00  0.00    -0.047 C 
ATOM      6  C   LIG d   1      -8.756  75.592 118.182  0.00  0.00     0.091 C 
ENDROOT
BRANCH   1   7
ATOM      7  O   LIG d   1      -6.321  75.407 118.377  0.00  0.00    -0.368 OA
BRANCH   7   8
ATOM      8  C   LIG d   1      -5.660  75.119 117.120  0.00  0.00     0.119 C 
BRANCH   8   9
ATOM      9  C   LIG d   1      -4.142  75.143 117.378  0.00  0.00     0.028 C 
ATOM     10  C   LIG d   1      -3.341  75.557 116.132  0.00  0.00     0.006 C 
ENDBRANCH   8   9
BRANCH   8  11
ATOM     11  C   LIG d   1      -5.914  76.224 116.091  0.00  0.00     0.028 C 
ATOM     12  C   LIG d   1      -6.887  75.793 114.982  0.00  0.00     0.006 C 
ENDBRANCH   8  11
ENDBRANCH   7   8
ENDBRANCH   1   7
BRANCH   6  13
ATOM     13  N   LIG d   1      -8.937  76.646 119.213  0.00  0.00    -0.311 N 
ATOM     14  C   LIG d   1      -9.450  77.847 118.952  0.00  0.00     0.210 C 
ATOM     15  C   LIG d   1      -9.531  78.791 120.155  0.00  0.00     0.109 C 
ATOM     16  O   LIG d   1      -9.876  78.209 117.845  0.00  0.00    -0.276 OA
ATOM     17  H   LIG d   1      -8.647  76.426 120.146  0.00  0.00     0.149 HD
ENDBRANCH   6  13
BRANCH   5  18
ATOM     18  N   LIG d   1     -11.165  75.536 117.441  0.00  0.00     0.381 N 
ATOM     19  H   LIG d   1     -11.262  75.373 116.459  0.00  0.00    -0.090 HD
ATOM     20  H   LIG d   1     -10.974  76.513 117.580  0.00  0.00    -0.090 HD
ATOM     21  H   LIG d   1     -12.006  75.284 117.912  0.00  0.00    -0.090 HD
ENDBRANCH   5  18
BRANCH   3  22
ATOM     22  C   LIG d   1      -8.550  71.561 116.896  0.00  0.00     0.382 C 
ATOM     23  O   LIG d   1      -9.332  70.730 117.415  0.00  0.00    -0.241 OA
ATOM     24  O   LIG d   1      -7.707  71.174 116.064  0.00  0.00    -0.241 OA
ENDBRANCH   3  22
TORSDOF 7
ENDMDL
MODEL 2
REMARK VINA RESULT:      -5.4      2.478      5.606
REMARK  7 active torsions:
REMARK  status: ('A' for Active; 'I' for Inactive)
REMARK    1  A    between atoms: C_2  and  C_3 
REMARK    2  A    between atoms: C_3  and  O_6 
REMARK    3  A    between atoms: C_3  and  C_4 
REMARK    4  A    between atoms: C_7  and  O_6 
REMARK    5  A    between atoms: C_9  and  C_10 
REMARK    6  A    between atoms: N_15  and  C_14 
REMARK    7  A    between atoms: N_20  and  C_19 
REMARK       I    between atoms: C_22  and  N_20 
ROOT
ATOM      1  C   LIG d   1      -7.700  74.079 118.480  0.00  0.00     0.161 C 
ATOM      2  C   LIG d   1      -6.969  75.151 117.940  0.00  0.00     0.016 C 
ATOM      3  C   LIG d   1      -6.184  75.045 116.769  0.00  0.00     0.038 C 
ATOM      4  C   LIG d   1      -6.198  73.893 115.968  0.00  0.00     0.028 C 
ATOM      5  C   LIG d   1      -6.522  72.621 116.744  0.00  0.00    -0.047 C 
ATOM      6  C   LIG d   1      -7.816  72.846 117.560  0.00  0.00     0.091 C 
ENDROOT
BRANCH   1   7
ATOM      7  O   LIG d   1      -9.009  74.532 118.878  0.00  0.00    -0.368 OA
BRANCH   7   8
ATOM      8  C   LIG d   1      -9.411  75.833 118.383  0.00  0.00     0.119 C 
BRANCH   8   9
ATOM      9  C   LIG d   1      -9.893  76.660 119.591  0.00  0.00     0.028 C 
ATOM     10  C   LIG d   1     -11.422  76.634 119.747  0.00  0.00     0.006 C 
ENDBRANCH   8   9
BRANCH   8  11
ATOM     11  C   LIG d   1     -10.625  75.726 117.455  0.00  0.00     0.028 C 
ATOM     12  C   LIG d   1     -10.472  74.620 116.399  0.00  0.00     0.006 C 
ENDBRANCH   8  11
ENDBRANCH   7   8
ENDBRANCH   1   7
BRANCH   6  13
ATOM     13  N   LIG d   1      -8.159  71.679 118.413  0.00  0.00    -0.311 N 
ATOM     14  C   LIG d   1      -8.928  70.672 118.003  0.00  0.00     0.210 C 
ATOM     15  C   LIG d   1      -9.173  69.578 119.047  0.00  0.00     0.109 C 
ATOM     16  O   LIG d   1      -9.403  70.564 116.862  0.00  0.00    -0.276 OA
ATOM     17  H   LIG d   1      -7.789  71.669 119.343  0.00  0.00     0.149 HD
ENDBRANCH   6  13
BRANCH   5  18
ATOM     18  N   LIG d   1      -6.639  71.521 115.767  0.00  0.00     0.381 N 
ATOM     19  H   LIG d   1      -5.808  71.471 115.213  0.00  0.00    -0.090 HD
ATOM     20  H   LIG d   1      -7.415  71.710 115.156  0.00  0.00    -0.090 HD
ATOM     21  H   LIG d   1      -6.784  70.658 116.242  0.00  0.00    -0.090 HD
ENDBRANCH   5  18
BRANCH   3  22
ATOM     22  C   LIG d   1      -5.343  76.087 116.409  0.00  0.00     0.382 C 
ATOM     23  O   LIG d   1      -4.218  76.201 116.954  0.00  0.00    -0.241 OA
ATOM     24  O   LIG d   1      -5.712  76.940 115.580  0.00  0.00    -0.241 OA
ENDBRANCH   3  22
TORSDOF 7
ENDMDL
MODEL 3
REMARK VINA RESULT:      -5.3      2.602      5.334
REMARK  7 active torsions:
REMARK  status: ('A' for Active; 'I' for Inactive)
REMARK    1  A    between atoms: C_2  and  C_3 
REMARK    2  A    between atoms: C_3  and  O_6 
REMARK    3  A    between atoms: C_3  and  C_4 
REMARK    4  A    between atoms: C_7  and  O_6 
REMARK    5  A    between atoms: C_9  and  C_10 
REMARK    6  A    between atoms: N_15  and  C_14 
REMARK    7  A    between atoms: N_20  and  C_19 
REMARK       I    between atoms: C_22  and  N_20 
ROOT
ATOM      1  C   LIG d   1      -8.115  76.395 119.012  0.00  0.00     0.161 C 
ATOM      2  C   LIG d   1      -9.343  76.487 119.690  0.00  0.00     0.016 C 
ATOM      3  C   LIG d   1     -10.168  77.634 119.652  0.00  0.00     0.038 C 
ATOM      4  C   LIG d   1      -9.893  78.718 118.807  0.00  0.00     0.028 C 
ATOM      5  C   LIG d   1      -8.409  78.880 118.492  0.00  0.00    -0.047 C 
ATOM      6  C   LIG d   1      -7.852  77.526 117.996  0.00  0.00     0.091 C 
ENDROOT
BRANCH   1   7
ATOM      7  O   LIG d   1      -8.006  75.109 118.371  0.00  0.00    -0.368 OA
BRANCH   7   8
ATOM      8  C   LIG d   1      -9.066  74.163 118.654  0.00  0.00     0.119 C 
BRANCH   8   9
ATOM      9  C   LIG d   1      -8.424  72.935 119.326  0.00  0.00     0.028 C 
ATOM     10  C   LIG d   1      -9.100  71.618 118.910  0.00  0.00     0.006 C 
ENDBRANCH   8   9
BRANCH   8  11
ATOM     11  C   LIG d   1      -9.701  73.635 117.364  0.00  0.00     0.028 C 
ATOM     12  C   LIG d   1     -10.337  74.746 116.514  0.00  0.00     0.006 C 
ENDBRANCH   8  11
ENDBRANCH   7   8
ENDBRANCH   1   7
BRANCH   6  13
ATOM     13  N   LIG d   1      -6.388  77.574 117.746  0.00  0.00    -0.311 N 
ATOM     14  C   LIG d   1      -5.835  77.276 116.571  0.00  0.00     0.210 C 
ATOM     15  C   LIG d   1      -4.306  77.370 116.534  0.00  0.00     0.109 C 
ATOM     16  O   LIG d   1      -6.467  76.975 115.548  0.00  0.00    -0.276 OA
ATOM     17  H   LIG d   1      -5.802  77.839 118.514  0.00  0.00     0.149 HD
ENDBRANCH   6  13
BRANCH   5  18
ATOM     18  N   LIG d   1      -8.280  79.959 117.495  0.00  0.00     0.381 N 
ATOM     19  H   LIG d   1      -7.543  79.741 116.854  0.00  0.00    -0.090 HD
ATOM     20  H   LIG d   1      -8.044  80.813 117.969  0.00  0.00    -0.090 HD
ATOM     21  H   LIG d   1      -9.138  80.071 117.001  0.00  0.00    -0.090 HD
ENDBRANCH   5  18
BRANCH   3  22
ATOM     22  C   LIG d   1     -11.264  77.719 120.498  0.00  0.00     0.382 C 
ATOM     23  O   LIG d   1     -11.875  76.678 120.841  0.00  0.00    -0.241 OA
ATOM     24  O   LIG d   1     -11.677  78.828 120.887  0.00  0.00    -0.241 OA
ENDBRANCH   3  22
TORSDOF 7
ENDMDL
MODEL 4
REMARK VINA RESULT:      -5.3      2.366      5.493
REMARK  7 active torsions:
REMARK  status: ('A' for Active; 'I' for Inactive)
REMARK    1  A    between atoms: C_2  and  C_3 
REMARK    2  A    between atoms: C_3  and  O_6 
REMARK    3  A    between atoms: C_3  and  C_4 
REMARK    4  A    between atoms: C_7  and  O_6 
REMARK    5  A    between atoms: C_9  and  C_10 
REMARK    6  A    between atoms: N_15  and  C_14 
REMARK    7  A    between atoms: N_20  and  C_19 
REMARK       I    between atoms: C_22  and  N_20 
ROOT
ATOM      1  C   LIG d   1      -7.625  75.556 118.966  0.00  0.00     0.161 C 
ATOM      2  C   LIG d   1      -8.826  76.256 119.167  0.00  0.00     0.016 C 
ATOM      3  C   LIG d   1      -9.104  77.510 118.575  0.00  0.00     0.038 C 
ATOM      4  C   LIG d   1      -8.255  78.081 117.616  0.00  0.00     0.028 C 
ATOM      5  C   LIG d   1      -6.799  77.653 117.764  0.00  0.00    -0.047 C 
ATOM      6  C   LIG d   1      -6.734  76.111 117.835  0.00  0.00     0.091 C 
ENDROOT
BRANCH   1   7
ATOM      7  O   LIG d   1      -7.905  74.159 118.744  0.00  0.00    -0.368 OA
BRANCH   7   8
ATOM      8  C   LIG d   1      -8.170  73.773 117.373  0.00  0.00     0.119 C 
BRANCH   8   9
ATOM      9  C   LIG d   1      -9.684  73.514 117.249  0.00  0.00     0.028 C 
ATOM     10  C   LIG d   1     -10.407  74.624 116.468  0.00  0.00     0.006 C 
ENDBRANCH   8   9
BRANCH   8  11
ATOM     11  C   LIG d   1      -7.501  72.438 117.032  0.00  0.00     0.028 C 
ATOM     12  C   LIG d   1      -8.516  71.321 116.740  0.00  0.00     0.006 C 
ENDBRANCH   8  11
ENDBRANCH   7   8
ENDBRANCH   1   7
BRANCH   6  13
ATOM     13  N   LIG d   1      -5.353  75.611 118.065  0.00  0.00    -0.311 N 
ATOM     14  C   LIG d   1      -4.540  75.226 117.083  0.00  0.00     0.210 C 
ATOM     15  C   LIG d   1      -3.166  74.726 117.540  0.00  0.00     0.109 C 
ATOM     16  O   LIG d   1      -4.815  75.280 115.875  0.00  0.00    -0.276 OA
ATOM     17  H   LIG d   1      -5.037  75.564 119.014  0.00  0.00     0.149 HD
ENDBRANCH   6  13
BRANCH   5  18
ATOM     18  N   LIG d   1      -6.052  78.211 116.620  0.00  0.00     0.381 N 
ATOM     19  H   LIG d   1      -6.683  78.670 115.995  0.00  0.00    -0.090 HD
ATOM     20  H   LIG d   1      -5.607  77.458 116.124  0.00  0.00    -0.090 HD
ATOM     21  H   LIG d   1      -5.365  78.856 116.944  0.00  0.00    -0.090 HD
ENDBRANCH   5  18
BRANCH   3  22
ATOM     22  C   LIG d   1     -10.223  78.225 118.973  0.00  0.00     0.382 C 
ATOM     23  O   LIG d   1     -10.558  79.262 118.352  0.00  0.00    -0.241 OA
ATOM     24  O   LIG d   1     -10.878  77.870 119.972  0.00  0.00    -0.241 OA
ENDBRANCH   3  22
TORSDOF 7
ENDMDL
MODEL 5
REMARK VINA RESULT:      -5.2      2.052      4.616
REMARK  7 active torsions:
REMARK  status: ('A' for Active; 'I' for Inactive)
REMARK    1  A    between atoms: C_2  and  C_3 
REMARK    2  A    between atoms: C_3  and  O_6 
REMARK    3  A    between atoms: C_3  and  C_4 
REMARK    4  A    between atoms: C_7  and  O_6 
REMARK    5  A    between atoms: C_9  and  C_10 
REMARK    6  A    between atoms: N_15  and  C_14 
REMARK    7  A    between atoms: N_20  and  C_19 
REMARK       I    between atoms: C_22  and  N_20 
ROOT
ATOM      1  C   LIG d   1      -6.732  75.713 116.754  0.00  0.00     0.161 C 
ATOM      2  C   LIG d   1      -5.438  75.217 116.526  0.00  0.00     0.016 C 
ATOM      3  C   LIG d   1      -4.369  75.381 117.438  0.00  0.00     0.038 C 
ATOM      4  C   LIG d   1      -4.563  75.925 118.716  0.00  0.00     0.028 C 
ATOM      5  C   LIG d   1      -5.738  76.893 118.791  0.00  0.00    -0.047 C 
ATOM      6  C   LIG d   1      -6.989  76.212 118.192  0.00  0.00     0.091 C 
ENDROOT
BRANCH   1   7
ATOM      7  O   LIG d   1      -7.708  74.719 116.387  0.00  0.00    -0.368 OA
BRANCH   7   8
ATOM      8  C   LIG d   1      -8.123  73.813 117.439  0.00  0.00     0.119 C 
BRANCH   8   9
ATOM      9  C   LIG d   1      -7.657  72.399 117.043  0.00  0.00     0.028 C 
ATOM     10  C   LIG d   1      -8.831  71.418 116.881  0.00  0.00     0.006 C 
ENDBRANCH   8   9
BRANCH   8  11
ATOM     11  C   LIG d   1      -9.650  73.727 117.529  0.00  0.00     0.028 C 
ATOM     12  C   LIG d   1     -10.359  74.719 116.594  0.00  0.00     0.006 C 
ENDBRANCH   8  11
ENDBRANCH   7   8
ENDBRANCH   1   7
BRANCH   6  13
ATOM     13  N   LIG d   1      -8.164  77.120 118.149  0.00  0.00    -0.311 N 
ATOM     14  C   LIG d   1      -9.112  77.138 119.085  0.00  0.00     0.210 C 
ATOM     15  C   LIG d   1     -10.246  78.138 118.838  0.00  0.00     0.109 C 
ATOM     16  O   LIG d   1      -9.104  76.444 120.112  0.00  0.00    -0.276 OA
ATOM     17  H   LIG d   1      -8.233  77.740 117.366  0.00  0.00     0.149 HD
ENDBRANCH   6  13
BRANCH   5  18
ATOM     18  N   LIG d   1      -5.910  77.277 120.205  0.00  0.00     0.381 N 
ATOM     19  H   LIG d   1      -6.060  76.460 120.762  0.00  0.00    -0.090 HD
ATOM     20  H   LIG d   1      -6.720  77.866 120.286  0.00  0.00    -0.090 HD
ATOM     21  H   LIG d   1      -5.102  77.764 120.527  0.00  0.00    -0.090 HD
ENDBRANCH   5  18
BRANCH   3  22
ATOM     22  C   LIG d   1      -3.082  75.034 117.057  0.00  0.00     0.382 C 
ATOM     23  O   LIG d   1      -2.514  75.657 116.128  0.00  0.00    -0.241 OA
ATOM     24  O   LIG d   1      -2.498  74.078 117.601  0.00  0.00    -0.241 OA
ENDBRANCH   3  22
TORSDOF 7
ENDMDL
MODEL 6
REMARK VINA RESULT:      -5.1      2.097      5.119
REMARK  7 active torsions:
REMARK  status: ('A' for Active; 'I' for Inactive)
REMARK    1  A    between atoms: C_2  and  C_3 
REMARK    2  A    between atoms: C_3  and  O_6 
REMARK    3  A    between atoms: C_3  and  C_4 
REMARK    4  A    between atoms: C_7  and  O_6 
REMARK    5  A    between atoms: C_9  and  C_10 
REMARK    6  A    between atoms: N_15  and  C_14 
REMARK    7  A    between atoms: N_20  and  C_19 
REMARK       I    between atoms: C_22  and  N_20 
ROOT
ATOM      1  C   LIG d   1      -8.052  76.582 117.661  0.00  0.00     0.161 C 
ATOM      2  C   LIG d   1      -7.968  77.977 117.522  0.00  0.00     0.016 C 
ATOM      3  C   LIG d   1      -8.927  78.871 118.051  0.00  0.00     0.038 C 
ATOM      4  C   LIG d   1      -9.963  78.435 118.891  0.00  0.00     0.028 C 
ATOM      5  C   LIG d   1     -10.376  76.989 118.642  0.00  0.00    -0.047 C 
ATOM      6  C   LIG d   1      -9.115  76.095 118.668  0.00  0.00     0.091 C 
ENDROOT
BRANCH   1   7
ATOM      7  O   LIG d   1      -6.758  76.046 118.000  0.00  0.00    -0.368 OA
BRANCH   7   8
ATOM      8  C   LIG d   1      -5.884  75.739 116.886  0.00  0.00     0.119 C 
BRANCH   8   9
ATOM      9  C   LIG d   1      -6.642  74.774 115.954  0.00  0.00     0.028 C 
ATOM     10  C   LIG d   1      -6.469  73.302 116.365  0.00  0.00     0.006 C 
ENDBRANCH   8   9
BRANCH   8  11
ATOM     11  C   LIG d   1      -4.644  74.966 117.347  0.00  0.00     0.028 C 
ATOM     12  C   LIG d   1      -3.336  75.734 117.098  0.00  0.00     0.006 C 
ENDBRANCH   8  11
ENDBRANCH   7   8
ENDBRANCH   1   7
BRANCH   6  13
ATOM     13  N   LIG d   1      -9.419  74.676 118.350  0.00  0.00    -0.311 N 
ATOM     14  C   LIG d   1      -8.979  73.651 119.077  0.00  0.00     0.210 C 
ATOM     15  C   LIG d   1      -9.392  72.268 118.563  0.00  0.00     0.109 C 
ATOM     16  O   LIG d   1      -8.312  73.756 120.118  0.00  0.00    -0.276 OA
ATOM     17  H   LIG d   1      -9.981  74.500 117.540  0.00  0.00     0.149 HD
ENDBRANCH   6  13
BRANCH   5  18
ATOM     18  N   LIG d   1     -11.364  76.624 119.675  0.00  0.00     0.381 N 
ATOM     19  H   LIG d   1     -12.208  76.308 119.239  0.00  0.00    -0.090 HD
ATOM     20  H   LIG d   1     -11.578  77.439 120.223  0.00  0.00    -0.090 HD
ATOM     21  H   LIG d   1     -10.996  75.907 120.261  0.00  0.00    -0.090 HD
ENDBRANCH   5  18
BRANCH   3  22
ATOM     22  C   LIG d   1      -8.878  80.214 117.708  0.00  0.00     0.382 C 
ATOM     23  O   LIG d   1      -7.948  80.642 116.982  0.00  0.00    -0.241 OA
ATOM     24  O   LIG d   1      -9.726  81.011 118.152  0.00  0.00    -0.241 OA
ENDBRANCH   3  22
TORSDOF 7
ENDMDL
MODEL 7
REMARK VINA RESULT:      -5.0      2.982      6.075
REMARK  7 active torsions:
REMARK  status: ('A' for Active; 'I' for Inactive)
REMARK    1  A    between atoms: C_2  and  C_3 
REMARK    2  A    between atoms: C_3  and  O_6 
REMARK    3  A    between atoms: C_3  and  C_4 
REMARK    4  A    between atoms: C_7  and  O_6 
REMARK    5  A    between atoms: C_9  and  C_10 
REMARK    6  A    between atoms: N_15  and  C_14 
REMARK    7  A    between atoms: N_20  and  C_19 
REMARK       I    between atoms: C_22  and  N_20 
ROOT
ATOM      1  C   LIG d   1      -7.239  77.383 117.451  0.00  0.00     0.161 C 
ATOM      2  C   LIG d   1      -8.407  78.079 117.804  0.00  0.00     0.016 C 
ATOM      3  C   LIG d   1      -8.490  79.490 117.845  0.00  0.00     0.038 C 
ATOM      4  C   LIG d   1      -7.446  80.308 117.387  0.00  0.00     0.028 C 
ATOM      5  C   LIG d   1      -6.072  79.656 117.500  0.00  0.00    -0.047 C 
ATOM      6  C   LIG d   1      -6.124  78.259 116.841  0.00  0.00     0.091 C 
ENDROOT
BRANCH   1   7
ATOM      7  O   LIG d   1      -7.567  76.298 116.561  0.00  0.00    -0.368 OA
BRANCH   7   8
ATOM      8  C   LIG d   1      -7.356  74.962 117.080  0.00  0.00     0.119 C 
BRANCH   8   9
ATOM      9  C   LIG d   1      -6.351  74.257 116.148  0.00  0.00     0.028 C 
ATOM     10  C   LIG d   1      -6.184  74.987 114.805  0.00  0.00     0.006 C 
ENDBRANCH   8   9
BRANCH   8  11
ATOM     11  C   LIG d   1      -8.636  74.125 117.004  0.00  0.00     0.028 C 
ATOM     12  C   LIG d   1      -9.866  74.954 116.599  0.00  0.00     0.006 C 
ENDBRANCH   8  11
ENDBRANCH   7   8
ENDBRANCH   1   7
BRANCH   6  13
ATOM     13  N   LIG d   1      -4.844  77.518 116.981  0.00  0.00    -0.311 N 
ATOM     14  C   LIG d   1      -3.888  77.523 116.053  0.00  0.00     0.210 C 
ATOM     15  C   LIG d   1      -2.656  76.676 116.388  0.00  0.00     0.109 C 
ATOM     16  O   LIG d   1      -3.930  78.174 114.999  0.00  0.00    -0.276 OA
ATOM     17  H   LIG d   1      -4.713  76.988 117.820  0.00  0.00     0.149 HD
ENDBRANCH   6  13
BRANCH   5  18
ATOM     18  N   LIG d   1      -5.096  80.560 116.862  0.00  0.00     0.381 N 
ATOM     19  H   LIG d   1      -5.255  80.587 115.874  0.00  0.00    -0.090 HD
ATOM     20  H   LIG d   1      -4.170  80.205 117.023  0.00  0.00    -0.090 HD
ATOM     21  H   LIG d   1      -5.180  81.476 117.244  0.00  0.00    -0.090 HD
ENDBRANCH   5  18
BRANCH   3  22
ATOM     22  C   LIG d   1      -9.613  80.097 118.387  0.00  0.00     0.382 C 
ATOM     23  O   LIG d   1      -9.555  81.288 118.777  0.00  0.00    -0.241 OA
ATOM     24  O   LIG d   1     -10.670  79.455 118.531  0.00  0.00    -0.241 OA
ENDBRANCH   3  22
TORSDOF 7
ENDMDL
MODEL 8
REMARK VINA RESULT:      -4.9      2.829      6.808
REMARK  7 active torsions:
REMARK  status: ('A' for Active; 'I' for Inactive)
REMARK    1  A    between atoms: C_2  and  C_3 
REMARK    2  A    between atoms: C_3  and  O_6 
REMARK    3  A    between atoms: C_3  and  C_4 
REMARK    4  A    between atoms: C_7  and  O_6 
REMARK    5  A    between atoms: C_9  and  C_10 
REMARK    6  A    between atoms: N_15  and  C_14 
REMARK    7  A    between atoms: N_20  and  C_19 
REMARK       I    between atoms: C_22  and  N_20 
ROOT
ATOM      1  C   LIG d   1      -8.525  77.944 118.009  0.00  0.00     0.161 C 
ATOM      2  C   LIG d   1      -8.874  79.244 118.411  0.00  0.00     0.016 C 
ATOM      3  C   LIG d   1      -8.045  80.371 118.205  0.00  0.00     0.038 C 
ATOM      4  C   LIG d   1      -6.870  80.297 117.442  0.00  0.00     0.028 C 
ATOM      5  C   LIG d   1      -6.228  78.914 117.450  0.00  0.00    -0.047 C 
ATOM      6  C   LIG d   1      -7.298  77.862 117.078  0.00  0.00     0.091 C 
ENDROOT
BRANCH   1   7
ATOM      7  O   LIG d   1      -9.662  77.300 117.399  0.00  0.00    -0.368 OA
BRANCH   7   8
ATOM      8  C   LIG d   1     -10.145  76.103 118.057  0.00  0.00     0.119 C 
BRANCH   8   9
ATOM      9  C   LIG d   1     -10.409  75.049 116.964  0.00  0.00     0.028 C 
ATOM     10  C   LIG d   1      -9.630  73.745 117.206  0.00  0.00     0.006 C 
ENDBRANCH   8   9
BRANCH   8  11
ATOM     11  C   LIG d   1     -11.502  76.343 118.725  0.00  0.00     0.028 C 
ATOM     12  C   LIG d   1     -11.373  76.909 120.148  0.00  0.00     0.006 C 
ENDBRANCH   8  11
ENDBRANCH   7   8
ENDBRANCH   1   7
BRANCH   6  13
ATOM     13  N   LIG d   1      -6.775  76.473 117.144  0.00  0.00    -0.311 N 
ATOM     14  C   LIG d   1      -6.325  75.808 116.082  0.00  0.00     0.210 C 
ATOM     15  C   LIG d   1      -5.849  74.380 116.367  0.00  0.00     0.109 C 
ATOM     16  O   LIG d   1      -6.245  76.275 114.936  0.00  0.00    -0.276 OA
ATOM     17  H   LIG d   1      -6.774  76.028 118.041  0.00  0.00     0.149 HD
ENDBRANCH   6  13
BRANCH   5  18
ATOM     18  N   LIG d   1      -5.094  78.943 116.508  0.00  0.00     0.381 N 
ATOM     19  H   LIG d   1      -5.354  79.439 115.680  0.00  0.00    -0.090 HD
ATOM     20  H   LIG d   1      -4.860  78.000 116.251  0.00  0.00    -0.090 HD
ATOM     21  H   LIG d   1      -4.308  79.384 116.935  0.00  0.00    -0.090 HD
ENDBRANCH   5  18
BRANCH   3  22
ATOM     22  C   LIG d   1      -8.370  81.581 118.799  0.00  0.00     0.382 C 
ATOM     23  O   LIG d   1      -7.906  81.869 119.929  0.00  0.00    -0.241 OA
ATOM     24  O   LIG d   1      -9.156  82.369 118.240  0.00  0.00    -0.241 OA
ENDBRANCH   3  22
TORSDOF 7
ENDMDL
MODEL 9
REMARK VINA RESULT:      -4.9      3.681      5.816
REMARK  7 active torsions:
REMARK  status: ('A' for Active; 'I' for Inactive)
REMARK    1  A    between atoms: C_2  and  C_3 
REMARK    2  A    between atoms: C_3  and  O_6 
REMARK    3  A    between atoms: C_3  and  C_4 
REMARK    4  A    between atoms: C_7  and  O_6 
REMARK    5  A    between atoms: C_9  and  C_10 
REMARK    6  A    between atoms: N_15  and  C_14 
REMARK    7  A    between atoms: N_20  and  C_19 
REMARK       I    between atoms: C_22  and  N_20 
ROOT
ATOM      1  C   LIG d   1      -6.311  77.835 116.906  0.00  0.00     0.161 C 
ATOM      2  C   LIG d   1      -7.661  77.784 117.293  0.00  0.00     0.016 C 
ATOM      3  C   LIG d   1      -8.377  78.908 117.765  0.00  0.00     0.038 C 
ATOM      4  C   LIG d   1      -7.831  80.200 117.740  0.00  0.00     0.028 C 
ATOM      5  C   LIG d   1      -6.309  80.216 117.833  0.00  0.00    -0.047 C 
ATOM      6  C   LIG d   1      -5.731  79.258 116.767  0.00  0.00     0.091 C 
ENDROOT
BRANCH   1   7
ATOM      7  O   LIG d   1      -6.126  77.096 115.682  0.00  0.00    -0.368 OA
BRANCH   7   8
ATOM      8  C   LIG d   1      -5.285  75.919 115.770  0.00  0.00     0.119 C 
BRANCH   8   9
ATOM      9  C   LIG d   1      -4.101  76.124 114.805  0.00  0.00     0.028 C 
ATOM     10  C   LIG d   1      -2.740  75.955 115.502  0.00  0.00     0.006 C 
ENDBRANCH   8   9
BRANCH   8  11
ATOM     11  C   LIG d   1      -6.015  74.674 115.257  0.00  0.00     0.028 C 
ATOM     12  C   LIG d   1      -6.408  73.707 116.385  0.00  0.00     0.006 C 
ENDBRANCH   8  11
ENDBRANCH   7   8
ENDBRANCH   1   7
BRANCH   6  13
ATOM     13  N   LIG d   1      -4.251  79.150 116.845  0.00  0.00    -0.311 N 
ATOM     14  C   LIG d   1      -3.423  79.869 116.090  0.00  0.00     0.210 C 
ATOM     15  C   LIG d   1      -1.934  79.588 116.315  0.00  0.00     0.109 C 
ATOM     16  O   LIG d   1      -3.779  80.737 115.278  0.00  0.00    -0.276 OA
ATOM     17  H   LIG d   1      -3.876  78.492 117.500  0.00  0.00     0.149 HD
ENDBRANCH   6  13
BRANCH   5  18
ATOM     18  N   LIG d   1      -5.867  81.612 117.657  0.00  0.00     0.381 N 
ATOM     19  H   LIG d   1      -5.468  81.951 118.510  0.00  0.00    -0.090 HD
ATOM     20  H   LIG d   1      -6.665  82.180 117.434  0.00  0.00    -0.090 HD
ATOM     21  H   LIG d   1      -5.195  81.667 116.924  0.00  0.00    -0.090 HD
ENDBRANCH   5  18
BRANCH   3  22
ATOM     22  C   LIG d   1      -9.642  78.738 118.307  0.00  0.00     0.382 C 
ATOM     23  O   LIG d   1      -9.930  77.674 118.907  0.00  0.00    -0.241 OA
ATOM     24  O   LIG d   1     -10.514  79.617 118.166  0.00  0.00    -0.241 OA
ENDBRANCH   3  22
TORSDOF 7
ENDMDL
