MODEL 1
REMARK VINA RESULT:      -5.6      0.000      0.000
REMARK  7 active torsions:
REMARK  status: ('A' for Active; 'I' for Inactive)
REMARK    1  A    between atoms: C_2  and  C_3 
REMARK    2  A    between atoms: C_3  and  O_6 
REMARK    3  A    between atoms: C_3  and  C_4 
REMARK    4  A    between atoms: C_7  and  O_6 
REMARK    5  A    between atoms: C_9  and  C_10 
REMARK    6  A    between atoms: N_15  and  C_14 
REMARK    7  A    between atoms: N_20  and  C_19 
REMARK       I    between atoms: C_22  and  N_20 
ROOT
ATOM      1  C   LIG d   1      -7.526  76.772 118.105  0.00  0.00     0.161 C 
ATOM      2  C   LIG d   1      -8.732  77.416 118.425  0.00  0.00     0.016 C 
ATOM      3  C   LIG d   1      -8.852  78.817 118.570  0.00  0.00     0.038 C 
ATOM      4  C   LIG d   1      -7.798  79.688 118.254  0.00  0.00     0.028 C 
ATOM      5  C   LIG d   1      -6.420  79.054 118.415  0.00  0.00    -0.047 C 
ATOM      6  C   LIG d   1      -6.392  77.713 117.648  0.00  0.00     0.091 C 
ENDROOT
BRANCH   1   7
ATOM      7  O   LIG d   1      -7.764  75.754 117.112  0.00  0.00    -0.368 OA
BRANCH   7   8
ATOM      8  C   LIG d   1      -7.955  74.408 117.612  0.00  0.00     0.119 C 
BRANCH   8   9
ATOM      9  C   LIG d   1      -6.921  73.504 116.914  0.00  0.00     0.028 C 
ATOM     10  C   LIG d   1      -6.131  74.248 115.825  0.00  0.00     0.006 C 
ENDBRANCH   8   9
BRANCH   8  11
ATOM     11  C   LIG d   1      -9.322  73.851 117.203  0.00  0.00     0.028 C 
ATOM     12  C   LIG d   1      -9.298  72.335 116.955  0.00  0.00     0.006 C 
ENDBRANCH   8  11
ENDBRANCH   7   8
ENDBRANCH   1   7
BRANCH   6  13
ATOM     13  N   LIG d   1      -5.107  76.987 117.823  0.00  0.00    -0.311 N 
ATOM     14  C   LIG d   1      -4.098  77.062 116.956  0.00  0.00     0.210 C 
ATOM     15  C   LIG d   1      -2.871  76.219 117.317  0.00  0.00     0.109 C 
ATOM     16  O   LIG d   1      -4.091  77.773 115.940  0.00  0.00    -0.276 OA
ATOM     17  H   LIG d   1      -5.015  76.411 118.637  0.00  0.00     0.149 HD
ENDBRANCH   6  13
BRANCH   5  18
ATOM     18  N   LIG d   1      -5.424  80.024 117.922  0.00  0.00     0.381 N 
ATOM     19  H   LIG d   1      -5.566  80.910 118.364  0.00  0.00    -0.090 HD
ATOM     20  H   LIG d   1      -5.547  80.141 116.932  0.00  0.00    -0.090 HD
ATOM     21  H   LIG d   1      -4.503  79.694 118.114  0.00  0.00    -0.090 HD
ENDBRANCH   5  18
BRANCH   3  22
ATOM     22  C   LIG d   1     -10.025  79.359 119.074  0.00  0.00     0.382 C 
ATOM     23  O   LIG d   1     -10.571  80.324 118.489  0.00  0.00    -0.241 OA
ATOM     24  O   LIG d   1     -10.519  78.922 120.131  0.00  0.00    -0.241 OA
ENDBRANCH   3  22
TORSDOF 7
ENDMDL
MODEL 2
REMARK VINA RESULT:      -5.5     13.594     15.589
REMARK  7 active torsions:
REMARK  status: ('A' for Active; 'I' for Inactive)
REMARK    1  A    between atoms: C_2  and  C_3 
REMARK    2  A    between atoms: C_3  and  O_6 
REMARK    3  A    between atoms: C_3  and  C_4 
REMARK    4  A    between atoms: C_7  and  O_6 
REMARK    5  A    between atoms: C_9  and  C_10 
REMARK    6  A    between atoms: N_15  and  C_14 
REMARK    7  A    between atoms: N_20  and  C_19 
REMARK       I    between atoms: C_22  and  N_20 
ROOT
ATOM      1  C   LIG d   1      -3.332  90.886 117.907  0.00  0.00     0.161 C 
ATOM      2  C   LIG d   1      -4.072  90.251 116.895  0.00  0.00     0.016 C 
ATOM      3  C   LIG d   1      -5.374  90.650 116.515  0.00  0.00     0.038 C 
ATOM      4  C   LIG d   1      -5.970  91.815 117.023  0.00  0.00     0.028 C 
ATOM      5  C   LIG d   1      -5.467  92.197 118.411  0.00  0.00    -0.047 C 
ATOM      6  C   LIG d   1      -3.921  92.226 118.394  0.00  0.00     0.091 C 
ENDROOT
BRANCH   1   7
ATOM      7  O   LIG d   1      -1.969  91.065 117.476  0.00  0.00    -0.368 OA
BRANCH   7   8
ATOM      8  C   LIG d   1      -0.978  90.240 118.137  0.00  0.00     0.119 C 
BRANCH   8   9
ATOM      9  C   LIG d   1      -1.708  89.413 119.213  0.00  0.00     0.028 C 
ATOM     10  C   LIG d   1      -1.152  89.665 120.625  0.00  0.00     0.006 C 
ENDBRANCH   8   9
BRANCH   8  11
ATOM     11  C   LIG d   1       0.037  91.094 118.902  0.00  0.00     0.028 C 
ATOM     12  C   LIG d   1       0.433  92.371 118.144  0.00  0.00     0.006 C 
ENDBRANCH   8  11
ENDBRANCH   7   8
ENDBRANCH   1   7
BRANCH   6  13
ATOM     13  N   LIG d   1      -3.345  92.510 119.734  0.00  0.00    -0.311 N 
ATOM     14  C   LIG d   1      -2.568  93.561 119.991  0.00  0.00     0.210 C 
ATOM     15  C   LIG d   1      -2.064  93.655 121.434  0.00  0.00     0.109 C 
ATOM     16  O   LIG d   1      -2.275  94.441 119.168  0.00  0.00    -0.276 OA
ATOM     17  H   LIG d   1      -3.558  91.863 120.468  0.00  0.00     0.149 HD
ENDBRANCH   6  13
BRANCH   5  18
ATOM     18  N   LIG d   1      -6.066  93.500 118.758  0.00  0.00     0.381 N 
ATOM     19  H   LIG d   1      -5.466  94.240 118.455  0.00  0.00    -0.090 HD
ATOM     20  H   LIG d   1      -6.158  93.558 119.757  0.00  0.00    -0.090 HD
ATOM     21  H   LIG d   1      -6.960  93.589 118.329  0.00  0.00    -0.090 HD
ENDBRANCH   5  18
BRANCH   3  22
ATOM     22  C   LIG d   1      -6.110  89.858 115.648  0.00  0.00     0.382 C 
ATOM     23  O   LIG d   1      -5.523  89.135 114.807  0.00  0.00    -0.241 OA
ATOM     24  O   LIG d   1      -7.356  89.891 115.666  0.00  0.00    -0.241 OA
ENDBRANCH   3  22
TORSDOF 7
ENDMDL
MODEL 3
REMARK VINA RESULT:      -5.4      3.162      5.605
REMARK  7 active torsions:
REMARK  status: ('A' for Active; 'I' for Inactive)
REMARK    1  A    between atoms: C_2  and  C_3 
REMARK    2  A    between atoms: C_3  and  O_6 
REMARK    3  A    between atoms: C_3  and  C_4 
REMARK    4  A    between atoms: C_7  and  O_6 
REMARK    5  A    between atoms: C_9  and  C_10 
REMARK    6  A    between atoms: N_15  and  C_14 
REMARK    7  A    between atoms: N_20  and  C_19 
REMARK       I    between atoms: C_22  and  N_20 
ROOT
ATOM      1  C   LIG d   1      -4.440  75.286 116.201  0.00  0.00     0.161 C 
ATOM      2  C   LIG d   1      -3.962  76.602 116.316  0.00  0.00     0.016 C 
ATOM      3  C   LIG d   1      -4.745  77.674 116.803  0.00  0.00     0.038 C 
ATOM      4  C   LIG d   1      -6.020  77.472 117.352  0.00  0.00     0.028 C 
ATOM      5  C   LIG d   1      -6.733  76.246 116.793  0.00  0.00    -0.047 C 
ATOM      6  C   LIG d   1      -5.791  75.025 116.899  0.00  0.00     0.091 C 
ENDROOT
BRANCH   1   7
ATOM      7  O   LIG d   1      -3.443  74.361 116.677  0.00  0.00    -0.368 OA
BRANCH   7   8
ATOM      8  C   LIG d   1      -2.153  74.929 117.009  0.00  0.00     0.119 C 
BRANCH   8   9
ATOM      9  C   LIG d   1      -1.090  74.183 116.179  0.00  0.00     0.028 C 
ATOM     10  C   LIG d   1      -0.564  75.025 115.005  0.00  0.00     0.006 C 
ENDBRANCH   8   9
BRANCH   8  11
ATOM     11  C   LIG d   1      -1.786  74.663 118.472  0.00  0.00     0.028 C 
ATOM     12  C   LIG d   1      -1.192  73.263 118.692  0.00  0.00     0.006 C 
ENDBRANCH   8  11
ENDBRANCH   7   8
ENDBRANCH   1   7
BRANCH   6  13
ATOM     13  N   LIG d   1      -6.380  73.801 116.297  0.00  0.00    -0.311 N 
ATOM     14  C   LIG d   1      -7.207  72.987 116.950  0.00  0.00     0.210 C 
ATOM     15  C   LIG d   1      -7.683  71.770 116.151  0.00  0.00     0.109 C 
ATOM     16  O   LIG d   1      -7.617  73.174 118.106  0.00  0.00    -0.276 OA
ATOM     17  H   LIG d   1      -6.125  73.589 115.352  0.00  0.00     0.149 HD
ENDBRANCH   6  13
BRANCH   5  18
ATOM     18  N   LIG d   1      -7.988  76.076 117.550  0.00  0.00     0.381 N 
ATOM     19  H   LIG d   1      -8.724  75.805 116.929  0.00  0.00    -0.090 HD
ATOM     20  H   LIG d   1      -8.237  76.955 117.968  0.00  0.00    -0.090 HD
ATOM     21  H   LIG d   1      -7.868  75.385 118.257  0.00  0.00    -0.090 HD
ENDBRANCH   5  18
BRANCH   3  22
ATOM     22  C   LIG d   1      -4.268  78.973 116.705  0.00  0.00     0.382 C 
ATOM     23  O   LIG d   1      -3.667  79.344 115.668  0.00  0.00    -0.241 OA
ATOM     24  O   LIG d   1      -4.393  79.765 117.658  0.00  0.00    -0.241 OA
ENDBRANCH   3  22
TORSDOF 7
ENDMDL
MODEL 4
REMARK VINA RESULT:      -5.4      2.010      5.210
REMARK  7 active torsions:
REMARK  status: ('A' for Active; 'I' for Inactive)
REMARK    1  A    between atoms: C_2  and  C_3 
REMARK    2  A    between atoms: C_3  and  O_6 
REMARK    3  A    between atoms: C_3  and  C_4 
REMARK    4  A    between atoms: C_7  and  O_6 
REMARK    5  A    between atoms: C_9  and  C_10 
REMARK    6  A    between atoms: N_15  and  C_14 
REMARK    7  A    between atoms: N_20  and  C_19 
REMARK       I    between atoms: C_22  and  N_20 
ROOT
ATOM      1  C   LIG d   1      -7.872  75.894 117.452  0.00  0.00     0.161 C 
ATOM      2  C   LIG d   1      -8.534  74.657 117.379  0.00  0.00     0.016 C 
ATOM      3  C   LIG d   1      -7.904  73.461 116.964  0.00  0.00     0.038 C 
ATOM      4  C   LIG d   1      -6.521  73.392 116.736  0.00  0.00     0.028 C 
ATOM      5  C   LIG d   1      -5.910  74.722 116.309  0.00  0.00    -0.047 C 
ATOM      6  C   LIG d   1      -6.337  75.816 117.314  0.00  0.00     0.091 C 
ENDROOT
BRANCH   1   7
ATOM      7  O   LIG d   1      -8.232  76.569 118.673  0.00  0.00    -0.368 OA
BRANCH   7   8
ATOM      8  C   LIG d   1      -8.391  78.007 118.584  0.00  0.00     0.119 C 
BRANCH   8   9
ATOM      9  C   LIG d   1      -7.583  78.634 119.737  0.00  0.00     0.028 C 
ATOM     10  C   LIG d   1      -6.907  77.575 120.624  0.00  0.00     0.006 C 
ENDBRANCH   8   9
BRANCH   8  11
ATOM     11  C   LIG d   1      -9.843  78.423 118.833  0.00  0.00     0.028 C 
ATOM     12  C   LIG d   1     -10.038  79.948 118.812  0.00  0.00     0.006 C 
ENDBRANCH   8  11
ENDBRANCH   7   8
ENDBRANCH   1   7
BRANCH   6  13
ATOM     13  N   LIG d   1      -5.852  77.165 116.924  0.00  0.00    -0.311 N 
ATOM     14  C   LIG d   1      -4.747  77.719 117.421  0.00  0.00     0.210 C 
ATOM     15  C   LIG d   1      -4.438  79.126 116.899  0.00  0.00     0.109 C 
ATOM     16  O   LIG d   1      -3.977  77.166 118.221  0.00  0.00    -0.276 OA
ATOM     17  H   LIG d   1      -6.399  77.671 116.256  0.00  0.00     0.149 HD
ENDBRANCH   6  13
BRANCH   5  18
ATOM     18  N   LIG d   1      -4.448  74.539 116.240  0.00  0.00     0.381 N 
ATOM     19  H   LIG d   1      -4.204  74.080 115.386  0.00  0.00    -0.090 HD
ATOM     20  H   LIG d   1      -4.157  73.957 117.006  0.00  0.00    -0.090 HD
ATOM     21  H   LIG d   1      -3.991  75.423 116.293  0.00  0.00    -0.090 HD
ENDBRANCH   5  18
BRANCH   3  22
ATOM     22  C   LIG d   1      -8.667  72.326 116.734  0.00  0.00     0.382 C 
ATOM     23  O   LIG d   1      -9.690  72.108 117.426  0.00  0.00    -0.241 OA
ATOM     24  O   LIG d   1      -8.320  71.495 115.873  0.00  0.00    -0.241 OA
ENDBRANCH   3  22
TORSDOF 7
ENDMDL
MODEL 5
REMARK VINA RESULT:      -5.2      2.703      5.198
REMARK  7 active torsions:
REMARK  status: ('A' for Active; 'I' for Inactive)
REMARK    1  A    between atoms: C_2  and  C_3 
REMARK    2  A    between atoms: C_3  and  O_6 
REMARK    3  A    between atoms: C_3  and  C_4 
REMARK    4  A    between atoms: C_7  and  O_6 
REMARK    5  A    between atoms: C_9  and  C_10 
REMARK    6  A    between atoms: N_15  and  C_14 
REMARK    7  A    between atoms: N_20  and  C_19 
REMARK       I    between atoms: C_22  and  N_20 
ROOT
ATOM      1  C   LIG d   1      -5.531  75.038 116.861  0.00  0.00     0.161 C 
ATOM      2  C   LIG d   1      -6.301  73.904 116.556  0.00  0.00     0.016 C 
ATOM      3  C   LIG d   1      -7.659  73.763 116.926  0.00  0.00     0.038 C 
ATOM      4  C   LIG d   1      -8.385  74.818 117.498  0.00  0.00     0.028 C 
ATOM      5  C   LIG d   1      -7.516  75.798 118.280  0.00  0.00    -0.047 C 
ATOM      6  C   LIG d   1      -6.336  76.245 117.386  0.00  0.00     0.091 C 
ENDROOT
BRANCH   1   7
ATOM      7  O   LIG d   1      -4.748  75.420 115.713  0.00  0.00    -0.368 OA
BRANCH   7   8
ATOM      8  C   LIG d   1      -3.370  74.972 115.703  0.00  0.00     0.119 C 
BRANCH   8   9
ATOM      9  C   LIG d   1      -2.835  75.088 117.143  0.00  0.00     0.028 C 
ATOM     10  C   LIG d   1      -1.570  74.244 117.369  0.00  0.00     0.006 C 
ENDBRANCH   8   9
BRANCH   8  11
ATOM     11  C   LIG d   1      -2.487  75.903 114.866  0.00  0.00     0.028 C 
ATOM     12  C   LIG d   1      -2.806  77.390 115.093  0.00  0.00     0.006 C 
ENDBRANCH   8  11
ENDBRANCH   7   8
ENDBRANCH   1   7
BRANCH   6  13
ATOM     13  N   LIG d   1      -5.390  77.140 118.103  0.00  0.00    -0.311 N 
ATOM     14  C   LIG d   1      -5.142  78.394 117.730  0.00  0.00     0.210 C 
ATOM     15  C   LIG d   1      -4.118  79.135 118.595  0.00  0.00     0.109 C 
ATOM     16  O   LIG d   1      -5.697  78.974 116.784  0.00  0.00    -0.276 OA
ATOM     17  H   LIG d   1      -4.919  76.760 118.901  0.00  0.00     0.149 HD
ENDBRANCH   6  13
BRANCH   5  18
ATOM     18  N   LIG d   1      -8.377  76.918 118.703  0.00  0.00     0.381 N 
ATOM     19  H   LIG d   1      -9.339  76.654 118.624  0.00  0.00    -0.090 HD
ATOM     20  H   LIG d   1      -8.214  77.701 118.096  0.00  0.00    -0.090 HD
ATOM     21  H   LIG d   1      -8.171  77.169 119.645  0.00  0.00    -0.090 HD
ENDBRANCH   5  18
BRANCH   3  22
ATOM     22  C   LIG d   1      -8.292  72.541 116.760  0.00  0.00     0.382 C 
ATOM     23  O   LIG d   1      -7.773  71.659 116.035  0.00  0.00    -0.241 OA
ATOM     24  O   LIG d   1      -9.398  72.326 117.291  0.00  0.00    -0.241 OA
ENDBRANCH   3  22
TORSDOF 7
ENDMDL
MODEL 6
REMARK VINA RESULT:      -5.0      2.113      5.370
REMARK  7 active torsions:
REMARK  status: ('A' for Active; 'I' for Inactive)
REMARK    1  A    between atoms: C_2  and  C_3 
REMARK    2  A    between atoms: C_3  and  O_6 
REMARK    3  A    between atoms: C_3  and  C_4 
REMARK    4  A    between atoms: C_7  and  O_6 
REMARK    5  A    between atoms: C_9  and  C_10 
REMARK    6  A    between atoms: N_15  and  C_14 
REMARK    7  A    between atoms: N_20  and  C_19 
REMARK       I    between atoms: C_22  and  N_20 
ROOT
ATOM      1  C   LIG d   1      -5.545  76.805 116.335  0.00  0.00     0.161 C 
ATOM      2  C   LIG d   1      -4.720  75.689 116.119  0.00  0.00     0.016 C 
ATOM      3  C   LIG d   1      -3.429  75.555 116.678  0.00  0.00     0.038 C 
ATOM      4  C   LIG d   1      -2.931  76.467 117.621  0.00  0.00     0.028 C 
ATOM      5  C   LIG d   1      -3.522  77.865 117.482  0.00  0.00    -0.047 C 
ATOM      6  C   LIG d   1      -5.064  77.758 117.450  0.00  0.00     0.091 C 
ENDROOT
BRANCH   1   7
ATOM      7  O   LIG d   1      -6.895  76.373 116.594  0.00  0.00    -0.368 OA
BRANCH   7   8
ATOM      8  C   LIG d   1      -7.081  75.524 117.753  0.00  0.00     0.119 C 
BRANCH   8   9
ATOM      9  C   LIG d   1      -8.085  74.422 117.364  0.00  0.00     0.028 C 
ATOM     10  C   LIG d   1      -7.645  73.030 117.846  0.00  0.00     0.006 C 
ENDBRANCH   8   9
BRANCH   8  11
ATOM     11  C   LIG d   1      -7.744  76.288 118.903  0.00  0.00     0.028 C 
ATOM     12  C   LIG d   1      -8.807  77.287 118.420  0.00  0.00     0.006 C 
ENDBRANCH   8  11
ENDBRANCH   7   8
ENDBRANCH   1   7
BRANCH   6  13
ATOM     13  N   LIG d   1      -5.719  79.074 117.231  0.00  0.00    -0.311 N 
ATOM     14  C   LIG d   1      -6.170  79.842 118.221  0.00  0.00     0.210 C 
ATOM     15  C   LIG d   1      -6.831  81.150 117.775  0.00  0.00     0.109 C 
ATOM     16  O   LIG d   1      -6.057  79.579 119.428  0.00  0.00    -0.276 OA
ATOM     17  H   LIG d   1      -5.824  79.379 116.283  0.00  0.00     0.149 HD
ENDBRANCH   6  13
BRANCH   5  18
ATOM     18  N   LIG d   1      -3.022  78.675 118.609  0.00  0.00     0.381 N 
ATOM     19  H   LIG d   1      -2.171  79.132 118.347  0.00  0.00    -0.090 HD
ATOM     20  H   LIG d   1      -2.827  78.067 119.385  0.00  0.00    -0.090 HD
ATOM     21  H   LIG d   1      -3.704  79.352 118.872  0.00  0.00    -0.090 HD
ENDBRANCH   5  18
BRANCH   3  22
ATOM     22  C   LIG d   1      -2.604  74.520 116.264  0.00  0.00     0.382 C 
ATOM     23  O   LIG d   1      -1.935  73.875 117.107  0.00  0.00    -0.241 OA
ATOM     24  O   LIG d   1      -2.487  74.251 115.053  0.00  0.00    -0.241 OA
ENDBRANCH   3  22
TORSDOF 7
ENDMDL
MODEL 7
REMARK VINA RESULT:      -5.0      2.054      4.942
REMARK  7 active torsions:
REMARK  status: ('A' for Active; 'I' for Inactive)
REMARK    1  A    between atoms: C_2  and  C_3 
REMARK    2  A    between atoms: C_3  and  O_6 
REMARK    3  A    between atoms: C_3  and  C_4 
REMARK    4  A    between atoms: C_7  and  O_6 
REMARK    5  A    between atoms: C_9  and  C_10 
REMARK    6  A    between atoms: N_15  and  C_14 
REMARK    7  A    between atoms: N_20  and  C_19 
REMARK       I    between atoms: C_22  and  N_20 
ROOT
ATOM      1  C   LIG d   1      -6.058  77.003 117.301  0.00  0.00     0.161 C 
ATOM      2  C   LIG d   1      -6.579  75.712 117.115  0.00  0.00     0.016 C 
ATOM      3  C   LIG d   1      -7.894  75.343 117.482  0.00  0.00     0.038 C 
ATOM      4  C   LIG d   1      -8.832  76.287 117.924  0.00  0.00     0.028 C 
ATOM      5  C   LIG d   1      -8.201  77.498 118.602  0.00  0.00    -0.047 C 
ATOM      6  C   LIG d   1      -7.102  78.074 117.679  0.00  0.00     0.091 C 
ENDROOT
BRANCH   1   7
ATOM      7  O   LIG d   1      -5.326  77.408 116.127  0.00  0.00    -0.368 OA
BRANCH   7   8
ATOM      8  C   LIG d   1      -3.903  77.138 116.138  0.00  0.00     0.119 C 
BRANCH   8   9
ATOM      9  C   LIG d   1      -3.175  78.483 115.950  0.00  0.00     0.028 C 
ATOM     10  C   LIG d   1      -2.910  79.198 117.285  0.00  0.00     0.006 C 
ENDBRANCH   8   9
BRANCH   8  11
ATOM     11  C   LIG d   1      -3.490  76.282 114.937  0.00  0.00     0.028 C 
ATOM     12  C   LIG d   1      -3.403  74.785 115.274  0.00  0.00     0.006 C 
ENDBRANCH   8  11
ENDBRANCH   7   8
ENDBRANCH   1   7
BRANCH   6  13
ATOM     13  N   LIG d   1      -6.376  79.210 118.303  0.00  0.00    -0.311 N 
ATOM     14  C   LIG d   1      -6.686  80.487 118.085  0.00  0.00     0.210 C 
ATOM     15  C   LIG d   1      -5.798  81.502 118.811  0.00  0.00     0.109 C 
ATOM     16  O   LIG d   1      -7.633  80.875 117.384  0.00  0.00    -0.276 OA
ATOM     17  H   LIG d   1      -5.613  78.985 118.911  0.00  0.00     0.149 HD
ENDBRANCH   6  13
BRANCH   5  18
ATOM     18  N   LIG d   1      -9.280  78.462 118.888  0.00  0.00     0.381 N 
ATOM     19  H   LIG d   1      -8.909  79.392 118.898  0.00  0.00    -0.090 HD
ATOM     20  H   LIG d   1      -9.660  78.264 119.796  0.00  0.00    -0.090 HD
ATOM     21  H   LIG d   1      -9.994  78.389 118.197  0.00  0.00    -0.090 HD
ENDBRANCH   5  18
BRANCH   3  22
ATOM     22  C   LIG d   1      -8.269  74.009 117.446  0.00  0.00     0.382 C 
ATOM     23  O   LIG d   1      -7.413  73.112 117.641  0.00  0.00    -0.241 OA
ATOM     24  O   LIG d   1      -9.442  73.689 117.176  0.00  0.00    -0.241 OA
ENDBRANCH   3  22
TORSDOF 7
ENDMDL
MODEL 8
REMARK VINA RESULT:      -4.9     13.562     15.292
REMARK  7 active torsions:
REMARK  status: ('A' for Active; 'I' for Inactive)
REMARK    1  A    between atoms: C_2  and  C_3 
REMARK    2  A    between atoms: C_3  and  O_6 
REMARK    3  A    between atoms: C_3  and  C_4 
REMARK    4  A    between atoms: C_7  and  O_6 
REMARK    5  A    between atoms: C_9  and  C_10 
REMARK    6  A    between atoms: N_15  and  C_14 
REMARK    7  A    between atoms: N_20  and  C_19 
REMARK       I    between atoms: C_22  and  N_20 
ROOT
ATOM      1  C   LIG d   1      -2.190  90.402 118.095  0.00  0.00     0.161 C 
ATOM      2  C   LIG d   1      -3.118  89.865 117.188  0.00  0.00     0.016 C 
ATOM      3  C   LIG d   1      -4.342  90.495 116.862  0.00  0.00     0.038 C 
ATOM      4  C   LIG d   1      -4.652  91.788 117.310  0.00  0.00     0.028 C 
ATOM      5  C   LIG d   1      -3.974  92.152 118.627  0.00  0.00    -0.047 C 
ATOM      6  C   LIG d   1      -2.460  91.864 118.508  0.00  0.00     0.091 C 
ENDROOT
BRANCH   1   7
ATOM      7  O   LIG d   1      -0.856  90.271 117.564  0.00  0.00    -0.368 OA
BRANCH   7   8
ATOM      8  C   LIG d   1      -0.116  89.098 117.983  0.00  0.00     0.119 C 
BRANCH   8   9
ATOM      9  C   LIG d   1       0.890  89.546 119.061  0.00  0.00     0.028 C 
ATOM     10  C   LIG d   1       0.422  89.196 120.483  0.00  0.00     0.006 C 
ENDBRANCH   8   9
BRANCH   8  11
ATOM     11  C   LIG d   1       0.736  88.538 116.840  0.00  0.00     0.028 C 
ATOM     12  C   LIG d   1       1.689  89.585 116.240  0.00  0.00     0.006 C 
ENDBRANCH   8  11
ENDBRANCH   7   8
ENDBRANCH   1   7
BRANCH   6  13
ATOM     13  N   LIG d   1      -1.735  92.113 119.781  0.00  0.00    -0.311 N 
ATOM     14  C   LIG d   1      -0.598  92.803 119.853  0.00  0.00     0.210 C 
ATOM     15  C   LIG d   1      -0.004  92.925 121.260  0.00  0.00     0.109 C 
ATOM     16  O   LIG d   1      -0.041  93.353 118.891  0.00  0.00    -0.276 OA
ATOM     17  H   LIG d   1      -2.133  91.729 120.616  0.00  0.00     0.149 HD
ENDBRANCH   6  13
BRANCH   5  18
ATOM     18  N   LIG d   1      -4.274  93.569 118.905  0.00  0.00     0.381 N 
ATOM     19  H   LIG d   1      -3.784  93.864 119.726  0.00  0.00    -0.090 HD
ATOM     20  H   LIG d   1      -5.259  93.666 119.075  0.00  0.00    -0.090 HD
ATOM     21  H   LIG d   1      -4.006  94.133 118.129  0.00  0.00    -0.090 HD
ENDBRANCH   5  18
BRANCH   3  22
ATOM     22  C   LIG d   1      -5.287  89.813 116.112  0.00  0.00     0.382 C 
ATOM     23  O   LIG d   1      -6.501  89.877 116.424  0.00  0.00    -0.241 OA
ATOM     24  O   LIG d   1      -4.938  89.100 115.153  0.00  0.00    -0.241 OA
ENDBRANCH   3  22
TORSDOF 7
ENDMDL
MODEL 9
REMARK VINA RESULT:      -4.8      1.995      3.055
REMARK  7 active torsions:
REMARK  status: ('A' for Active; 'I' for Inactive)
REMARK    1  A    between atoms: C_2  and  C_3 
REMARK    2  A    between atoms: C_3  and  O_6 
REMARK    3  A    between atoms: C_3  and  C_4 
REMARK    4  A    between atoms: C_7  and  O_6 
REMARK    5  A    between atoms: C_9  and  C_10 
REMARK    6  A    between atoms: N_15  and  C_14 
REMARK    7  A    between atoms: N_20  and  C_19 
REMARK       I    between atoms: C_22  and  N_20 
ROOT
ATOM      1  C   LIG d   1      -6.427  78.887 118.274  0.00  0.00     0.161 C 
ATOM      2  C   LIG d   1      -7.735  78.457 118.555  0.00  0.00     0.016 C 
ATOM      3  C   LIG d   1      -8.822  79.341 118.743  0.00  0.00     0.038 C 
ATOM      4  C   LIG d   1      -8.704  80.720 118.512  0.00  0.00     0.028 C 
ATOM      5  C   LIG d   1      -7.290  81.250 118.720  0.00  0.00    -0.047 C 
ATOM      6  C   LIG d   1      -6.303  80.381 117.908  0.00  0.00     0.091 C 
ENDROOT
BRANCH   1   7
ATOM      7  O   LIG d   1      -5.856  78.067 117.235  0.00  0.00    -0.368 OA
BRANCH   7   8
ATOM      8  C   LIG d   1      -5.652  76.671 117.564  0.00  0.00     0.119 C 
BRANCH   8   9
ATOM      9  C   LIG d   1      -4.177  76.337 117.271  0.00  0.00     0.028 C 
ATOM     10  C   LIG d   1      -3.395  77.550 116.738  0.00  0.00     0.006 C 
ENDBRANCH   8   9
BRANCH   8  11
ATOM     11  C   LIG d   1      -6.466  75.757 116.642  0.00  0.00     0.028 C 
ATOM     12  C   LIG d   1      -7.508  74.921 117.402  0.00  0.00     0.006 C 
ENDBRANCH   8  11
ENDBRANCH   7   8
ENDBRANCH   1   7
BRANCH   6  13
ATOM     13  N   LIG d   1      -4.887  80.780 118.122  0.00  0.00    -0.311 N 
ATOM     14  C   LIG d   1      -4.064  81.121 117.132  0.00  0.00     0.210 C 
ATOM     15  C   LIG d   1      -2.640  81.479 117.569  0.00  0.00     0.109 C 
ATOM     16  O   LIG d   1      -4.387  81.192 115.937  0.00  0.00    -0.276 OA
ATOM     17  H   LIG d   1      -4.551  80.780 119.065  0.00  0.00     0.149 HD
ENDBRANCH   6  13
BRANCH   5  18
ATOM     18  N   LIG d   1      -7.281  82.668 118.313  0.00  0.00     0.381 N 
ATOM     19  H   LIG d   1      -7.156  82.735 117.322  0.00  0.00    -0.090 HD
ATOM     20  H   LIG d   1      -6.509  83.130 118.760  0.00  0.00    -0.090 HD
ATOM     21  H   LIG d   1      -8.137  83.104 118.577  0.00  0.00    -0.090 HD
ENDBRANCH   5  18
BRANCH   3  22
ATOM     22  C   LIG d   1     -10.034  78.852 119.207  0.00  0.00     0.382 C 
ATOM     23  O   LIG d   1     -10.647  77.976 118.551  0.00  0.00    -0.241 OA
ATOM     24  O   LIG d   1     -10.542  79.308 120.248  0.00  0.00    -0.241 OA
ENDBRANCH   3  22
TORSDOF 7
ENDMDL
