MODEL 1
REMARK VINA RESULT:      -6.0      0.000      0.000
REMARK  7 active torsions:
REMARK  status: ('A' for Active; 'I' for Inactive)
REMARK    1  A    between atoms: C_2  and  C_3 
REMARK    2  A    between atoms: C_3  and  O_6 
REMARK    3  A    between atoms: C_3  and  C_4 
REMARK    4  A    between atoms: C_7  and  O_6 
REMARK    5  A    between atoms: C_9  and  C_10 
REMARK    6  A    between atoms: N_15  and  C_14 
REMARK    7  A    between atoms: N_20  and  C_19 
REMARK       I    between atoms: C_22  and  N_20 
ROOT
ATOM      1  C   LIG d   1      -7.664  75.970 117.721  0.00  0.00     0.161 C 
ATOM      2  C   LIG d   1      -8.971  76.280 118.132  0.00  0.00     0.016 C 
ATOM      3  C   LIG d   1      -9.418  77.600 118.374  0.00  0.00     0.038 C 
ATOM      4  C   LIG d   1      -8.625  78.718 118.073  0.00  0.00     0.028 C 
ATOM      5  C   LIG d   1      -7.129  78.434 118.136  0.00  0.00    -0.047 C 
ATOM      6  C   LIG d   1      -6.819  77.183 117.281  0.00  0.00     0.091 C 
ENDROOT
BRANCH   1   7
ATOM      7  O   LIG d   1      -7.703  74.980 116.674  0.00  0.00    -0.368 OA
BRANCH   7   8
ATOM      8  C   LIG d   1      -6.970  73.756 116.926  0.00  0.00     0.119 C 
BRANCH   8   9
ATOM      9  C   LIG d   1      -6.511  73.203 115.563  0.00  0.00     0.028 C 
ATOM     10  C   LIG d   1      -5.603  74.187 114.806  0.00  0.00     0.006 C 
ENDBRANCH   8   9
BRANCH   8  11
ATOM     11  C   LIG d   1      -7.879  72.674 117.517  0.00  0.00     0.028 C 
ATOM     12  C   LIG d   1      -8.396  71.687 116.459  0.00  0.00     0.006 C 
ENDBRANCH   8  11
ENDBRANCH   7   8
ENDBRANCH   1   7
BRANCH   6  13
ATOM     13  N   LIG d   1      -5.388  76.786 117.356  0.00  0.00    -0.311 N 
ATOM     14  C   LIG d   1      -4.471  77.181 116.475  0.00  0.00     0.210 C 
ATOM     15  C   LIG d   1      -3.060  76.640 116.724  0.00  0.00     0.109 C 
ATOM     16  O   LIG d   1      -4.686  77.954 115.529  0.00  0.00    -0.276 OA
ATOM     17  H   LIG d   1      -5.121  76.185 118.111  0.00  0.00     0.149 HD
ENDBRANCH   6  13
BRANCH   5  18
ATOM     18  N   LIG d   1      -6.425  79.643 117.668  0.00  0.00     0.381 N 
ATOM     19  H   LIG d   1      -6.706  79.857 116.732  0.00  0.00    -0.090 HD
ATOM     20  H   LIG d   1      -5.437  79.464 117.668  0.00  0.00    -0.090 HD
ATOM     21  H   LIG d   1      -6.632  80.411 118.268  0.00  0.00    -0.090 HD
ENDBRANCH   5  18
BRANCH   3  22
ATOM     22  C   LIG d   1     -10.657  77.809 118.960  0.00  0.00     0.382 C 
ATOM     23  O   LIG d   1     -10.782  78.657 119.875  0.00  0.00    -0.241 OA
ATOM     24  O   LIG d   1     -11.642  77.129 118.615  0.00  0.00    -0.241 OA
ENDBRANCH   3  22
TORSDOF 7
ENDMDL
MODEL 2
REMARK VINA RESULT:      -5.7     14.243     16.940
REMARK  7 active torsions:
REMARK  status: ('A' for Active; 'I' for Inactive)
REMARK    1  A    between atoms: C_2  and  C_3 
REMARK    2  A    between atoms: C_3  and  O_6 
REMARK    3  A    between atoms: C_3  and  C_4 
REMARK    4  A    between atoms: C_7  and  O_6 
REMARK    5  A    between atoms: C_9  and  C_10 
REMARK    6  A    between atoms: N_15  and  C_14 
REMARK    7  A    between atoms: N_20  and  C_19 
REMARK       I    between atoms: C_22  and  N_20 
ROOT
ATOM      1  C   LIG d   1      -6.001  92.459 118.361  0.00  0.00     0.161 C 
ATOM      2  C   LIG d   1      -6.876  91.572 117.711  0.00  0.00     0.016 C 
ATOM      3  C   LIG d   1      -6.440  90.559 116.825  0.00  0.00     0.038 C 
ATOM      4  C   LIG d   1      -5.080  90.266 116.645  0.00  0.00     0.028 C 
ATOM      5  C   LIG d   1      -4.165  91.461 116.891  0.00  0.00    -0.047 C 
ATOM      6  C   LIG d   1      -4.508  92.082 118.264  0.00  0.00     0.091 C 
ENDROOT
BRANCH   1   7
ATOM      7  O   LIG d   1      -6.392  92.606 119.741  0.00  0.00    -0.368 OA
BRANCH   7   8
ATOM      8  C   LIG d   1      -6.825  93.929 120.143  0.00  0.00     0.119 C 
BRANCH   8   9
ATOM      9  C   LIG d   1      -8.242  93.792 120.734  0.00  0.00     0.028 C 
ATOM     10  C   LIG d   1      -9.324  93.686 119.646  0.00  0.00     0.006 C 
ENDBRANCH   8   9
BRANCH   8  11
ATOM     11  C   LIG d   1      -6.978  94.857 118.934  0.00  0.00     0.028 C 
ATOM     12  C   LIG d   1      -6.398  96.258 119.181  0.00  0.00     0.006 C 
ENDBRANCH   8  11
ENDBRANCH   7   8
ENDBRANCH   1   7
BRANCH   6  13
ATOM     13  N   LIG d   1      -3.716  93.308 118.545  0.00  0.00    -0.311 N 
ATOM     14  C   LIG d   1      -3.000  93.479 119.655  0.00  0.00     0.210 C 
ATOM     15  C   LIG d   1      -2.274  94.825 119.755  0.00  0.00     0.109 C 
ATOM     16  O   LIG d   1      -2.871  92.632 120.551  0.00  0.00    -0.276 OA
ATOM     17  H   LIG d   1      -3.739  94.034 117.856  0.00  0.00     0.149 HD
ENDBRANCH   6  13
BRANCH   5  18
ATOM     18  N   LIG d   1      -2.773  90.981 116.804  0.00  0.00     0.381 N 
ATOM     19  H   LIG d   1      -2.639  90.216 117.435  0.00  0.00    -0.090 HD
ATOM     20  H   LIG d   1      -2.155  91.726 117.075  0.00  0.00    -0.090 HD
ATOM     21  H   LIG d   1      -2.569  90.693 115.873  0.00  0.00    -0.090 HD
ENDBRANCH   5  18
BRANCH   3  22
ATOM     22  C   LIG d   1      -7.371  89.854 116.077  0.00  0.00     0.382 C 
ATOM     23  O   LIG d   1      -7.851  88.784 116.521  0.00  0.00    -0.241 OA
ATOM     24  O   LIG d   1      -7.703  90.252 114.944  0.00  0.00    -0.241 OA
ENDBRANCH   3  22
TORSDOF 7
ENDMDL
MODEL 3
REMARK VINA RESULT:      -5.5      1.432      2.235
REMARK  7 active torsions:
REMARK  status: ('A' for Active; 'I' for Inactive)
REMARK    1  A    between atoms: C_2  and  C_3 
REMARK    2  A    between atoms: C_3  and  O_6 
REMARK    3  A    between atoms: C_3  and  C_4 
REMARK    4  A    between atoms: C_7  and  O_6 
REMARK    5  A    between atoms: C_9  and  C_10 
REMARK    6  A    between atoms: N_15  and  C_14 
REMARK    7  A    between atoms: N_20  and  C_19 
REMARK       I    between atoms: C_22  and  N_20 
ROOT
ATOM      1  C   LIG d   1      -7.744  76.573 118.753  0.00  0.00     0.161 C 
ATOM      2  C   LIG d   1      -9.109  76.376 119.020  0.00  0.00     0.016 C 
ATOM      3  C   LIG d   1     -10.080  77.398 118.906  0.00  0.00     0.038 C 
ATOM      4  C   LIG d   1      -9.772  78.656 118.368  0.00  0.00     0.028 C 
ATOM      5  C   LIG d   1      -8.313  79.057 118.560  0.00  0.00    -0.047 C 
ATOM      6  C   LIG d   1      -7.407  77.909 118.058  0.00  0.00     0.091 C 
ENDROOT
BRANCH   1   7
ATOM      7  O   LIG d   1      -7.232  75.466 117.985  0.00  0.00    -0.368 OA
BRANCH   7   8
ATOM      8  C   LIG d   1      -7.979  75.116 116.794  0.00  0.00     0.119 C 
BRANCH   8   9
ATOM      9  C   LIG d   1      -7.954  73.581 116.666  0.00  0.00     0.028 C 
ATOM     10  C   LIG d   1      -7.725  72.883 118.017  0.00  0.00     0.006 C 
ENDBRANCH   8   9
BRANCH   8  11
ATOM     11  C   LIG d   1      -7.289  75.640 115.530  0.00  0.00     0.028 C 
ATOM     12  C   LIG d   1      -5.760  75.505 115.587  0.00  0.00     0.006 C 
ENDBRANCH   8  11
ENDBRANCH   7   8
ENDBRANCH   1   7
BRANCH   6  13
ATOM     13  N   LIG d   1      -5.965  78.183 118.286  0.00  0.00    -0.311 N 
ATOM     14  C   LIG d   1      -5.166  78.723 117.367  0.00  0.00     0.210 C 
ATOM     15  C   LIG d   1      -3.708  78.903 117.801  0.00  0.00     0.109 C 
ATOM     16  O   LIG d   1      -5.534  79.100 116.244  0.00  0.00    -0.276 OA
ATOM     17  H   LIG d   1      -5.590  77.937 119.181  0.00  0.00     0.149 HD
ENDBRANCH   6  13
BRANCH   5  18
ATOM     18  N   LIG d   1      -8.098  80.322 117.833  0.00  0.00     0.381 N 
ATOM     19  H   LIG d   1      -8.682  80.349 117.021  0.00  0.00    -0.090 HD
ATOM     20  H   LIG d   1      -7.140  80.367 117.534  0.00  0.00    -0.090 HD
ATOM     21  H   LIG d   1      -8.306  81.095 118.426  0.00  0.00    -0.090 HD
ENDBRANCH   5  18
BRANCH   3  22
ATOM     22  C   LIG d   1     -11.367  77.178 119.371  0.00  0.00     0.382 C 
ATOM     23  O   LIG d   1     -12.253  76.758 118.589  0.00  0.00    -0.241 OA
ATOM     24  O   LIG d   1     -11.665  77.437 120.553  0.00  0.00    -0.241 OA
ENDBRANCH   3  22
TORSDOF 7
ENDMDL
MODEL 4
REMARK VINA RESULT:      -5.4      1.990      5.080
REMARK  7 active torsions:
REMARK  status: ('A' for Active; 'I' for Inactive)
REMARK    1  A    between atoms: C_2  and  C_3 
REMARK    2  A    between atoms: C_3  and  O_6 
REMARK    3  A    between atoms: C_3  and  C_4 
REMARK    4  A    between atoms: C_7  and  O_6 
REMARK    5  A    between atoms: C_9  and  C_10 
REMARK    6  A    between atoms: N_15  and  C_14 
REMARK    7  A    between atoms: N_20  and  C_19 
REMARK       I    between atoms: C_22  and  N_20 
ROOT
ATOM      1  C   LIG d   1      -7.872  76.101 117.335  0.00  0.00     0.161 C 
ATOM      2  C   LIG d   1      -8.043  74.736 117.048  0.00  0.00     0.016 C 
ATOM      3  C   LIG d   1      -7.129  73.982 116.278  0.00  0.00     0.038 C 
ATOM      4  C   LIG d   1      -5.896  74.509 115.865  0.00  0.00     0.028 C 
ATOM      5  C   LIG d   1      -5.910  76.025 115.700  0.00  0.00    -0.047 C 
ATOM      6  C   LIG d   1      -6.478  76.665 116.987  0.00  0.00     0.091 C 
ENDROOT
BRANCH   1   7
ATOM      7  O   LIG d   1      -8.183  76.353 118.719  0.00  0.00    -0.368 OA
BRANCH   7   8
ATOM      8  C   LIG d   1      -9.439  77.027 118.978  0.00  0.00     0.119 C 
BRANCH   8   9
ATOM      9  C   LIG d   1      -9.109  78.464 119.424  0.00  0.00     0.028 C 
ATOM     10  C   LIG d   1      -9.771  79.523 118.526  0.00  0.00     0.006 C 
ENDBRANCH   8   9
BRANCH   8  11
ATOM     11  C   LIG d   1     -10.177  76.394 120.162  0.00  0.00     0.028 C 
ATOM     12  C   LIG d   1     -11.680  76.713 120.166  0.00  0.00     0.006 C 
ENDBRANCH   8  11
ENDBRANCH   7   8
ENDBRANCH   1   7
BRANCH   6  13
ATOM     13  N   LIG d   1      -6.605  78.142 116.877  0.00  0.00    -0.311 N 
ATOM     14  C   LIG d   1      -5.949  78.994 117.663  0.00  0.00     0.210 C 
ATOM     15  C   LIG d   1      -6.239  80.474 117.395  0.00  0.00     0.109 C 
ATOM     16  O   LIG d   1      -5.131  78.666 118.535  0.00  0.00    -0.276 OA
ATOM     17  H   LIG d   1      -7.225  78.495 116.175  0.00  0.00     0.149 HD
ENDBRANCH   6  13
BRANCH   5  18
ATOM     18  N   LIG d   1      -4.530  76.454 115.402  0.00  0.00     0.381 N 
ATOM     19  H   LIG d   1      -4.512  77.437 115.221  0.00  0.00    -0.090 HD
ATOM     20  H   LIG d   1      -4.212  75.976 114.577  0.00  0.00    -0.090 HD
ATOM     21  H   LIG d   1      -3.933  76.239 116.170  0.00  0.00    -0.090 HD
ENDBRANCH   5  18
BRANCH   3  22
ATOM     22  C   LIG d   1      -7.463  72.697 115.878  0.00  0.00     0.382 C 
ATOM     23  O   LIG d   1      -8.596  72.232 116.147  0.00  0.00    -0.241 OA
ATOM     24  O   LIG d   1      -6.629  71.981 115.291  0.00  0.00    -0.241 OA
ENDBRANCH   3  22
TORSDOF 7
ENDMDL
MODEL 5
REMARK VINA RESULT:      -5.4      2.140      5.113
REMARK  7 active torsions:
REMARK  status: ('A' for Active; 'I' for Inactive)
REMARK    1  A    between atoms: C_2  and  C_3 
REMARK    2  A    between atoms: C_3  and  O_6 
REMARK    3  A    between atoms: C_3  and  C_4 
REMARK    4  A    between atoms: C_7  and  O_6 
REMARK    5  A    between atoms: C_9  and  C_10 
REMARK    6  A    between atoms: N_15  and  C_14 
REMARK    7  A    between atoms: N_20  and  C_19 
REMARK       I    between atoms: C_22  and  N_20 
ROOT
ATOM      1  C   LIG d   1      -5.684  75.957 116.207  0.00  0.00     0.161 C 
ATOM      2  C   LIG d   1      -6.041  74.664 115.790  0.00  0.00     0.016 C 
ATOM      3  C   LIG d   1      -7.234  74.019 116.190  0.00  0.00     0.038 C 
ATOM      4  C   LIG d   1      -8.230  74.687 116.917  0.00  0.00     0.028 C 
ATOM      5  C   LIG d   1      -7.691  75.820 117.783  0.00  0.00    -0.047 C 
ATOM      6  C   LIG d   1      -6.810  76.744 116.910  0.00  0.00     0.091 C 
ENDROOT
BRANCH   1   7
ATOM      7  O   LIG d   1      -5.173  76.707 115.087  0.00  0.00    -0.368 OA
BRANCH   7   8
ATOM      8  C   LIG d   1      -3.748  76.970 115.093  0.00  0.00     0.119 C 
BRANCH   8   9
ATOM      9  C   LIG d   1      -3.184  76.431 116.422  0.00  0.00     0.028 C 
ATOM     10  C   LIG d   1      -2.084  75.377 116.209  0.00  0.00     0.006 C 
ENDBRANCH   8   9
BRANCH   8  11
ATOM     11  C   LIG d   1      -3.459  78.474 115.110  0.00  0.00     0.028 C 
ATOM     12  C   LIG d   1      -2.988  78.975 116.484  0.00  0.00     0.006 C 
ENDBRANCH   8  11
ENDBRANCH   7   8
ENDBRANCH   1   7
BRANCH   6  13
ATOM     13  N   LIG d   1      -6.174  77.831 117.698  0.00  0.00    -0.311 N 
ATOM     14  C   LIG d   1      -6.707  79.044 117.836  0.00  0.00     0.210 C 
ATOM     15  C   LIG d   1      -5.878  80.023 118.673  0.00  0.00     0.109 C 
ATOM     16  O   LIG d   1      -7.803  79.392 117.371  0.00  0.00    -0.276 OA
ATOM     17  H   LIG d   1      -5.297  77.626 118.135  0.00  0.00     0.149 HD
ENDBRANCH   6  13
BRANCH   5  18
ATOM     18  N   LIG d   1      -8.847  76.517 118.377  0.00  0.00     0.381 N 
ATOM     19  H   LIG d   1      -9.531  75.849 118.670  0.00  0.00    -0.090 HD
ATOM     20  H   LIG d   1      -9.263  77.109 117.680  0.00  0.00    -0.090 HD
ATOM     21  H   LIG d   1      -8.553  77.065 119.155  0.00  0.00    -0.090 HD
ENDBRANCH   5  18
BRANCH   3  22
ATOM     22  C   LIG d   1      -7.422  72.677 115.895  0.00  0.00     0.382 C 
ATOM     23  O   LIG d   1      -6.570  72.060 115.211  0.00  0.00    -0.241 OA
ATOM     24  O   LIG d   1      -8.454  72.087 116.266  0.00  0.00    -0.241 OA
ENDBRANCH   3  22
TORSDOF 7
ENDMDL
MODEL 6
REMARK VINA RESULT:      -5.4      2.182      5.519
REMARK  7 active torsions:
REMARK  status: ('A' for Active; 'I' for Inactive)
REMARK    1  A    between atoms: C_2  and  C_3 
REMARK    2  A    between atoms: C_3  and  O_6 
REMARK    3  A    between atoms: C_3  and  C_4 
REMARK    4  A    between atoms: C_7  and  O_6 
REMARK    5  A    between atoms: C_9  and  C_10 
REMARK    6  A    between atoms: N_15  and  C_14 
REMARK    7  A    between atoms: N_20  and  C_19 
REMARK       I    between atoms: C_22  and  N_20 
ROOT
ATOM      1  C   LIG d   1      -5.101  76.518 115.789  0.00  0.00     0.161 C 
ATOM      2  C   LIG d   1      -3.903  75.833 115.528  0.00  0.00     0.016 C 
ATOM      3  C   LIG d   1      -2.782  75.871 116.388  0.00  0.00     0.038 C 
ATOM      4  C   LIG d   1      -2.836  76.479 117.651  0.00  0.00     0.028 C 
ATOM      5  C   LIG d   1      -3.856  77.610 117.735  0.00  0.00    -0.047 C 
ATOM      6  C   LIG d   1      -5.218  77.096 117.215  0.00  0.00     0.091 C 
ENDROOT
BRANCH   1   7
ATOM      7  O   LIG d   1      -6.226  75.664 115.502  0.00  0.00    -0.368 OA
BRANCH   7   8
ATOM      8  C   LIG d   1      -6.392  74.515 116.369  0.00  0.00     0.119 C 
BRANCH   8   9
ATOM      9  C   LIG d   1      -6.299  73.253 115.490  0.00  0.00     0.028 C 
ATOM     10  C   LIG d   1      -7.311  72.172 115.905  0.00  0.00     0.006 C 
ENDBRANCH   8   9
BRANCH   8  11
ATOM     11  C   LIG d   1      -7.795  74.479 116.983  0.00  0.00     0.028 C 
ATOM     12  C   LIG d   1      -8.701  75.608 116.466  0.00  0.00     0.006 C 
ENDBRANCH   8  11
ENDBRANCH   7   8
ENDBRANCH   1   7
BRANCH   6  13
ATOM     13  N   LIG d   1      -6.252  78.164 117.184  0.00  0.00    -0.311 N 
ATOM     14  C   LIG d   1      -7.117  78.375 118.174  0.00  0.00     0.210 C 
ATOM     15  C   LIG d   1      -8.113  79.514 117.931  0.00  0.00     0.109 C 
ATOM     16  O   LIG d   1      -7.135  77.747 119.244  0.00  0.00    -0.276 OA
ATOM     17  H   LIG d   1      -6.288  78.740 116.367  0.00  0.00     0.149 HD
ENDBRANCH   6  13
BRANCH   5  18
ATOM     18  N   LIG d   1      -3.906  78.061 119.139  0.00  0.00     0.381 N 
ATOM     19  H   LIG d   1      -4.756  77.750 119.565  0.00  0.00    -0.090 HD
ATOM     20  H   LIG d   1      -3.893  79.066 119.157  0.00  0.00    -0.090 HD
ATOM     21  H   LIG d   1      -3.123  77.703 119.640  0.00  0.00    -0.090 HD
ENDBRANCH   5  18
BRANCH   3  22
ATOM     22  C   LIG d   1      -1.576  75.329 115.969  0.00  0.00     0.382 C 
ATOM     23  O   LIG d   1      -1.034  74.415 116.637  0.00  0.00    -0.241 OA
ATOM     24  O   LIG d   1      -1.002  75.773 114.957  0.00  0.00    -0.241 OA
ENDBRANCH   3  22
TORSDOF 7
ENDMDL
MODEL 7
REMARK VINA RESULT:      -5.2     14.216     16.524
REMARK  7 active torsions:
REMARK  status: ('A' for Active; 'I' for Inactive)
REMARK    1  A    between atoms: C_2  and  C_3 
REMARK    2  A    between atoms: C_3  and  O_6 
REMARK    3  A    between atoms: C_3  and  C_4 
REMARK    4  A    between atoms: C_7  and  O_6 
REMARK    5  A    between atoms: C_9  and  C_10 
REMARK    6  A    between atoms: N_15  and  C_14 
REMARK    7  A    between atoms: N_20  and  C_19 
REMARK       I    between atoms: C_22  and  N_20 
ROOT
ATOM      1  C   LIG d   1      -5.460  92.411 118.816  0.00  0.00     0.161 C 
ATOM      2  C   LIG d   1      -5.815  93.432 119.714  0.00  0.00     0.016 C 
ATOM      3  C   LIG d   1      -6.914  94.299 119.513  0.00  0.00     0.038 C 
ATOM      4  C   LIG d   1      -7.829  94.105 118.468  0.00  0.00     0.028 C 
ATOM      5  C   LIG d   1      -7.226  93.402 117.256  0.00  0.00    -0.047 C 
ATOM      6  C   LIG d   1      -6.513  92.113 117.727  0.00  0.00     0.091 C 
ENDROOT
BRANCH   1   7
ATOM      7  O   LIG d   1      -5.139  91.210 119.544  0.00  0.00    -0.368 OA
BRANCH   7   8
ATOM      8  C   LIG d   1      -3.729  90.920 119.705  0.00  0.00     0.119 C 
BRANCH   8   9
ATOM      9  C   LIG d   1      -2.951  91.883 118.787  0.00  0.00     0.028 C 
ATOM     10  C   LIG d   1      -1.918  92.722 119.558  0.00  0.00     0.006 C 
ENDBRANCH   8   9
BRANCH   8  11
ATOM     11  C   LIG d   1      -3.387  89.515 119.200  0.00  0.00     0.028 C 
ATOM     12  C   LIG d   1      -2.803  89.517 117.779  0.00  0.00     0.006 C 
ENDBRANCH   8  11
ENDBRANCH   7   8
ENDBRANCH   1   7
BRANCH   6  13
ATOM     13  N   LIG d   1      -5.823  91.409 116.616  0.00  0.00    -0.311 N 
ATOM     14  C   LIG d   1      -6.147  90.181 116.212  0.00  0.00     0.210 C 
ATOM     15  C   LIG d   1      -5.296  89.632 115.063  0.00  0.00     0.109 C 
ATOM     16  O   LIG d   1      -7.080  89.508 116.676  0.00  0.00    -0.276 OA
ATOM     17  H   LIG d   1      -5.074  91.895 116.163  0.00  0.00     0.149 HD
ENDBRANCH   6  13
BRANCH   5  18
ATOM     18  N   LIG d   1      -8.320  93.141 116.302  0.00  0.00     0.381 N 
ATOM     19  H   LIG d   1      -7.946  93.034 115.380  0.00  0.00    -0.090 HD
ATOM     20  H   LIG d   1      -8.944  93.928 116.299  0.00  0.00    -0.090 HD
ATOM     21  H   LIG d   1      -8.813  92.317 116.566  0.00  0.00    -0.090 HD
ENDBRANCH   5  18
BRANCH   3  22
ATOM     22  C   LIG d   1      -7.083  95.398 120.340  0.00  0.00     0.382 C 
ATOM     23  O   LIG d   1      -6.957  96.557 119.877  0.00  0.00    -0.241 OA
ATOM     24  O   LIG d   1      -7.315  95.245 121.555  0.00  0.00    -0.241 OA
ENDBRANCH   3  22
TORSDOF 7
ENDMDL
MODEL 8
REMARK VINA RESULT:      -5.1      2.464      5.607
REMARK  7 active torsions:
REMARK  status: ('A' for Active; 'I' for Inactive)
REMARK    1  A    between atoms: C_2  and  C_3 
REMARK    2  A    between atoms: C_3  and  O_6 
REMARK    3  A    between atoms: C_3  and  C_4 
REMARK    4  A    between atoms: C_7  and  O_6 
REMARK    5  A    between atoms: C_9  and  C_10 
REMARK    6  A    between atoms: N_15  and  C_14 
REMARK    7  A    between atoms: N_20  and  C_19 
REMARK       I    between atoms: C_22  and  N_20 
ROOT
ATOM      1  C   LIG d   1      -6.332  78.050 117.190  0.00  0.00     0.161 C 
ATOM      2  C   LIG d   1      -6.309  76.735 116.697  0.00  0.00     0.016 C 
ATOM      3  C   LIG d   1      -7.411  75.854 116.779  0.00  0.00     0.038 C 
ATOM      4  C   LIG d   1      -8.670  76.280 117.228  0.00  0.00     0.028 C 
ATOM      5  C   LIG d   1      -8.601  77.451 118.202  0.00  0.00    -0.047 C 
ATOM      6  C   LIG d   1      -7.731  78.569 117.582  0.00  0.00     0.091 C 
ENDROOT
BRANCH   1   7
ATOM      7  O   LIG d   1      -5.717  78.940 116.238  0.00  0.00    -0.368 OA
BRANCH   7   8
ATOM      8  C   LIG d   1      -4.361  79.356 116.538  0.00  0.00     0.119 C 
BRANCH   8   9
ATOM      9  C   LIG d   1      -4.392  80.871 116.816  0.00  0.00     0.028 C 
ATOM     10  C   LIG d   1      -3.915  81.217 118.236  0.00  0.00     0.006 C 
ENDBRANCH   8   9
BRANCH   8  11
ATOM     11  C   LIG d   1      -3.445  79.185 115.323  0.00  0.00     0.028 C 
ATOM     12  C   LIG d   1      -2.234  78.283 115.612  0.00  0.00     0.006 C 
ENDBRANCH   8  11
ENDBRANCH   7   8
ENDBRANCH   1   7
BRANCH   6  13
ATOM     13  N   LIG d   1      -7.543  79.718 118.506  0.00  0.00    -0.311 N 
ATOM     14  C   LIG d   1      -7.757  80.984 118.154  0.00  0.00     0.210 C 
ATOM     15  C   LIG d   1      -7.483  82.016 119.253  0.00  0.00     0.109 C 
ATOM     16  O   LIG d   1      -8.180  81.349 117.047  0.00  0.00    -0.276 OA
ATOM     17  H   LIG d   1      -7.231  79.510 119.435  0.00  0.00     0.149 HD
ENDBRANCH   6  13
BRANCH   5  18
ATOM     18  N   LIG d   1      -9.984  77.881 118.481  0.00  0.00     0.381 N 
ATOM     19  H   LIG d   1     -10.621  77.366 117.907  0.00  0.00    -0.090 HD
ATOM     20  H   LIG d   1     -10.073  78.856 118.254  0.00  0.00    -0.090 HD
ATOM     21  H   LIG d   1     -10.199  77.735 119.442  0.00  0.00    -0.090 HD
ENDBRANCH   5  18
BRANCH   3  22
ATOM     22  C   LIG d   1      -7.249  74.517 116.446  0.00  0.00     0.382 C 
ATOM     23  O   LIG d   1      -6.424  74.188 115.560  0.00  0.00    -0.241 OA
ATOM     24  O   LIG d   1      -7.948  73.641 116.990  0.00  0.00    -0.241 OA
ENDBRANCH   3  22
TORSDOF 7
ENDMDL
MODEL 9
REMARK VINA RESULT:      -5.0      1.770      5.006
REMARK  7 active torsions:
REMARK  status: ('A' for Active; 'I' for Inactive)
REMARK    1  A    between atoms: C_2  and  C_3 
REMARK    2  A    between atoms: C_3  and  O_6 
REMARK    3  A    between atoms: C_3  and  C_4 
REMARK    4  A    between atoms: C_7  and  O_6 
REMARK    5  A    between atoms: C_9  and  C_10 
REMARK    6  A    between atoms: N_15  and  C_14 
REMARK    7  A    between atoms: N_20  and  C_19 
REMARK       I    between atoms: C_22  and  N_20 
ROOT
ATOM      1  C   LIG d   1      -6.410  77.423 116.802  0.00  0.00     0.161 C 
ATOM      2  C   LIG d   1      -5.176  77.906 116.336  0.00  0.00     0.016 C 
ATOM      3  C   LIG d   1      -4.679  79.195 116.641  0.00  0.00     0.038 C 
ATOM      4  C   LIG d   1      -5.319  80.036 117.564  0.00  0.00     0.028 C 
ATOM      5  C   LIG d   1      -6.821  79.792 117.667  0.00  0.00    -0.047 C 
ATOM      6  C   LIG d   1      -7.069  78.284 117.899  0.00  0.00     0.091 C 
ENDROOT
BRANCH   1   7
ATOM      7  O   LIG d   1      -6.262  76.062 117.254  0.00  0.00    -0.368 OA
BRANCH   7   8
ATOM      8  C   LIG d   1      -7.310  75.143 116.861  0.00  0.00     0.119 C 
BRANCH   8   9
ATOM      9  C   LIG d   1      -7.786  74.412 118.131  0.00  0.00     0.028 C 
ATOM     10  C   LIG d   1      -7.749  72.883 117.978  0.00  0.00     0.006 C 
ENDBRANCH   8   9
BRANCH   8  11
ATOM     11  C   LIG d   1      -6.771  74.044 115.940  0.00  0.00     0.028 C 
ATOM     12  C   LIG d   1      -5.345  74.331 115.442  0.00  0.00     0.006 C 
ENDBRANCH   8  11
ENDBRANCH   7   8
ENDBRANCH   1   7
BRANCH   6  13
ATOM     13  N   LIG d   1      -8.516  77.946 117.928  0.00  0.00    -0.311 N 
ATOM     14  C   LIG d   1      -9.215  77.810 119.053  0.00  0.00     0.210 C 
ATOM     15  C   LIG d   1     -10.689  77.439 118.858  0.00  0.00     0.109 C 
ATOM     16  O   LIG d   1      -8.763  77.993 120.193  0.00  0.00    -0.276 OA
ATOM     17  H   LIG d   1      -8.970  77.811 117.046  0.00  0.00     0.149 HD
ENDBRANCH   6  13
BRANCH   5  18
ATOM     18  N   LIG d   1      -7.336  80.638 118.759  0.00  0.00     0.381 N 
ATOM     19  H   LIG d   1      -7.392  81.589 118.453  0.00  0.00    -0.090 HD
ATOM     20  H   LIG d   1      -6.698  80.593 119.534  0.00  0.00    -0.090 HD
ATOM     21  H   LIG d   1      -8.236  80.319 119.042  0.00  0.00    -0.090 HD
ENDBRANCH   5  18
BRANCH   3  22
ATOM     22  C   LIG d   1      -3.551  79.668 115.990  0.00  0.00     0.382 C 
ATOM     23  O   LIG d   1      -2.460  79.752 116.605  0.00  0.00    -0.241 OA
ATOM     24  O   LIG d   1      -3.619  80.054 114.808  0.00  0.00    -0.241 OA
ENDBRANCH   3  22
TORSDOF 7
ENDMDL
