MODEL 1
REMARK VINA RESULT:      -5.5      0.000      0.000
REMARK  7 active torsions:
REMARK  status: ('A' for Active; 'I' for Inactive)
REMARK    1  A    between atoms: C_2  and  C_3 
REMARK    2  A    between atoms: C_3  and  O_6 
REMARK    3  A    between atoms: C_3  and  C_4 
REMARK    4  A    between atoms: C_7  and  O_6 
REMARK    5  A    between atoms: C_9  and  C_10 
REMARK    6  A    between atoms: N_15  and  C_14 
REMARK    7  A    between atoms: N_20  and  C_19 
REMARK       I    between atoms: C_22  and  N_20 
ROOT
ATOM      1  C   LIG d   1      -3.972  91.640 118.072  0.00  0.00     0.161 C 
ATOM      2  C   LIG d   1      -4.519  90.924 116.994  0.00  0.00     0.016 C 
ATOM      3  C   LIG d   1      -5.731  91.280 116.359  0.00  0.00     0.038 C 
ATOM      4  C   LIG d   1      -6.405  92.473 116.663  0.00  0.00     0.028 C 
ATOM      5  C   LIG d   1      -6.158  92.962 118.086  0.00  0.00    -0.047 C 
ATOM      6  C   LIG d   1      -4.634  93.006 118.344  0.00  0.00     0.091 C 
ENDROOT
BRANCH   1   7
ATOM      7  O   LIG d   1      -2.552  91.800 117.880  0.00  0.00    -0.368 OA
BRANCH   7   8
ATOM      8  C   LIG d   1      -1.699  90.980 118.716  0.00  0.00     0.119 C 
BRANCH   8   9
ATOM      9  C   LIG d   1      -0.482  91.837 119.117  0.00  0.00     0.028 C 
ATOM     10  C   LIG d   1      -0.060  92.812 118.006  0.00  0.00     0.006 C 
ENDBRANCH   8   9
BRANCH   8  11
ATOM     11  C   LIG d   1      -1.122  89.797 117.933  0.00  0.00     0.028 C 
ATOM     12  C   LIG d   1      -1.840  88.473 118.238  0.00  0.00     0.006 C 
ENDBRANCH   8  11
ENDBRANCH   7   8
ENDBRANCH   1   7
BRANCH   6  13
ATOM     13  N   LIG d   1      -4.307  93.394 119.741  0.00  0.00    -0.311 N 
ATOM     14  C   LIG d   1      -3.367  94.284 120.053  0.00  0.00     0.210 C 
ATOM     15  C   LIG d   1      -3.176  94.524 121.554  0.00  0.00     0.109 C 
ATOM     16  O   LIG d   1      -2.694  94.922 119.228  0.00  0.00    -0.276 OA
ATOM     17  H   LIG d   1      -4.826  92.949 120.471  0.00  0.00     0.149 HD
ENDBRANCH   6  13
BRANCH   5  18
ATOM     18  N   LIG d   1      -6.805  94.281 118.222  0.00  0.00     0.381 N 
ATOM     19  H   LIG d   1      -7.781  94.161 118.407  0.00  0.00    -0.090 HD
ATOM     20  H   LIG d   1      -6.707  94.782 117.357  0.00  0.00    -0.090 HD
ATOM     21  H   LIG d   1      -6.380  94.794 118.962  0.00  0.00    -0.090 HD
ENDBRANCH   5  18
BRANCH   3  22
ATOM     22  C   LIG d   1      -6.303  90.418 115.435  0.00  0.00     0.382 C 
ATOM     23  O   LIG d   1      -7.480  90.607 115.046  0.00  0.00    -0.241 OA
ATOM     24  O   LIG d   1      -5.671  89.428 115.020  0.00  0.00    -0.241 OA
ENDBRANCH   3  22
TORSDOF 7
ENDMDL
MODEL 2
REMARK VINA RESULT:      -5.1     13.430     16.303
REMARK  7 active torsions:
REMARK  status: ('A' for Active; 'I' for Inactive)
REMARK    1  A    between atoms: C_2  and  C_3 
REMARK    2  A    between atoms: C_3  and  O_6 
REMARK    3  A    between atoms: C_3  and  C_4 
REMARK    4  A    between atoms: C_7  and  O_6 
REMARK    5  A    between atoms: C_9  and  C_10 
REMARK    6  A    between atoms: N_15  and  C_14 
REMARK    7  A    between atoms: N_20  and  C_19 
REMARK       I    between atoms: C_22  and  N_20 
ROOT
ATOM      1  C   LIG d   1      -3.947  77.174 115.667  0.00  0.00     0.161 C 
ATOM      2  C   LIG d   1      -2.884  76.280 115.455  0.00  0.00     0.016 C 
ATOM      3  C   LIG d   1      -2.062  75.789 116.495  0.00  0.00     0.038 C 
ATOM      4  C   LIG d   1      -2.344  76.042 117.846  0.00  0.00     0.028 C 
ATOM      5  C   LIG d   1      -3.102  77.346 118.072  0.00  0.00    -0.047 C 
ATOM      6  C   LIG d   1      -4.339  77.374 117.145  0.00  0.00     0.091 C 
ENDROOT
BRANCH   1   7
ATOM      7  O   LIG d   1      -5.093  76.762 114.896  0.00  0.00    -0.368 OA
BRANCH   7   8
ATOM      8  C   LIG d   1      -5.917  75.726 115.484  0.00  0.00     0.119 C 
BRANCH   8   9
ATOM      9  C   LIG d   1      -5.540  74.394 114.806  0.00  0.00     0.028 C 
ATOM     10  C   LIG d   1      -6.093  73.174 115.561  0.00  0.00     0.006 C 
ENDBRANCH   8   9
BRANCH   8  11
ATOM     11  C   LIG d   1      -7.398  75.941 115.159  0.00  0.00     0.028 C 
ATOM     12  C   LIG d   1      -8.283  75.987 116.415  0.00  0.00     0.006 C 
ENDBRANCH   8  11
ENDBRANCH   7   8
ENDBRANCH   1   7
BRANCH   6  13
ATOM     13  N   LIG d   1      -5.091  78.653 117.243  0.00  0.00    -0.311 N 
ATOM     14  C   LIG d   1      -6.162  78.816 118.017  0.00  0.00     0.210 C 
ATOM     15  C   LIG d   1      -6.799  80.208 117.954  0.00  0.00     0.109 C 
ATOM     16  O   LIG d   1      -6.626  77.951 118.774  0.00  0.00    -0.276 OA
ATOM     17  H   LIG d   1      -4.764  79.417 116.685  0.00  0.00     0.149 HD
ENDBRANCH   6  13
BRANCH   5  18
ATOM     18  N   LIG d   1      -3.451  77.416 119.504  0.00  0.00     0.381 N 
ATOM     19  H   LIG d   1      -3.647  78.363 119.759  0.00  0.00    -0.090 HD
ATOM     20  H   LIG d   1      -2.665  77.100 120.045  0.00  0.00    -0.090 HD
ATOM     21  H   LIG d   1      -4.244  76.843 119.690  0.00  0.00    -0.090 HD
ENDBRANCH   5  18
BRANCH   3  22
ATOM     22  C   LIG d   1      -0.919  75.067 116.185  0.00  0.00     0.382 C 
ATOM     23  O   LIG d   1       0.200  75.459 116.594  0.00  0.00    -0.241 OA
ATOM     24  O   LIG d   1      -0.989  74.054 115.464  0.00  0.00    -0.241 OA
ENDBRANCH   3  22
TORSDOF 7
ENDMDL
MODEL 3
REMARK VINA RESULT:      -5.0     12.392     14.285
REMARK  7 active torsions:
REMARK  status: ('A' for Active; 'I' for Inactive)
REMARK    1  A    between atoms: C_2  and  C_3 
REMARK    2  A    between atoms: C_3  and  O_6 
REMARK    3  A    between atoms: C_3  and  C_4 
REMARK    4  A    between atoms: C_7  and  O_6 
REMARK    5  A    between atoms: C_9  and  C_10 
REMARK    6  A    between atoms: N_15  and  C_14 
REMARK    7  A    between atoms: N_20  and  C_19 
REMARK       I    between atoms: C_22  and  N_20 
ROOT
ATOM      1  C   LIG d   1      -6.709  78.215 117.578  0.00  0.00     0.161 C 
ATOM      2  C   LIG d   1      -8.078  78.528 117.542  0.00  0.00     0.016 C 
ATOM      3  C   LIG d   1      -8.636  79.655 118.188  0.00  0.00     0.038 C 
ATOM      4  C   LIG d   1      -7.835  80.635 118.792  0.00  0.00     0.028 C 
ATOM      5  C   LIG d   1      -6.495  80.103 119.287  0.00  0.00    -0.047 C 
ATOM      6  C   LIG d   1      -5.805  79.334 118.137  0.00  0.00     0.091 C 
ENDROOT
BRANCH   1   7
ATOM      7  O   LIG d   1      -6.263  77.821 116.265  0.00  0.00    -0.368 OA
BRANCH   7   8
ATOM      8  C   LIG d   1      -5.823  76.448 116.127  0.00  0.00     0.119 C 
BRANCH   8   9
ATOM      9  C   LIG d   1      -4.612  76.443 115.175  0.00  0.00     0.028 C 
ATOM     10  C   LIG d   1      -3.443  75.602 115.715  0.00  0.00     0.006 C 
ENDBRANCH   8   9
BRANCH   8  11
ATOM     11  C   LIG d   1      -6.886  75.589 115.436  0.00  0.00     0.028 C 
ATOM     12  C   LIG d   1      -7.117  74.243 116.142  0.00  0.00     0.006 C 
ENDBRANCH   8  11
ENDBRANCH   7   8
ENDBRANCH   1   7
BRANCH   6  13
ATOM     13  N   LIG d   1      -4.525  78.708 118.562  0.00  0.00    -0.311 N 
ATOM     14  C   LIG d   1      -3.413  78.745 117.831  0.00  0.00     0.210 C 
ATOM     15  C   LIG d   1      -2.211  78.020 118.445  0.00  0.00     0.109 C 
ATOM     16  O   LIG d   1      -3.298  79.338 116.748  0.00  0.00    -0.276 OA
ATOM     17  H   LIG d   1      -4.521  78.232 119.443  0.00  0.00     0.149 HD
ENDBRANCH   6  13
BRANCH   5  18
ATOM     18  N   LIG d   1      -5.708  81.254 119.767  0.00  0.00     0.381 N 
ATOM     19  H   LIG d   1      -6.230  82.098 119.641  0.00  0.00    -0.090 HD
ATOM     20  H   LIG d   1      -4.865  81.321 119.224  0.00  0.00    -0.090 HD
ATOM     21  H   LIG d   1      -5.482  81.135 120.730  0.00  0.00    -0.090 HD
ENDBRANCH   5  18
BRANCH   3  22
ATOM     22  C   LIG d   1     -10.014  79.788 118.269  0.00  0.00     0.382 C 
ATOM     23  O   LIG d   1     -10.713  78.832 118.685  0.00  0.00    -0.241 OA
ATOM     24  O   LIG d   1     -10.571  80.836 117.890  0.00  0.00    -0.241 OA
ENDBRANCH   3  22
TORSDOF 7
ENDMDL
MODEL 4
REMARK VINA RESULT:      -5.0     13.407     15.162
REMARK  7 active torsions:
REMARK  status: ('A' for Active; 'I' for Inactive)
REMARK    1  A    between atoms: C_2  and  C_3 
REMARK    2  A    between atoms: C_3  and  O_6 
REMARK    3  A    between atoms: C_3  and  C_4 
REMARK    4  A    between atoms: C_7  and  O_6 
REMARK    5  A    between atoms: C_9  and  C_10 
REMARK    6  A    between atoms: N_15  and  C_14 
REMARK    7  A    between atoms: N_20  and  C_19 
REMARK       I    between atoms: C_22  and  N_20 
ROOT
ATOM      1  C   LIG d   1      -5.730  78.532 116.910  0.00  0.00     0.161 C 
ATOM      2  C   LIG d   1      -4.334  78.379 116.878  0.00  0.00     0.016 C 
ATOM      3  C   LIG d   1      -3.521  78.411 118.034  0.00  0.00     0.038 C 
ATOM      4  C   LIG d   1      -4.068  78.448 119.325  0.00  0.00     0.028 C 
ATOM      5  C   LIG d   1      -5.440  79.111 119.382  0.00  0.00    -0.047 C 
ATOM      6  C   LIG d   1      -6.356  78.462 118.319  0.00  0.00     0.091 C 
ENDROOT
BRANCH   1   7
ATOM      7  O   LIG d   1      -6.348  77.565 116.039  0.00  0.00    -0.368 OA
BRANCH   7   8
ATOM      8  C   LIG d   1      -6.018  76.177 116.291  0.00  0.00     0.119 C 
BRANCH   8   9
ATOM      9  C   LIG d   1      -5.560  75.559 114.956  0.00  0.00     0.028 C 
ATOM     10  C   LIG d   1      -5.651  74.024 114.957  0.00  0.00     0.006 C 
ENDBRANCH   8   9
BRANCH   8  11
ATOM     11  C   LIG d   1      -7.256  75.376 116.705  0.00  0.00     0.028 C 
ATOM     12  C   LIG d   1      -8.572  76.069 116.314  0.00  0.00     0.006 C 
ENDBRANCH   8  11
ENDBRANCH   7   8
ENDBRANCH   1   7
BRANCH   6  13
ATOM     13  N   LIG d   1      -7.692  79.110 118.250  0.00  0.00    -0.311 N 
ATOM     14  C   LIG d   1      -8.758  78.662 118.911  0.00  0.00     0.210 C 
ATOM     15  C   LIG d   1     -10.043  79.465 118.685  0.00  0.00     0.109 C 
ATOM     16  O   LIG d   1      -8.755  77.696 119.688  0.00  0.00    -0.276 OA
ATOM     17  H   LIG d   1      -7.777  79.919 117.667  0.00  0.00     0.149 HD
ENDBRANCH   6  13
BRANCH   5  18
ATOM     18  N   LIG d   1      -5.953  78.958 120.757  0.00  0.00     0.381 N 
ATOM     19  H   LIG d   1      -6.796  78.420 120.746  0.00  0.00    -0.090 HD
ATOM     20  H   LIG d   1      -6.163  79.867 121.129  0.00  0.00    -0.090 HD
ATOM     21  H   LIG d   1      -5.270  78.508 121.327  0.00  0.00    -0.090 HD
ENDBRANCH   5  18
BRANCH   3  22
ATOM     22  C   LIG d   1      -2.141  78.446 117.903  0.00  0.00     0.382 C 
ATOM     23  O   LIG d   1      -1.422  77.729 118.640  0.00  0.00    -0.241 OA
ATOM     24  O   LIG d   1      -1.603  79.218 117.087  0.00  0.00    -0.241 OA
ENDBRANCH   3  22
TORSDOF 7
ENDMDL
MODEL 5
REMARK VINA RESULT:      -4.9      2.248      4.194
REMARK  7 active torsions:
REMARK  status: ('A' for Active; 'I' for Inactive)
REMARK    1  A    between atoms: C_2  and  C_3 
REMARK    2  A    between atoms: C_3  and  O_6 
REMARK    3  A    between atoms: C_3  and  C_4 
REMARK    4  A    between atoms: C_7  and  O_6 
REMARK    5  A    between atoms: C_9  and  C_10 
REMARK    6  A    between atoms: N_15  and  C_14 
REMARK    7  A    between atoms: N_20  and  C_19 
REMARK       I    between atoms: C_22  and  N_20 
ROOT
ATOM      1  C   LIG d   1      -3.863  93.005 120.182  0.00  0.00     0.161 C 
ATOM      2  C   LIG d   1      -3.037  92.032 119.596  0.00  0.00     0.016 C 
ATOM      3  C   LIG d   1      -3.319  91.418 118.355  0.00  0.00     0.038 C 
ATOM      4  C   LIG d   1      -4.375  91.847 117.537  0.00  0.00     0.028 C 
ATOM      5  C   LIG d   1      -5.526  92.476 118.316  0.00  0.00    -0.047 C 
ATOM      6  C   LIG d   1      -4.960  93.567 119.254  0.00  0.00     0.091 C 
ENDROOT
BRANCH   1   7
ATOM      7  O   LIG d   1      -3.057  94.077 120.710  0.00  0.00    -0.368 OA
BRANCH   7   8
ATOM      8  C   LIG d   1      -2.643  95.090 119.761  0.00  0.00     0.119 C 
BRANCH   8   9
ATOM      9  C   LIG d   1      -1.103  95.091 119.727  0.00  0.00     0.028 C 
ATOM     10  C   LIG d   1      -0.544  94.506 118.420  0.00  0.00     0.006 C 
ENDBRANCH   8   9
BRANCH   8  11
ATOM     11  C   LIG d   1      -3.039  96.492 120.234  0.00  0.00     0.028 C 
ATOM     12  C   LIG d   1      -3.448  97.418 119.077  0.00  0.00     0.006 C 
ENDBRANCH   8  11
ENDBRANCH   7   8
ENDBRANCH   1   7
BRANCH   6  13
ATOM     13  N   LIG d   1      -6.010  94.175 120.113  0.00  0.00    -0.311 N 
ATOM     14  C   LIG d   1      -6.719  95.245 119.759  0.00  0.00     0.210 C 
ATOM     15  C   LIG d   1      -7.736  95.721 120.801  0.00  0.00     0.109 C 
ATOM     16  O   LIG d   1      -6.625  95.825 118.667  0.00  0.00    -0.276 OA
ATOM     17  H   LIG d   1      -6.173  93.748 121.004  0.00  0.00     0.149 HD
ENDBRANCH   6  13
BRANCH   5  18
ATOM     18  N   LIG d   1      -6.493  93.003 117.334  0.00  0.00     0.381 N 
ATOM     19  H   LIG d   1      -7.352  92.494 117.398  0.00  0.00    -0.090 HD
ATOM     20  H   LIG d   1      -6.119  92.876 116.410  0.00  0.00    -0.090 HD
ATOM     21  H   LIG d   1      -6.658  93.970 117.503  0.00  0.00    -0.090 HD
ENDBRANCH   5  18
BRANCH   3  22
ATOM     22  C   LIG d   1      -2.562  90.333 117.937  0.00  0.00     0.382 C 
ATOM     23  O   LIG d   1      -3.075  89.189 117.898  0.00  0.00    -0.241 OA
ATOM     24  O   LIG d   1      -1.361  90.478 117.641  0.00  0.00    -0.241 OA
ENDBRANCH   3  22
TORSDOF 7
ENDMDL
MODEL 6
REMARK VINA RESULT:      -4.8     12.308     14.615
REMARK  7 active torsions:
REMARK  status: ('A' for Active; 'I' for Inactive)
REMARK    1  A    between atoms: C_2  and  C_3 
REMARK    2  A    between atoms: C_3  and  O_6 
REMARK    3  A    between atoms: C_3  and  C_4 
REMARK    4  A    between atoms: C_7  and  O_6 
REMARK    5  A    between atoms: C_9  and  C_10 
REMARK    6  A    between atoms: N_15  and  C_14 
REMARK    7  A    between atoms: N_20  and  C_19 
REMARK       I    between atoms: C_22  and  N_20 
ROOT
ATOM      1  C   LIG d   1      -5.176  77.714 116.761  0.00  0.00     0.161 C 
ATOM      2  C   LIG d   1      -5.253  76.444 116.166  0.00  0.00     0.016 C 
ATOM      3  C   LIG d   1      -6.446  75.689 116.094  0.00  0.00     0.038 C 
ATOM      4  C   LIG d   1      -7.685  76.222 116.481  0.00  0.00     0.028 C 
ATOM      5  C   LIG d   1      -7.572  77.304 117.549  0.00  0.00    -0.047 C 
ATOM      6  C   LIG d   1      -6.540  78.358 117.088  0.00  0.00     0.091 C 
ENDROOT
BRANCH   1   7
ATOM      7  O   LIG d   1      -4.392  78.595 115.932  0.00  0.00    -0.368 OA
BRANCH   7   8
ATOM      8  C   LIG d   1      -3.042  78.863 116.386  0.00  0.00     0.119 C 
BRANCH   8   9
ATOM      9  C   LIG d   1      -2.101  77.907 115.627  0.00  0.00     0.028 C 
ATOM     10  C   LIG d   1      -1.250  77.046 116.575  0.00  0.00     0.006 C 
ENDBRANCH   8   9
BRANCH   8  11
ATOM     11  C   LIG d   1      -2.871  78.510 117.866  0.00  0.00     0.028 C 
ATOM     12  C   LIG d   1      -2.764  79.751 118.766  0.00  0.00     0.006 C 
ENDBRANCH   8  11
ENDBRANCH   7   8
ENDBRANCH   1   7
BRANCH   6  13
ATOM     13  N   LIG d   1      -6.306  79.409 118.113  0.00  0.00    -0.311 N 
ATOM     14  C   LIG d   1      -6.963  80.568 118.138  0.00  0.00     0.210 C 
ATOM     15  C   LIG d   1      -6.555  81.518 119.268  0.00  0.00     0.109 C 
ATOM     16  O   LIG d   1      -7.866  80.886 117.350  0.00  0.00    -0.276 OA
ATOM     17  H   LIG d   1      -5.612  79.221 118.809  0.00  0.00     0.149 HD
ENDBRANCH   6  13
BRANCH   5  18
ATOM     18  N   LIG d   1      -8.919  77.867 117.757  0.00  0.00     0.381 N 
ATOM     19  H   LIG d   1      -8.923  78.837 117.513  0.00  0.00    -0.090 HD
ATOM     20  H   LIG d   1      -9.159  77.786 118.730  0.00  0.00    -0.090 HD
ATOM     21  H   LIG d   1      -9.584  77.374 117.202  0.00  0.00    -0.090 HD
ENDBRANCH   5  18
BRANCH   3  22
ATOM     22  C   LIG d   1      -6.400  74.370 115.668  0.00  0.00     0.382 C 
ATOM     23  O   LIG d   1      -7.162  73.518 116.185  0.00  0.00    -0.241 OA
ATOM     24  O   LIG d   1      -5.576  74.014 114.805  0.00  0.00    -0.241 OA
ENDBRANCH   3  22
TORSDOF 7
ENDMDL
MODEL 7
REMARK VINA RESULT:      -4.8     11.475     13.742
REMARK  7 active torsions:
REMARK  status: ('A' for Active; 'I' for Inactive)
REMARK    1  A    between atoms: C_2  and  C_3 
REMARK    2  A    between atoms: C_3  and  O_6 
REMARK    3  A    between atoms: C_3  and  C_4 
REMARK    4  A    between atoms: C_7  and  O_6 
REMARK    5  A    between atoms: C_9  and  C_10 
REMARK    6  A    between atoms: N_15  and  C_14 
REMARK    7  A    between atoms: N_20  and  C_19 
REMARK       I    between atoms: C_22  and  N_20 
ROOT
ATOM      1  C   LIG d   1      -6.430  79.855 117.803  0.00  0.00     0.161 C 
ATOM      2  C   LIG d   1      -7.755  80.162 118.154  0.00  0.00     0.016 C 
ATOM      3  C   LIG d   1      -8.804  79.215 118.137  0.00  0.00     0.038 C 
ATOM      4  C   LIG d   1      -8.568  77.850 117.913  0.00  0.00     0.028 C 
ATOM      5  C   LIG d   1      -7.332  77.582 117.061  0.00  0.00    -0.047 C 
ATOM      6  C   LIG d   1      -6.131  78.348 117.663  0.00  0.00     0.091 C 
ENDROOT
BRANCH   1   7
ATOM      7  O   LIG d   1      -5.522  80.460 118.745  0.00  0.00    -0.368 OA
BRANCH   7   8
ATOM      8  C   LIG d   1      -6.071  80.771 120.049  0.00  0.00     0.119 C 
BRANCH   8   9
ATOM      9  C   LIG d   1      -5.546  82.162 120.453  0.00  0.00     0.028 C 
ATOM     10  C   LIG d   1      -4.010  82.230 120.462  0.00  0.00     0.006 C 
ENDBRANCH   8   9
BRANCH   8  11
ATOM     11  C   LIG d   1      -5.542  79.812 121.120  0.00  0.00     0.028 C 
ATOM     12  C   LIG d   1      -6.471  78.610 121.354  0.00  0.00     0.006 C 
ENDBRANCH   8  11
ENDBRANCH   7   8
ENDBRANCH   1   7
BRANCH   6  13
ATOM     13  N   LIG d   1      -4.900  78.208 116.842  0.00  0.00    -0.311 N 
ATOM     14  C   LIG d   1      -3.781  77.642 117.290  0.00  0.00     0.210 C 
ATOM     15  C   LIG d   1      -2.623  77.617 116.288  0.00  0.00     0.109 C 
ATOM     16  O   LIG d   1      -3.647  77.129 118.411  0.00  0.00    -0.276 OA
ATOM     17  H   LIG d   1      -4.931  78.569 115.909  0.00  0.00     0.149 HD
ENDBRANCH   6  13
BRANCH   5  18
ATOM     18  N   LIG d   1      -7.126  76.122 117.021  0.00  0.00     0.381 N 
ATOM     19  H   LIG d   1      -7.752  75.674 117.660  0.00  0.00    -0.090 HD
ATOM     20  H   LIG d   1      -6.184  75.919 117.308  0.00  0.00    -0.090 HD
ATOM     21  H   LIG d   1      -7.280  75.781 116.098  0.00  0.00    -0.090 HD
ENDBRANCH   5  18
BRANCH   3  22
ATOM     22  C   LIG d   1     -10.114  79.636 118.308  0.00  0.00     0.382 C 
ATOM     23  O   LIG d   1     -10.497  80.715 117.794  0.00  0.00    -0.241 OA
ATOM     24  O   LIG d   1     -10.905  78.974 119.006  0.00  0.00    -0.241 OA
ENDBRANCH   3  22
TORSDOF 7
ENDMDL
MODEL 8
REMARK VINA RESULT:      -4.7      1.983      5.003
REMARK  7 active torsions:
REMARK  status: ('A' for Active; 'I' for Inactive)
REMARK    1  A    between atoms: C_2  and  C_3 
REMARK    2  A    between atoms: C_3  and  O_6 
REMARK    3  A    between atoms: C_3  and  C_4 
REMARK    4  A    between atoms: C_7  and  O_6 
REMARK    5  A    between atoms: C_9  and  C_10 
REMARK    6  A    between atoms: N_15  and  C_14 
REMARK    7  A    between atoms: N_20  and  C_19 
REMARK       I    between atoms: C_22  and  N_20 
ROOT
ATOM      1  C   LIG d   1      -2.902  90.738 117.972  0.00  0.00     0.161 C 
ATOM      2  C   LIG d   1      -2.106  91.205 119.031  0.00  0.00     0.016 C 
ATOM      3  C   LIG d   1      -2.473  92.288 119.863  0.00  0.00     0.038 C 
ATOM      4  C   LIG d   1      -3.740  92.885 119.786  0.00  0.00     0.028 C 
ATOM      5  C   LIG d   1      -4.377  92.780 118.404  0.00  0.00    -0.047 C 
ATOM      6  C   LIG d   1      -4.337  91.305 117.944  0.00  0.00     0.091 C 
ENDROOT
BRANCH   1   7
ATOM      7  O   LIG d   1      -2.933  89.297 117.982  0.00  0.00    -0.368 OA
BRANCH   7   8
ATOM      8  C   LIG d   1      -1.828  88.641 118.651  0.00  0.00     0.119 C 
BRANCH   8   9
ATOM      9  C   LIG d   1      -0.955  87.982 117.565  0.00  0.00     0.028 C 
ATOM     10  C   LIG d   1       0.365  88.737 117.336  0.00  0.00     0.006 C 
ENDBRANCH   8   9
BRANCH   8  11
ATOM     11  C   LIG d   1      -2.316  87.488 119.533  0.00  0.00     0.028 C 
ATOM     12  C   LIG d   1      -1.207  86.476 119.859  0.00  0.00     0.006 C 
ENDBRANCH   8  11
ENDBRANCH   7   8
ENDBRANCH   1   7
BRANCH   6  13
ATOM     13  N   LIG d   1      -4.864  91.127 116.566  0.00  0.00    -0.311 N 
ATOM     14  C   LIG d   1      -6.156  90.959 116.291  0.00  0.00     0.210 C 
ATOM     15  C   LIG d   1      -6.483  90.773 114.806  0.00  0.00     0.109 C 
ATOM     16  O   LIG d   1      -7.067  90.977 117.133  0.00  0.00    -0.276 OA
ATOM     17  H   LIG d   1      -4.198  91.130 115.818  0.00  0.00     0.149 HD
ENDBRANCH   6  13
BRANCH   5  18
ATOM     18  N   LIG d   1      -5.746  93.319 118.502  0.00  0.00     0.381 N 
ATOM     19  H   LIG d   1      -5.736  94.304 118.332  0.00  0.00    -0.090 HD
ATOM     20  H   LIG d   1      -6.091  93.164 119.433  0.00  0.00    -0.090 HD
ATOM     21  H   LIG d   1      -6.339  92.866 117.842  0.00  0.00    -0.090 HD
ENDBRANCH   5  18
BRANCH   3  22
ATOM     22  C   LIG d   1      -1.552  92.810 120.757  0.00  0.00     0.382 C 
ATOM     23  O   LIG d   1      -0.693  92.061 121.282  0.00  0.00    -0.241 OA
ATOM     24  O   LIG d   1      -1.597  94.012 121.081  0.00  0.00    -0.241 OA
ENDBRANCH   3  22
TORSDOF 7
ENDMDL
MODEL 9
REMARK VINA RESULT:      -4.6      3.344      6.401
REMARK  7 active torsions:
REMARK  status: ('A' for Active; 'I' for Inactive)
REMARK    1  A    between atoms: C_2  and  C_3 
REMARK    2  A    between atoms: C_3  and  O_6 
REMARK    3  A    between atoms: C_3  and  C_4 
REMARK    4  A    between atoms: C_7  and  O_6 
REMARK    5  A    between atoms: C_9  and  C_10 
REMARK    6  A    between atoms: N_15  and  C_14 
REMARK    7  A    between atoms: N_20  and  C_19 
REMARK       I    between atoms: C_22  and  N_20 
ROOT
ATOM      1  C   LIG d   1       0.091  90.157 116.861  0.00  0.00     0.161 C 
ATOM      2  C   LIG d   1       1.491  90.101 116.758  0.00  0.00     0.016 C 
ATOM      3  C   LIG d   1       2.355  91.031 117.381  0.00  0.00     0.038 C 
ATOM      4  C   LIG d   1       1.881  91.998 118.279  0.00  0.00     0.028 C 
ATOM      5  C   LIG d   1       0.436  92.410 118.017  0.00  0.00    -0.047 C 
ATOM      6  C   LIG d   1      -0.440  91.139 117.927  0.00  0.00     0.091 C 
ENDROOT
BRANCH   1   7
ATOM      7  O   LIG d   1      -0.436  88.836 117.091  0.00  0.00    -0.368 OA
BRANCH   7   8
ATOM      8  C   LIG d   1      -0.515  88.413 118.475  0.00  0.00     0.119 C 
BRANCH   8   9
ATOM      9  C   LIG d   1       0.336  87.137 118.619  0.00  0.00     0.028 C 
ATOM     10  C   LIG d   1       0.619  86.465 117.265  0.00  0.00     0.006 C 
ENDBRANCH   8   9
BRANCH   8  11
ATOM     11  C   LIG d   1      -1.940  87.995 118.848  0.00  0.00     0.028 C 
ATOM     12  C   LIG d   1      -1.979  86.952 119.976  0.00  0.00     0.006 C 
ENDBRANCH   8  11
ENDBRANCH   7   8
ENDBRANCH   1   7
BRANCH   6  13
ATOM     13  N   LIG d   1      -1.854  91.448 117.589  0.00  0.00    -0.311 N 
ATOM     14  C   LIG d   1      -2.810  91.595 118.504  0.00  0.00     0.210 C 
ATOM     15  C   LIG d   1      -4.204  91.891 117.940  0.00  0.00     0.109 C 
ATOM     16  O   LIG d   1      -2.631  91.541 119.730  0.00  0.00    -0.276 OA
ATOM     17  H   LIG d   1      -2.081  91.540 116.618  0.00  0.00     0.149 HD
ENDBRANCH   6  13
BRANCH   5  18
ATOM     18  N   LIG d   1       0.027  93.317 119.106  0.00  0.00     0.381 N 
ATOM     19  H   LIG d   1       0.689  93.269 119.854  0.00  0.00    -0.090 HD
ATOM     20  H   LIG d   1      -0.867  93.022 119.457  0.00  0.00    -0.090 HD
ATOM     21  H   LIG d   1      -0.033  94.252 118.766  0.00  0.00    -0.090 HD
ENDBRANCH   5  18
BRANCH   3  22
ATOM     22  C   LIG d   1       3.708  91.023 117.075  0.00  0.00     0.382 C 
ATOM     23  O   LIG d   1       4.299  89.934 116.876  0.00  0.00    -0.241 OA
ATOM     24  O   LIG d   1       4.354  92.087 117.040  0.00  0.00    -0.241 OA
ENDBRANCH   3  22
TORSDOF 7
ENDMDL
