MODEL 1
REMARK VINA RESULT:      -6.3      0.000      0.000
REMARK  7 active torsions:
REMARK  status: ('A' for Active; 'I' for Inactive)
REMARK    1  A    between atoms: C_2  and  C_3 
REMARK    2  A    between atoms: C_3  and  O_6 
REMARK    3  A    between atoms: C_3  and  C_4 
REMARK    4  A    between atoms: C_7  and  O_6 
REMARK    5  A    between atoms: C_9  and  C_10 
REMARK    6  A    between atoms: N_15  and  C_14 
REMARK    7  A    between atoms: N_20  and  C_19 
REMARK       I    between atoms: C_22  and  N_20 
ROOT
ATOM      1  C   LIG d   1      -7.301  76.797 117.742  0.00  0.00     0.161 C 
ATOM      2  C   LIG d   1      -8.486  77.504 118.003  0.00  0.00     0.016 C 
ATOM      3  C   LIG d   1      -8.532  78.905 118.187  0.00  0.00     0.038 C 
ATOM      4  C   LIG d   1      -7.410  79.718 117.970  0.00  0.00     0.028 C 
ATOM      5  C   LIG d   1      -6.086  78.997 118.200  0.00  0.00    -0.047 C 
ATOM      6  C   LIG d   1      -6.084  77.680 117.392  0.00  0.00     0.091 C 
ENDROOT
BRANCH   1   7
ATOM      7  O   LIG d   1      -7.530  75.826 116.702  0.00  0.00    -0.368 OA
BRANCH   7   8
ATOM      8  C   LIG d   1      -7.914  74.500 117.142  0.00  0.00     0.119 C 
BRANCH   8   9
ATOM      9  C   LIG d   1      -7.052  73.486 116.364  0.00  0.00     0.028 C 
ATOM     10  C   LIG d   1      -6.125  74.166 115.342  0.00  0.00     0.006 C 
ENDBRANCH   8   9
BRANCH   8  11
ATOM     11  C   LIG d   1      -9.362  74.182 116.755  0.00  0.00     0.028 C 
ATOM     12  C   LIG d   1      -9.618  72.675 116.595  0.00  0.00     0.006 C 
ENDBRANCH   8  11
ENDBRANCH   7   8
ENDBRANCH   1   7
BRANCH   6  13
ATOM     13  N   LIG d   1      -4.859  76.872 117.627  0.00  0.00    -0.311 N 
ATOM     14  C   LIG d   1      -3.928  76.666 116.698  0.00  0.00     0.210 C 
ATOM     15  C   LIG d   1      -2.755  75.786 117.142  0.00  0.00     0.109 C 
ATOM     16  O   LIG d   1      -3.945  77.154 115.558  0.00  0.00    -0.276 OA
ATOM     17  H   LIG d   1      -4.749  76.464 118.535  0.00  0.00     0.149 HD
ENDBRANCH   6  13
BRANCH   5  18
ATOM     18  N   LIG d   1      -5.002  79.918 117.807  0.00  0.00     0.381 N 
ATOM     19  H   LIG d   1      -4.719  79.726 116.867  0.00  0.00    -0.090 HD
ATOM     20  H   LIG d   1      -4.213  79.769 118.411  0.00  0.00    -0.090 HD
ATOM     21  H   LIG d   1      -5.313  80.862 117.882  0.00  0.00    -0.090 HD
ENDBRANCH   5  18
BRANCH   3  22
ATOM     22  C   LIG d   1      -9.702  79.502 118.630  0.00  0.00     0.382 C 
ATOM     23  O   LIG d   1     -10.231  80.421 117.959  0.00  0.00    -0.241 OA
ATOM     24  O   LIG d   1     -10.212  79.164 119.715  0.00  0.00    -0.241 OA
ENDBRANCH   3  22
TORSDOF 7
ENDMDL
MODEL 2
REMARK VINA RESULT:      -6.0      2.040      5.304
REMARK  7 active torsions:
REMARK  status: ('A' for Active; 'I' for Inactive)
REMARK    1  A    between atoms: C_2  and  C_3 
REMARK    2  A    between atoms: C_3  and  O_6 
REMARK    3  A    between atoms: C_3  and  C_4 
REMARK    4  A    between atoms: C_7  and  O_6 
REMARK    5  A    between atoms: C_9  and  C_10 
REMARK    6  A    between atoms: N_15  and  C_14 
REMARK    7  A    between atoms: N_20  and  C_19 
REMARK       I    between atoms: C_22  and  N_20 
ROOT
ATOM      1  C   LIG d   1      -5.775  75.831 116.590  0.00  0.00     0.161 C 
ATOM      2  C   LIG d   1      -6.384  74.618 116.230  0.00  0.00     0.016 C 
ATOM      3  C   LIG d   1      -7.750  74.334 116.459  0.00  0.00     0.038 C 
ATOM      4  C   LIG d   1      -8.640  75.310 116.930  0.00  0.00     0.028 C 
ATOM      5  C   LIG d   1      -7.968  76.385 117.778  0.00  0.00    -0.047 C 
ATOM      6  C   LIG d   1      -6.755  76.949 117.004  0.00  0.00     0.091 C 
ENDROOT
BRANCH   1   7
ATOM      7  O   LIG d   1      -4.920  76.285 115.522  0.00  0.00    -0.368 OA
BRANCH   7   8
ATOM      8  C   LIG d   1      -3.511  75.978 115.660  0.00  0.00     0.119 C 
BRANCH   8   9
ATOM      9  C   LIG d   1      -3.177  76.001 117.164  0.00  0.00     0.028 C 
ATOM     10  C   LIG d   1      -2.170  74.907 117.558  0.00  0.00     0.006 C 
ENDBRANCH   8   9
BRANCH   8  11
ATOM     11  C   LIG d   1      -2.639  77.072 115.035  0.00  0.00     0.028 C 
ATOM     12  C   LIG d   1      -2.639  78.373 115.851  0.00  0.00     0.006 C 
ENDBRANCH   8  11
ENDBRANCH   7   8
ENDBRANCH   1   7
BRANCH   6  13
ATOM     13  N   LIG d   1      -5.991  77.947 117.796  0.00  0.00    -0.311 N 
ATOM     14  C   LIG d   1      -6.340  79.228 117.895  0.00  0.00     0.210 C 
ATOM     15  C   LIG d   1      -5.403  80.091 118.745  0.00  0.00     0.109 C 
ATOM     16  O   LIG d   1      -7.355  79.726 117.384  0.00  0.00    -0.276 OA
ATOM     17  H   LIG d   1      -5.170  77.622 118.269  0.00  0.00     0.149 HD
ENDBRANCH   6  13
BRANCH   5  18
ATOM     18  N   LIG d   1      -8.984  77.409 118.087  0.00  0.00     0.381 N 
ATOM     19  H   LIG d   1      -9.893  76.991 118.102  0.00  0.00    -0.090 HD
ATOM     20  H   LIG d   1      -8.970  78.108 117.365  0.00  0.00    -0.090 HD
ATOM     21  H   LIG d   1      -8.788  77.828 118.969  0.00  0.00    -0.090 HD
ENDBRANCH   5  18
BRANCH   3  22
ATOM     22  C   LIG d   1      -8.229  73.050 116.253  0.00  0.00     0.382 C 
ATOM     23  O   LIG d   1      -9.432  72.783 116.492  0.00  0.00    -0.241 OA
ATOM     24  O   LIG d   1      -7.464  72.143 115.874  0.00  0.00    -0.241 OA
ENDBRANCH   3  22
TORSDOF 7
ENDMDL
MODEL 3
REMARK VINA RESULT:      -5.5      2.063      5.083
REMARK  7 active torsions:
REMARK  status: ('A' for Active; 'I' for Inactive)
REMARK    1  A    between atoms: C_2  and  C_3 
REMARK    2  A    between atoms: C_3  and  O_6 
REMARK    3  A    between atoms: C_3  and  C_4 
REMARK    4  A    between atoms: C_7  and  O_6 
REMARK    5  A    between atoms: C_9  and  C_10 
REMARK    6  A    between atoms: N_15  and  C_14 
REMARK    7  A    between atoms: N_20  and  C_19 
REMARK       I    between atoms: C_22  and  N_20 
ROOT
ATOM      1  C   LIG d   1      -7.222  76.536 117.745  0.00  0.00     0.161 C 
ATOM      2  C   LIG d   1      -7.918  75.336 117.526  0.00  0.00     0.016 C 
ATOM      3  C   LIG d   1      -7.433  74.293 116.704  0.00  0.00     0.038 C 
ATOM      4  C   LIG d   1      -6.139  74.318 116.162  0.00  0.00     0.028 C 
ATOM      5  C   LIG d   1      -5.601  75.728 115.943  0.00  0.00    -0.047 C 
ATOM      6  C   LIG d   1      -5.760  76.535 117.252  0.00  0.00     0.091 C 
ENDROOT
BRANCH   1   7
ATOM      7  O   LIG d   1      -7.279  76.886 119.142  0.00  0.00    -0.368 OA
BRANCH   7   8
ATOM      8  C   LIG d   1      -7.994  78.104 119.466  0.00  0.00     0.119 C 
BRANCH   8   9
ATOM      9  C   LIG d   1      -8.555  78.675 118.149  0.00  0.00     0.028 C 
ATOM     10  C   LIG d   1      -8.123  80.131 117.909  0.00  0.00     0.006 C 
ENDBRANCH   8   9
BRANCH   8  11
ATOM     11  C   LIG d   1      -7.046  79.181 120.003  0.00  0.00     0.028 C 
ATOM     12  C   LIG d   1      -5.824  78.592 120.726  0.00  0.00     0.006 C 
ENDBRANCH   8  11
ENDBRANCH   7   8
ENDBRANCH   1   7
BRANCH   6  13
ATOM     13  N   LIG d   1      -5.335  77.951 117.100  0.00  0.00    -0.311 N 
ATOM     14  C   LIG d   1      -4.125  78.394 117.436  0.00  0.00     0.210 C 
ATOM     15  C   LIG d   1      -3.901  79.893 117.217  0.00  0.00     0.109 C 
ATOM     16  O   LIG d   1      -3.205  77.680 117.863  0.00  0.00    -0.276 OA
ATOM     17  H   LIG d   1      -6.010  78.593 116.731  0.00  0.00     0.149 HD
ENDBRANCH   6  13
BRANCH   5  18
ATOM     18  N   LIG d   1      -4.198  75.607 115.505  0.00  0.00     0.381 N 
ATOM     19  H   LIG d   1      -3.599  75.531 116.303  0.00  0.00    -0.090 HD
ATOM     20  H   LIG d   1      -3.942  76.436 114.998  0.00  0.00    -0.090 HD
ATOM     21  H   LIG d   1      -4.090  74.806 114.922  0.00  0.00    -0.090 HD
ENDBRANCH   5  18
BRANCH   3  22
ATOM     22  C   LIG d   1      -8.260  73.228 116.384  0.00  0.00     0.382 C 
ATOM     23  O   LIG d   1      -7.768  72.163 115.941  0.00  0.00    -0.241 OA
ATOM     24  O   LIG d   1      -9.497  73.335 116.491  0.00  0.00    -0.241 OA
ENDBRANCH   3  22
TORSDOF 7
ENDMDL
MODEL 4
REMARK VINA RESULT:      -5.2     17.801     19.570
REMARK  7 active torsions:
REMARK  status: ('A' for Active; 'I' for Inactive)
REMARK    1  A    between atoms: C_2  and  C_3 
REMARK    2  A    between atoms: C_3  and  O_6 
REMARK    3  A    between atoms: C_3  and  C_4 
REMARK    4  A    between atoms: C_7  and  O_6 
REMARK    5  A    between atoms: C_9  and  C_10 
REMARK    6  A    between atoms: N_15  and  C_14 
REMARK    7  A    between atoms: N_20  and  C_19 
REMARK       I    between atoms: C_22  and  N_20 
ROOT
ATOM      1  C   LIG d   1      -0.788  59.539 119.897  0.00  0.00     0.161 C 
ATOM      2  C   LIG d   1      -2.007  59.423 119.208  0.00  0.00     0.016 C 
ATOM      3  C   LIG d   1      -2.142  59.657 117.821  0.00  0.00     0.038 C 
ATOM      4  C   LIG d   1      -1.030  59.877 116.994  0.00  0.00     0.028 C 
ATOM      5  C   LIG d   1       0.154  60.501 117.725  0.00  0.00    -0.047 C 
ATOM      6  C   LIG d   1       0.456  59.669 118.993  0.00  0.00     0.091 C 
ENDROOT
BRANCH   1   7
ATOM      7  O   LIG d   1      -0.633  58.431 120.806  0.00  0.00    -0.368 OA
BRANCH   7   8
ATOM      8  C   LIG d   1      -1.162  57.159 120.356  0.00  0.00     0.119 C 
BRANCH   8   9
ATOM      9  C   LIG d   1      -1.888  56.512 121.551  0.00  0.00     0.028 C 
ATOM     10  C   LIG d   1      -3.397  56.812 121.554  0.00  0.00     0.006 C 
ENDBRANCH   8   9
BRANCH   8  11
ATOM     11  C   LIG d   1      -0.037  56.186 119.990  0.00  0.00     0.028 C 
ATOM     12  C   LIG d   1      -0.020  55.831 118.495  0.00  0.00     0.006 C 
ENDBRANCH   8  11
ENDBRANCH   7   8
ENDBRANCH   1   7
BRANCH   6  13
ATOM     13  N   LIG d   1       1.547  60.259 119.812  0.00  0.00    -0.311 N 
ATOM     14  C   LIG d   1       2.535  59.541 120.343  0.00  0.00     0.210 C 
ATOM     15  C   LIG d   1       3.545  60.344 121.169  0.00  0.00     0.109 C 
ATOM     16  O   LIG d   1       2.688  58.321 120.183  0.00  0.00    -0.276 OA
ATOM     17  H   LIG d   1       1.517  61.248 119.966  0.00  0.00     0.149 HD
ENDBRANCH   6  13
BRANCH   5  18
ATOM     18  N   LIG d   1       1.287  60.547 116.781  0.00  0.00     0.381 N 
ATOM     19  H   LIG d   1       2.124  60.249 117.242  0.00  0.00    -0.090 HD
ATOM     20  H   LIG d   1       1.415  61.495 116.475  0.00  0.00    -0.090 HD
ATOM     21  H   LIG d   1       1.102  59.959 115.999  0.00  0.00    -0.090 HD
ENDBRANCH   5  18
BRANCH   3  22
ATOM     22  C   LIG d   1      -3.406  59.711 117.252  0.00  0.00     0.382 C 
ATOM     23  O   LIG d   1      -4.306  58.933 117.650  0.00  0.00    -0.241 OA
ATOM     24  O   LIG d   1      -3.644  60.498 116.317  0.00  0.00    -0.241 OA
ENDBRANCH   3  22
TORSDOF 7
ENDMDL
MODEL 5
REMARK VINA RESULT:      -5.2     12.523     14.078
REMARK  7 active torsions:
REMARK  status: ('A' for Active; 'I' for Inactive)
REMARK    1  A    between atoms: C_2  and  C_3 
REMARK    2  A    between atoms: C_3  and  O_6 
REMARK    3  A    between atoms: C_3  and  C_4 
REMARK    4  A    between atoms: C_7  and  O_6 
REMARK    5  A    between atoms: C_9  and  C_10 
REMARK    6  A    between atoms: N_15  and  C_14 
REMARK    7  A    between atoms: N_20  and  C_19 
REMARK       I    between atoms: C_22  and  N_20 
ROOT
ATOM      1  C   LIG d   1      -3.527  89.792 117.698  0.00  0.00     0.161 C 
ATOM      2  C   LIG d   1      -4.426  89.439 116.678  0.00  0.00     0.016 C 
ATOM      3  C   LIG d   1      -5.521  90.246 116.291  0.00  0.00     0.038 C 
ATOM      4  C   LIG d   1      -5.704  91.540 116.800  0.00  0.00     0.028 C 
ATOM      5  C   LIG d   1      -5.115  91.733 118.193  0.00  0.00    -0.047 C 
ATOM      6  C   LIG d   1      -3.646  91.251 118.187  0.00  0.00     0.091 C 
ENDROOT
BRANCH   1   7
ATOM      7  O   LIG d   1      -2.177  89.513 117.278  0.00  0.00    -0.368 OA
BRANCH   7   8
ATOM      8  C   LIG d   1      -1.474  88.494 118.030  0.00  0.00     0.119 C 
BRANCH   8   9
ATOM      9  C   LIG d   1      -1.237  87.301 117.084  0.00  0.00     0.028 C 
ATOM     10  C   LIG d   1       0.199  86.756 117.175  0.00  0.00     0.006 C 
ENDBRANCH   8   9
BRANCH   8  11
ATOM     11  C   LIG d   1      -2.339  87.944 119.168  0.00  0.00     0.028 C 
ATOM     12  C   LIG d   1      -1.639  88.010 120.534  0.00  0.00     0.006 C 
ENDBRANCH   8  11
ENDBRANCH   7   8
ENDBRANCH   1   7
BRANCH   6  13
ATOM     13  N   LIG d   1      -3.019  91.326 119.533  0.00  0.00    -0.311 N 
ATOM     14  C   LIG d   1      -1.857  91.933 119.768  0.00  0.00     0.210 C 
ATOM     15  C   LIG d   1      -1.381  91.877 121.223  0.00  0.00     0.109 C 
ATOM     16  O   LIG d   1      -1.191  92.540 118.915  0.00  0.00    -0.276 OA
ATOM     17  H   LIG d   1      -3.508  90.887 120.288  0.00  0.00     0.149 HD
ENDBRANCH   6  13
BRANCH   5  18
ATOM     18  N   LIG d   1      -5.254  93.159 118.542  0.00  0.00     0.381 N 
ATOM     19  H   LIG d   1      -5.533  93.248 119.499  0.00  0.00    -0.090 HD
ATOM     20  H   LIG d   1      -5.969  93.567 117.966  0.00  0.00    -0.090 HD
ATOM     21  H   LIG d   1      -4.389  93.632 118.396  0.00  0.00    -0.090 HD
ENDBRANCH   5  18
BRANCH   3  22
ATOM     22  C   LIG d   1      -6.470  89.742 115.415  0.00  0.00     0.382 C 
ATOM     23  O   LIG d   1      -7.563  90.340 115.262  0.00  0.00    -0.241 OA
ATOM     24  O   LIG d   1      -6.266  88.673 114.808  0.00  0.00    -0.241 OA
ENDBRANCH   3  22
TORSDOF 7
ENDMDL
MODEL 6
REMARK VINA RESULT:      -5.0      2.114      5.032
REMARK  7 active torsions:
REMARK  status: ('A' for Active; 'I' for Inactive)
REMARK    1  A    between atoms: C_2  and  C_3 
REMARK    2  A    between atoms: C_3  and  O_6 
REMARK    3  A    between atoms: C_3  and  C_4 
REMARK    4  A    between atoms: C_7  and  O_6 
REMARK    5  A    between atoms: C_9  and  C_10 
REMARK    6  A    between atoms: N_15  and  C_14 
REMARK    7  A    between atoms: N_20  and  C_19 
REMARK       I    between atoms: C_22  and  N_20 
ROOT
ATOM      1  C   LIG d   1      -7.476  78.081 117.894  0.00  0.00     0.161 C 
ATOM      2  C   LIG d   1      -8.502  77.131 117.760  0.00  0.00     0.016 C 
ATOM      3  C   LIG d   1      -8.294  75.827 117.256  0.00  0.00     0.038 C 
ATOM      4  C   LIG d   1      -7.010  75.331 116.990  0.00  0.00     0.028 C 
ATOM      5  C   LIG d   1      -6.002  76.418 116.632  0.00  0.00    -0.047 C 
ATOM      6  C   LIG d   1      -6.049  77.521 117.714  0.00  0.00     0.091 C 
ENDROOT
BRANCH   1   7
ATOM      7  O   LIG d   1      -7.594  78.753 119.164  0.00  0.00    -0.368 OA
BRANCH   7   8
ATOM      8  C   LIG d   1      -7.752  80.192 119.112  0.00  0.00     0.119 C 
BRANCH   8   9
ATOM      9  C   LIG d   1      -8.890  80.568 120.080  0.00  0.00     0.028 C 
ATOM     10  C   LIG d   1      -8.974  79.616 121.285  0.00  0.00     0.006 C 
ENDBRANCH   8   9
BRANCH   8  11
ATOM     11  C   LIG d   1      -8.227  80.650 117.730  0.00  0.00     0.028 C 
ATOM     12  C   LIG d   1      -9.680  81.150 117.735  0.00  0.00     0.006 C 
ENDBRANCH   8  11
ENDBRANCH   7   8
ENDBRANCH   1   7
BRANCH   6  13
ATOM     13  N   LIG d   1      -5.154  78.665 117.396  0.00  0.00    -0.311 N 
ATOM     14  C   LIG d   1      -4.219  79.117 118.230  0.00  0.00     0.210 C 
ATOM     15  C   LIG d   1      -3.419  80.318 117.715  0.00  0.00     0.109 C 
ATOM     16  O   LIG d   1      -3.953  78.617 119.333  0.00  0.00    -0.276 OA
ATOM     17  H   LIG d   1      -5.280  79.110 116.508  0.00  0.00     0.149 HD
ENDBRANCH   6  13
BRANCH   5  18
ATOM     18  N   LIG d   1      -4.678  75.778 116.515  0.00  0.00     0.381 N 
ATOM     19  H   LIG d   1      -4.591  75.054 117.200  0.00  0.00    -0.090 HD
ATOM     20  H   LIG d   1      -3.968  76.467 116.692  0.00  0.00    -0.090 HD
ATOM     21  H   LIG d   1      -4.563  75.398 115.602  0.00  0.00    -0.090 HD
ENDBRANCH   5  18
BRANCH   3  22
ATOM     22  C   LIG d   1      -9.384  75.017 116.974  0.00  0.00     0.382 C 
ATOM     23  O   LIG d   1     -10.549  75.453 117.144  0.00  0.00    -0.241 OA
ATOM     24  O   LIG d   1      -9.218  73.843 116.595  0.00  0.00    -0.241 OA
ENDBRANCH   3  22
TORSDOF 7
ENDMDL
MODEL 7
REMARK VINA RESULT:      -4.9     12.781     15.269
REMARK  7 active torsions:
REMARK  status: ('A' for Active; 'I' for Inactive)
REMARK    1  A    between atoms: C_2  and  C_3 
REMARK    2  A    between atoms: C_3  and  O_6 
REMARK    3  A    between atoms: C_3  and  C_4 
REMARK    4  A    between atoms: C_7  and  O_6 
REMARK    5  A    between atoms: C_9  and  C_10 
REMARK    6  A    between atoms: N_15  and  C_14 
REMARK    7  A    between atoms: N_20  and  C_19 
REMARK       I    between atoms: C_22  and  N_20 
ROOT
ATOM      1  C   LIG d   1      -3.156  90.625 118.306  0.00  0.00     0.161 C 
ATOM      2  C   LIG d   1      -3.853  89.741 117.466  0.00  0.00     0.016 C 
ATOM      3  C   LIG d   1      -5.129  90.023 116.927  0.00  0.00     0.038 C 
ATOM      4  C   LIG d   1      -5.733  91.281 117.072  0.00  0.00     0.028 C 
ATOM      5  C   LIG d   1      -5.294  92.023 118.329  0.00  0.00    -0.047 C 
ATOM      6  C   LIG d   1      -3.750  92.047 118.384  0.00  0.00     0.091 C 
ENDROOT
BRANCH   1   7
ATOM      7  O   LIG d   1      -1.770  90.682 117.914  0.00  0.00    -0.368 OA
BRANCH   7   8
ATOM      8  C   LIG d   1      -0.808  90.245 118.905  0.00  0.00     0.119 C 
BRANCH   8   9
ATOM      9  C   LIG d   1       0.570  90.795 118.488  0.00  0.00     0.028 C 
ATOM     10  C   LIG d   1       1.025  91.968 119.372  0.00  0.00     0.006 C 
ENDBRANCH   8   9
BRANCH   8  11
ATOM     11  C   LIG d   1      -0.655  88.721 118.899  0.00  0.00     0.028 C 
ATOM     12  C   LIG d   1      -1.228  88.059 120.162  0.00  0.00     0.006 C 
ENDBRANCH   8  11
ENDBRANCH   7   8
ENDBRANCH   1   7
BRANCH   6  13
ATOM     13  N   LIG d   1      -3.236  92.681 119.627  0.00  0.00    -0.311 N 
ATOM     14  C   LIG d   1      -2.288  93.617 119.635  0.00  0.00     0.210 C 
ATOM     15  C   LIG d   1      -1.891  94.123 121.025  0.00  0.00     0.109 C 
ATOM     16  O   LIG d   1      -1.761  94.098 118.621  0.00  0.00    -0.276 OA
ATOM     17  H   LIG d   1      -3.631  92.372 120.493  0.00  0.00     0.149 HD
ENDBRANCH   6  13
BRANCH   5  18
ATOM     18  N   LIG d   1      -5.892  93.371 118.283  0.00  0.00     0.381 N 
ATOM     19  H   LIG d   1      -5.436  93.920 117.581  0.00  0.00    -0.090 HD
ATOM     20  H   LIG d   1      -5.754  93.819 119.172  0.00  0.00    -0.090 HD
ATOM     21  H   LIG d   1      -6.866  93.306 118.084  0.00  0.00    -0.090 HD
ENDBRANCH   5  18
BRANCH   3  22
ATOM     22  C   LIG d   1      -5.833  89.027 116.268  0.00  0.00     0.382 C 
ATOM     23  O   LIG d   1      -5.226  88.219 115.523  0.00  0.00    -0.241 OA
ATOM     24  O   LIG d   1      -7.071  88.952 116.374  0.00  0.00    -0.241 OA
ENDBRANCH   3  22
TORSDOF 7
ENDMDL
MODEL 8
REMARK VINA RESULT:      -4.8      3.642      6.800
REMARK  7 active torsions:
REMARK  status: ('A' for Active; 'I' for Inactive)
REMARK    1  A    between atoms: C_2  and  C_3 
REMARK    2  A    between atoms: C_3  and  O_6 
REMARK    3  A    between atoms: C_3  and  C_4 
REMARK    4  A    between atoms: C_7  and  O_6 
REMARK    5  A    between atoms: C_9  and  C_10 
REMARK    6  A    between atoms: N_15  and  C_14 
REMARK    7  A    between atoms: N_20  and  C_19 
REMARK       I    between atoms: C_22  and  N_20 
ROOT
ATOM      1  C   LIG d   1      -2.424  77.199 115.339  0.00  0.00     0.161 C 
ATOM      2  C   LIG d   1      -1.912  75.905 115.529  0.00  0.00     0.016 C 
ATOM      3  C   LIG d   1      -0.821  75.617 116.382  0.00  0.00     0.038 C 
ATOM      4  C   LIG d   1      -0.263  76.590 117.224  0.00  0.00     0.028 C 
ATOM      5  C   LIG d   1      -0.417  78.012 116.694  0.00  0.00    -0.047 C 
ATOM      6  C   LIG d   1      -1.900  78.255 116.334  0.00  0.00     0.091 C 
ENDROOT
BRANCH   1   7
ATOM      7  O   LIG d   1      -3.865  77.161 115.361  0.00  0.00    -0.368 OA
BRANCH   7   8
ATOM      8  C   LIG d   1      -4.463  75.996 115.980  0.00  0.00     0.119 C 
BRANCH   8   9
ATOM      9  C   LIG d   1      -5.338  75.304 114.916  0.00  0.00     0.028 C 
ATOM     10  C   LIG d   1      -6.469  74.470 115.540  0.00  0.00     0.006 C 
ENDBRANCH   8   9
BRANCH   8  11
ATOM     11  C   LIG d   1      -5.427  76.393 117.102  0.00  0.00     0.028 C 
ATOM     12  C   LIG d   1      -5.330  77.882 117.471  0.00  0.00     0.006 C 
ENDBRANCH   8  11
ENDBRANCH   7   8
ENDBRANCH   1   7
BRANCH   6  13
ATOM     13  N   LIG d   1      -2.124  79.594 115.728  0.00  0.00    -0.311 N 
ATOM     14  C   LIG d   1      -2.489  80.664 116.431  0.00  0.00     0.210 C 
ATOM     15  C   LIG d   1      -2.686  81.942 115.609  0.00  0.00     0.109 C 
ATOM     16  O   LIG d   1      -2.638  80.685 117.662  0.00  0.00    -0.276 OA
ATOM     17  H   LIG d   1      -1.995  79.674 114.739  0.00  0.00     0.149 HD
ENDBRANCH   6  13
BRANCH   5  18
ATOM     18  N   LIG d   1       0.085  78.932 117.732  0.00  0.00     0.381 N 
ATOM     19  H   LIG d   1       0.964  79.316 117.448  0.00  0.00    -0.090 HD
ATOM     20  H   LIG d   1       0.226  78.416 118.583  0.00  0.00    -0.090 HD
ATOM     21  H   LIG d   1      -0.573  79.664 117.885  0.00  0.00    -0.090 HD
ENDBRANCH   5  18
BRANCH   3  22
ATOM     22  C   LIG d   1      -0.252  74.353 116.368  0.00  0.00     0.382 C 
ATOM     23  O   LIG d   1      -0.164  73.694 117.431  0.00  0.00    -0.241 OA
ATOM     24  O   LIG d   1       0.214  73.882 115.313  0.00  0.00    -0.241 OA
ENDBRANCH   3  22
TORSDOF 7
ENDMDL
MODEL 9
REMARK VINA RESULT:      -4.8      2.264      4.821
REMARK  7 active torsions:
REMARK  status: ('A' for Active; 'I' for Inactive)
REMARK    1  A    between atoms: C_2  and  C_3 
REMARK    2  A    between atoms: C_3  and  O_6 
REMARK    3  A    between atoms: C_3  and  C_4 
REMARK    4  A    between atoms: C_7  and  O_6 
REMARK    5  A    between atoms: C_9  and  C_10 
REMARK    6  A    between atoms: N_15  and  C_14 
REMARK    7  A    between atoms: N_20  and  C_19 
REMARK       I    between atoms: C_22  and  N_20 
ROOT
ATOM      1  C   LIG d   1      -5.455  78.346 117.522  0.00  0.00     0.161 C 
ATOM      2  C   LIG d   1      -6.681  78.853 117.987  0.00  0.00     0.016 C 
ATOM      3  C   LIG d   1      -7.881  78.105 117.990  0.00  0.00     0.038 C 
ATOM      4  C   LIG d   1      -7.905  76.740 117.667  0.00  0.00     0.028 C 
ATOM      5  C   LIG d   1      -6.791  76.324 116.712  0.00  0.00    -0.047 C 
ATOM      6  C   LIG d   1      -5.439  76.824 117.270  0.00  0.00     0.091 C 
ENDROOT
BRANCH   1   7
ATOM      7  O   LIG d   1      -4.399  78.715 118.430  0.00  0.00    -0.368 OA
BRANCH   7   8
ATOM      8  C   LIG d   1      -3.980  80.102 118.392  0.00  0.00     0.119 C 
BRANCH   8   9
ATOM      9  C   LIG d   1      -3.257  80.330 117.050  0.00  0.00     0.028 C 
ATOM     10  C   LIG d   1      -1.946  79.533 116.947  0.00  0.00     0.006 C 
ENDBRANCH   8   9
BRANCH   8  11
ATOM     11  C   LIG d   1      -2.935  80.399 119.471  0.00  0.00     0.028 C 
ATOM     12  C   LIG d   1      -3.500  80.282 120.896  0.00  0.00     0.006 C 
ENDBRANCH   8  11
ENDBRANCH   7   8
ENDBRANCH   1   7
BRANCH   6  13
ATOM     13  N   LIG d   1      -4.305  76.532 116.355  0.00  0.00    -0.311 N 
ATOM     14  C   LIG d   1      -3.148  76.015 116.763  0.00  0.00     0.210 C 
ATOM     15  C   LIG d   1      -2.105  75.811 115.660  0.00  0.00     0.109 C 
ATOM     16  O   LIG d   1      -2.897  75.675 117.929  0.00  0.00    -0.276 OA
ATOM     17  H   LIG d   1      -4.434  76.748 115.386  0.00  0.00     0.149 HD
ENDBRANCH   6  13
BRANCH   5  18
ATOM     18  N   LIG d   1      -6.851  74.857 116.570  0.00  0.00     0.381 N 
ATOM     19  H   LIG d   1      -7.123  74.443 117.439  0.00  0.00    -0.090 HD
ATOM     20  H   LIG d   1      -5.936  74.516 116.331  0.00  0.00    -0.090 HD
ATOM     21  H   LIG d   1      -7.502  74.610 115.858  0.00  0.00    -0.090 HD
ENDBRANCH   5  18
BRANCH   3  22
ATOM     22  C   LIG d   1      -9.082  78.735 118.281  0.00  0.00     0.382 C 
ATOM     23  O   LIG d   1      -9.095  79.954 118.575  0.00  0.00    -0.241 OA
ATOM     24  O   LIG d   1     -10.146  78.088 118.296  0.00  0.00    -0.241 OA
ENDBRANCH   3  22
TORSDOF 7
ENDMDL
