MODEL 1
REMARK VINA RESULT:      -5.4      0.000      0.000
REMARK  7 active torsions:
REMARK  status: ('A' for Active; 'I' for Inactive)
REMARK    1  A    between atoms: C_2  and  C_3 
REMARK    2  A    between atoms: C_3  and  O_6 
REMARK    3  A    between atoms: C_3  and  C_4 
REMARK    4  A    between atoms: C_7  and  O_6 
REMARK    5  A    between atoms: C_9  and  C_10 
REMARK    6  A    between atoms: N_15  and  C_14 
REMARK    7  A    between atoms: N_20  and  C_19 
REMARK       I    between atoms: C_22  and  N_20 
ROOT
ATOM      1  C   LIG d   1      -5.473  92.672 118.193  0.00  0.00     0.161 C 
ATOM      2  C   LIG d   1      -6.419  91.805 117.621  0.00  0.00     0.016 C 
ATOM      3  C   LIG d   1      -6.081  90.773 116.715  0.00  0.00     0.038 C 
ATOM      4  C   LIG d   1      -4.747  90.440 116.435  0.00  0.00     0.028 C 
ATOM      5  C   LIG d   1      -3.784  91.611 116.597  0.00  0.00    -0.047 C 
ATOM      6  C   LIG d   1      -4.002  92.253 117.986  0.00  0.00     0.091 C 
ENDROOT
BRANCH   1   7
ATOM      7  O   LIG d   1      -5.752  92.841 119.597  0.00  0.00    -0.368 OA
BRANCH   7   8
ATOM      8  C   LIG d   1      -6.250  94.142 119.996  0.00  0.00     0.119 C 
BRANCH   8   9
ATOM      9  C   LIG d   1      -7.634  93.931 120.640  0.00  0.00     0.028 C 
ATOM     10  C   LIG d   1      -8.782  94.091 119.629  0.00  0.00     0.006 C 
ENDBRANCH   8   9
BRANCH   8  11
ATOM     11  C   LIG d   1      -6.501  95.039 118.780  0.00  0.00     0.028 C 
ATOM     12  C   LIG d   1      -6.004  96.478 118.988  0.00  0.00     0.006 C 
ENDBRANCH   8  11
ENDBRANCH   7   8
ENDBRANCH   1   7
BRANCH   6  13
ATOM     13  N   LIG d   1      -3.158  93.458 118.193  0.00  0.00    -0.311 N 
ATOM     14  C   LIG d   1      -1.954  93.420 118.761  0.00  0.00     0.210 C 
ATOM     15  C   LIG d   1      -1.260  94.779 118.896  0.00  0.00     0.109 C 
ATOM     16  O   LIG d   1      -1.380  92.386 119.136  0.00  0.00    -0.276 OA
ATOM     17  H   LIG d   1      -3.533  94.335 117.889  0.00  0.00     0.149 HD
ENDBRANCH   6  13
BRANCH   5  18
ATOM     18  N   LIG d   1      -2.416  91.091 116.409  0.00  0.00     0.381 N 
ATOM     19  H   LIG d   1      -1.763  91.672 116.897  0.00  0.00    -0.090 HD
ATOM     20  H   LIG d   1      -2.190  91.116 115.430  0.00  0.00    -0.090 HD
ATOM     21  H   LIG d   1      -2.357  90.156 116.747  0.00  0.00    -0.090 HD
ENDBRANCH   5  18
BRANCH   3  22
ATOM     22  C   LIG d   1      -7.085  90.088 116.048  0.00  0.00     0.382 C 
ATOM     23  O   LIG d   1      -7.207  90.209 114.805  0.00  0.00    -0.241 OA
ATOM     24  O   LIG d   1      -7.898  89.387 116.679  0.00  0.00    -0.241 OA
ENDBRANCH   3  22
TORSDOF 7
ENDMDL
MODEL 2
REMARK VINA RESULT:      -5.4     15.545     18.398
REMARK  7 active torsions:
REMARK  status: ('A' for Active; 'I' for Inactive)
REMARK    1  A    between atoms: C_2  and  C_3 
REMARK    2  A    between atoms: C_3  and  O_6 
REMARK    3  A    between atoms: C_3  and  C_4 
REMARK    4  A    between atoms: C_7  and  O_6 
REMARK    5  A    between atoms: C_9  and  C_10 
REMARK    6  A    between atoms: N_15  and  C_14 
REMARK    7  A    between atoms: N_20  and  C_19 
REMARK       I    between atoms: C_22  and  N_20 
ROOT
ATOM      1  C   LIG d   1      -7.933  74.817 118.023  0.00  0.00     0.161 C 
ATOM      2  C   LIG d   1      -8.995  75.737 118.021  0.00  0.00     0.016 C 
ATOM      3  C   LIG d   1      -8.820  77.128 118.203  0.00  0.00     0.038 C 
ATOM      4  C   LIG d   1      -7.546  77.715 118.249  0.00  0.00     0.028 C 
ATOM      5  C   LIG d   1      -6.463  76.772 118.761  0.00  0.00    -0.047 C 
ATOM      6  C   LIG d   1      -6.528  75.452 117.961  0.00  0.00     0.091 C 
ENDROOT
BRANCH   1   7
ATOM      7  O   LIG d   1      -8.104  73.872 116.948  0.00  0.00    -0.368 OA
BRANCH   7   8
ATOM      8  C   LIG d   1      -8.257  72.485 117.338  0.00  0.00     0.119 C 
BRANCH   8   9
ATOM      9  C   LIG d   1      -7.322  71.647 116.445  0.00  0.00     0.028 C 
ATOM     10  C   LIG d   1      -6.523  72.513 115.456  0.00  0.00     0.006 C 
ENDBRANCH   8   9
BRANCH   8  11
ATOM     11  C   LIG d   1      -9.669  71.974 117.038  0.00  0.00     0.028 C 
ATOM     12  C   LIG d   1      -9.793  70.448 117.176  0.00  0.00     0.006 C 
ENDBRANCH   8  11
ENDBRANCH   7   8
ENDBRANCH   1   7
BRANCH   6  13
ATOM     13  N   LIG d   1      -5.556  74.441 118.454  0.00  0.00    -0.311 N 
ATOM     14  C   LIG d   1      -4.363  74.240 117.899  0.00  0.00     0.210 C 
ATOM     15  C   LIG d   1      -3.524  73.135 118.551  0.00  0.00     0.109 C 
ATOM     16  O   LIG d   1      -3.905  74.892 116.949  0.00  0.00    -0.276 OA
ATOM     17  H   LIG d   1      -5.833  73.888 119.242  0.00  0.00     0.149 HD
ENDBRANCH   6  13
BRANCH   5  18
ATOM     18  N   LIG d   1      -5.168  77.466 118.627  0.00  0.00     0.381 N 
ATOM     19  H   LIG d   1      -4.426  76.856 118.906  0.00  0.00    -0.090 HD
ATOM     20  H   LIG d   1      -5.164  78.267 119.235  0.00  0.00    -0.090 HD
ATOM     21  H   LIG d   1      -5.033  77.756 117.684  0.00  0.00    -0.090 HD
ENDBRANCH   5  18
BRANCH   3  22
ATOM     22  C   LIG d   1      -9.927  77.943 118.381  0.00  0.00     0.382 C 
ATOM     23  O   LIG d   1     -11.042  77.435 118.654  0.00  0.00    -0.241 OA
ATOM     24  O   LIG d   1      -9.836  79.176 118.229  0.00  0.00    -0.241 OA
ENDBRANCH   3  22
TORSDOF 7
ENDMDL
MODEL 3
REMARK VINA RESULT:      -5.2      2.359      4.488
REMARK  7 active torsions:
REMARK  status: ('A' for Active; 'I' for Inactive)
REMARK    1  A    between atoms: C_2  and  C_3 
REMARK    2  A    between atoms: C_3  and  O_6 
REMARK    3  A    between atoms: C_3  and  C_4 
REMARK    4  A    between atoms: C_7  and  O_6 
REMARK    5  A    between atoms: C_9  and  C_10 
REMARK    6  A    between atoms: N_15  and  C_14 
REMARK    7  A    between atoms: N_20  and  C_19 
REMARK       I    between atoms: C_22  and  N_20 
ROOT
ATOM      1  C   LIG d   1      -3.553  91.649 117.589  0.00  0.00     0.161 C 
ATOM      2  C   LIG d   1      -4.409  91.025 116.667  0.00  0.00     0.016 C 
ATOM      3  C   LIG d   1      -5.809  90.933 116.844  0.00  0.00     0.038 C 
ATOM      4  C   LIG d   1      -6.469  91.595 117.889  0.00  0.00     0.028 C 
ATOM      5  C   LIG d   1      -5.593  91.811 119.119  0.00  0.00    -0.047 C 
ATOM      6  C   LIG d   1      -4.268  92.474 118.680  0.00  0.00     0.091 C 
ENDROOT
BRANCH   1   7
ATOM      7  O   LIG d   1      -2.594  92.467 116.890  0.00  0.00    -0.368 OA
BRANCH   7   8
ATOM      8  C   LIG d   1      -1.291  91.875 116.670  0.00  0.00     0.119 C 
BRANCH   8   9
ATOM      9  C   LIG d   1      -1.031  90.885 117.822  0.00  0.00     0.028 C 
ATOM     10  C   LIG d   1      -0.653  89.483 117.317  0.00  0.00     0.006 C 
ENDBRANCH   8   9
BRANCH   8  11
ATOM     11  C   LIG d   1      -0.178  92.921 116.775  0.00  0.00     0.028 C 
ATOM     12  C   LIG d   1       0.234  93.209 118.228  0.00  0.00     0.006 C 
ENDBRANCH   8  11
ENDBRANCH   7   8
ENDBRANCH   1   7
BRANCH   6  13
ATOM     13  N   LIG d   1      -3.318  92.644 119.811  0.00  0.00    -0.311 N 
ATOM     14  C   LIG d   1      -2.834  93.825 120.191  0.00  0.00     0.210 C 
ATOM     15  C   LIG d   1      -1.853  93.774 121.366  0.00  0.00     0.109 C 
ATOM     16  O   LIG d   1      -3.150  94.913 119.687  0.00  0.00    -0.276 OA
ATOM     17  H   LIG d   1      -3.033  91.815 120.295  0.00  0.00     0.149 HD
ENDBRANCH   6  13
BRANCH   5  18
ATOM     18  N   LIG d   1      -6.361  92.631 120.075  0.00  0.00     0.381 N 
ATOM     19  H   LIG d   1      -6.997  92.050 120.584  0.00  0.00    -0.090 HD
ATOM     20  H   LIG d   1      -6.896  93.311 119.564  0.00  0.00    -0.090 HD
ATOM     21  H   LIG d   1      -5.741  93.090 120.705  0.00  0.00    -0.090 HD
ENDBRANCH   5  18
BRANCH   3  22
ATOM     22  C   LIG d   1      -6.558  90.137 115.990  0.00  0.00     0.382 C 
ATOM     23  O   LIG d   1      -7.636  89.632 116.388  0.00  0.00    -0.241 OA
ATOM     24  O   LIG d   1      -6.148  89.882 114.842  0.00  0.00    -0.241 OA
ENDBRANCH   3  22
TORSDOF 7
ENDMDL
MODEL 4
REMARK VINA RESULT:      -5.2      1.868      4.552
REMARK  7 active torsions:
REMARK  status: ('A' for Active; 'I' for Inactive)
REMARK    1  A    between atoms: C_2  and  C_3 
REMARK    2  A    between atoms: C_3  and  O_6 
REMARK    3  A    between atoms: C_3  and  C_4 
REMARK    4  A    between atoms: C_7  and  O_6 
REMARK    5  A    between atoms: C_9  and  C_10 
REMARK    6  A    between atoms: N_15  and  C_14 
REMARK    7  A    between atoms: N_20  and  C_19 
REMARK       I    between atoms: C_22  and  N_20 
ROOT
ATOM      1  C   LIG d   1      -5.686  91.849 118.743  0.00  0.00     0.161 C 
ATOM      2  C   LIG d   1      -6.957  92.429 118.897  0.00  0.00     0.016 C 
ATOM      3  C   LIG d   1      -7.157  93.791 119.217  0.00  0.00     0.038 C 
ATOM      4  C   LIG d   1      -6.095  94.707 119.257  0.00  0.00     0.028 C 
ATOM      5  C   LIG d   1      -4.756  94.067 119.606  0.00  0.00    -0.047 C 
ATOM      6  C   LIG d   1      -4.520  92.857 118.674  0.00  0.00     0.091 C 
ENDROOT
BRANCH   1   7
ATOM      7  O   LIG d   1      -5.677  90.991 117.585  0.00  0.00    -0.368 OA
BRANCH   7   8
ATOM      8  C   LIG d   1      -5.277  91.609 116.337  0.00  0.00     0.119 C 
BRANCH   8   9
ATOM      9  C   LIG d   1      -6.507  91.617 115.409  0.00  0.00     0.028 C 
ATOM     10  C   LIG d   1      -7.321  90.316 115.504  0.00  0.00     0.006 C 
ENDBRANCH   8   9
BRANCH   8  11
ATOM     11  C   LIG d   1      -4.225  90.766 115.610  0.00  0.00     0.028 C 
ATOM     12  C   LIG d   1      -3.758  89.556 116.434  0.00  0.00     0.006 C 
ENDBRANCH   8  11
ENDBRANCH   7   8
ENDBRANCH   1   7
BRANCH   6  13
ATOM     13  N   LIG d   1      -3.271  92.122 119.004  0.00  0.00    -0.311 N 
ATOM     14  C   LIG d   1      -2.120  92.307 118.360  0.00  0.00     0.210 C 
ATOM     15  C   LIG d   1      -0.959  91.433 118.846  0.00  0.00     0.109 C 
ATOM     16  O   LIG d   1      -1.941  93.135 117.454  0.00  0.00    -0.276 OA
ATOM     17  H   LIG d   1      -3.318  91.453 119.747  0.00  0.00     0.149 HD
ENDBRANCH   6  13
BRANCH   5  18
ATOM     18  N   LIG d   1      -3.718  95.107 119.477  0.00  0.00     0.381 N 
ATOM     19  H   LIG d   1      -3.979  95.914 120.008  0.00  0.00    -0.090 HD
ATOM     20  H   LIG d   1      -3.644  95.375 118.512  0.00  0.00    -0.090 HD
ATOM     21  H   LIG d   1      -2.843  94.757 119.800  0.00  0.00    -0.090 HD
ENDBRANCH   5  18
BRANCH   3  22
ATOM     22  C   LIG d   1      -8.428  94.241 119.540  0.00  0.00     0.382 C 
ATOM     23  O   LIG d   1      -9.431  93.539 119.265  0.00  0.00    -0.241 OA
ATOM     24  O   LIG d   1      -8.588  95.361 120.062  0.00  0.00    -0.241 OA
ENDBRANCH   3  22
TORSDOF 7
ENDMDL
MODEL 5
REMARK VINA RESULT:      -5.1      2.435      4.354
REMARK  7 active torsions:
REMARK  status: ('A' for Active; 'I' for Inactive)
REMARK    1  A    between atoms: C_2  and  C_3 
REMARK    2  A    between atoms: C_3  and  O_6 
REMARK    3  A    between atoms: C_3  and  C_4 
REMARK    4  A    between atoms: C_7  and  O_6 
REMARK    5  A    between atoms: C_9  and  C_10 
REMARK    6  A    between atoms: N_15  and  C_14 
REMARK    7  A    between atoms: N_20  and  C_19 
REMARK       I    between atoms: C_22  and  N_20 
ROOT
ATOM      1  C   LIG d   1      -5.423  91.537 119.017  0.00  0.00     0.161 C 
ATOM      2  C   LIG d   1      -4.546  90.723 118.282  0.00  0.00     0.016 C 
ATOM      3  C   LIG d   1      -4.666  90.510 116.889  0.00  0.00     0.038 C 
ATOM      4  C   LIG d   1      -5.588  91.221 116.107  0.00  0.00     0.028 C 
ATOM      5  C   LIG d   1      -6.821  91.671 116.882  0.00  0.00    -0.047 C 
ATOM      6  C   LIG d   1      -6.367  92.409 118.162  0.00  0.00     0.091 C 
ENDROOT
BRANCH   1   7
ATOM      7  O   LIG d   1      -4.674  92.360 119.933  0.00  0.00    -0.368 OA
BRANCH   7   8
ATOM      8  C   LIG d   1      -4.097  93.568 119.379  0.00  0.00     0.119 C 
BRANCH   8   9
ATOM      9  C   LIG d   1      -2.569  93.473 119.555  0.00  0.00     0.028 C 
ATOM     10  C   LIG d   1      -1.831  93.342 118.212  0.00  0.00     0.006 C 
ENDBRANCH   8   9
BRANCH   8  11
ATOM     11  C   LIG d   1      -4.521  94.805 120.177  0.00  0.00     0.028 C 
ATOM     12  C   LIG d   1      -5.321  94.453 121.441  0.00  0.00     0.006 C 
ENDBRANCH   8  11
ENDBRANCH   7   8
ENDBRANCH   1   7
BRANCH   6  13
ATOM     13  N   LIG d   1      -7.512  92.809 119.022  0.00  0.00    -0.311 N 
ATOM     14  C   LIG d   1      -8.109  93.997 118.942  0.00  0.00     0.210 C 
ATOM     15  C   LIG d   1      -9.256  94.212 119.934  0.00  0.00     0.109 C 
ATOM     16  O   LIG d   1      -7.818  94.880 118.122  0.00  0.00    -0.276 OA
ATOM     17  H   LIG d   1      -7.833  92.140 119.695  0.00  0.00     0.149 HD
ENDBRANCH   6  13
BRANCH   5  18
ATOM     18  N   LIG d   1      -7.629  92.516 115.983  0.00  0.00     0.381 N 
ATOM     19  H   LIG d   1      -7.049  93.211 115.559  0.00  0.00    -0.090 HD
ATOM     20  H   LIG d   1      -8.336  92.982 116.524  0.00  0.00    -0.090 HD
ATOM     21  H   LIG d   1      -8.056  91.954 115.279  0.00  0.00    -0.090 HD
ENDBRANCH   5  18
BRANCH   3  22
ATOM     22  C   LIG d   1      -3.884  89.545 116.272  0.00  0.00     0.382 C 
ATOM     23  O   LIG d   1      -2.761  89.250 116.748  0.00  0.00    -0.241 OA
ATOM     24  O   LIG d   1      -4.267  88.999 115.220  0.00  0.00    -0.241 OA
ENDBRANCH   3  22
TORSDOF 7
ENDMDL
MODEL 6
REMARK VINA RESULT:      -5.1     14.889     17.295
REMARK  7 active torsions:
REMARK  status: ('A' for Active; 'I' for Inactive)
REMARK    1  A    between atoms: C_2  and  C_3 
REMARK    2  A    between atoms: C_3  and  O_6 
REMARK    3  A    between atoms: C_3  and  C_4 
REMARK    4  A    between atoms: C_7  and  O_6 
REMARK    5  A    between atoms: C_9  and  C_10 
REMARK    6  A    between atoms: N_15  and  C_14 
REMARK    7  A    between atoms: N_20  and  C_19 
REMARK       I    between atoms: C_22  and  N_20 
ROOT
ATOM      1  C   LIG d   1      -7.059  75.708 117.269  0.00  0.00     0.161 C 
ATOM      2  C   LIG d   1      -8.430  75.752 117.573  0.00  0.00     0.016 C 
ATOM      3  C   LIG d   1      -9.110  76.939 117.930  0.00  0.00     0.038 C 
ATOM      4  C   LIG d   1      -8.492  78.197 117.862  0.00  0.00     0.028 C 
ATOM      5  C   LIG d   1      -6.979  78.140 118.049  0.00  0.00    -0.047 C 
ATOM      6  C   LIG d   1      -6.393  77.087 117.081  0.00  0.00     0.091 C 
ENDROOT
BRANCH   1   7
ATOM      7  O   LIG d   1      -6.842  74.884 116.107  0.00  0.00    -0.368 OA
BRANCH   7   8
ATOM      8  C   LIG d   1      -5.989  73.728 116.294  0.00  0.00     0.119 C 
BRANCH   8   9
ATOM      9  C   LIG d   1      -6.750  72.499 115.762  0.00  0.00     0.028 C 
ATOM     10  C   LIG d   1      -7.862  72.037 116.719  0.00  0.00     0.006 C 
ENDBRANCH   8   9
BRANCH   8  11
ATOM     11  C   LIG d   1      -5.752  73.446 117.781  0.00  0.00     0.028 C 
ATOM     12  C   LIG d   1      -4.260  73.359 118.141  0.00  0.00     0.006 C 
ENDBRANCH   8  11
ENDBRANCH   7   8
ENDBRANCH   1   7
BRANCH   6  13
ATOM     13  N   LIG d   1      -4.929  76.907 117.259  0.00  0.00    -0.311 N 
ATOM     14  C   LIG d   1      -4.062  76.911 116.247  0.00  0.00     0.210 C 
ATOM     15  C   LIG d   1      -2.600  76.689 116.648  0.00  0.00     0.109 C 
ATOM     16  O   LIG d   1      -4.361  77.111 115.060  0.00  0.00    -0.276 OA
ATOM     17  H   LIG d   1      -4.596  76.770 118.193  0.00  0.00     0.149 HD
ENDBRANCH   6  13
BRANCH   5  18
ATOM     18  N   LIG d   1      -6.450  79.497 117.817  0.00  0.00     0.381 N 
ATOM     19  H   LIG d   1      -6.034  79.547 116.909  0.00  0.00    -0.090 HD
ATOM     20  H   LIG d   1      -5.739  79.690 118.501  0.00  0.00    -0.090 HD
ATOM     21  H   LIG d   1      -7.184  80.166 117.892  0.00  0.00    -0.090 HD
ENDBRANCH   5  18
BRANCH   3  22
ATOM     22  C   LIG d   1     -10.412  76.870 118.401  0.00  0.00     0.382 C 
ATOM     23  O   LIG d   1     -11.098  75.839 118.199  0.00  0.00    -0.241 OA
ATOM     24  O   LIG d   1     -10.925  77.843 118.986  0.00  0.00    -0.241 OA
ENDBRANCH   3  22
TORSDOF 7
ENDMDL
MODEL 7
REMARK VINA RESULT:      -5.0      2.393      5.762
REMARK  7 active torsions:
REMARK  status: ('A' for Active; 'I' for Inactive)
REMARK    1  A    between atoms: C_2  and  C_3 
REMARK    2  A    between atoms: C_3  and  O_6 
REMARK    3  A    between atoms: C_3  and  C_4 
REMARK    4  A    between atoms: C_7  and  O_6 
REMARK    5  A    between atoms: C_9  and  C_10 
REMARK    6  A    between atoms: N_15  and  C_14 
REMARK    7  A    between atoms: N_20  and  C_19 
REMARK       I    between atoms: C_22  and  N_20 
ROOT
ATOM      1  C   LIG d   1      -5.118  92.474 118.768  0.00  0.00     0.161 C 
ATOM      2  C   LIG d   1      -5.481  93.429 119.732  0.00  0.00     0.016 C 
ATOM      3  C   LIG d   1      -6.625  94.252 119.619  0.00  0.00     0.038 C 
ATOM      4  C   LIG d   1      -7.573  94.069 118.601  0.00  0.00     0.028 C 
ATOM      5  C   LIG d   1      -6.988  93.459 117.332  0.00  0.00    -0.047 C 
ATOM      6  C   LIG d   1      -6.200  92.183 117.706  0.00  0.00     0.091 C 
ENDROOT
BRANCH   1   7
ATOM      7  O   LIG d   1      -4.713  91.253 119.418  0.00  0.00    -0.368 OA
BRANCH   7   8
ATOM      8  C   LIG d   1      -3.326  90.870 119.248  0.00  0.00     0.119 C 
BRANCH   8   9
ATOM      9  C   LIG d   1      -2.653  91.944 118.372  0.00  0.00     0.028 C 
ATOM     10  C   LIG d   1      -1.953  91.345 117.141  0.00  0.00     0.006 C 
ENDBRANCH   8   9
BRANCH   8  11
ATOM     11  C   LIG d   1      -3.202  89.565 118.455  0.00  0.00     0.028 C 
ATOM     12  C   LIG d   1      -2.801  88.370 119.334  0.00  0.00     0.006 C 
ENDBRANCH   8  11
ENDBRANCH   7   8
ENDBRANCH   1   7
BRANCH   6  13
ATOM     13  N   LIG d   1      -5.525  91.570 116.533  0.00  0.00    -0.311 N 
ATOM     14  C   LIG d   1      -5.890  90.404 116.003  0.00  0.00     0.210 C 
ATOM     15  C   LIG d   1      -5.048  89.943 114.810  0.00  0.00     0.109 C 
ATOM     16  O   LIG d   1      -6.853  89.723 116.389  0.00  0.00    -0.276 OA
ATOM     17  H   LIG d   1      -4.753  92.070 116.137  0.00  0.00     0.149 HD
ENDBRANCH   6  13
BRANCH   5  18
ATOM     18  N   LIG d   1      -8.108  93.196 116.408  0.00  0.00     0.381 N 
ATOM     19  H   LIG d   1      -8.040  92.264 116.050  0.00  0.00    -0.090 HD
ATOM     20  H   LIG d   1      -8.048  93.836 115.635  0.00  0.00    -0.090 HD
ATOM     21  H   LIG d   1      -8.976  93.316 116.881  0.00  0.00    -0.090 HD
ENDBRANCH   5  18
BRANCH   3  22
ATOM     22  C   LIG d   1      -6.809  95.299 120.510  0.00  0.00     0.382 C 
ATOM     23  O   LIG d   1      -5.885  96.125 120.707  0.00  0.00    -0.241 OA
ATOM     24  O   LIG d   1      -7.871  95.402 121.153  0.00  0.00    -0.241 OA
ENDBRANCH   3  22
TORSDOF 7
ENDMDL
MODEL 8
REMARK VINA RESULT:      -5.0     16.651     19.067
REMARK  7 active torsions:
REMARK  status: ('A' for Active; 'I' for Inactive)
REMARK    1  A    between atoms: C_2  and  C_3 
REMARK    2  A    between atoms: C_3  and  O_6 
REMARK    3  A    between atoms: C_3  and  C_4 
REMARK    4  A    between atoms: C_7  and  O_6 
REMARK    5  A    between atoms: C_9  and  C_10 
REMARK    6  A    between atoms: N_15  and  C_14 
REMARK    7  A    between atoms: N_20  and  C_19 
REMARK       I    between atoms: C_22  and  N_20 
ROOT
ATOM      1  C   LIG d   1      -7.284  73.969 118.010  0.00  0.00     0.161 C 
ATOM      2  C   LIG d   1      -6.372  74.961 117.610  0.00  0.00     0.016 C 
ATOM      3  C   LIG d   1      -5.631  74.896 116.407  0.00  0.00     0.038 C 
ATOM      4  C   LIG d   1      -5.865  73.903 115.444  0.00  0.00     0.028 C 
ATOM      5  C   LIG d   1      -6.412  72.607 116.032  0.00  0.00    -0.047 C 
ATOM      6  C   LIG d   1      -7.634  72.935 116.920  0.00  0.00     0.091 C 
ENDROOT
BRANCH   1   7
ATOM      7  O   LIG d   1      -8.483  74.586 118.520  0.00  0.00    -0.368 OA
BRANCH   7   8
ATOM      8  C   LIG d   1      -8.445  76.026 118.670  0.00  0.00     0.119 C 
BRANCH   8   9
ATOM      9  C   LIG d   1      -8.417  76.334 120.180  0.00  0.00     0.028 C 
ATOM     10  C   LIG d   1      -9.322  77.519 120.554  0.00  0.00     0.006 C 
ENDBRANCH   8   9
BRANCH   8  11
ATOM     11  C   LIG d   1      -9.731  76.675 118.148  0.00  0.00     0.028 C 
ATOM     12  C   LIG d   1     -10.677  75.666 117.478  0.00  0.00     0.006 C 
ENDBRANCH   8  11
ENDBRANCH   7   8
ENDBRANCH   1   7
BRANCH   6  13
ATOM     13  N   LIG d   1      -8.179  71.731 117.601  0.00  0.00    -0.311 N 
ATOM     14  C   LIG d   1      -9.133  70.963 117.079  0.00  0.00     0.210 C 
ATOM     15  C   LIG d   1      -9.565  69.783 117.955  0.00  0.00     0.109 C 
ATOM     16  O   LIG d   1      -9.640  71.127 115.959  0.00  0.00    -0.276 OA
ATOM     17  H   LIG d   1      -7.802  71.506 118.501  0.00  0.00     0.149 HD
ENDBRANCH   6  13
BRANCH   5  18
ATOM     18  N   LIG d   1      -6.739  71.711 114.907  0.00  0.00     0.381 N 
ATOM     19  H   LIG d   1      -6.884  70.781 115.246  0.00  0.00    -0.090 HD
ATOM     20  H   LIG d   1      -5.964  71.696 114.267  0.00  0.00    -0.090 HD
ATOM     21  H   LIG d   1      -7.558  72.034 114.440  0.00  0.00    -0.090 HD
ENDBRANCH   5  18
BRANCH   3  22
ATOM     22  C   LIG d   1      -4.615  75.811 116.177  0.00  0.00     0.382 C 
ATOM     23  O   LIG d   1      -4.840  76.839 115.494  0.00  0.00    -0.241 OA
ATOM     24  O   LIG d   1      -3.465  75.600 116.606  0.00  0.00    -0.241 OA
ENDBRANCH   3  22
TORSDOF 7
ENDMDL
MODEL 9
REMARK VINA RESULT:      -4.9      2.152      4.313
REMARK  7 active torsions:
REMARK  status: ('A' for Active; 'I' for Inactive)
REMARK    1  A    between atoms: C_2  and  C_3 
REMARK    2  A    between atoms: C_3  and  O_6 
REMARK    3  A    between atoms: C_3  and  C_4 
REMARK    4  A    between atoms: C_7  and  O_6 
REMARK    5  A    between atoms: C_9  and  C_10 
REMARK    6  A    between atoms: N_15  and  C_14 
REMARK    7  A    between atoms: N_20  and  C_19 
REMARK       I    between atoms: C_22  and  N_20 
ROOT
ATOM      1  C   LIG d   1      -4.957  91.864 118.669  0.00  0.00     0.161 C 
ATOM      2  C   LIG d   1      -5.362  90.976 117.658  0.00  0.00     0.016 C 
ATOM      3  C   LIG d   1      -6.426  91.244 116.766  0.00  0.00     0.038 C 
ATOM      4  C   LIG d   1      -7.064  92.493 116.728  0.00  0.00     0.028 C 
ATOM      5  C   LIG d   1      -7.028  93.233 118.062  0.00  0.00    -0.047 C 
ATOM      6  C   LIG d   1      -5.569  93.277 118.571  0.00  0.00     0.091 C 
ENDROOT
BRANCH   1   7
ATOM      7  O   LIG d   1      -3.519  91.943 118.703  0.00  0.00    -0.368 OA
BRANCH   7   8
ATOM      8  C   LIG d   1      -2.805  90.857 118.061  0.00  0.00     0.119 C 
BRANCH   8   9
ATOM      9  C   LIG d   1      -1.976  90.143 119.146  0.00  0.00     0.028 C 
ATOM     10  C   LIG d   1      -1.823  90.990 120.421  0.00  0.00     0.006 C 
ENDBRANCH   8   9
BRANCH   8  11
ATOM     11  C   LIG d   1      -1.783  91.383 117.050  0.00  0.00     0.028 C 
ATOM     12  C   LIG d   1      -1.691  92.917 117.039  0.00  0.00     0.006 C 
ENDBRANCH   8  11
ENDBRANCH   7   8
ENDBRANCH   1   7
BRANCH   6  13
ATOM     13  N   LIG d   1      -5.456  93.910 119.911  0.00  0.00    -0.311 N 
ATOM     14  C   LIG d   1      -5.257  95.215 120.091  0.00  0.00     0.210 C 
ATOM     15  C   LIG d   1      -5.150  95.656 121.554  0.00  0.00     0.109 C 
ATOM     16  O   LIG d   1      -5.190  96.052 119.179  0.00  0.00    -0.276 OA
ATOM     17  H   LIG d   1      -5.529  93.308 120.707  0.00  0.00     0.149 HD
ENDBRANCH   6  13
BRANCH   5  18
ATOM     18  N   LIG d   1      -7.606  94.572 117.844  0.00  0.00     0.381 N 
ATOM     19  H   LIG d   1      -8.464  94.493 117.336  0.00  0.00    -0.090 HD
ATOM     20  H   LIG d   1      -6.964  95.117 117.295  0.00  0.00    -0.090 HD
ATOM     21  H   LIG d   1      -7.769  95.020 118.719  0.00  0.00    -0.090 HD
ENDBRANCH   5  18
BRANCH   3  22
ATOM     22  C   LIG d   1      -6.888  90.242 115.927  0.00  0.00     0.382 C 
ATOM     23  O   LIG d   1      -7.800  89.473 116.312  0.00  0.00    -0.241 OA
ATOM     24  O   LIG d   1      -6.373  90.071 114.805  0.00  0.00    -0.241 OA
ENDBRANCH   3  22
TORSDOF 7
ENDMDL
