MODEL 1
REMARK VINA RESULT:      -5.5      0.000      0.000
REMARK  7 active torsions:
REMARK  status: ('A' for Active; 'I' for Inactive)
REMARK    1  A    between atoms: C_2  and  C_3 
REMARK    2  A    between atoms: C_3  and  O_6 
REMARK    3  A    between atoms: C_3  and  C_4 
REMARK    4  A    between atoms: C_7  and  O_6 
REMARK    5  A    between atoms: C_9  and  C_10 
REMARK    6  A    between atoms: N_15  and  C_14 
REMARK    7  A    between atoms: N_20  and  C_19 
REMARK       I    between atoms: C_22  and  N_20 
ROOT
ATOM      1  C   LIG d   1      -8.631  75.167 117.522  0.00  0.00     0.161 C 
ATOM      2  C   LIG d   1      -8.539  73.808 117.179  0.00  0.00     0.016 C 
ATOM      3  C   LIG d   1      -7.310  73.126 117.028  0.00  0.00     0.038 C 
ATOM      4  C   LIG d   1      -6.085  73.723 117.359  0.00  0.00     0.028 C 
ATOM      5  C   LIG d   1      -6.095  75.241 117.224  0.00  0.00    -0.047 C 
ATOM      6  C   LIG d   1      -7.309  75.806 117.996  0.00  0.00     0.091 C 
ENDROOT
BRANCH   1   7
ATOM      7  O   LIG d   1      -9.661  75.352 118.514  0.00  0.00    -0.368 OA
BRANCH   7   8
ATOM      8  C   LIG d   1     -10.788  76.172 118.118  0.00  0.00     0.119 C 
BRANCH   8   9
ATOM      9  C   LIG d   1     -11.102  77.124 119.288  0.00  0.00     0.028 C 
ATOM     10  C   LIG d   1     -10.630  78.562 119.016  0.00  0.00     0.006 C 
ENDBRANCH   8   9
BRANCH   8  11
ATOM     11  C   LIG d   1     -12.052  75.327 117.931  0.00  0.00     0.028 C 
ATOM     12  C   LIG d   1     -12.877  75.197 119.221  0.00  0.00     0.006 C 
ENDBRANCH   8  11
ENDBRANCH   7   8
ENDBRANCH   1   7
BRANCH   6  13
ATOM     13  N   LIG d   1      -7.442  77.279 117.845  0.00  0.00    -0.311 N 
ATOM     14  C   LIG d   1      -6.907  78.154 118.695  0.00  0.00     0.210 C 
ATOM     15  C   LIG d   1      -7.180  79.625 118.366  0.00  0.00     0.109 C 
ATOM     16  O   LIG d   1      -6.204  77.852 119.672  0.00  0.00    -0.276 OA
ATOM     17  H   LIG d   1      -7.969  77.611 117.062  0.00  0.00     0.149 HD
ENDBRANCH   6  13
BRANCH   5  18
ATOM     18  N   LIG d   1      -4.803  75.743 117.731  0.00  0.00     0.381 N 
ATOM     19  H   LIG d   1      -4.592  76.624 117.308  0.00  0.00    -0.090 HD
ATOM     20  H   LIG d   1      -4.081  75.091 117.481  0.00  0.00    -0.090 HD
ATOM     21  H   LIG d   1      -4.842  75.842 118.722  0.00  0.00    -0.090 HD
ENDBRANCH   5  18
BRANCH   3  22
ATOM     22  C   LIG d   1      -7.297  71.843 116.502  0.00  0.00     0.382 C 
ATOM     23  O   LIG d   1      -6.733  71.621 115.403  0.00  0.00    -0.241 OA
ATOM     24  O   LIG d   1      -7.880  70.912 117.090  0.00  0.00    -0.241 OA
ENDBRANCH   3  22
TORSDOF 7
ENDMDL
MODEL 2
REMARK VINA RESULT:      -5.4     14.820     16.926
REMARK  7 active torsions:
REMARK  status: ('A' for Active; 'I' for Inactive)
REMARK    1  A    between atoms: C_2  and  C_3 
REMARK    2  A    between atoms: C_3  and  O_6 
REMARK    3  A    between atoms: C_3  and  C_4 
REMARK    4  A    between atoms: C_7  and  O_6 
REMARK    5  A    between atoms: C_9  and  C_10 
REMARK    6  A    between atoms: N_15  and  C_14 
REMARK    7  A    between atoms: N_20  and  C_19 
REMARK       I    between atoms: C_22  and  N_20 
ROOT
ATOM      1  C   LIG d   1      -5.890  92.067 118.566  0.00  0.00     0.161 C 
ATOM      2  C   LIG d   1      -6.775  91.274 117.816  0.00  0.00     0.016 C 
ATOM      3  C   LIG d   1      -6.347  90.307 116.877  0.00  0.00     0.038 C 
ATOM      4  C   LIG d   1      -4.995  89.960 116.733  0.00  0.00     0.028 C 
ATOM      5  C   LIG d   1      -4.038  91.087 117.104  0.00  0.00    -0.047 C 
ATOM      6  C   LIG d   1      -4.413  91.625 118.504  0.00  0.00     0.091 C 
ENDROOT
BRANCH   1   7
ATOM      7  O   LIG d   1      -6.336  92.134 119.935  0.00  0.00    -0.368 OA
BRANCH   7   8
ATOM      8  C   LIG d   1      -7.295  93.176 120.243  0.00  0.00     0.119 C 
BRANCH   8   9
ATOM      9  C   LIG d   1      -6.578  94.220 121.121  0.00  0.00     0.028 C 
ATOM     10  C   LIG d   1      -5.964  95.361 120.292  0.00  0.00     0.006 C 
ENDBRANCH   8   9
BRANCH   8  11
ATOM     11  C   LIG d   1      -8.442  92.641 121.105  0.00  0.00     0.028 C 
ATOM     12  C   LIG d   1      -9.439  93.736 121.517  0.00  0.00     0.006 C 
ENDBRANCH   8  11
ENDBRANCH   7   8
ENDBRANCH   1   7
BRANCH   6  13
ATOM     13  N   LIG d   1      -3.579  92.787 118.907  0.00  0.00    -0.311 N 
ATOM     14  C   LIG d   1      -2.473  92.675 119.642  0.00  0.00     0.210 C 
ATOM     15  C   LIG d   1      -1.774  94.000 119.962  0.00  0.00     0.109 C 
ATOM     16  O   LIG d   1      -1.988  91.602 120.031  0.00  0.00    -0.276 OA
ATOM     17  H   LIG d   1      -3.883  93.692 118.608  0.00  0.00     0.149 HD
ENDBRANCH   6  13
BRANCH   5  18
ATOM     18  N   LIG d   1      -2.667  90.547 117.041  0.00  0.00     0.381 N 
ATOM     19  H   LIG d   1      -2.030  91.186 117.474  0.00  0.00    -0.090 HD
ATOM     20  H   LIG d   1      -2.403  90.442 116.077  0.00  0.00    -0.090 HD
ATOM     21  H   LIG d   1      -2.627  89.664 117.501  0.00  0.00    -0.090 HD
ENDBRANCH   5  18
BRANCH   3  22
ATOM     22  C   LIG d   1      -7.274  89.704 116.041  0.00  0.00     0.382 C 
ATOM     23  O   LIG d   1      -8.258  89.097 116.529  0.00  0.00    -0.241 OA
ATOM     24  O   LIG d   1      -7.116  89.721 114.805  0.00  0.00    -0.241 OA
ENDBRANCH   3  22
TORSDOF 7
ENDMDL
MODEL 3
REMARK VINA RESULT:      -5.4      1.884      4.929
REMARK  7 active torsions:
REMARK  status: ('A' for Active; 'I' for Inactive)
REMARK    1  A    between atoms: C_2  and  C_3 
REMARK    2  A    between atoms: C_3  and  O_6 
REMARK    3  A    between atoms: C_3  and  C_4 
REMARK    4  A    between atoms: C_7  and  O_6 
REMARK    5  A    between atoms: C_9  and  C_10 
REMARK    6  A    between atoms: N_15  and  C_14 
REMARK    7  A    between atoms: N_20  and  C_19 
REMARK       I    between atoms: C_22  and  N_20 
ROOT
ATOM      1  C   LIG d   1      -7.995  75.213 117.929  0.00  0.00     0.161 C 
ATOM      2  C   LIG d   1      -9.369  74.917 117.915  0.00  0.00     0.016 C 
ATOM      3  C   LIG d   1     -10.378  75.901 118.024  0.00  0.00     0.038 C 
ATOM      4  C   LIG d   1     -10.082  77.272 118.002  0.00  0.00     0.028 C 
ATOM      5  C   LIG d   1      -8.687  77.599 118.526  0.00  0.00    -0.047 C 
ATOM      6  C   LIG d   1      -7.655  76.712 117.793  0.00  0.00     0.091 C 
ENDROOT
BRANCH   1   7
ATOM      7  O   LIG d   1      -7.321  74.451 116.908  0.00  0.00    -0.368 OA
BRANCH   7   8
ATOM      8  C   LIG d   1      -6.316  73.515 117.370  0.00  0.00     0.119 C 
BRANCH   8   9
ATOM      9  C   LIG d   1      -4.942  74.063 116.940  0.00  0.00     0.028 C 
ATOM     10  C   LIG d   1      -4.978  74.711 115.545  0.00  0.00     0.006 C 
ENDBRANCH   8   9
BRANCH   8  11
ATOM     11  C   LIG d   1      -6.451  72.161 116.667  0.00  0.00     0.028 C 
ATOM     12  C   LIG d   1      -7.900  71.840 116.267  0.00  0.00     0.006 C 
ENDBRANCH   8  11
ENDBRANCH   7   8
ENDBRANCH   1   7
BRANCH   6  13
ATOM     13  N   LIG d   1      -6.274  76.908 118.304  0.00  0.00    -0.311 N 
ATOM     14  C   LIG d   1      -5.407  77.764 117.766  0.00  0.00     0.210 C 
ATOM     15  C   LIG d   1      -4.030  77.796 118.434  0.00  0.00     0.109 C 
ATOM     16  O   LIG d   1      -5.660  78.524 116.818  0.00  0.00    -0.276 OA
ATOM     17  H   LIG d   1      -5.996  76.355 119.091  0.00  0.00     0.149 HD
ENDBRANCH   6  13
BRANCH   5  18
ATOM     18  N   LIG d   1      -8.460  79.042 118.318  0.00  0.00     0.381 N 
ATOM     19  H   LIG d   1      -8.564  79.265 117.348  0.00  0.00    -0.090 HD
ATOM     20  H   LIG d   1      -7.520  79.266 118.593  0.00  0.00    -0.090 HD
ATOM     21  H   LIG d   1      -9.108  79.571 118.859  0.00  0.00    -0.090 HD
ENDBRANCH   5  18
BRANCH   3  22
ATOM     22  C   LIG d   1     -11.698  75.516 118.197  0.00  0.00     0.382 C 
ATOM     23  O   LIG d   1     -11.964  74.388 118.679  0.00  0.00    -0.241 OA
ATOM     24  O   LIG d   1     -12.627  76.263 117.836  0.00  0.00    -0.241 OA
ENDBRANCH   3  22
TORSDOF 7
ENDMDL
MODEL 4
REMARK VINA RESULT:      -5.3      2.109      4.181
REMARK  7 active torsions:
REMARK  status: ('A' for Active; 'I' for Inactive)
REMARK    1  A    between atoms: C_2  and  C_3 
REMARK    2  A    between atoms: C_3  and  O_6 
REMARK    3  A    between atoms: C_3  and  C_4 
REMARK    4  A    between atoms: C_7  and  O_6 
REMARK    5  A    between atoms: C_9  and  C_10 
REMARK    6  A    between atoms: N_15  and  C_14 
REMARK    7  A    between atoms: N_20  and  C_19 
REMARK       I    between atoms: C_22  and  N_20 
ROOT
ATOM      1  C   LIG d   1      -8.225  75.147 119.380  0.00  0.00     0.161 C 
ATOM      2  C   LIG d   1      -7.678  74.076 118.654  0.00  0.00     0.016 C 
ATOM      3  C   LIG d   1      -8.339  73.452 117.571  0.00  0.00     0.038 C 
ATOM      4  C   LIG d   1      -9.535  73.959 117.040  0.00  0.00     0.028 C 
ATOM      5  C   LIG d   1     -10.371  74.727 118.058  0.00  0.00    -0.047 C 
ATOM      6  C   LIG d   1      -9.479  75.785 118.745  0.00  0.00     0.091 C 
ENDROOT
BRANCH   1   7
ATOM      7  O   LIG d   1      -7.214  76.148 119.610  0.00  0.00    -0.368 OA
BRANCH   7   8
ATOM      8  C   LIG d   1      -7.135  77.210 118.627  0.00  0.00     0.119 C 
BRANCH   8   9
ATOM      9  C   LIG d   1      -5.792  77.057 117.888  0.00  0.00     0.028 C 
ATOM     10  C   LIG d   1      -5.975  76.636 116.420  0.00  0.00     0.006 C 
ENDBRANCH   8   9
BRANCH   8  11
ATOM     11  C   LIG d   1      -7.074  78.586 119.298  0.00  0.00     0.028 C 
ATOM     12  C   LIG d   1      -7.747  79.686 118.463  0.00  0.00     0.006 C 
ENDBRANCH   8  11
ENDBRANCH   7   8
ENDBRANCH   1   7
BRANCH   6  13
ATOM     13  N   LIG d   1     -10.198  76.524 119.816  0.00  0.00    -0.311 N 
ATOM     14  C   LIG d   1     -10.838  77.674 119.609  0.00  0.00     0.210 C 
ATOM     15  C   LIG d   1     -11.496  78.280 120.853  0.00  0.00     0.109 C 
ATOM     16  O   LIG d   1     -10.950  78.233 118.508  0.00  0.00    -0.276 OA
ATOM     17  H   LIG d   1     -10.184  76.126 120.734  0.00  0.00     0.149 HD
ENDBRANCH   6  13
BRANCH   5  18
ATOM     18  N   LIG d   1     -11.517  75.316 117.340  0.00  0.00     0.381 N 
ATOM     19  H   LIG d   1     -11.344  76.285 117.161  0.00  0.00    -0.090 HD
ATOM     20  H   LIG d   1     -12.336  75.243 117.918  0.00  0.00    -0.090 HD
ATOM     21  H   LIG d   1     -11.665  74.834 116.480  0.00  0.00    -0.090 HD
ENDBRANCH   5  18
BRANCH   3  22
ATOM     22  C   LIG d   1      -7.823  72.283 117.032  0.00  0.00     0.382 C 
ATOM     23  O   LIG d   1      -8.029  71.185 117.603  0.00  0.00    -0.241 OA
ATOM     24  O   LIG d   1      -7.118  72.318 116.006  0.00  0.00    -0.241 OA
ENDBRANCH   3  22
TORSDOF 7
ENDMDL
MODEL 5
REMARK VINA RESULT:      -5.2      2.458      5.637
REMARK  7 active torsions:
REMARK  status: ('A' for Active; 'I' for Inactive)
REMARK    1  A    between atoms: C_2  and  C_3 
REMARK    2  A    between atoms: C_3  and  O_6 
REMARK    3  A    between atoms: C_3  and  C_4 
REMARK    4  A    between atoms: C_7  and  O_6 
REMARK    5  A    between atoms: C_9  and  C_10 
REMARK    6  A    between atoms: N_15  and  C_14 
REMARK    7  A    between atoms: N_20  and  C_19 
REMARK       I    between atoms: C_22  and  N_20 
ROOT
ATOM      1  C   LIG d   1      -9.221  77.674 118.387  0.00  0.00     0.161 C 
ATOM      2  C   LIG d   1      -9.943  78.826 118.739  0.00  0.00     0.016 C 
ATOM      3  C   LIG d   1      -9.375  80.120 118.774  0.00  0.00     0.038 C 
ATOM      4  C   LIG d   1      -8.075  80.372 118.311  0.00  0.00     0.028 C 
ATOM      5  C   LIG d   1      -7.147  79.166 118.425  0.00  0.00    -0.047 C 
ATOM      6  C   LIG d   1      -7.832  77.944 117.772  0.00  0.00     0.091 C 
ENDROOT
BRANCH   1   7
ATOM      7  O   LIG d   1     -10.010  76.854 117.503  0.00  0.00    -0.368 OA
BRANCH   7   8
ATOM      8  C   LIG d   1     -10.515  75.616 118.062  0.00  0.00     0.119 C 
BRANCH   8   9
ATOM      9  C   LIG d   1      -9.929  74.459 117.228  0.00  0.00     0.028 C 
ATOM     10  C   LIG d   1      -9.040  73.524 118.065  0.00  0.00     0.006 C 
ENDBRANCH   8   9
BRANCH   8  11
ATOM     11  C   LIG d   1     -12.033  75.507 117.896  0.00  0.00     0.028 C 
ATOM     12  C   LIG d   1     -12.762  75.255 119.225  0.00  0.00     0.006 C 
ENDBRANCH   8  11
ENDBRANCH   7   8
ENDBRANCH   1   7
BRANCH   6  13
ATOM     13  N   LIG d   1      -7.028  76.701 117.914  0.00  0.00    -0.311 N 
ATOM     14  C   LIG d   1      -6.170  76.274 116.989  0.00  0.00     0.210 C 
ATOM     15  C   LIG d   1      -5.459  74.959 117.326  0.00  0.00     0.109 C 
ATOM     16  O   LIG d   1      -5.907  76.875 115.937  0.00  0.00    -0.276 OA
ATOM     17  H   LIG d   1      -7.157  76.168 118.751  0.00  0.00     0.149 HD
ENDBRANCH   6  13
BRANCH   5  18
ATOM     18  N   LIG d   1      -5.869  79.525 117.781  0.00  0.00     0.381 N 
ATOM     19  H   LIG d   1      -5.642  80.477 117.987  0.00  0.00    -0.090 HD
ATOM     20  H   LIG d   1      -5.969  79.432 116.786  0.00  0.00    -0.090 HD
ATOM     21  H   LIG d   1      -5.144  78.925 118.107  0.00  0.00    -0.090 HD
ENDBRANCH   5  18
BRANCH   3  22
ATOM     22  C   LIG d   1     -10.096  81.174 119.315  0.00  0.00     0.382 C 
ATOM     23  O   LIG d   1     -10.575  82.057 118.563  0.00  0.00    -0.241 OA
ATOM     24  O   LIG d   1     -10.238  81.275 120.548  0.00  0.00    -0.241 OA
ENDBRANCH   3  22
TORSDOF 7
ENDMDL
MODEL 6
REMARK VINA RESULT:      -5.2      2.358      6.225
REMARK  7 active torsions:
REMARK  status: ('A' for Active; 'I' for Inactive)
REMARK    1  A    between atoms: C_2  and  C_3 
REMARK    2  A    between atoms: C_3  and  O_6 
REMARK    3  A    between atoms: C_3  and  C_4 
REMARK    4  A    between atoms: C_7  and  O_6 
REMARK    5  A    between atoms: C_9  and  C_10 
REMARK    6  A    between atoms: N_15  and  C_14 
REMARK    7  A    between atoms: N_20  and  C_19 
REMARK       I    between atoms: C_22  and  N_20 
ROOT
ATOM      1  C   LIG d   1      -7.583  75.992 117.717  0.00  0.00     0.161 C 
ATOM      2  C   LIG d   1      -7.866  77.334 118.022  0.00  0.00     0.016 C 
ATOM      3  C   LIG d   1      -9.177  77.830 118.209  0.00  0.00     0.038 C 
ATOM      4  C   LIG d   1     -10.292  76.980 118.254  0.00  0.00     0.028 C 
ATOM      5  C   LIG d   1     -10.108  75.696 117.452  0.00  0.00    -0.047 C 
ATOM      6  C   LIG d   1      -8.779  75.028 117.872  0.00  0.00     0.091 C 
ENDROOT
BRANCH   1   7
ATOM      7  O   LIG d   1      -6.467  75.536 118.507  0.00  0.00    -0.368 OA
BRANCH   7   8
ATOM      8  C   LIG d   1      -5.231  75.303 117.788  0.00  0.00     0.119 C 
BRANCH   8   9
ATOM      9  C   LIG d   1      -4.247  76.420 118.185  0.00  0.00     0.028 C 
ATOM     10  C   LIG d   1      -4.044  77.450 117.060  0.00  0.00     0.006 C 
ENDBRANCH   8   9
BRANCH   8  11
ATOM     11  C   LIG d   1      -5.428  75.453 116.277  0.00  0.00     0.028 C 
ATOM     12  C   LIG d   1      -5.174  74.146 115.509  0.00  0.00     0.006 C 
ENDBRANCH   8  11
ENDBRANCH   7   8
ENDBRANCH   1   7
BRANCH   6  13
ATOM     13  N   LIG d   1      -8.480  73.810 117.075  0.00  0.00    -0.311 N 
ATOM     14  C   LIG d   1      -8.034  72.675 117.611  0.00  0.00     0.210 C 
ATOM     15  C   LIG d   1      -7.770  71.546 116.608  0.00  0.00     0.109 C 
ATOM     16  O   LIG d   1      -7.862  72.485 118.824  0.00  0.00    -0.276 OA
ATOM     17  H   LIG d   1      -8.621  73.866 116.086  0.00  0.00     0.149 HD
ENDBRANCH   6  13
BRANCH   5  18
ATOM     18  N   LIG d   1     -11.286  74.844 117.697  0.00  0.00     0.381 N 
ATOM     19  H   LIG d   1     -11.215  74.004 117.158  0.00  0.00    -0.090 HD
ATOM     20  H   LIG d   1     -12.111  75.338 117.405  0.00  0.00    -0.090 HD
ATOM     21  H   LIG d   1     -11.350  74.621 118.666  0.00  0.00    -0.090 HD
ENDBRANCH   5  18
BRANCH   3  22
ATOM     22  C   LIG d   1      -9.386  79.196 118.315  0.00  0.00     0.382 C 
ATOM     23  O   LIG d   1     -10.532  79.637 118.570  0.00  0.00    -0.241 OA
ATOM     24  O   LIG d   1      -8.452  79.996 118.114  0.00  0.00    -0.241 OA
ENDBRANCH   3  22
TORSDOF 7
ENDMDL
MODEL 7
REMARK VINA RESULT:      -5.0     15.209     17.240
REMARK  7 active torsions:
REMARK  status: ('A' for Active; 'I' for Inactive)
REMARK    1  A    between atoms: C_2  and  C_3 
REMARK    2  A    between atoms: C_3  and  O_6 
REMARK    3  A    between atoms: C_3  and  C_4 
REMARK    4  A    between atoms: C_7  and  O_6 
REMARK    5  A    between atoms: C_9  and  C_10 
REMARK    6  A    between atoms: N_15  and  C_14 
REMARK    7  A    between atoms: N_20  and  C_19 
REMARK       I    between atoms: C_22  and  N_20 
ROOT
ATOM      1  C   LIG d   1      -3.701  90.871 118.091  0.00  0.00     0.161 C 
ATOM      2  C   LIG d   1      -4.522  90.258 117.129  0.00  0.00     0.016 C 
ATOM      3  C   LIG d   1      -5.870  90.624 116.910  0.00  0.00     0.038 C 
ATOM      4  C   LIG d   1      -6.447  91.738 117.538  0.00  0.00     0.028 C 
ATOM      5  C   LIG d   1      -5.813  92.071 118.884  0.00  0.00    -0.047 C 
ATOM      6  C   LIG d   1      -4.280  92.162 118.707  0.00  0.00     0.091 C 
ENDROOT
BRANCH   1   7
ATOM      7  O   LIG d   1      -2.397  91.125 117.530  0.00  0.00    -0.368 OA
BRANCH   7   8
ATOM      8  C   LIG d   1      -1.395  90.104 117.758  0.00  0.00     0.119 C 
BRANCH   8   9
ATOM      9  C   LIG d   1      -1.407  89.773 119.263  0.00  0.00     0.028 C 
ATOM     10  C   LIG d   1      -0.167  90.317 119.993  0.00  0.00     0.006 C 
ENDBRANCH   8   9
BRANCH   8  11
ATOM     11  C   LIG d   1       0.013  90.631 117.470  0.00  0.00     0.028 C 
ATOM     12  C   LIG d   1       0.658  89.966 116.243  0.00  0.00     0.006 C 
ENDBRANCH   8  11
ENDBRANCH   7   8
ENDBRANCH   1   7
BRANCH   6  13
ATOM     13  N   LIG d   1      -3.574  92.402 119.993  0.00  0.00    -0.311 N 
ATOM     14  C   LIG d   1      -2.639  93.336 120.153  0.00  0.00     0.210 C 
ATOM     15  C   LIG d   1      -2.024  93.402 121.554  0.00  0.00     0.109 C 
ATOM     16  O   LIG d   1      -2.282  94.137 119.276  0.00  0.00    -0.276 OA
ATOM     17  H   LIG d   1      -3.824  91.817 120.766  0.00  0.00     0.149 HD
ENDBRANCH   6  13
BRANCH   5  18
ATOM     18  N   LIG d   1      -6.416  93.330 119.361  0.00  0.00     0.381 N 
ATOM     19  H   LIG d   1      -6.170  94.078 118.744  0.00  0.00    -0.090 HD
ATOM     20  H   LIG d   1      -6.050  93.540 120.273  0.00  0.00    -0.090 HD
ATOM     21  H   LIG d   1      -7.407  93.238 119.406  0.00  0.00    -0.090 HD
ENDBRANCH   5  18
BRANCH   3  22
ATOM     22  C   LIG d   1      -6.667  89.847 116.083  0.00  0.00     0.382 C 
ATOM     23  O   LIG d   1      -6.297  89.595 114.911  0.00  0.00    -0.241 OA
ATOM     24  O   LIG d   1      -7.772  89.431 116.480  0.00  0.00    -0.241 OA
ENDBRANCH   3  22
TORSDOF 7
ENDMDL
MODEL 8
REMARK VINA RESULT:      -5.0      2.762      4.441
REMARK  7 active torsions:
REMARK  status: ('A' for Active; 'I' for Inactive)
REMARK    1  A    between atoms: C_2  and  C_3 
REMARK    2  A    between atoms: C_3  and  O_6 
REMARK    3  A    between atoms: C_3  and  C_4 
REMARK    4  A    between atoms: C_7  and  O_6 
REMARK    5  A    between atoms: C_9  and  C_10 
REMARK    6  A    between atoms: N_15  and  C_14 
REMARK    7  A    between atoms: N_20  and  C_19 
REMARK       I    between atoms: C_22  and  N_20 
ROOT
ATOM      1  C   LIG d   1      -5.705  75.088 117.078  0.00  0.00     0.161 C 
ATOM      2  C   LIG d   1      -4.526  74.480 116.615  0.00  0.00     0.016 C 
ATOM      3  C   LIG d   1      -3.304  74.510 117.327  0.00  0.00     0.038 C 
ATOM      4  C   LIG d   1      -3.217  75.024 118.629  0.00  0.00     0.028 C 
ATOM      5  C   LIG d   1      -4.260  76.096 118.928  0.00  0.00    -0.047 C 
ATOM      6  C   LIG d   1      -5.657  75.557 118.547  0.00  0.00     0.091 C 
ENDROOT
BRANCH   1   7
ATOM      7  O   LIG d   1      -6.824  74.204 116.870  0.00  0.00    -0.368 OA
BRANCH   7   8
ATOM      8  C   LIG d   1      -7.128  73.295 117.957  0.00  0.00     0.119 C 
BRANCH   8   9
ATOM      9  C   LIG d   1      -6.909  71.861 117.436  0.00  0.00     0.028 C 
ATOM     10  C   LIG d   1      -6.951  71.782 115.900  0.00  0.00     0.006 C 
ENDBRANCH   8   9
BRANCH   8  11
ATOM     11  C   LIG d   1      -8.609  73.364 118.344  0.00  0.00     0.028 C 
ATOM     12  C   LIG d   1      -9.425  74.276 117.414  0.00  0.00     0.006 C 
ENDBRANCH   8  11
ENDBRANCH   7   8
ENDBRANCH   1   7
BRANCH   6  13
ATOM     13  N   LIG d   1      -6.726  76.574 118.730  0.00  0.00    -0.311 N 
ATOM     14  C   LIG d   1      -7.499  76.639 119.813  0.00  0.00     0.210 C 
ATOM     15  C   LIG d   1      -8.552  77.751 119.790  0.00  0.00     0.109 C 
ATOM     16  O   LIG d   1      -7.391  75.901 120.804  0.00  0.00    -0.276 OA
ATOM     17  H   LIG d   1      -6.862  77.231 117.987  0.00  0.00     0.149 HD
ENDBRANCH   6  13
BRANCH   5  18
ATOM     18  N   LIG d   1      -4.144  76.444 120.357  0.00  0.00     0.381 N 
ATOM     19  H   LIG d   1      -3.217  76.766 120.553  0.00  0.00    -0.090 HD
ATOM     20  H   LIG d   1      -4.314  75.620 120.907  0.00  0.00    -0.090 HD
ATOM     21  H   LIG d   1      -4.806  77.150 120.591  0.00  0.00    -0.090 HD
ENDBRANCH   5  18
BRANCH   3  22
ATOM     22  C   LIG d   1      -2.144  74.058 116.718  0.00  0.00     0.382 C 
ATOM     23  O   LIG d   1      -1.393  73.252 117.320  0.00  0.00    -0.241 OA
ATOM     24  O   LIG d   1      -1.815  74.479 115.593  0.00  0.00    -0.241 OA
ENDBRANCH   3  22
TORSDOF 7
ENDMDL
MODEL 9
REMARK VINA RESULT:      -4.9      2.533      5.625
REMARK  7 active torsions:
REMARK  status: ('A' for Active; 'I' for Inactive)
REMARK    1  A    between atoms: C_2  and  C_3 
REMARK    2  A    between atoms: C_3  and  O_6 
REMARK    3  A    between atoms: C_3  and  C_4 
REMARK    4  A    between atoms: C_7  and  O_6 
REMARK    5  A    between atoms: C_9  and  C_10 
REMARK    6  A    between atoms: N_15  and  C_14 
REMARK    7  A    between atoms: N_20  and  C_19 
REMARK       I    between atoms: C_22  and  N_20 
ROOT
ATOM      1  C   LIG d   1      -7.929  77.339 118.275  0.00  0.00     0.161 C 
ATOM      2  C   LIG d   1      -9.079  78.109 118.515  0.00  0.00     0.016 C 
ATOM      3  C   LIG d   1      -9.079  79.523 118.533  0.00  0.00     0.038 C 
ATOM      4  C   LIG d   1      -7.951  80.269 118.161  0.00  0.00     0.028 C 
ATOM      5  C   LIG d   1      -6.634  79.538 118.402  0.00  0.00    -0.047 C 
ATOM      6  C   LIG d   1      -6.713  78.135 117.757  0.00  0.00     0.091 C 
ENDROOT
BRANCH   1   7
ATOM      7  O   LIG d   1      -8.243  76.260 117.371  0.00  0.00    -0.368 OA
BRANCH   7   8
ATOM      8  C   LIG d   1      -8.242  74.929 117.943  0.00  0.00     0.119 C 
BRANCH   8   9
ATOM      9  C   LIG d   1      -7.150  74.116 117.222  0.00  0.00     0.028 C 
ATOM     10  C   LIG d   1      -7.666  72.758 116.717  0.00  0.00     0.006 C 
ENDBRANCH   8   9
BRANCH   8  11
ATOM     11  C   LIG d   1      -9.554  74.196 117.649  0.00  0.00     0.028 C 
ATOM     12  C   LIG d   1     -10.623  75.111 117.030  0.00  0.00     0.006 C 
ENDBRANCH   8  11
ENDBRANCH   7   8
ENDBRANCH   1   7
BRANCH   6  13
ATOM     13  N   LIG d   1      -5.498  77.322 118.019  0.00  0.00    -0.311 N 
ATOM     14  C   LIG d   1      -4.477  77.234 117.168  0.00  0.00     0.210 C 
ATOM     15  C   LIG d   1      -3.331  76.325 117.624  0.00  0.00     0.109 C 
ATOM     16  O   LIG d   1      -4.397  77.848 116.094  0.00  0.00    -0.276 OA
ATOM     17  H   LIG d   1      -5.465  76.815 118.882  0.00  0.00     0.149 HD
ENDBRANCH   6  13
BRANCH   5  18
ATOM     18  N   LIG d   1      -5.553  80.371 117.844  0.00  0.00     0.381 N 
ATOM     19  H   LIG d   1      -5.769  81.339 117.975  0.00  0.00    -0.090 HD
ATOM     20  H   LIG d   1      -5.483  80.195 116.857  0.00  0.00    -0.090 HD
ATOM     21  H   LIG d   1      -4.689  80.153 118.290  0.00  0.00    -0.090 HD
ENDBRANCH   5  18
BRANCH   3  22
ATOM     22  C   LIG d   1     -10.206  80.204 118.966  0.00  0.00     0.382 C 
ATOM     23  O   LIG d   1     -10.631  80.035 120.134  0.00  0.00    -0.241 OA
ATOM     24  O   LIG d   1     -10.829  80.953 118.189  0.00  0.00    -0.241 OA
ENDBRANCH   3  22
TORSDOF 7
ENDMDL
