MODEL 1
REMARK VINA RESULT:      -5.7      0.000      0.000
REMARK  7 active torsions:
REMARK  status: ('A' for Active; 'I' for Inactive)
REMARK    1  A    between atoms: C_2  and  C_3 
REMARK    2  A    between atoms: C_3  and  O_6 
REMARK    3  A    between atoms: C_3  and  C_4 
REMARK    4  A    between atoms: C_7  and  O_6 
REMARK    5  A    between atoms: C_9  and  C_10 
REMARK    6  A    between atoms: N_15  and  C_14 
REMARK    7  A    between atoms: N_20  and  C_19 
REMARK       I    between atoms: C_22  and  N_20 
ROOT
ATOM      1  C   LIG d   1      -6.452  92.746 118.065  0.00  0.00     0.161 C 
ATOM      2  C   LIG d   1      -6.980  91.649 117.365  0.00  0.00     0.016 C 
ATOM      3  C   LIG d   1      -6.183  90.607 116.837  0.00  0.00     0.038 C 
ATOM      4  C   LIG d   1      -4.810  90.514 117.107  0.00  0.00     0.028 C 
ATOM      5  C   LIG d   1      -4.154  91.863 117.381  0.00  0.00    -0.047 C 
ATOM      6  C   LIG d   1      -4.968  92.605 118.465  0.00  0.00     0.091 C 
ENDROOT
BRANCH   1   7
ATOM      7  O   LIG d   1      -7.260  93.019 119.227  0.00  0.00    -0.368 OA
BRANCH   7   8
ATOM      8  C   LIG d   1      -8.391  93.901 119.024  0.00  0.00     0.119 C 
BRANCH   8   9
ATOM      9  C   LIG d   1      -7.870  95.168 118.319  0.00  0.00     0.028 C 
ATOM     10  C   LIG d   1      -7.323  96.208 119.312  0.00  0.00     0.006 C 
ENDBRANCH   8   9
BRANCH   8  11
ATOM     11  C   LIG d   1      -8.966  94.386 120.358  0.00  0.00     0.028 C 
ATOM     12  C   LIG d   1      -9.889  93.351 121.021  0.00  0.00     0.006 C 
ENDBRANCH   8  11
ENDBRANCH   7   8
ENDBRANCH   1   7
BRANCH   6  13
ATOM     13  N   LIG d   1      -4.443  93.970 118.733  0.00  0.00    -0.311 N 
ATOM     14  C   LIG d   1      -3.572  94.242 119.703  0.00  0.00     0.210 C 
ATOM     15  C   LIG d   1      -3.176  95.717 119.821  0.00  0.00     0.109 C 
ATOM     16  O   LIG d   1      -3.065  93.398 120.457  0.00  0.00    -0.276 OA
ATOM     17  H   LIG d   1      -4.778  94.710 118.149  0.00  0.00     0.149 HD
ENDBRANCH   6  13
BRANCH   5  18
ATOM     18  N   LIG d   1      -2.757  91.606 117.781  0.00  0.00     0.381 N 
ATOM     19  H   LIG d   1      -2.332  92.457 118.091  0.00  0.00    -0.090 HD
ATOM     20  H   LIG d   1      -2.247  91.270 116.984  0.00  0.00    -0.090 HD
ATOM     21  H   LIG d   1      -2.731  90.929 118.511  0.00  0.00    -0.090 HD
ENDBRANCH   5  18
BRANCH   3  22
ATOM     22  C   LIG d   1      -6.754  89.664 115.996  0.00  0.00     0.382 C 
ATOM     23  O   LIG d   1      -7.807  89.073 116.339  0.00  0.00    -0.241 OA
ATOM     24  O   LIG d   1      -6.207  89.364 114.918  0.00  0.00    -0.241 OA
ENDBRANCH   3  22
TORSDOF 7
ENDMDL
MODEL 2
REMARK VINA RESULT:      -5.5      2.298      4.560
REMARK  7 active torsions:
REMARK  status: ('A' for Active; 'I' for Inactive)
REMARK    1  A    between atoms: C_2  and  C_3 
REMARK    2  A    between atoms: C_3  and  O_6 
REMARK    3  A    between atoms: C_3  and  C_4 
REMARK    4  A    between atoms: C_7  and  O_6 
REMARK    5  A    between atoms: C_9  and  C_10 
REMARK    6  A    between atoms: N_15  and  C_14 
REMARK    7  A    between atoms: N_20  and  C_19 
REMARK       I    between atoms: C_22  and  N_20 
ROOT
ATOM      1  C   LIG d   1      -4.289  91.345 118.279  0.00  0.00     0.161 C 
ATOM      2  C   LIG d   1      -4.861  90.462 117.348  0.00  0.00     0.016 C 
ATOM      3  C   LIG d   1      -6.072  90.726 116.668  0.00  0.00     0.038 C 
ATOM      4  C   LIG d   1      -6.720  91.967 116.762  0.00  0.00     0.028 C 
ATOM      5  C   LIG d   1      -6.449  92.694 118.076  0.00  0.00    -0.047 C 
ATOM      6  C   LIG d   1      -4.922  92.751 118.312  0.00  0.00     0.091 C 
ENDROOT
BRANCH   1   7
ATOM      7  O   LIG d   1      -2.868  91.440 118.053  0.00  0.00    -0.368 OA
BRANCH   7   8
ATOM      8  C   LIG d   1      -2.020  90.869 119.079  0.00  0.00     0.119 C 
BRANCH   8   9
ATOM      9  C   LIG d   1      -1.573  89.478 118.588  0.00  0.00     0.028 C 
ATOM     10  C   LIG d   1      -1.120  89.491 117.119  0.00  0.00     0.006 C 
ENDBRANCH   8   9
BRANCH   8  11
ATOM     11  C   LIG d   1      -2.802  90.612 120.370  0.00  0.00     0.028 C 
ATOM     12  C   LIG d   1      -2.437  89.273 121.032  0.00  0.00     0.006 C 
ENDBRANCH   8  11
ENDBRANCH   7   8
ENDBRANCH   1   7
BRANCH   6  13
ATOM     13  N   LIG d   1      -4.573  93.372 119.616  0.00  0.00    -0.311 N 
ATOM     14  C   LIG d   1      -3.623  94.294 119.759  0.00  0.00     0.210 C 
ATOM     15  C   LIG d   1      -3.411  94.787 121.194  0.00  0.00     0.109 C 
ATOM     16  O   LIG d   1      -2.957  94.773 118.829  0.00  0.00    -0.276 OA
ATOM     17  H   LIG d   1      -5.086  93.063 120.420  0.00  0.00     0.149 HD
ENDBRANCH   6  13
BRANCH   5  18
ATOM     18  N   LIG d   1      -7.070  94.029 117.983  0.00  0.00     0.381 N 
ATOM     19  H   LIG d   1      -7.552  94.118 117.111  0.00  0.00    -0.090 HD
ATOM     20  H   LIG d   1      -6.348  94.726 118.017  0.00  0.00    -0.090 HD
ATOM     21  H   LIG d   1      -7.707  94.162 118.738  0.00  0.00    -0.090 HD
ENDBRANCH   5  18
BRANCH   3  22
ATOM     22  C   LIG d   1      -6.669  89.728 115.914  0.00  0.00     0.382 C 
ATOM     23  O   LIG d   1      -7.697  89.149 116.342  0.00  0.00    -0.241 OA
ATOM     24  O   LIG d   1      -6.168  89.367 114.833  0.00  0.00    -0.241 OA
ENDBRANCH   3  22
TORSDOF 7
ENDMDL
MODEL 3
REMARK VINA RESULT:      -5.5      2.529      4.944
REMARK  7 active torsions:
REMARK  status: ('A' for Active; 'I' for Inactive)
REMARK    1  A    between atoms: C_2  and  C_3 
REMARK    2  A    between atoms: C_3  and  O_6 
REMARK    3  A    between atoms: C_3  and  C_4 
REMARK    4  A    between atoms: C_7  and  O_6 
REMARK    5  A    between atoms: C_9  and  C_10 
REMARK    6  A    between atoms: N_15  and  C_14 
REMARK    7  A    between atoms: N_20  and  C_19 
REMARK       I    between atoms: C_22  and  N_20 
ROOT
ATOM      1  C   LIG d   1      -4.378  92.183 118.408  0.00  0.00     0.161 C 
ATOM      2  C   LIG d   1      -5.645  92.774 118.538  0.00  0.00     0.016 C 
ATOM      3  C   LIG d   1      -6.758  92.412 117.744  0.00  0.00     0.038 C 
ATOM      4  C   LIG d   1      -6.716  91.321 116.862  0.00  0.00     0.028 C 
ATOM      5  C   LIG d   1      -5.317  91.022 116.334  0.00  0.00    -0.047 C 
ATOM      6  C   LIG d   1      -4.342  90.915 117.529  0.00  0.00     0.091 C 
ENDROOT
BRANCH   1   7
ATOM      7  O   LIG d   1      -3.833  91.903 119.713  0.00  0.00    -0.368 OA
BRANCH   7   8
ATOM      8  C   LIG d   1      -2.767  92.777 120.159  0.00  0.00     0.119 C 
BRANCH   8   9
ATOM      9  C   LIG d   1      -2.304  93.601 118.942  0.00  0.00     0.028 C 
ATOM     10  C   LIG d   1      -0.829  93.349 118.589  0.00  0.00     0.006 C 
ENDBRANCH   8   9
BRANCH   8  11
ATOM     11  C   LIG d   1      -1.537  91.976 120.598  0.00  0.00     0.028 C 
ATOM     12  C   LIG d   1      -1.900  90.732 121.425  0.00  0.00     0.006 C 
ENDBRANCH   8  11
ENDBRANCH   7   8
ENDBRANCH   1   7
BRANCH   6  13
ATOM     13  N   LIG d   1      -2.936  90.707 117.096  0.00  0.00    -0.311 N 
ATOM     14  C   LIG d   1      -2.141  89.770 117.611  0.00  0.00     0.210 C 
ATOM     15  C   LIG d   1      -0.721  89.740 117.037  0.00  0.00     0.109 C 
ATOM     16  O   LIG d   1      -2.487  88.941 118.466  0.00  0.00    -0.276 OA
ATOM     17  H   LIG d   1      -2.583  91.316 116.384  0.00  0.00     0.149 HD
ENDBRANCH   6  13
BRANCH   5  18
ATOM     18  N   LIG d   1      -5.397  89.782 115.540  0.00  0.00     0.381 N 
ATOM     19  H   LIG d   1      -5.584  89.005 116.141  0.00  0.00    -0.090 HD
ATOM     20  H   LIG d   1      -4.511  89.626 115.091  0.00  0.00    -0.090 HD
ATOM     21  H   LIG d   1      -6.115  89.862 114.854  0.00  0.00    -0.090 HD
ENDBRANCH   5  18
BRANCH   3  22
ATOM     22  C   LIG d   1      -7.917  93.171 117.798  0.00  0.00     0.382 C 
ATOM     23  O   LIG d   1      -8.527  93.307 118.886  0.00  0.00    -0.241 OA
ATOM     24  O   LIG d   1      -8.385  93.685 116.764  0.00  0.00    -0.241 OA
ENDBRANCH   3  22
TORSDOF 7
ENDMDL
MODEL 4
REMARK VINA RESULT:      -5.2      2.348      6.156
REMARK  7 active torsions:
REMARK  status: ('A' for Active; 'I' for Inactive)
REMARK    1  A    between atoms: C_2  and  C_3 
REMARK    2  A    between atoms: C_3  and  O_6 
REMARK    3  A    between atoms: C_3  and  C_4 
REMARK    4  A    between atoms: C_7  and  O_6 
REMARK    5  A    between atoms: C_9  and  C_10 
REMARK    6  A    between atoms: N_15  and  C_14 
REMARK    7  A    between atoms: N_20  and  C_19 
REMARK       I    between atoms: C_22  and  N_20 
ROOT
ATOM      1  C   LIG d   1      -4.074  92.666 118.098  0.00  0.00     0.161 C 
ATOM      2  C   LIG d   1      -4.009  93.654 119.095  0.00  0.00     0.016 C 
ATOM      3  C   LIG d   1      -5.153  94.229 119.695  0.00  0.00     0.038 C 
ATOM      4  C   LIG d   1      -6.445  93.744 119.445  0.00  0.00     0.028 C 
ATOM      5  C   LIG d   1      -6.593  93.093 118.074  0.00  0.00    -0.047 C 
ATOM      6  C   LIG d   1      -5.471  92.045 117.892  0.00  0.00     0.091 C 
ENDROOT
BRANCH   1   7
ATOM      7  O   LIG d   1      -3.103  91.636 118.368  0.00  0.00    -0.368 OA
BRANCH   7   8
ATOM      8  C   LIG d   1      -3.576  90.497 119.129  0.00  0.00     0.119 C 
BRANCH   8   9
ATOM      9  C   LIG d   1      -2.996  90.616 120.551  0.00  0.00     0.028 C 
ATOM     10  C   LIG d   1      -4.013  91.186 121.555  0.00  0.00     0.006 C 
ENDBRANCH   8   9
BRANCH   8  11
ATOM     11  C   LIG d   1      -3.019  89.184 118.572  0.00  0.00     0.028 C 
ATOM     12  C   LIG d   1      -2.626  89.284 117.090  0.00  0.00     0.006 C 
ENDBRANCH   8  11
ENDBRANCH   7   8
ENDBRANCH   1   7
BRANCH   6  13
ATOM     13  N   LIG d   1      -5.492  91.421 116.544  0.00  0.00    -0.311 N 
ATOM     14  C   LIG d   1      -6.205  90.335 116.250  0.00  0.00     0.210 C 
ATOM     15  C   LIG d   1      -6.068  89.843 114.805  0.00  0.00     0.109 C 
ATOM     16  O   LIG d   1      -6.962  89.751 117.039  0.00  0.00    -0.276 OA
ATOM     17  H   LIG d   1      -4.930  91.849 115.834  0.00  0.00     0.149 HD
ENDBRANCH   6  13
BRANCH   5  18
ATOM     18  N   LIG d   1      -7.946  92.511 118.000  0.00  0.00     0.381 N 
ATOM     19  H   LIG d   1      -7.897  91.521 118.140  0.00  0.00    -0.090 HD
ATOM     20  H   LIG d   1      -8.325  92.682 117.086  0.00  0.00    -0.090 HD
ATOM     21  H   LIG d   1      -8.532  92.922 118.693  0.00  0.00    -0.090 HD
ENDBRANCH   5  18
BRANCH   3  22
ATOM     22  C   LIG d   1      -5.012  95.330 120.527  0.00  0.00     0.382 C 
ATOM     23  O   LIG d   1      -6.027  95.964 120.905  0.00  0.00    -0.241 OA
ATOM     24  O   LIG d   1      -3.880  95.723 120.868  0.00  0.00    -0.241 OA
ENDBRANCH   3  22
TORSDOF 7
ENDMDL
MODEL 5
REMARK VINA RESULT:      -5.2      2.928      5.677
REMARK  7 active torsions:
REMARK  status: ('A' for Active; 'I' for Inactive)
REMARK    1  A    between atoms: C_2  and  C_3 
REMARK    2  A    between atoms: C_3  and  O_6 
REMARK    3  A    between atoms: C_3  and  C_4 
REMARK    4  A    between atoms: C_7  and  O_6 
REMARK    5  A    between atoms: C_9  and  C_10 
REMARK    6  A    between atoms: N_15  and  C_14 
REMARK    7  A    between atoms: N_20  and  C_19 
REMARK       I    between atoms: C_22  and  N_20 
ROOT
ATOM      1  C   LIG d   1      -3.146  90.795 117.883  0.00  0.00     0.161 C 
ATOM      2  C   LIG d   1      -4.014  90.166 116.975  0.00  0.00     0.016 C 
ATOM      3  C   LIG d   1      -5.311  90.645 116.679  0.00  0.00     0.038 C 
ATOM      4  C   LIG d   1      -5.773  91.879 117.160  0.00  0.00     0.028 C 
ATOM      5  C   LIG d   1      -5.127  92.296 118.477  0.00  0.00    -0.047 C 
ATOM      6  C   LIG d   1      -3.590  92.203 118.333  0.00  0.00     0.091 C 
ENDROOT
BRANCH   1   7
ATOM      7  O   LIG d   1      -1.814  90.842 117.333  0.00  0.00    -0.368 OA
BRANCH   7   8
ATOM      8  C   LIG d   1      -1.010  89.650 117.507  0.00  0.00     0.119 C 
BRANCH   8   9
ATOM      9  C   LIG d   1      -0.541  89.618 118.974  0.00  0.00     0.028 C 
ATOM     10  C   LIG d   1       0.525  90.685 119.273  0.00  0.00     0.006 C 
ENDBRANCH   8   9
BRANCH   8  11
ATOM     11  C   LIG d   1       0.272  89.716 116.673  0.00  0.00     0.028 C 
ATOM     12  C   LIG d   1       0.843  88.327 116.345  0.00  0.00     0.006 C 
ENDBRANCH   8  11
ENDBRANCH   7   8
ENDBRANCH   1   7
BRANCH   6  13
ATOM     13  N   LIG d   1      -2.882  92.513 119.602  0.00  0.00    -0.311 N 
ATOM     14  C   LIG d   1      -1.959  93.467 119.712  0.00  0.00     0.210 C 
ATOM     15  C   LIG d   1      -1.339  93.608 121.106  0.00  0.00     0.109 C 
ATOM     16  O   LIG d   1      -1.618  94.230 118.796  0.00  0.00    -0.276 OA
ATOM     17  H   LIG d   1      -3.121  91.963 120.404  0.00  0.00     0.149 HD
ENDBRANCH   6  13
BRANCH   5  18
ATOM     18  N   LIG d   1      -5.596  93.659 118.791  0.00  0.00     0.381 N 
ATOM     19  H   LIG d   1      -5.416  94.266 118.017  0.00  0.00    -0.090 HD
ATOM     20  H   LIG d   1      -5.087  94.002 119.587  0.00  0.00    -0.090 HD
ATOM     21  H   LIG d   1      -6.572  93.645 118.992  0.00  0.00    -0.090 HD
ENDBRANCH   5  18
BRANCH   3  22
ATOM     22  C   LIG d   1      -6.175  89.866 115.924  0.00  0.00     0.382 C 
ATOM     23  O   LIG d   1      -7.297  89.547 116.386  0.00  0.00    -0.241 OA
ATOM     24  O   LIG d   1      -5.830  89.442 114.805  0.00  0.00    -0.241 OA
ENDBRANCH   3  22
TORSDOF 7
ENDMDL
MODEL 6
REMARK VINA RESULT:      -5.0      2.101      5.118
REMARK  7 active torsions:
REMARK  status: ('A' for Active; 'I' for Inactive)
REMARK    1  A    between atoms: C_2  and  C_3 
REMARK    2  A    between atoms: C_3  and  O_6 
REMARK    3  A    between atoms: C_3  and  C_4 
REMARK    4  A    between atoms: C_7  and  O_6 
REMARK    5  A    between atoms: C_9  and  C_10 
REMARK    6  A    between atoms: N_15  and  C_14 
REMARK    7  A    between atoms: N_20  and  C_19 
REMARK       I    between atoms: C_22  and  N_20 
ROOT
ATOM      1  C   LIG d   1      -5.059  92.409 118.654  0.00  0.00     0.161 C 
ATOM      2  C   LIG d   1      -6.379  92.883 118.569  0.00  0.00     0.016 C 
ATOM      3  C   LIG d   1      -6.803  94.110 119.128  0.00  0.00     0.038 C 
ATOM      4  C   LIG d   1      -5.895  95.025 119.683  0.00  0.00     0.028 C 
ATOM      5  C   LIG d   1      -4.637  94.367 120.240  0.00  0.00    -0.047 C 
ATOM      6  C   LIG d   1      -4.032  93.444 119.158  0.00  0.00     0.091 C 
ENDROOT
BRANCH   1   7
ATOM      7  O   LIG d   1      -4.649  91.876 117.379  0.00  0.00    -0.368 OA
BRANCH   7   8
ATOM      8  C   LIG d   1      -4.781  90.442 117.215  0.00  0.00     0.119 C 
BRANCH   8   9
ATOM      9  C   LIG d   1      -3.364  89.839 117.257  0.00  0.00     0.028 C 
ATOM     10  C   LIG d   1      -3.044  89.185 118.611  0.00  0.00     0.006 C 
ENDBRANCH   8   9
BRANCH   8  11
ATOM     11  C   LIG d   1      -5.333  90.088 115.831  0.00  0.00     0.028 C 
ATOM     12  C   LIG d   1      -6.280  91.163 115.274  0.00  0.00     0.006 C 
ENDBRANCH   8  11
ENDBRANCH   7   8
ENDBRANCH   1   7
BRANCH   6  13
ATOM     13  N   LIG d   1      -2.845  92.697 119.650  0.00  0.00    -0.311 N 
ATOM     14  C   LIG d   1      -1.676  92.676 119.011  0.00  0.00     0.210 C 
ATOM     15  C   LIG d   1      -0.590  91.827 119.680  0.00  0.00     0.109 C 
ATOM     16  O   LIG d   1      -1.426  93.305 117.972  0.00  0.00    -0.276 OA
ATOM     17  H   LIG d   1      -2.950  92.184 120.503  0.00  0.00     0.149 HD
ENDBRANCH   6  13
BRANCH   5  18
ATOM     18  N   LIG d   1      -3.720  95.444 120.661  0.00  0.00     0.381 N 
ATOM     19  H   LIG d   1      -4.120  96.334 120.442  0.00  0.00    -0.090 HD
ATOM     20  H   LIG d   1      -2.858  95.352 120.154  0.00  0.00    -0.090 HD
ATOM     21  H   LIG d   1      -3.547  95.381 121.640  0.00  0.00    -0.090 HD
ENDBRANCH   5  18
BRANCH   3  22
ATOM     22  C   LIG d   1      -8.155  94.416 119.171  0.00  0.00     0.382 C 
ATOM     23  O   LIG d   1      -8.530  95.546 119.566  0.00  0.00    -0.241 OA
ATOM     24  O   LIG d   1      -9.006  93.560 118.862  0.00  0.00    -0.241 OA
ENDBRANCH   3  22
TORSDOF 7
ENDMDL
MODEL 7
REMARK VINA RESULT:      -4.9     11.521     14.133
REMARK  7 active torsions:
REMARK  status: ('A' for Active; 'I' for Inactive)
REMARK    1  A    between atoms: C_2  and  C_3 
REMARK    2  A    between atoms: C_3  and  O_6 
REMARK    3  A    between atoms: C_3  and  C_4 
REMARK    4  A    between atoms: C_7  and  O_6 
REMARK    5  A    between atoms: C_9  and  C_10 
REMARK    6  A    between atoms: N_15  and  C_14 
REMARK    7  A    between atoms: N_20  and  C_19 
REMARK       I    between atoms: C_22  and  N_20 
ROOT
ATOM      1  C   LIG d   1      -5.581  79.151 117.760  0.00  0.00     0.161 C 
ATOM      2  C   LIG d   1      -6.847  78.545 117.811  0.00  0.00     0.016 C 
ATOM      3  C   LIG d   1      -8.048  79.267 117.997  0.00  0.00     0.038 C 
ATOM      4  C   LIG d   1      -8.079  80.669 117.993  0.00  0.00     0.028 C 
ATOM      5  C   LIG d   1      -6.770  81.305 118.450  0.00  0.00    -0.047 C 
ATOM      6  C   LIG d   1      -5.605  80.690 117.642  0.00  0.00     0.091 C 
ENDROOT
BRANCH   1   7
ATOM      7  O   LIG d   1      -4.808  78.579 116.686  0.00  0.00    -0.368 OA
BRANCH   7   8
ATOM      8  C   LIG d   1      -3.946  77.470 117.042  0.00  0.00     0.119 C 
BRANCH   8   9
ATOM      9  C   LIG d   1      -2.628  78.061 117.579  0.00  0.00     0.028 C 
ATOM     10  C   LIG d   1      -2.482  77.883 119.100  0.00  0.00     0.006 C 
ENDBRANCH   8   9
BRANCH   8  11
ATOM     11  C   LIG d   1      -3.551  76.653 115.808  0.00  0.00     0.028 C 
ATOM     12  C   LIG d   1      -2.355  75.723 116.068  0.00  0.00     0.006 C 
ENDBRANCH   8  11
ENDBRANCH   7   8
ENDBRANCH   1   7
BRANCH   6  13
ATOM     13  N   LIG d   1      -4.279  81.195 118.085  0.00  0.00    -0.311 N 
ATOM     14  C   LIG d   1      -3.325  81.588 117.243  0.00  0.00     0.210 C 
ATOM     15  C   LIG d   1      -2.027  82.056 117.908  0.00  0.00     0.109 C 
ATOM     16  O   LIG d   1      -3.443  81.624 116.008  0.00  0.00    -0.276 OA
ATOM     17  H   LIG d   1      -4.110  81.230 119.072  0.00  0.00     0.149 HD
ENDBRANCH   6  13
BRANCH   5  18
ATOM     18  N   LIG d   1      -6.895  82.763 118.266  0.00  0.00     0.381 N 
ATOM     19  H   LIG d   1      -7.242  83.182 119.105  0.00  0.00    -0.090 HD
ATOM     20  H   LIG d   1      -7.554  82.943 117.528  0.00  0.00    -0.090 HD
ATOM     21  H   LIG d   1      -6.009  83.154 118.032  0.00  0.00    -0.090 HD
ENDBRANCH   5  18
BRANCH   3  22
ATOM     22  C   LIG d   1      -9.232  78.583 118.229  0.00  0.00     0.382 C 
ATOM     23  O   LIG d   1     -10.239  79.199 118.653  0.00  0.00    -0.241 OA
ATOM     24  O   LIG d   1      -9.292  77.350 118.063  0.00  0.00    -0.241 OA
ENDBRANCH   3  22
TORSDOF 7
ENDMDL
MODEL 8
REMARK VINA RESULT:      -4.9      2.111      2.931
REMARK  7 active torsions:
REMARK  status: ('A' for Active; 'I' for Inactive)
REMARK    1  A    between atoms: C_2  and  C_3 
REMARK    2  A    between atoms: C_3  and  O_6 
REMARK    3  A    between atoms: C_3  and  C_4 
REMARK    4  A    between atoms: C_7  and  O_6 
REMARK    5  A    between atoms: C_9  and  C_10 
REMARK    6  A    between atoms: N_15  and  C_14 
REMARK    7  A    between atoms: N_20  and  C_19 
REMARK       I    between atoms: C_22  and  N_20 
ROOT
ATOM      1  C   LIG d   1      -5.319  92.098 118.529  0.00  0.00     0.161 C 
ATOM      2  C   LIG d   1      -6.252  92.028 117.482  0.00  0.00     0.016 C 
ATOM      3  C   LIG d   1      -6.108  91.169 116.368  0.00  0.00     0.038 C 
ATOM      4  C   LIG d   1      -5.089  90.207 116.300  0.00  0.00     0.028 C 
ATOM      5  C   LIG d   1      -3.842  90.589 117.091  0.00  0.00    -0.047 C 
ATOM      6  C   LIG d   1      -4.259  90.977 118.528  0.00  0.00     0.091 C 
ENDROOT
BRANCH   1   7
ATOM      7  O   LIG d   1      -6.007  92.135 119.795  0.00  0.00    -0.368 OA
BRANCH   7   8
ATOM      8  C   LIG d   1      -5.926  93.382 120.529  0.00  0.00     0.119 C 
BRANCH   8   9
ATOM      9  C   LIG d   1      -7.344  93.984 120.575  0.00  0.00     0.028 C 
ATOM     10  C   LIG d   1      -7.628  94.911 119.381  0.00  0.00     0.006 C 
ENDBRANCH   8   9
BRANCH   8  11
ATOM     11  C   LIG d   1      -5.073  94.413 119.783  0.00  0.00     0.028 C 
ATOM     12  C   LIG d   1      -3.821  94.831 120.571  0.00  0.00     0.006 C 
ENDBRANCH   8  11
ENDBRANCH   7   8
ENDBRANCH   1   7
BRANCH   6  13
ATOM     13  N   LIG d   1      -3.108  91.445 119.344  0.00  0.00    -0.311 N 
ATOM     14  C   LIG d   1      -2.395  90.642 120.133  0.00  0.00     0.210 C 
ATOM     15  C   LIG d   1      -1.264  91.332 120.903  0.00  0.00     0.109 C 
ATOM     16  O   LIG d   1      -2.571  89.420 120.243  0.00  0.00    -0.276 OA
ATOM     17  H   LIG d   1      -2.876  92.417 119.291  0.00  0.00     0.149 HD
ENDBRANCH   6  13
BRANCH   5  18
ATOM     18  N   LIG d   1      -2.918  89.440 117.047  0.00  0.00     0.381 N 
ATOM     19  H   LIG d   1      -1.974  89.766 117.000  0.00  0.00    -0.090 HD
ATOM     20  H   LIG d   1      -3.107  88.901 116.220  0.00  0.00    -0.090 HD
ATOM     21  H   LIG d   1      -3.041  88.872 117.857  0.00  0.00    -0.090 HD
ENDBRANCH   5  18
BRANCH   3  22
ATOM     22  C   LIG d   1      -6.967  91.296 115.287  0.00  0.00     0.382 C 
ATOM     23  O   LIG d   1      -7.208  92.430 114.807  0.00  0.00    -0.241 OA
ATOM     24  O   LIG d   1      -7.539  90.296 114.813  0.00  0.00    -0.241 OA
ENDBRANCH   3  22
TORSDOF 7
ENDMDL
MODEL 9
REMARK VINA RESULT:      -4.7      2.164      2.774
REMARK  7 active torsions:
REMARK  status: ('A' for Active; 'I' for Inactive)
REMARK    1  A    between atoms: C_2  and  C_3 
REMARK    2  A    between atoms: C_3  and  O_6 
REMARK    3  A    between atoms: C_3  and  C_4 
REMARK    4  A    between atoms: C_7  and  O_6 
REMARK    5  A    between atoms: C_9  and  C_10 
REMARK    6  A    between atoms: N_15  and  C_14 
REMARK    7  A    between atoms: N_20  and  C_19 
REMARK       I    between atoms: C_22  and  N_20 
ROOT
ATOM      1  C   LIG d   1      -3.702  92.710 117.973  0.00  0.00     0.161 C 
ATOM      2  C   LIG d   1      -4.839  92.071 117.452  0.00  0.00     0.016 C 
ATOM      3  C   LIG d   1      -4.915  90.676 117.230  0.00  0.00     0.038 C 
ATOM      4  C   LIG d   1      -3.906  89.801 117.659  0.00  0.00     0.028 C 
ATOM      5  C   LIG d   1      -2.529  90.453 117.728  0.00  0.00    -0.047 C 
ATOM      6  C   LIG d   1      -2.632  91.759 118.549  0.00  0.00     0.091 C 
ENDROOT
BRANCH   1   7
ATOM      7  O   LIG d   1      -4.096  93.679 118.963  0.00  0.00    -0.368 OA
BRANCH   7   8
ATOM      8  C   LIG d   1      -5.398  93.479 119.568  0.00  0.00     0.119 C 
BRANCH   8   9
ATOM      9  C   LIG d   1      -6.093  94.852 119.635  0.00  0.00     0.028 C 
ATOM     10  C   LIG d   1      -7.443  94.863 118.898  0.00  0.00     0.006 C 
ENDBRANCH   8   9
BRANCH   8  11
ATOM     11  C   LIG d   1      -5.271  93.017 121.023  0.00  0.00     0.028 C 
ATOM     12  C   LIG d   1      -6.055  91.727 121.309  0.00  0.00     0.006 C 
ENDBRANCH   8  11
ENDBRANCH   7   8
ENDBRANCH   1   7
BRANCH   6  13
ATOM     13  N   LIG d   1      -1.347  92.502 118.596  0.00  0.00    -0.311 N 
ATOM     14  C   LIG d   1      -0.458  92.370 119.579  0.00  0.00     0.210 C 
ATOM     15  C   LIG d   1       0.792  93.244 119.442  0.00  0.00     0.109 C 
ATOM     16  O   LIG d   1      -0.572  91.588 120.535  0.00  0.00    -0.276 OA
ATOM     17  H   LIG d   1      -1.159  93.136 117.843  0.00  0.00     0.149 HD
ENDBRANCH   6  13
BRANCH   5  18
ATOM     18  N   LIG d   1      -1.601  89.470 118.319  0.00  0.00     0.381 N 
ATOM     19  H   LIG d   1      -0.657  89.731 118.115  0.00  0.00    -0.090 HD
ATOM     20  H   LIG d   1      -1.775  88.570 117.908  0.00  0.00    -0.090 HD
ATOM     21  H   LIG d   1      -1.734  89.425 119.305  0.00  0.00    -0.090 HD
ENDBRANCH   5  18
BRANCH   3  22
ATOM     22  C   LIG d   1      -5.994  90.149 116.537  0.00  0.00     0.382 C 
ATOM     23  O   LIG d   1      -7.165  90.421 116.897  0.00  0.00    -0.241 OA
ATOM     24  O   LIG d   1      -5.812  89.368 115.584  0.00  0.00    -0.241 OA
ENDBRANCH   3  22
TORSDOF 7
ENDMDL
