MODEL 1
REMARK VINA RESULT:      -5.7      0.000      0.000
REMARK  7 active torsions:
REMARK  status: ('A' for Active; 'I' for Inactive)
REMARK    1  A    between atoms: C_2  and  C_3 
REMARK    2  A    between atoms: C_3  and  O_6 
REMARK    3  A    between atoms: C_3  and  C_4 
REMARK    4  A    between atoms: C_7  and  O_6 
REMARK    5  A    between atoms: C_9  and  C_10 
REMARK    6  A    between atoms: N_15  and  C_14 
REMARK    7  A    between atoms: N_20  and  C_19 
REMARK       I    between atoms: C_22  and  N_20 
ROOT
ATOM      1  C   LIG d   1      -4.923  92.346 117.999  0.00  0.00     0.161 C 
ATOM      2  C   LIG d   1      -5.105  91.371 117.004  0.00  0.00     0.016 C 
ATOM      3  C   LIG d   1      -6.170  91.397 116.074  0.00  0.00     0.038 C 
ATOM      4  C   LIG d   1      -7.044  92.490 115.979  0.00  0.00     0.028 C 
ATOM      5  C   LIG d   1      -7.204  93.254 117.290  0.00  0.00    -0.047 C 
ATOM      6  C   LIG d   1      -5.802  93.604 117.840  0.00  0.00     0.091 C 
ENDROOT
BRANCH   1   7
ATOM      7  O   LIG d   1      -3.531  92.714 118.073  0.00  0.00    -0.368 OA
BRANCH   7   8
ATOM      8  C   LIG d   1      -2.767  92.102 119.141  0.00  0.00     0.119 C 
BRANCH   8   9
ATOM      9  C   LIG d   1      -1.967  93.221 119.838  0.00  0.00     0.028 C 
ATOM     10  C   LIG d   1      -0.495  93.253 119.394  0.00  0.00     0.006 C 
ENDBRANCH   8   9
BRANCH   8  11
ATOM     11  C   LIG d   1      -1.715  91.135 118.590  0.00  0.00     0.028 C 
ATOM     12  C   LIG d   1      -2.177  89.670 118.623  0.00  0.00     0.006 C 
ENDBRANCH   8  11
ENDBRANCH   7   8
ENDBRANCH   1   7
BRANCH   6  13
ATOM     13  N   LIG d   1      -5.865  94.279 119.162  0.00  0.00    -0.311 N 
ATOM     14  C   LIG d   1      -5.096  95.314 119.495  0.00  0.00     0.210 C 
ATOM     15  C   LIG d   1      -5.307  95.848 120.915  0.00  0.00     0.109 C 
ATOM     16  O   LIG d   1      -4.281  95.862 118.737  0.00  0.00    -0.276 OA
ATOM     17  H   LIG d   1      -6.521  93.919 119.828  0.00  0.00     0.149 HD
ENDBRANCH   6  13
BRANCH   5  18
ATOM     18  N   LIG d   1      -8.031  94.444 117.014  0.00  0.00     0.381 N 
ATOM     19  H   LIG d   1      -8.918  94.162 116.647  0.00  0.00    -0.090 HD
ATOM     20  H   LIG d   1      -7.568  95.008 116.323  0.00  0.00    -0.090 HD
ATOM     21  H   LIG d   1      -8.161  94.970 117.850  0.00  0.00    -0.090 HD
ENDBRANCH   5  18
BRANCH   3  22
ATOM     22  C   LIG d   1      -6.392  90.303 115.253  0.00  0.00     0.382 C 
ATOM     23  O   LIG d   1      -7.542  90.078 114.805  0.00  0.00    -0.241 OA
ATOM     24  O   LIG d   1      -5.465  89.513 114.989  0.00  0.00    -0.241 OA
ENDBRANCH   3  22
TORSDOF 7
ENDMDL
MODEL 2
REMARK VINA RESULT:      -5.5      2.293      4.572
REMARK  7 active torsions:
REMARK  status: ('A' for Active; 'I' for Inactive)
REMARK    1  A    between atoms: C_2  and  C_3 
REMARK    2  A    between atoms: C_3  and  O_6 
REMARK    3  A    between atoms: C_3  and  C_4 
REMARK    4  A    between atoms: C_7  and  O_6 
REMARK    5  A    between atoms: C_9  and  C_10 
REMARK    6  A    between atoms: N_15  and  C_14 
REMARK    7  A    between atoms: N_20  and  C_19 
REMARK       I    between atoms: C_22  and  N_20 
ROOT
ATOM      1  C   LIG d   1      -6.798  93.703 117.668  0.00  0.00     0.161 C 
ATOM      2  C   LIG d   1      -7.239  92.606 116.910  0.00  0.00     0.016 C 
ATOM      3  C   LIG d   1      -6.409  91.514 116.565  0.00  0.00     0.038 C 
ATOM      4  C   LIG d   1      -5.115  91.373 117.087  0.00  0.00     0.028 C 
ATOM      5  C   LIG d   1      -4.457  92.701 117.445  0.00  0.00    -0.047 C 
ATOM      6  C   LIG d   1      -5.422  93.513 118.340  0.00  0.00     0.091 C 
ENDROOT
BRANCH   1   7
ATOM      7  O   LIG d   1      -7.792  94.048 118.652  0.00  0.00    -0.368 OA
BRANCH   7   8
ATOM      8  C   LIG d   1      -8.755  95.056 118.259  0.00  0.00     0.119 C 
BRANCH   8   9
ATOM      9  C   LIG d   1      -7.965  96.269 117.729  0.00  0.00     0.028 C 
ATOM     10  C   LIG d   1      -7.619  97.274 118.840  0.00  0.00     0.006 C 
ENDBRANCH   8   9
BRANCH   8  11
ATOM     11  C   LIG d   1      -9.539  95.579 119.466  0.00  0.00     0.028 C 
ATOM     12  C   LIG d   1      -9.732  94.515 120.558  0.00  0.00     0.006 C 
ENDBRANCH   8  11
ENDBRANCH   7   8
ENDBRANCH   1   7
BRANCH   6  13
ATOM     13  N   LIG d   1      -4.891  94.863 118.666  0.00  0.00    -0.311 N 
ATOM     14  C   LIG d   1      -4.249  95.143 119.799  0.00  0.00     0.210 C 
ATOM     15  C   LIG d   1      -3.802  96.601 119.945  0.00  0.00     0.109 C 
ATOM     16  O   LIG d   1      -3.978  94.316 120.682  0.00  0.00    -0.276 OA
ATOM     17  H   LIG d   1      -5.039  95.587 117.991  0.00  0.00     0.149 HD
ENDBRANCH   6  13
BRANCH   5  18
ATOM     18  N   LIG d   1      -3.173  92.400 118.104  0.00  0.00     0.381 N 
ATOM     19  H   LIG d   1      -2.450  92.320 117.416  0.00  0.00    -0.090 HD
ATOM     20  H   LIG d   1      -3.251  91.520 118.582  0.00  0.00    -0.090 HD
ATOM     21  H   LIG d   1      -2.945  93.121 118.753  0.00  0.00    -0.090 HD
ENDBRANCH   5  18
BRANCH   3  22
ATOM     22  C   LIG d   1      -6.859  90.568 115.657  0.00  0.00     0.382 C 
ATOM     23  O   LIG d   1      -8.061  90.567 115.296  0.00  0.00    -0.241 OA
ATOM     24  O   LIG d   1      -6.090  89.688 115.226  0.00  0.00    -0.241 OA
ENDBRANCH   3  22
TORSDOF 7
ENDMDL
MODEL 3
REMARK VINA RESULT:      -5.0      3.798      6.905
REMARK  7 active torsions:
REMARK  status: ('A' for Active; 'I' for Inactive)
REMARK    1  A    between atoms: C_2  and  C_3 
REMARK    2  A    between atoms: C_3  and  O_6 
REMARK    3  A    between atoms: C_3  and  C_4 
REMARK    4  A    between atoms: C_7  and  O_6 
REMARK    5  A    between atoms: C_9  and  C_10 
REMARK    6  A    between atoms: N_15  and  C_14 
REMARK    7  A    between atoms: N_20  and  C_19 
REMARK       I    between atoms: C_22  and  N_20 
ROOT
ATOM      1  C   LIG d   1       0.042  90.988 117.353  0.00  0.00     0.161 C 
ATOM      2  C   LIG d   1       1.441  90.896 117.437  0.00  0.00     0.016 C 
ATOM      3  C   LIG d   1       2.227  91.728 118.267  0.00  0.00     0.038 C 
ATOM      4  C   LIG d   1       1.649  92.615 119.188  0.00  0.00     0.028 C 
ATOM      5  C   LIG d   1       0.263  93.098 118.776  0.00  0.00    -0.047 C 
ATOM      6  C   LIG d   1      -0.614  91.873 118.433  0.00  0.00     0.091 C 
ENDROOT
BRANCH   1   7
ATOM      7  O   LIG d   1      -0.536  89.668 117.368  0.00  0.00    -0.368 OA
BRANCH   7   8
ATOM      8  C   LIG d   1      -0.812  89.107 118.675  0.00  0.00     0.119 C 
BRANCH   8   9
ATOM      9  C   LIG d   1       0.030  87.824 118.815  0.00  0.00     0.028 C 
ATOM     10  C   LIG d   1       0.392  87.208 117.453  0.00  0.00     0.006 C 
ENDBRANCH   8   9
BRANCH   8  11
ATOM     11  C   LIG d   1      -2.269  88.651 118.790  0.00  0.00     0.028 C 
ATOM     12  C   LIG d   1      -2.478  87.596 119.888  0.00  0.00     0.006 C 
ENDBRANCH   8  11
ENDBRANCH   7   8
ENDBRANCH   1   7
BRANCH   6  13
ATOM     13  N   LIG d   1      -1.961  92.261 117.939  0.00  0.00    -0.311 N 
ATOM     14  C   LIG d   1      -3.038  92.327 118.721  0.00  0.00     0.210 C 
ATOM     15  C   LIG d   1      -4.332  92.728 118.006  0.00  0.00     0.109 C 
ATOM     16  O   LIG d   1      -3.037  92.124 119.944  0.00  0.00    -0.276 OA
ATOM     17  H   LIG d   1      -2.046  92.473 116.964  0.00  0.00     0.149 HD
ENDBRANCH   6  13
BRANCH   5  18
ATOM     18  N   LIG d   1      -0.277  93.903 119.888  0.00  0.00     0.381 N 
ATOM     19  H   LIG d   1      -0.270  94.872 119.640  0.00  0.00    -0.090 HD
ATOM     20  H   LIG d   1       0.311  93.780 120.694  0.00  0.00    -0.090 HD
ATOM     21  H   LIG d   1      -1.207  93.613 120.099  0.00  0.00    -0.090 HD
ENDBRANCH   5  18
BRANCH   3  22
ATOM     22  C   LIG d   1       3.609  91.707 118.151  0.00  0.00     0.382 C 
ATOM     23  O   LIG d   1       4.313  91.320 119.114  0.00  0.00    -0.241 OA
ATOM     24  O   LIG d   1       4.161  92.113 117.111  0.00  0.00    -0.241 OA
ENDBRANCH   3  22
TORSDOF 7
ENDMDL
MODEL 4
REMARK VINA RESULT:      -4.7     14.919     17.196
REMARK  7 active torsions:
REMARK  status: ('A' for Active; 'I' for Inactive)
REMARK    1  A    between atoms: C_2  and  C_3 
REMARK    2  A    between atoms: C_3  and  O_6 
REMARK    3  A    between atoms: C_3  and  C_4 
REMARK    4  A    between atoms: C_7  and  O_6 
REMARK    5  A    between atoms: C_9  and  C_10 
REMARK    6  A    between atoms: N_15  and  C_14 
REMARK    7  A    between atoms: N_20  and  C_19 
REMARK       I    between atoms: C_22  and  N_20 
ROOT
ATOM      1  C   LIG d   1      -3.536  75.187 116.302  0.00  0.00     0.161 C 
ATOM      2  C   LIG d   1      -4.377  74.067 116.195  0.00  0.00     0.016 C 
ATOM      3  C   LIG d   1      -5.789  74.148 116.231  0.00  0.00     0.038 C 
ATOM      4  C   LIG d   1      -6.461  75.379 116.225  0.00  0.00     0.028 C 
ATOM      5  C   LIG d   1      -5.652  76.514 116.842  0.00  0.00    -0.047 C 
ATOM      6  C   LIG d   1      -4.253  76.548 116.185  0.00  0.00     0.091 C 
ENDROOT
BRANCH   1   7
ATOM      7  O   LIG d   1      -2.474  75.095 115.332  0.00  0.00    -0.368 OA
BRANCH   7   8
ATOM      8  C   LIG d   1      -1.200  74.614 115.826  0.00  0.00     0.119 C 
BRANCH   8   9
ATOM      9  C   LIG d   1      -1.133  74.940 117.331  0.00  0.00     0.028 C 
ATOM     10  C   LIG d   1      -0.674  73.737 118.172  0.00  0.00     0.006 C 
ENDBRANCH   8   9
BRANCH   8  11
ATOM     11  C   LIG d   1      -0.032  75.377 115.194  0.00  0.00     0.028 C 
ATOM     12  C   LIG d   1       0.023  76.850 115.631  0.00  0.00     0.006 C 
ENDBRANCH   8  11
ENDBRANCH   7   8
ENDBRANCH   1   7
BRANCH   6  13
ATOM     13  N   LIG d   1      -3.368  77.577 116.790  0.00  0.00    -0.311 N 
ATOM     14  C   LIG d   1      -3.193  78.791 116.271  0.00  0.00     0.210 C 
ATOM     15  C   LIG d   1      -2.221  79.690 117.042  0.00  0.00     0.109 C 
ATOM     16  O   LIG d   1      -3.774  79.220 115.263  0.00  0.00    -0.276 OA
ATOM     17  H   LIG d   1      -2.881  77.324 117.627  0.00  0.00     0.149 HD
ENDBRANCH   6  13
BRANCH   5  18
ATOM     18  N   LIG d   1      -6.414  77.762 116.646  0.00  0.00     0.381 N 
ATOM     19  H   LIG d   1      -7.385  77.597 116.817  0.00  0.00    -0.090 HD
ATOM     20  H   LIG d   1      -6.308  78.061 115.692  0.00  0.00    -0.090 HD
ATOM     21  H   LIG d   1      -6.076  78.468 117.262  0.00  0.00    -0.090 HD
ENDBRANCH   5  18
BRANCH   3  22
ATOM     22  C   LIG d   1      -6.541  72.986 116.313  0.00  0.00     0.382 C 
ATOM     23  O   LIG d   1      -7.665  73.006 116.870  0.00  0.00    -0.241 OA
ATOM     24  O   LIG d   1      -6.092  71.910 115.876  0.00  0.00    -0.241 OA
ENDBRANCH   3  22
TORSDOF 7
ENDMDL
MODEL 5
REMARK VINA RESULT:      -4.3      4.941      7.279
REMARK  7 active torsions:
REMARK  status: ('A' for Active; 'I' for Inactive)
REMARK    1  A    between atoms: C_2  and  C_3 
REMARK    2  A    between atoms: C_3  and  O_6 
REMARK    3  A    between atoms: C_3  and  C_4 
REMARK    4  A    between atoms: C_7  and  O_6 
REMARK    5  A    between atoms: C_9  and  C_10 
REMARK    6  A    between atoms: N_15  and  C_14 
REMARK    7  A    between atoms: N_20  and  C_19 
REMARK       I    between atoms: C_22  and  N_20 
ROOT
ATOM      1  C   LIG d   1       0.932  89.929 117.965  0.00  0.00     0.161 C 
ATOM      2  C   LIG d   1      -0.435  89.667 117.773  0.00  0.00     0.016 C 
ATOM      3  C   LIG d   1      -1.452  90.613 118.035  0.00  0.00     0.038 C 
ATOM      4  C   LIG d   1      -1.160  91.945 118.365  0.00  0.00     0.028 C 
ATOM      5  C   LIG d   1       0.187  92.114 119.060  0.00  0.00    -0.047 C 
ATOM      6  C   LIG d   1       1.277  91.411 118.219  0.00  0.00     0.091 C 
ENDROOT
BRANCH   1   7
ATOM      7  O   LIG d   1       1.688  89.422 116.847  0.00  0.00    -0.368 OA
BRANCH   7   8
ATOM      8  C   LIG d   1       2.466  88.225 117.094  0.00  0.00     0.119 C 
BRANCH   8   9
ATOM      9  C   LIG d   1       3.827  88.404 116.393  0.00  0.00     0.028 C 
ATOM     10  C   LIG d   1       4.207  87.189 115.531  0.00  0.00     0.006 C 
ENDBRANCH   8   9
BRANCH   8  11
ATOM     11  C   LIG d   1       1.827  87.000 116.432  0.00  0.00     0.028 C 
ATOM     12  C   LIG d   1       1.002  86.155 117.414  0.00  0.00     0.006 C 
ENDBRANCH   8  11
ENDBRANCH   7   8
ENDBRANCH   1   7
BRANCH   6  13
ATOM     13  N   LIG d   1       2.613  91.457 118.869  0.00  0.00    -0.311 N 
ATOM     14  C   LIG d   1       3.739  91.730 118.213  0.00  0.00     0.210 C 
ATOM     15  C   LIG d   1       5.009  91.706 119.070  0.00  0.00     0.109 C 
ATOM     16  O   LIG d   1       3.804  92.021 117.009  0.00  0.00    -0.276 OA
ATOM     17  H   LIG d   1       2.649  91.264 119.851  0.00  0.00     0.149 HD
ENDBRANCH   6  13
BRANCH   5  18
ATOM     18  N   LIG d   1       0.426  93.561 119.222  0.00  0.00     0.381 N 
ATOM     19  H   LIG d   1       0.586  93.772 120.187  0.00  0.00    -0.090 HD
ATOM     20  H   LIG d   1      -0.392  94.061 118.921  0.00  0.00    -0.090 HD
ATOM     21  H   LIG d   1       1.214  93.840 118.679  0.00  0.00    -0.090 HD
ENDBRANCH   5  18
BRANCH   3  22
ATOM     22  C   LIG d   1      -2.781  90.219 118.006  0.00  0.00     0.382 C 
ATOM     23  O   LIG d   1      -3.082  89.015 118.194  0.00  0.00    -0.241 OA
ATOM     24  O   LIG d   1      -3.679  91.043 117.750  0.00  0.00    -0.241 OA
ENDBRANCH   3  22
TORSDOF 7
ENDMDL
MODEL 6
REMARK VINA RESULT:      -4.2     26.913     29.477
REMARK  7 active torsions:
REMARK  status: ('A' for Active; 'I' for Inactive)
REMARK    1  A    between atoms: C_2  and  C_3 
REMARK    2  A    between atoms: C_3  and  O_6 
REMARK    3  A    between atoms: C_3  and  C_4 
REMARK    4  A    between atoms: C_7  and  O_6 
REMARK    5  A    between atoms: C_9  and  C_10 
REMARK    6  A    between atoms: N_15  and  C_14 
REMARK    7  A    between atoms: N_20  and  C_19 
REMARK       I    between atoms: C_22  and  N_20 
ROOT
ATOM      1  C   LIG d   1     -14.118  65.509 118.951  0.00  0.00     0.161 C 
ATOM      2  C   LIG d   1     -13.575  66.721 119.411  0.00  0.00     0.016 C 
ATOM      3  C   LIG d   1     -12.670  66.807 120.493  0.00  0.00     0.038 C 
ATOM      4  C   LIG d   1     -12.125  65.664 121.097  0.00  0.00     0.028 C 
ATOM      5  C   LIG d   1     -13.028  64.439 121.000  0.00  0.00    -0.047 C 
ATOM      6  C   LIG d   1     -13.450  64.242 119.525  0.00  0.00     0.091 C 
ENDROOT
BRANCH   1   7
ATOM      7  O   LIG d   1     -14.095  65.479 117.511  0.00  0.00    -0.368 OA
BRANCH   7   8
ATOM      8  C   LIG d   1     -15.382  65.554 116.851  0.00  0.00     0.119 C 
BRANCH   8   9
ATOM      9  C   LIG d   1     -15.477  66.938 116.178  0.00  0.00     0.028 C 
ATOM     10  C   LIG d   1     -16.235  67.959 117.042  0.00  0.00     0.006 C 
ENDBRANCH   8   9
BRANCH   8  11
ATOM     11  C   LIG d   1     -16.531  65.516 117.863  0.00  0.00     0.028 C 
ATOM     12  C   LIG d   1     -17.449  64.298 117.677  0.00  0.00     0.006 C 
ENDBRANCH   8  11
ENDBRANCH   7   8
ENDBRANCH   1   7
BRANCH   6  13
ATOM     13  N   LIG d   1     -14.402  63.114 119.354  0.00  0.00    -0.311 N 
ATOM     14  C   LIG d   1     -14.200  62.107 118.506  0.00  0.00     0.210 C 
ATOM     15  C   LIG d   1     -15.317  61.059 118.471  0.00  0.00     0.109 C 
ATOM     16  O   LIG d   1     -13.188  61.966 117.804  0.00  0.00    -0.276 OA
ATOM     17  H   LIG d   1     -15.236  63.133 119.908  0.00  0.00     0.149 HD
ENDBRANCH   6  13
BRANCH   5  18
ATOM     18  N   LIG d   1     -12.280  63.290 121.545  0.00  0.00     0.381 N 
ATOM     19  H   LIG d   1     -11.347  63.570 121.773  0.00  0.00    -0.090 HD
ATOM     20  H   LIG d   1     -12.232  62.571 120.844  0.00  0.00    -0.090 HD
ATOM     21  H   LIG d   1     -12.738  62.940 122.358  0.00  0.00    -0.090 HD
ENDBRANCH   5  18
BRANCH   3  22
ATOM     22  C   LIG d   1     -12.331  68.049 121.009  0.00  0.00     0.382 C 
ATOM     23  O   LIG d   1     -13.210  68.766 121.545  0.00  0.00    -0.241 OA
ATOM     24  O   LIG d   1     -11.167  68.480 120.905  0.00  0.00    -0.241 OA
ENDBRANCH   3  22
TORSDOF 7
ENDMDL
MODEL 7
REMARK VINA RESULT:      -3.9     26.603     28.966
REMARK  7 active torsions:
REMARK  status: ('A' for Active; 'I' for Inactive)
REMARK    1  A    between atoms: C_2  and  C_3 
REMARK    2  A    between atoms: C_3  and  O_6 
REMARK    3  A    between atoms: C_3  and  C_4 
REMARK    4  A    between atoms: C_7  and  O_6 
REMARK    5  A    between atoms: C_9  and  C_10 
REMARK    6  A    between atoms: N_15  and  C_14 
REMARK    7  A    between atoms: N_20  and  C_19 
REMARK       I    between atoms: C_22  and  N_20 
ROOT
ATOM      1  C   LIG d   1     -14.460  66.147 117.648  0.00  0.00     0.161 C 
ATOM      2  C   LIG d   1     -15.168  65.056 117.117  0.00  0.00     0.016 C 
ATOM      3  C   LIG d   1     -15.207  63.782 117.730  0.00  0.00     0.038 C 
ATOM      4  C   LIG d   1     -14.662  63.554 119.002  0.00  0.00     0.028 C 
ATOM      5  C   LIG d   1     -13.507  64.490 119.342  0.00  0.00    -0.047 C 
ATOM      6  C   LIG d   1     -13.951  65.949 119.091  0.00  0.00     0.091 C 
ENDROOT
BRANCH   1   7
ATOM      7  O   LIG d   1     -15.264  67.340 117.560  0.00  0.00    -0.368 OA
BRANCH   7   8
ATOM      8  C   LIG d   1     -16.403  67.408 118.453  0.00  0.00     0.119 C 
BRANCH   8   9
ATOM      9  C   LIG d   1     -17.664  67.573 117.583  0.00  0.00     0.028 C 
ATOM     10  C   LIG d   1     -18.583  66.341 117.643  0.00  0.00     0.006 C 
ENDBRANCH   8   9
BRANCH   8  11
ATOM     11  C   LIG d   1     -16.349  68.663 119.330  0.00  0.00     0.028 C 
ATOM     12  C   LIG d   1     -16.608  68.363 120.815  0.00  0.00     0.006 C 
ENDBRANCH   8  11
ENDBRANCH   7   8
ENDBRANCH   1   7
BRANCH   6  13
ATOM     13  N   LIG d   1     -12.853  66.923 119.319  0.00  0.00    -0.311 N 
ATOM     14  C   LIG d   1     -12.665  67.560 120.474  0.00  0.00     0.210 C 
ATOM     15  C   LIG d   1     -11.485  68.537 120.489  0.00  0.00     0.109 C 
ATOM     16  O   LIG d   1     -13.344  67.383 121.497  0.00  0.00    -0.276 OA
ATOM     17  H   LIG d   1     -12.235  67.103 118.551  0.00  0.00     0.149 HD
ENDBRANCH   6  13
BRANCH   5  18
ATOM     18  N   LIG d   1     -13.125  64.235 120.744  0.00  0.00     0.381 N 
ATOM     19  H   LIG d   1     -12.147  64.030 120.797  0.00  0.00    -0.090 HD
ATOM     20  H   LIG d   1     -13.633  63.436 121.080  0.00  0.00    -0.090 HD
ATOM     21  H   LIG d   1     -13.336  65.031 121.305  0.00  0.00    -0.090 HD
ENDBRANCH   5  18
BRANCH   3  22
ATOM     22  C   LIG d   1     -15.764  62.710 117.050  0.00  0.00     0.382 C 
ATOM     23  O   LIG d   1     -16.730  62.894 116.271  0.00  0.00    -0.241 OA
ATOM     24  O   LIG d   1     -15.341  61.554 117.240  0.00  0.00    -0.241 OA
ENDBRANCH   3  22
TORSDOF 7
ENDMDL
MODEL 8
REMARK VINA RESULT:      -3.9     27.890     30.065
REMARK  7 active torsions:
REMARK  status: ('A' for Active; 'I' for Inactive)
REMARK    1  A    between atoms: C_2  and  C_3 
REMARK    2  A    between atoms: C_3  and  O_6 
REMARK    3  A    between atoms: C_3  and  C_4 
REMARK    4  A    between atoms: C_7  and  O_6 
REMARK    5  A    between atoms: C_9  and  C_10 
REMARK    6  A    between atoms: N_15  and  C_14 
REMARK    7  A    between atoms: N_20  and  C_19 
REMARK       I    between atoms: C_22  and  N_20 
ROOT
ATOM      1  C   LIG d   1     -15.258  64.349 119.872  0.00  0.00     0.161 C 
ATOM      2  C   LIG d   1     -14.966  63.012 120.193  0.00  0.00     0.016 C 
ATOM      3  C   LIG d   1     -14.819  61.994 119.223  0.00  0.00     0.038 C 
ATOM      4  C   LIG d   1     -14.803  62.275 117.849  0.00  0.00     0.028 C 
ATOM      5  C   LIG d   1     -15.595  63.524 117.477  0.00  0.00    -0.047 C 
ATOM      6  C   LIG d   1     -15.134  64.696 118.374  0.00  0.00     0.091 C 
ENDROOT
BRANCH   1   7
ATOM      7  O   LIG d   1     -14.434  65.231 120.660  0.00  0.00    -0.368 OA
BRANCH   7   8
ATOM      8  C   LIG d   1     -13.112  65.507 120.136  0.00  0.00     0.119 C 
BRANCH   8   9
ATOM      9  C   LIG d   1     -12.092  65.109 121.220  0.00  0.00     0.028 C 
ATOM     10  C   LIG d   1     -11.380  63.784 120.898  0.00  0.00     0.006 C 
ENDBRANCH   8   9
BRANCH   8  11
ATOM     11  C   LIG d   1     -12.903  67.008 119.914  0.00  0.00     0.028 C 
ATOM     12  C   LIG d   1     -11.953  67.636 120.945  0.00  0.00     0.006 C 
ENDBRANCH   8  11
ENDBRANCH   7   8
ENDBRANCH   1   7
BRANCH   6  13
ATOM     13  N   LIG d   1     -15.917  65.936 118.133  0.00  0.00    -0.311 N 
ATOM     14  C   LIG d   1     -15.516  66.909 117.317  0.00  0.00     0.210 C 
ATOM     15  C   LIG d   1     -16.464  68.109 117.228  0.00  0.00     0.109 C 
ATOM     16  O   LIG d   1     -14.482  66.879 116.634  0.00  0.00    -0.276 OA
ATOM     17  H   LIG d   1     -16.785  66.029 118.623  0.00  0.00     0.149 HD
ENDBRANCH   6  13
BRANCH   5  18
ATOM     18  N   LIG d   1     -15.380  63.776 116.040  0.00  0.00     0.381 N 
ATOM     19  H   LIG d   1     -15.945  63.153 115.498  0.00  0.00    -0.090 HD
ATOM     20  H   LIG d   1     -14.415  63.600 115.819  0.00  0.00    -0.090 HD
ATOM     21  H   LIG d   1     -15.611  64.721 115.821  0.00  0.00    -0.090 HD
ENDBRANCH   5  18
BRANCH   3  22
ATOM     22  C   LIG d   1     -14.724  60.670 119.626  0.00  0.00     0.382 C 
ATOM     23  O   LIG d   1     -15.661  59.873 119.382  0.00  0.00    -0.241 OA
ATOM     24  O   LIG d   1     -13.733  60.275 120.269  0.00  0.00    -0.241 OA
ENDBRANCH   3  22
TORSDOF 7
ENDMDL
MODEL 9
REMARK VINA RESULT:      -3.9     16.345     18.010
REMARK  7 active torsions:
REMARK  status: ('A' for Active; 'I' for Inactive)
REMARK    1  A    between atoms: C_2  and  C_3 
REMARK    2  A    between atoms: C_3  and  O_6 
REMARK    3  A    between atoms: C_3  and  C_4 
REMARK    4  A    between atoms: C_7  and  O_6 
REMARK    5  A    between atoms: C_9  and  C_10 
REMARK    6  A    between atoms: N_15  and  C_14 
REMARK    7  A    between atoms: N_20  and  C_19 
REMARK       I    between atoms: C_22  and  N_20 
ROOT
ATOM      1  C   LIG d   1       0.139  75.543 117.622  0.00  0.00     0.161 C 
ATOM      2  C   LIG d   1      -1.121  75.097 117.187  0.00  0.00     0.016 C 
ATOM      3  C   LIG d   1      -1.854  75.724 116.153  0.00  0.00     0.038 C 
ATOM      4  C   LIG d   1      -1.306  76.755 115.376  0.00  0.00     0.028 C 
ATOM      5  C   LIG d   1      -0.242  77.567 116.108  0.00  0.00    -0.047 C 
ATOM      6  C   LIG d   1       0.801  76.598 116.711  0.00  0.00     0.091 C 
ENDROOT
BRANCH   1   7
ATOM      7  O   LIG d   1       1.019  74.416 117.806  0.00  0.00    -0.368 OA
BRANCH   7   8
ATOM      8  C   LIG d   1       1.419  74.136 119.169  0.00  0.00     0.119 C 
BRANCH   8   9
ATOM      9  C   LIG d   1       2.930  73.833 119.155  0.00  0.00     0.028 C 
ATOM     10  C   LIG d   1       3.679  74.531 120.302  0.00  0.00     0.006 C 
ENDBRANCH   8   9
BRANCH   8  11
ATOM     11  C   LIG d   1       0.754  72.861 119.695  0.00  0.00     0.028 C 
ATOM     12  C   LIG d   1      -0.496  73.146 120.541  0.00  0.00     0.006 C 
ENDBRANCH   8  11
ENDBRANCH   7   8
ENDBRANCH   1   7
BRANCH   6  13
ATOM     13  N   LIG d   1       1.831  77.304 117.516  0.00  0.00    -0.311 N 
ATOM     14  C   LIG d   1       3.133  77.031 117.444  0.00  0.00     0.210 C 
ATOM     15  C   LIG d   1       4.021  77.862 118.375  0.00  0.00     0.109 C 
ATOM     16  O   LIG d   1       3.640  76.202 116.673  0.00  0.00    -0.276 OA
ATOM     17  H   LIG d   1       1.511  78.014 118.145  0.00  0.00     0.149 HD
ENDBRANCH   6  13
BRANCH   5  18
ATOM     18  N   LIG d   1       0.341  78.515 115.141  0.00  0.00     0.381 N 
ATOM     19  H   LIG d   1      -0.363  78.816 114.496  0.00  0.00    -0.090 HD
ATOM     20  H   LIG d   1       1.064  78.048 114.623  0.00  0.00    -0.090 HD
ATOM     21  H   LIG d   1       0.720  79.301 115.620  0.00  0.00    -0.090 HD
ENDBRANCH   5  18
BRANCH   3  22
ATOM     22  C   LIG d   1      -3.166  75.346 115.914  0.00  0.00     0.382 C 
ATOM     23  O   LIG d   1      -3.484  74.851 114.806  0.00  0.00    -0.241 OA
ATOM     24  O   LIG d   1      -4.045  75.534 116.777  0.00  0.00    -0.241 OA
ENDBRANCH   3  22
TORSDOF 7
ENDMDL
