MODEL 1
REMARK VINA RESULT:      -5.5      0.000      0.000
REMARK  7 active torsions:
REMARK  status: ('A' for Active; 'I' for Inactive)
REMARK    1  A    between atoms: C_2  and  C_3 
REMARK    2  A    between atoms: C_3  and  O_6 
REMARK    3  A    between atoms: C_3  and  C_4 
REMARK    4  A    between atoms: C_7  and  O_6 
REMARK    5  A    between atoms: C_9  and  C_10 
REMARK    6  A    between atoms: N_15  and  C_14 
REMARK    7  A    between atoms: N_20  and  C_19 
REMARK       I    between atoms: C_22  and  N_20 
ROOT
ATOM      1  C   LIG d   1      -7.685  76.080 118.031  0.00  0.00     0.161 C 
ATOM      2  C   LIG d   1      -9.053  76.171 118.340  0.00  0.00     0.016 C 
ATOM      3  C   LIG d   1      -9.709  77.392 118.618  0.00  0.00     0.038 C 
ATOM      4  C   LIG d   1      -9.070  78.630 118.456  0.00  0.00     0.028 C 
ATOM      5  C   LIG d   1      -7.557  78.560 118.637  0.00  0.00    -0.047 C 
ATOM      6  C   LIG d   1      -6.997  77.431 117.742  0.00  0.00     0.091 C 
ENDROOT
BRANCH   1   7
ATOM      7  O   LIG d   1      -7.492  75.173 116.928  0.00  0.00    -0.368 OA
BRANCH   7   8
ATOM      8  C   LIG d   1      -6.926  73.881 117.258  0.00  0.00     0.119 C 
BRANCH   8   9
ATOM      9  C   LIG d   1      -5.504  73.834 116.665  0.00  0.00     0.028 C 
ATOM     10  C   LIG d   1      -5.479  74.199 115.171  0.00  0.00     0.006 C 
ENDBRANCH   8   9
BRANCH   8  11
ATOM     11  C   LIG d   1      -7.690  72.746 116.570  0.00  0.00     0.028 C 
ATOM     12  C   LIG d   1      -7.556  71.404 117.309  0.00  0.00     0.006 C 
ENDBRANCH   8  11
ENDBRANCH   7   8
ENDBRANCH   1   7
BRANCH   6  13
ATOM     13  N   LIG d   1      -5.535  77.238 117.921  0.00  0.00    -0.311 N 
ATOM     14  C   LIG d   1      -4.648  77.403 116.941  0.00  0.00     0.210 C 
ATOM     15  C   LIG d   1      -3.192  77.134 117.335  0.00  0.00     0.109 C 
ATOM     16  O   LIG d   1      -4.925  77.777 115.792  0.00  0.00    -0.276 OA
ATOM     17  H   LIG d   1      -5.219  76.964 118.831  0.00  0.00     0.149 HD
ENDBRANCH   6  13
BRANCH   5  18
ATOM     18  N   LIG d   1      -7.007  79.887 118.306  0.00  0.00     0.381 N 
ATOM     19  H   LIG d   1      -6.612  80.304 119.126  0.00  0.00    -0.090 HD
ATOM     20  H   LIG d   1      -7.752  80.477 117.980  0.00  0.00    -0.090 HD
ATOM     21  H   LIG d   1      -6.309  79.801 117.600  0.00  0.00    -0.090 HD
ENDBRANCH   5  18
BRANCH   3  22
ATOM     22  C   LIG d   1     -11.009  77.379 119.101  0.00  0.00     0.382 C 
ATOM     23  O   LIG d   1     -11.762  76.409 118.847  0.00  0.00    -0.241 OA
ATOM     24  O   LIG d   1     -11.451  78.347 119.749  0.00  0.00    -0.241 OA
ENDBRANCH   3  22
TORSDOF 7
ENDMDL
MODEL 2
REMARK VINA RESULT:      -5.4      2.440      5.844
REMARK  7 active torsions:
REMARK  status: ('A' for Active; 'I' for Inactive)
REMARK    1  A    between atoms: C_2  and  C_3 
REMARK    2  A    between atoms: C_3  and  O_6 
REMARK    3  A    between atoms: C_3  and  C_4 
REMARK    4  A    between atoms: C_7  and  O_6 
REMARK    5  A    between atoms: C_9  and  C_10 
REMARK    6  A    between atoms: N_15  and  C_14 
REMARK    7  A    between atoms: N_20  and  C_19 
REMARK       I    between atoms: C_22  and  N_20 
ROOT
ATOM      1  C   LIG d   1      -4.898  75.822 115.992  0.00  0.00     0.161 C 
ATOM      2  C   LIG d   1      -3.759  75.057 115.689  0.00  0.00     0.016 C 
ATOM      3  C   LIG d   1      -2.584  75.067 116.475  0.00  0.00     0.038 C 
ATOM      4  C   LIG d   1      -2.522  75.732 117.708  0.00  0.00     0.028 C 
ATOM      5  C   LIG d   1      -3.470  76.922 117.803  0.00  0.00    -0.047 C 
ATOM      6  C   LIG d   1      -4.889  76.467 117.394  0.00  0.00     0.091 C 
ENDROOT
BRANCH   1   7
ATOM      7  O   LIG d   1      -6.085  75.023 115.816  0.00  0.00    -0.368 OA
BRANCH   7   8
ATOM      8  C   LIG d   1      -6.378  74.076 116.873  0.00  0.00     0.119 C 
BRANCH   8   9
ATOM      9  C   LIG d   1      -6.568  72.695 116.218  0.00  0.00     0.028 C 
ATOM     10  C   LIG d   1      -7.480  71.773 117.045  0.00  0.00     0.006 C 
ENDBRANCH   8   9
BRANCH   8  11
ATOM     11  C   LIG d   1      -7.716  74.392 117.548  0.00  0.00     0.028 C 
ATOM     12  C   LIG d   1      -8.613  75.304 116.695  0.00  0.00     0.006 C 
ENDBRANCH   8  11
ENDBRANCH   7   8
ENDBRANCH   1   7
BRANCH   6  13
ATOM     13  N   LIG d   1      -5.862  77.591 117.378  0.00  0.00    -0.311 N 
ATOM     14  C   LIG d   1      -6.651  77.892 118.407  0.00  0.00     0.210 C 
ATOM     15  C   LIG d   1      -7.595  79.076 118.174  0.00  0.00     0.109 C 
ATOM     16  O   LIG d   1      -6.637  77.311 119.503  0.00  0.00    -0.276 OA
ATOM     17  H   LIG d   1      -5.917  78.134 116.539  0.00  0.00     0.149 HD
ENDBRANCH   6  13
BRANCH   5  18
ATOM     18  N   LIG d   1      -3.403  77.437 119.184  0.00  0.00     0.381 N 
ATOM     19  H   LIG d   1      -4.056  76.945 119.760  0.00  0.00    -0.090 HD
ATOM     20  H   LIG d   1      -3.654  78.409 119.181  0.00  0.00    -0.090 HD
ATOM     21  H   LIG d   1      -2.481  77.325 119.545  0.00  0.00    -0.090 HD
ENDBRANCH   5  18
BRANCH   3  22
ATOM     22  C   LIG d   1      -1.440  74.438 116.007  0.00  0.00     0.382 C 
ATOM     23  O   LIG d   1      -0.710  73.794 116.799  0.00  0.00    -0.241 OA
ATOM     24  O   LIG d   1      -1.104  74.543 114.812  0.00  0.00    -0.241 OA
ENDBRANCH   3  22
TORSDOF 7
ENDMDL
MODEL 3
REMARK VINA RESULT:      -5.1      2.608      3.335
REMARK  7 active torsions:
REMARK  status: ('A' for Active; 'I' for Inactive)
REMARK    1  A    between atoms: C_2  and  C_3 
REMARK    2  A    between atoms: C_3  and  O_6 
REMARK    3  A    between atoms: C_3  and  C_4 
REMARK    4  A    between atoms: C_7  and  O_6 
REMARK    5  A    between atoms: C_9  and  C_10 
REMARK    6  A    between atoms: N_15  and  C_14 
REMARK    7  A    between atoms: N_20  and  C_19 
REMARK       I    between atoms: C_22  and  N_20 
ROOT
ATOM      1  C   LIG d   1      -5.234  76.084 118.607  0.00  0.00     0.161 C 
ATOM      2  C   LIG d   1      -6.257  77.024 118.812  0.00  0.00     0.016 C 
ATOM      3  C   LIG d   1      -6.398  78.201 118.041  0.00  0.00     0.038 C 
ATOM      4  C   LIG d   1      -5.610  78.443 116.906  0.00  0.00     0.028 C 
ATOM      5  C   LIG d   1      -4.242  77.771 116.964  0.00  0.00    -0.047 C 
ATOM      6  C   LIG d   1      -4.432  76.275 117.303  0.00  0.00     0.091 C 
ENDROOT
BRANCH   1   7
ATOM      7  O   LIG d   1      -5.777  74.750 118.670  0.00  0.00    -0.368 OA
BRANCH   7   8
ATOM      8  C   LIG d   1      -6.251  74.195 117.418  0.00  0.00     0.119 C 
BRANCH   8   9
ATOM      9  C   LIG d   1      -7.791  74.200 117.462  0.00  0.00     0.028 C 
ATOM     10  C   LIG d   1      -8.399  75.308 116.586  0.00  0.00     0.006 C 
ENDBRANCH   8   9
BRANCH   8  11
ATOM     11  C   LIG d   1      -5.854  72.722 117.277  0.00  0.00     0.028 C 
ATOM     12  C   LIG d   1      -7.055  71.807 116.988  0.00  0.00     0.006 C 
ENDBRANCH   8  11
ENDBRANCH   7   8
ENDBRANCH   1   7
BRANCH   6  13
ATOM     13  N   LIG d   1      -3.138  75.561 117.462  0.00  0.00    -0.311 N 
ATOM     14  C   LIG d   1      -2.540  74.898 116.473  0.00  0.00     0.210 C 
ATOM     15  C   LIG d   1      -1.223  74.217 116.856  0.00  0.00     0.109 C 
ATOM     16  O   LIG d   1      -2.959  74.837 115.308  0.00  0.00    -0.276 OA
ATOM     17  H   LIG d   1      -2.712  75.586 118.367  0.00  0.00     0.149 HD
ENDBRANCH   6  13
BRANCH   5  18
ATOM     18  N   LIG d   1      -3.582  77.991 115.664  0.00  0.00     0.381 N 
ATOM     19  H   LIG d   1      -3.546  77.132 115.153  0.00  0.00    -0.090 HD
ATOM     20  H   LIG d   1      -2.640  78.302 115.826  0.00  0.00    -0.090 HD
ATOM     21  H   LIG d   1      -4.080  78.677 115.140  0.00  0.00    -0.090 HD
ENDBRANCH   5  18
BRANCH   3  22
ATOM     22  C   LIG d   1      -7.311  79.170 118.428  0.00  0.00     0.382 C 
ATOM     23  O   LIG d   1      -7.883  79.085 119.541  0.00  0.00    -0.241 OA
ATOM     24  O   LIG d   1      -7.604  80.106 117.659  0.00  0.00    -0.241 OA
ENDBRANCH   3  22
TORSDOF 7
ENDMDL
MODEL 4
REMARK VINA RESULT:      -5.1      2.630      4.734
REMARK  7 active torsions:
REMARK  status: ('A' for Active; 'I' for Inactive)
REMARK    1  A    between atoms: C_2  and  C_3 
REMARK    2  A    between atoms: C_3  and  O_6 
REMARK    3  A    between atoms: C_3  and  C_4 
REMARK    4  A    between atoms: C_7  and  O_6 
REMARK    5  A    between atoms: C_9  and  C_10 
REMARK    6  A    between atoms: N_15  and  C_14 
REMARK    7  A    between atoms: N_20  and  C_19 
REMARK       I    between atoms: C_22  and  N_20 
ROOT
ATOM      1  C   LIG d   1      -5.291  75.151 118.210  0.00  0.00     0.161 C 
ATOM      2  C   LIG d   1      -5.579  73.929 117.580  0.00  0.00     0.016 C 
ATOM      3  C   LIG d   1      -6.865  73.583 117.103  0.00  0.00     0.038 C 
ATOM      4  C   LIG d   1      -7.923  74.505 117.089  0.00  0.00     0.028 C 
ATOM      5  C   LIG d   1      -7.811  75.572 118.173  0.00  0.00    -0.047 C 
ATOM      6  C   LIG d   1      -6.406  76.212 118.104  0.00  0.00     0.091 C 
ENDROOT
BRANCH   1   7
ATOM      7  O   LIG d   1      -4.047  75.678 117.707  0.00  0.00    -0.368 OA
BRANCH   7   8
ATOM      8  C   LIG d   1      -3.478  74.989 116.566  0.00  0.00     0.119 C 
BRANCH   8   9
ATOM      9  C   LIG d   1      -2.022  74.632 116.922  0.00  0.00     0.028 C 
ATOM     10  C   LIG d   1      -1.112  74.575 115.682  0.00  0.00     0.006 C 
ENDBRANCH   8   9
BRANCH   8  11
ATOM     11  C   LIG d   1      -3.383  75.913 115.348  0.00  0.00     0.028 C 
ATOM     12  C   LIG d   1      -3.859  77.343 115.646  0.00  0.00     0.006 C 
ENDBRANCH   8  11
ENDBRANCH   7   8
ENDBRANCH   1   7
BRANCH   6  13
ATOM     13  N   LIG d   1      -6.183  77.208 119.184  0.00  0.00    -0.311 N 
ATOM     14  C   LIG d   1      -6.386  78.515 119.029  0.00  0.00     0.210 C 
ATOM     15  C   LIG d   1      -6.076  79.368 120.263  0.00  0.00     0.109 C 
ATOM     16  O   LIG d   1      -6.825  79.046 117.997  0.00  0.00    -0.276 OA
ATOM     17  H   LIG d   1      -5.857  76.861 120.064  0.00  0.00     0.149 HD
ENDBRANCH   6  13
BRANCH   5  18
ATOM     18  N   LIG d   1      -8.900  76.543 117.957  0.00  0.00     0.381 N 
ATOM     19  H   LIG d   1      -9.754  76.057 117.769  0.00  0.00    -0.090 HD
ATOM     20  H   LIG d   1      -8.677  77.109 117.158  0.00  0.00    -0.090 HD
ATOM     21  H   LIG d   1      -9.008  77.119 118.762  0.00  0.00    -0.090 HD
ENDBRANCH   5  18
BRANCH   3  22
ATOM     22  C   LIG d   1      -7.113  72.290 116.670  0.00  0.00     0.382 C 
ATOM     23  O   LIG d   1      -6.489  71.828 115.684  0.00  0.00    -0.241 OA
ATOM     24  O   LIG d   1      -7.983  71.593 117.226  0.00  0.00    -0.241 OA
ENDBRANCH   3  22
TORSDOF 7
ENDMDL
MODEL 5
REMARK VINA RESULT:      -5.0      1.001      1.171
REMARK  7 active torsions:
REMARK  status: ('A' for Active; 'I' for Inactive)
REMARK    1  A    between atoms: C_2  and  C_3 
REMARK    2  A    between atoms: C_3  and  O_6 
REMARK    3  A    between atoms: C_3  and  C_4 
REMARK    4  A    between atoms: C_7  and  O_6 
REMARK    5  A    between atoms: C_9  and  C_10 
REMARK    6  A    between atoms: N_15  and  C_14 
REMARK    7  A    between atoms: N_20  and  C_19 
REMARK       I    between atoms: C_22  and  N_20 
ROOT
ATOM      1  C   LIG d   1      -7.682  76.418 118.402  0.00  0.00     0.161 C 
ATOM      2  C   LIG d   1      -9.036  76.193 118.700  0.00  0.00     0.016 C 
ATOM      3  C   LIG d   1      -9.972  77.234 118.903  0.00  0.00     0.038 C 
ATOM      4  C   LIG d   1      -9.647  78.579 118.671  0.00  0.00     0.028 C 
ATOM      5  C   LIG d   1      -8.165  78.885 118.860  0.00  0.00    -0.047 C 
ATOM      6  C   LIG d   1      -7.334  77.876 118.035  0.00  0.00     0.091 C 
ENDROOT
BRANCH   1   7
ATOM      7  O   LIG d   1      -7.257  75.523 117.355  0.00  0.00    -0.368 OA
BRANCH   7   8
ATOM      8  C   LIG d   1      -7.030  74.147 117.746  0.00  0.00     0.119 C 
BRANCH   8   9
ATOM      9  C   LIG d   1      -5.509  73.904 117.721  0.00  0.00     0.028 C 
ATOM     10  C   LIG d   1      -4.806  74.693 116.603  0.00  0.00     0.006 C 
ENDBRANCH   8   9
BRANCH   8  11
ATOM     11  C   LIG d   1      -7.613  73.172 116.719  0.00  0.00     0.028 C 
ATOM     12  C   LIG d   1      -7.419  71.701 117.116  0.00  0.00     0.006 C 
ENDBRANCH   8  11
ENDBRANCH   7   8
ENDBRANCH   1   7
BRANCH   6  13
ATOM     13  N   LIG d   1      -5.871  78.052 118.231  0.00  0.00    -0.311 N 
ATOM     14  C   LIG d   1      -5.106  78.781 117.420  0.00  0.00     0.210 C 
ATOM     15  C   LIG d   1      -3.620  78.815 117.791  0.00  0.00     0.109 C 
ATOM     16  O   LIG d   1      -5.522  79.430 116.448  0.00  0.00    -0.276 OA
ATOM     17  H   LIG d   1      -5.456  77.586 119.013  0.00  0.00     0.149 HD
ENDBRANCH   6  13
BRANCH   5  18
ATOM     18  N   LIG d   1      -7.944  80.286 118.454  0.00  0.00     0.381 N 
ATOM     19  H   LIG d   1      -8.169  80.397 117.485  0.00  0.00    -0.090 HD
ATOM     20  H   LIG d   1      -6.973  80.511 118.580  0.00  0.00    -0.090 HD
ATOM     21  H   LIG d   1      -8.508  80.894 119.005  0.00  0.00    -0.090 HD
ENDBRANCH   5  18
BRANCH   3  22
ATOM     22  C   LIG d   1     -11.238  76.936 119.382  0.00  0.00     0.382 C 
ATOM     23  O   LIG d   1     -11.559  77.259 120.551  0.00  0.00    -0.241 OA
ATOM     24  O   LIG d   1     -12.050  76.309 118.674  0.00  0.00    -0.241 OA
ENDBRANCH   3  22
TORSDOF 7
ENDMDL
MODEL 6
REMARK VINA RESULT:      -5.0      2.174      2.988
REMARK  7 active torsions:
REMARK  status: ('A' for Active; 'I' for Inactive)
REMARK    1  A    between atoms: C_2  and  C_3 
REMARK    2  A    between atoms: C_3  and  O_6 
REMARK    3  A    between atoms: C_3  and  C_4 
REMARK    4  A    between atoms: C_7  and  O_6 
REMARK    5  A    between atoms: C_9  and  C_10 
REMARK    6  A    between atoms: N_15  and  C_14 
REMARK    7  A    between atoms: N_20  and  C_19 
REMARK       I    between atoms: C_22  and  N_20 
ROOT
ATOM      1  C   LIG d   1      -7.860  78.040 118.509  0.00  0.00     0.161 C 
ATOM      2  C   LIG d   1      -8.860  77.105 118.825  0.00  0.00     0.016 C 
ATOM      3  C   LIG d   1     -10.183  77.466 119.169  0.00  0.00     0.038 C 
ATOM      4  C   LIG d   1     -10.639  78.790 119.073  0.00  0.00     0.028 C 
ATOM      5  C   LIG d   1      -9.533  79.825 119.247  0.00  0.00    -0.047 C 
ATOM      6  C   LIG d   1      -8.368  79.481 118.291  0.00  0.00     0.091 C 
ENDROOT
BRANCH   1   7
ATOM      7  O   LIG d   1      -7.117  77.591 117.359  0.00  0.00    -0.368 OA
BRANCH   7   8
ATOM      8  C   LIG d   1      -6.475  76.299 117.480  0.00  0.00     0.119 C 
BRANCH   8   9
ATOM      9  C   LIG d   1      -4.973  76.501 117.202  0.00  0.00     0.028 C 
ATOM     10  C   LIG d   1      -4.137  75.261 117.565  0.00  0.00     0.006 C 
ENDBRANCH   8   9
BRANCH   8  11
ATOM     11  C   LIG d   1      -6.961  75.331 116.396  0.00  0.00     0.028 C 
ATOM     12  C   LIG d   1      -7.627  74.073 116.976  0.00  0.00     0.006 C 
ENDBRANCH   8  11
ENDBRANCH   7   8
ENDBRANCH   1   7
BRANCH   6  13
ATOM     13  N   LIG d   1      -7.209  80.396 118.457  0.00  0.00    -0.311 N 
ATOM     14  C   LIG d   1      -6.997  81.458 117.681  0.00  0.00     0.210 C 
ATOM     15  C   LIG d   1      -5.732  82.257 118.010  0.00  0.00     0.109 C 
ATOM     16  O   LIG d   1      -7.753  81.832 116.772  0.00  0.00    -0.276 OA
ATOM     17  H   LIG d   1      -6.562  80.185 119.191  0.00  0.00     0.149 HD
ENDBRANCH   6  13
BRANCH   5  18
ATOM     18  N   LIG d   1     -10.121  81.153 118.987  0.00  0.00     0.381 N 
ATOM     19  H   LIG d   1     -10.060  81.365 118.011  0.00  0.00    -0.090 HD
ATOM     20  H   LIG d   1      -9.599  81.845 119.494  0.00  0.00    -0.090 HD
ATOM     21  H   LIG d   1     -11.074  81.167 119.277  0.00  0.00    -0.090 HD
ENDBRANCH   5  18
BRANCH   3  22
ATOM     22  C   LIG d   1     -11.054  76.503 119.654  0.00  0.00     0.382 C 
ATOM     23  O   LIG d   1     -12.138  76.284 119.062  0.00  0.00    -0.241 OA
ATOM     24  O   LIG d   1     -10.790  75.882 120.701  0.00  0.00    -0.241 OA
ENDBRANCH   3  22
TORSDOF 7
ENDMDL
MODEL 7
REMARK VINA RESULT:      -4.7      2.642      4.100
REMARK  7 active torsions:
REMARK  status: ('A' for Active; 'I' for Inactive)
REMARK    1  A    between atoms: C_2  and  C_3 
REMARK    2  A    between atoms: C_3  and  O_6 
REMARK    3  A    between atoms: C_3  and  C_4 
REMARK    4  A    between atoms: C_7  and  O_6 
REMARK    5  A    between atoms: C_9  and  C_10 
REMARK    6  A    between atoms: N_15  and  C_14 
REMARK    7  A    between atoms: N_20  and  C_19 
REMARK       I    between atoms: C_22  and  N_20 
ROOT
ATOM      1  C   LIG d   1      -5.549  77.461 117.251  0.00  0.00     0.161 C 
ATOM      2  C   LIG d   1      -6.281  78.645 117.441  0.00  0.00     0.016 C 
ATOM      3  C   LIG d   1      -5.714  79.936 117.336  0.00  0.00     0.038 C 
ATOM      4  C   LIG d   1      -4.402  80.135 116.880  0.00  0.00     0.028 C 
ATOM      5  C   LIG d   1      -3.478  78.955 117.163  0.00  0.00    -0.047 C 
ATOM      6  C   LIG d   1      -4.144  77.660 116.645  0.00  0.00     0.091 C 
ENDROOT
BRANCH   1   7
ATOM      7  O   LIG d   1      -6.313  76.537 116.451  0.00  0.00    -0.368 OA
BRANCH   7   8
ATOM      8  C   LIG d   1      -6.946  75.448 117.166  0.00  0.00     0.119 C 
BRANCH   8   9
ATOM      9  C   LIG d   1      -6.549  74.138 116.459  0.00  0.00     0.028 C 
ATOM     10  C   LIG d   1      -7.399  72.941 116.919  0.00  0.00     0.006 C 
ENDBRANCH   8   9
BRANCH   8  11
ATOM     11  C   LIG d   1      -8.472  75.521 117.057  0.00  0.00     0.028 C 
ATOM     12  C   LIG d   1      -9.118  76.279 118.228  0.00  0.00     0.006 C 
ENDBRANCH   8  11
ENDBRANCH   7   8
ENDBRANCH   1   7
BRANCH   6  13
ATOM     13  N   LIG d   1      -3.344  76.447 116.957  0.00  0.00    -0.311 N 
ATOM     14  C   LIG d   1      -3.027  75.525 116.050  0.00  0.00     0.210 C 
ATOM     15  C   LIG d   1      -2.213  74.344 116.586  0.00  0.00     0.109 C 
ATOM     16  O   LIG d   1      -3.316  75.589 114.845  0.00  0.00    -0.276 OA
ATOM     17  H   LIG d   1      -3.041  76.332 117.904  0.00  0.00     0.149 HD
ENDBRANCH   6  13
BRANCH   5  18
ATOM     18  N   LIG d   1      -2.183  79.239 116.515  0.00  0.00     0.381 N 
ATOM     19  H   LIG d   1      -1.435  78.978 117.126  0.00  0.00    -0.090 HD
ATOM     20  H   LIG d   1      -2.117  80.226 116.339  0.00  0.00    -0.090 HD
ATOM     21  H   LIG d   1      -2.113  78.735 115.658  0.00  0.00    -0.090 HD
ENDBRANCH   5  18
BRANCH   3  22
ATOM     22  C   LIG d   1      -6.451  81.044 117.726  0.00  0.00     0.382 C 
ATOM     23  O   LIG d   1      -6.518  81.357 118.939  0.00  0.00    -0.241 OA
ATOM     24  O   LIG d   1      -7.086  81.708 116.885  0.00  0.00    -0.241 OA
ENDBRANCH   3  22
TORSDOF 7
ENDMDL
MODEL 8
REMARK VINA RESULT:      -4.7      2.766      5.080
REMARK  7 active torsions:
REMARK  status: ('A' for Active; 'I' for Inactive)
REMARK    1  A    between atoms: C_2  and  C_3 
REMARK    2  A    between atoms: C_3  and  O_6 
REMARK    3  A    between atoms: C_3  and  C_4 
REMARK    4  A    between atoms: C_7  and  O_6 
REMARK    5  A    between atoms: C_9  and  C_10 
REMARK    6  A    between atoms: N_15  and  C_14 
REMARK    7  A    between atoms: N_20  and  C_19 
REMARK       I    between atoms: C_22  and  N_20 
ROOT
ATOM      1  C   LIG d   1      -9.063  77.650 118.448  0.00  0.00     0.161 C 
ATOM      2  C   LIG d   1      -8.205  78.709 118.104  0.00  0.00     0.016 C 
ATOM      3  C   LIG d   1      -8.399  80.040 118.539  0.00  0.00     0.038 C 
ATOM      4  C   LIG d   1      -9.387  80.377 119.477  0.00  0.00     0.028 C 
ATOM      5  C   LIG d   1     -10.586  79.436 119.459  0.00  0.00    -0.047 C 
ATOM      6  C   LIG d   1     -10.082  77.978 119.560  0.00  0.00     0.091 C 
ENDROOT
BRANCH   1   7
ATOM      7  O   LIG d   1      -8.288  76.489 118.805  0.00  0.00    -0.368 OA
BRANCH   7   8
ATOM      8  C   LIG d   1      -7.261  76.094 117.863  0.00  0.00     0.119 C 
BRANCH   8   9
ATOM      9  C   LIG d   1      -7.903  75.112 116.864  0.00  0.00     0.028 C 
ATOM     10  C   LIG d   1      -7.526  73.649 117.154  0.00  0.00     0.006 C 
ENDBRANCH   8   9
BRANCH   8  11
ATOM     11  C   LIG d   1      -6.147  75.301 118.552  0.00  0.00     0.028 C 
ATOM     12  C   LIG d   1      -4.765  75.955 118.397  0.00  0.00     0.006 C 
ENDBRANCH   8  11
ENDBRANCH   7   8
ENDBRANCH   1   7
BRANCH   6  13
ATOM     13  N   LIG d   1     -11.186  76.988 119.464  0.00  0.00    -0.311 N 
ATOM     14  C   LIG d   1     -11.499  76.143 120.444  0.00  0.00     0.210 C 
ATOM     15  C   LIG d   1     -12.659  75.192 120.132  0.00  0.00     0.109 C 
ATOM     16  O   LIG d   1     -10.948  76.112 121.555  0.00  0.00    -0.276 OA
ATOM     17  H   LIG d   1     -11.706  76.966 118.609  0.00  0.00     0.149 HD
ENDBRANCH   6  13
BRANCH   5  18
ATOM     18  N   LIG d   1     -11.471  79.820 120.574  0.00  0.00     0.381 N 
ATOM     19  H   LIG d   1     -10.955  79.820 121.431  0.00  0.00    -0.090 HD
ATOM     20  H   LIG d   1     -12.210  79.144 120.651  0.00  0.00    -0.090 HD
ATOM     21  H   LIG d   1     -11.855  80.725 120.409  0.00  0.00    -0.090 HD
ENDBRANCH   5  18
BRANCH   3  22
ATOM     22  C   LIG d   1      -7.625  81.058 118.003  0.00  0.00     0.382 C 
ATOM     23  O   LIG d   1      -6.625  80.779 117.297  0.00  0.00    -0.241 OA
ATOM     24  O   LIG d   1      -7.886  82.249 118.253  0.00  0.00    -0.241 OA
ENDBRANCH   3  22
TORSDOF 7
ENDMDL
MODEL 9
REMARK VINA RESULT:      -4.6     14.489     16.642
REMARK  7 active torsions:
REMARK  status: ('A' for Active; 'I' for Inactive)
REMARK    1  A    between atoms: C_2  and  C_3 
REMARK    2  A    between atoms: C_3  and  O_6 
REMARK    3  A    between atoms: C_3  and  C_4 
REMARK    4  A    between atoms: C_7  and  O_6 
REMARK    5  A    between atoms: C_9  and  C_10 
REMARK    6  A    between atoms: N_15  and  C_14 
REMARK    7  A    between atoms: N_20  and  C_19 
REMARK       I    between atoms: C_22  and  N_20 
ROOT
ATOM      1  C   LIG d   1      -4.605  91.490 119.106  0.00  0.00     0.161 C 
ATOM      2  C   LIG d   1      -3.433  91.546 119.878  0.00  0.00     0.016 C 
ATOM      3  C   LIG d   1      -2.211  90.955 119.483  0.00  0.00     0.038 C 
ATOM      4  C   LIG d   1      -2.038  90.393 118.209  0.00  0.00     0.028 C 
ATOM      5  C   LIG d   1      -3.332  89.867 117.598  0.00  0.00    -0.047 C 
ATOM      6  C   LIG d   1      -4.406  90.978 117.664  0.00  0.00     0.091 C 
ENDROOT
BRANCH   1   7
ATOM      7  O   LIG d   1      -5.245  92.782 119.095  0.00  0.00    -0.368 OA
BRANCH   7   8
ATOM      8  C   LIG d   1      -6.593  92.830 119.622  0.00  0.00     0.119 C 
BRANCH   8   9
ATOM      9  C   LIG d   1      -7.510  93.362 118.503  0.00  0.00     0.028 C 
ATOM     10  C   LIG d   1      -8.648  94.242 119.046  0.00  0.00     0.006 C 
ENDBRANCH   8   9
BRANCH   8  11
ATOM     11  C   LIG d   1      -6.710  93.848 120.761  0.00  0.00     0.028 C 
ATOM     12  C   LIG d   1      -5.426  94.666 120.962  0.00  0.00     0.006 C 
ENDBRANCH   8  11
ENDBRANCH   7   8
ENDBRANCH   1   7
BRANCH   6  13
ATOM     13  N   LIG d   1      -5.727  90.519 117.163  0.00  0.00    -0.311 N 
ATOM     14  C   LIG d   1      -6.126  90.672 115.901  0.00  0.00     0.210 C 
ATOM     15  C   LIG d   1      -7.533  90.146 115.600  0.00  0.00     0.109 C 
ATOM     16  O   LIG d   1      -5.436  91.163 114.996  0.00  0.00    -0.276 OA
ATOM     17  H   LIG d   1      -6.339  90.081 117.824  0.00  0.00     0.149 HD
ENDBRANCH   6  13
BRANCH   5  18
ATOM     18  N   LIG d   1      -3.031  89.436 116.219  0.00  0.00     0.381 N 
ATOM     19  H   LIG d   1      -2.042  89.340 116.103  0.00  0.00    -0.090 HD
ATOM     20  H   LIG d   1      -3.356  90.140 115.580  0.00  0.00    -0.090 HD
ATOM     21  H   LIG d   1      -3.482  88.569 116.027  0.00  0.00    -0.090 HD
ENDBRANCH   5  18
BRANCH   3  22
ATOM     22  C   LIG d   1      -1.158  90.886 120.382  0.00  0.00     0.382 C 
ATOM     23  O   LIG d   1      -0.061  91.428 120.105  0.00  0.00    -0.241 OA
ATOM     24  O   LIG d   1      -1.277  90.252 121.447  0.00  0.00    -0.241 OA
ENDBRANCH   3  22
TORSDOF 7
ENDMDL
