MODEL 1
REMARK VINA RESULT:      -6.3      0.000      0.000
REMARK  7 active torsions:
REMARK  status: ('A' for Active; 'I' for Inactive)
REMARK    1  A    between atoms: C_2  and  C_3 
REMARK    2  A    between atoms: C_3  and  O_6 
REMARK    3  A    between atoms: C_3  and  C_4 
REMARK    4  A    between atoms: C_7  and  O_6 
REMARK    5  A    between atoms: C_9  and  C_10 
REMARK    6  A    between atoms: N_15  and  C_14 
REMARK    7  A    between atoms: N_20  and  C_19 
REMARK       I    between atoms: C_22  and  N_20 
ROOT
ATOM      1  C   LIG d   1      -7.599  76.797 117.573  0.00  0.00     0.161 C 
ATOM      2  C   LIG d   1      -8.860  77.293 117.943  0.00  0.00     0.016 C 
ATOM      3  C   LIG d   1      -9.099  78.649 118.264  0.00  0.00     0.038 C 
ATOM      4  C   LIG d   1      -8.118  79.636 118.090  0.00  0.00     0.028 C 
ATOM      5  C   LIG d   1      -6.694  79.102 118.203  0.00  0.00    -0.047 C 
ATOM      6  C   LIG d   1      -6.542  77.879 117.270  0.00  0.00     0.091 C 
ENDROOT
BRANCH   1   7
ATOM      7  O   LIG d   1      -7.736  75.902 116.452  0.00  0.00    -0.368 OA
BRANCH   7   8
ATOM      8  C   LIG d   1      -7.842  74.492 116.771  0.00  0.00     0.119 C 
BRANCH   8   9
ATOM      9  C   LIG d   1      -6.934  73.726 115.790  0.00  0.00     0.028 C 
ATOM     10  C   LIG d   1      -6.050  74.665 114.953  0.00  0.00     0.006 C 
ENDBRANCH   8   9
BRANCH   8  11
ATOM     11  C   LIG d   1      -9.257  73.967 116.507  0.00  0.00     0.028 C 
ATOM     12  C   LIG d   1      -9.395  72.462 116.785  0.00  0.00     0.006 C 
ENDBRANCH   8  11
ENDBRANCH   7   8
ENDBRANCH   1   7
BRANCH   6  13
ATOM     13  N   LIG d   1      -5.203  77.244 117.382  0.00  0.00    -0.311 N 
ATOM     14  C   LIG d   1      -4.157  77.601 116.639  0.00  0.00     0.210 C 
ATOM     15  C   LIG d   1      -2.875  76.805 116.901  0.00  0.00     0.109 C 
ATOM     16  O   LIG d   1      -4.161  78.524 115.811  0.00  0.00    -0.276 OA
ATOM     17  H   LIG d   1      -5.102  76.506 118.052  0.00  0.00     0.149 HD
ENDBRANCH   6  13
BRANCH   5  18
ATOM     18  N   LIG d   1      -5.776  80.206 117.864  0.00  0.00     0.381 N 
ATOM     19  H   LIG d   1      -4.968  79.843 117.398  0.00  0.00    -0.090 HD
ATOM     20  H   LIG d   1      -5.476  80.652 118.713  0.00  0.00    -0.090 HD
ATOM     21  H   LIG d   1      -6.238  80.866 117.279  0.00  0.00    -0.090 HD
ENDBRANCH   5  18
BRANCH   3  22
ATOM     22  C   LIG d   1     -10.320  79.022 118.804  0.00  0.00     0.382 C 
ATOM     23  O   LIG d   1     -11.149  78.144 119.147  0.00  0.00    -0.241 OA
ATOM     24  O   LIG d   1     -10.622  80.226 118.912  0.00  0.00    -0.241 OA
ENDBRANCH   3  22
TORSDOF 7
ENDMDL
MODEL 2
REMARK VINA RESULT:      -5.6      2.476      5.942
REMARK  7 active torsions:
REMARK  status: ('A' for Active; 'I' for Inactive)
REMARK    1  A    between atoms: C_2  and  C_3 
REMARK    2  A    between atoms: C_3  and  O_6 
REMARK    3  A    between atoms: C_3  and  C_4 
REMARK    4  A    between atoms: C_7  and  O_6 
REMARK    5  A    between atoms: C_9  and  C_10 
REMARK    6  A    between atoms: N_15  and  C_14 
REMARK    7  A    between atoms: N_20  and  C_19 
REMARK       I    between atoms: C_22  and  N_20 
ROOT
ATOM      1  C   LIG d   1      -8.095  77.595 117.919  0.00  0.00     0.161 C 
ATOM      2  C   LIG d   1      -7.897  76.405 117.200  0.00  0.00     0.016 C 
ATOM      3  C   LIG d   1      -8.920  75.459 116.964  0.00  0.00     0.038 C 
ATOM      4  C   LIG d   1     -10.258  75.713 117.304  0.00  0.00     0.028 C 
ATOM      5  C   LIG d   1     -10.412  76.674 118.477  0.00  0.00    -0.047 C 
ATOM      6  C   LIG d   1      -9.572  77.942 118.201  0.00  0.00     0.091 C 
ENDROOT
BRANCH   1   7
ATOM      7  O   LIG d   1      -7.444  78.689 117.242  0.00  0.00    -0.368 OA
BRANCH   7   8
ATOM      8  C   LIG d   1      -6.395  79.362 117.980  0.00  0.00     0.119 C 
BRANCH   8   9
ATOM      9  C   LIG d   1      -6.735  80.865 118.001  0.00  0.00     0.028 C 
ATOM     10  C   LIG d   1      -6.361  81.532 119.335  0.00  0.00     0.006 C 
ENDBRANCH   8   9
BRANCH   8  11
ATOM     11  C   LIG d   1      -5.050  79.261 117.255  0.00  0.00     0.028 C 
ATOM     12  C   LIG d   1      -4.414  77.866 117.372  0.00  0.00     0.006 C 
ENDBRANCH   8  11
ENDBRANCH   7   8
ENDBRANCH   1   7
BRANCH   6  13
ATOM     13  N   LIG d   1      -9.599  78.899 119.338  0.00  0.00    -0.311 N 
ATOM     14  C   LIG d   1     -10.048  80.149 119.233  0.00  0.00     0.210 C 
ATOM     15  C   LIG d   1      -9.970  80.974 120.521  0.00  0.00     0.109 C 
ATOM     16  O   LIG d   1     -10.533  80.642 118.204  0.00  0.00    -0.276 OA
ATOM     17  H   LIG d   1      -9.253  78.572 120.218  0.00  0.00     0.149 HD
ENDBRANCH   6  13
BRANCH   5  18
ATOM     18  N   LIG d   1     -11.851  76.957 118.635  0.00  0.00     0.381 N 
ATOM     19  H   LIG d   1     -11.986  77.630 119.363  0.00  0.00    -0.090 HD
ATOM     20  H   LIG d   1     -12.322  76.109 118.898  0.00  0.00    -0.090 HD
ATOM     21  H   LIG d   1     -12.226  77.303 117.780  0.00  0.00    -0.090 HD
ENDBRANCH   5  18
BRANCH   3  22
ATOM     22  C   LIG d   1      -8.603  74.225 116.417  0.00  0.00     0.382 C 
ATOM     23  O   LIG d   1      -7.521  74.072 115.800  0.00  0.00    -0.241 OA
ATOM     24  O   LIG d   1      -9.405  73.274 116.494  0.00  0.00    -0.241 OA
ENDBRANCH   3  22
TORSDOF 7
ENDMDL
MODEL 3
REMARK VINA RESULT:      -5.6      1.867      4.912
REMARK  7 active torsions:
REMARK  status: ('A' for Active; 'I' for Inactive)
REMARK    1  A    between atoms: C_2  and  C_3 
REMARK    2  A    between atoms: C_3  and  O_6 
REMARK    3  A    between atoms: C_3  and  C_4 
REMARK    4  A    between atoms: C_7  and  O_6 
REMARK    5  A    between atoms: C_9  and  C_10 
REMARK    6  A    between atoms: N_15  and  C_14 
REMARK    7  A    between atoms: N_20  and  C_19 
REMARK       I    between atoms: C_22  and  N_20 
ROOT
ATOM      1  C   LIG d   1      -6.868  76.777 116.606  0.00  0.00     0.161 C 
ATOM      2  C   LIG d   1      -5.798  76.117 115.978  0.00  0.00     0.016 C 
ATOM      3  C   LIG d   1      -4.456  76.554 116.064  0.00  0.00     0.038 C 
ATOM      4  C   LIG d   1      -4.071  77.602 116.913  0.00  0.00     0.028 C 
ATOM      5  C   LIG d   1      -5.183  78.613 117.171  0.00  0.00    -0.047 C 
ATOM      6  C   LIG d   1      -6.452  77.857 117.626  0.00  0.00     0.091 C 
ENDROOT
BRANCH   1   7
ATOM      7  O   LIG d   1      -7.742  75.812 117.225  0.00  0.00    -0.368 OA
BRANCH   7   8
ATOM      8  C   LIG d   1      -8.601  75.064 116.330  0.00  0.00     0.119 C 
BRANCH   8   9
ATOM      9  C   LIG d   1     -10.034  75.140 116.892  0.00  0.00     0.028 C 
ATOM     10  C   LIG d   1     -10.220  76.316 117.865  0.00  0.00     0.006 C 
ENDBRANCH   8   9
BRANCH   8  11
ATOM     11  C   LIG d   1      -8.244  73.574 116.331  0.00  0.00     0.028 C 
ATOM     12  C   LIG d   1      -9.437  72.676 116.695  0.00  0.00     0.006 C 
ENDBRANCH   8  11
ENDBRANCH   7   8
ENDBRANCH   1   7
BRANCH   6  13
ATOM     13  N   LIG d   1      -7.614  78.764 117.820  0.00  0.00    -0.311 N 
ATOM     14  C   LIG d   1      -7.897  79.355 118.979  0.00  0.00     0.210 C 
ATOM     15  C   LIG d   1      -9.151  80.234 118.966  0.00  0.00     0.109 C 
ATOM     16  O   LIG d   1      -7.211  79.259 120.008  0.00  0.00    -0.276 OA
ATOM     17  H   LIG d   1      -8.206  78.922 117.028  0.00  0.00     0.149 HD
ENDBRANCH   6  13
BRANCH   5  18
ATOM     18  N   LIG d   1      -4.689  79.571 118.177  0.00  0.00     0.381 N 
ATOM     19  H   LIG d   1      -4.601  80.479 117.766  0.00  0.00    -0.090 HD
ATOM     20  H   LIG d   1      -3.780  79.276 118.489  0.00  0.00    -0.090 HD
ATOM     21  H   LIG d   1      -5.317  79.609 118.950  0.00  0.00    -0.090 HD
ENDBRANCH   5  18
BRANCH   3  22
ATOM     22  C   LIG d   1      -3.489  75.965 115.263  0.00  0.00     0.382 C 
ATOM     23  O   LIG d   1      -3.672  74.812 114.805  0.00  0.00    -0.241 OA
ATOM     24  O   LIG d   1      -2.417  76.555 115.030  0.00  0.00    -0.241 OA
ENDBRANCH   3  22
TORSDOF 7
ENDMDL
MODEL 4
REMARK VINA RESULT:      -5.5     14.004     16.455
REMARK  7 active torsions:
REMARK  status: ('A' for Active; 'I' for Inactive)
REMARK    1  A    between atoms: C_2  and  C_3 
REMARK    2  A    between atoms: C_3  and  O_6 
REMARK    3  A    between atoms: C_3  and  C_4 
REMARK    4  A    between atoms: C_7  and  O_6 
REMARK    5  A    between atoms: C_9  and  C_10 
REMARK    6  A    between atoms: N_15  and  C_14 
REMARK    7  A    between atoms: N_20  and  C_19 
REMARK       I    between atoms: C_22  and  N_20 
ROOT
ATOM      1  C   LIG d   1      -5.244  92.266 118.173  0.00  0.00     0.161 C 
ATOM      2  C   LIG d   1      -5.553  91.454 117.068  0.00  0.00     0.016 C 
ATOM      3  C   LIG d   1      -6.701  91.639 116.264  0.00  0.00     0.038 C 
ATOM      4  C   LIG d   1      -7.545  92.748 116.421  0.00  0.00     0.028 C 
ATOM      5  C   LIG d   1      -7.552  93.309 117.839  0.00  0.00    -0.047 C 
ATOM      6  C   LIG d   1      -6.094  93.548 118.291  0.00  0.00     0.091 C 
ENDROOT
BRANCH   1   7
ATOM      7  O   LIG d   1      -3.840  92.594 118.161  0.00  0.00    -0.368 OA
BRANCH   7   8
ATOM      8  C   LIG d   1      -3.030  91.965 119.184  0.00  0.00     0.119 C 
BRANCH   8   9
ATOM      9  C   LIG d   1      -2.086  93.042 119.754  0.00  0.00     0.028 C 
ATOM     10  C   LIG d   1      -2.305  94.418 119.102  0.00  0.00     0.006 C 
ENDBRANCH   8   9
BRANCH   8  11
ATOM     11  C   LIG d   1      -2.111  90.896 118.587  0.00  0.00     0.028 C 
ATOM     12  C   LIG d   1      -2.728  89.489 118.628  0.00  0.00     0.006 C 
ENDBRANCH   8  11
ENDBRANCH   7   8
ENDBRANCH   1   7
BRANCH   6  13
ATOM     13  N   LIG d   1      -6.007  94.018 119.698  0.00  0.00    -0.311 N 
ATOM     14  C   LIG d   1      -5.976  95.304 120.042  0.00  0.00     0.210 C 
ATOM     15  C   LIG d   1      -5.865  95.569 121.546  0.00  0.00     0.109 C 
ATOM     16  O   LIG d   1      -6.064  96.251 119.245  0.00  0.00    -0.276 OA
ATOM     17  H   LIG d   1      -5.963  93.316 120.411  0.00  0.00     0.149 HD
ENDBRANCH   6  13
BRANCH   5  18
ATOM     18  N   LIG d   1      -8.363  94.541 117.826  0.00  0.00     0.381 N 
ATOM     19  H   LIG d   1      -8.051  95.145 117.092  0.00  0.00    -0.090 HD
ATOM     20  H   LIG d   1      -8.241  95.019 118.702  0.00  0.00    -0.090 HD
ATOM     21  H   LIG d   1      -9.325  94.315 117.694  0.00  0.00    -0.090 HD
ENDBRANCH   5  18
BRANCH   3  22
ATOM     22  C   LIG d   1      -7.036  90.684 115.316  0.00  0.00     0.382 C 
ATOM     23  O   LIG d   1      -6.173  89.864 114.920  0.00  0.00    -0.241 OA
ATOM     24  O   LIG d   1      -8.178  90.661 114.820  0.00  0.00    -0.241 OA
ENDBRANCH   3  22
TORSDOF 7
ENDMDL
MODEL 5
REMARK VINA RESULT:      -5.3      2.009      4.847
REMARK  7 active torsions:
REMARK  status: ('A' for Active; 'I' for Inactive)
REMARK    1  A    between atoms: C_2  and  C_3 
REMARK    2  A    between atoms: C_3  and  O_6 
REMARK    3  A    between atoms: C_3  and  C_4 
REMARK    4  A    between atoms: C_7  and  O_6 
REMARK    5  A    between atoms: C_9  and  C_10 
REMARK    6  A    between atoms: N_15  and  C_14 
REMARK    7  A    between atoms: N_20  and  C_19 
REMARK       I    between atoms: C_22  and  N_20 
ROOT
ATOM      1  C   LIG d   1      -6.383  76.901 117.028  0.00  0.00     0.161 C 
ATOM      2  C   LIG d   1      -6.909  75.672 116.599  0.00  0.00     0.016 C 
ATOM      3  C   LIG d   1      -8.270  75.315 116.743  0.00  0.00     0.038 C 
ATOM      4  C   LIG d   1      -9.233  76.230 117.192  0.00  0.00     0.028 C 
ATOM      5  C   LIG d   1      -8.663  77.309 118.107  0.00  0.00    -0.047 C 
ATOM      6  C   LIG d   1      -7.440  77.956 117.419  0.00  0.00     0.091 C 
ENDROOT
BRANCH   1   7
ATOM      7  O   LIG d   1      -5.495  77.430 116.023  0.00  0.00    -0.368 OA
BRANCH   7   8
ATOM      8  C   LIG d   1      -4.080  77.205 116.241  0.00  0.00     0.119 C 
BRANCH   8   9
ATOM      9  C   LIG d   1      -3.372  78.569 116.131  0.00  0.00     0.028 C 
ATOM     10  C   LIG d   1      -3.281  79.293 117.485  0.00  0.00     0.006 C 
ENDBRANCH   8   9
BRANCH   8  11
ATOM     11  C   LIG d   1      -3.476  76.344 115.128  0.00  0.00     0.028 C 
ATOM     12  C   LIG d   1      -2.636  75.175 115.668  0.00  0.00     0.006 C 
ENDBRANCH   8  11
ENDBRANCH   7   8
ENDBRANCH   1   7
BRANCH   6  13
ATOM     13  N   LIG d   1      -6.771  78.964 118.282  0.00  0.00    -0.311 N 
ATOM     14  C   LIG d   1      -7.049  80.266 118.238  0.00  0.00     0.210 C 
ATOM     15  C   LIG d   1      -6.230  81.135 119.198  0.00  0.00     0.109 C 
ATOM     16  O   LIG d   1      -7.918  80.780 117.518  0.00  0.00    -0.276 OA
ATOM     17  H   LIG d   1      -6.074  78.630 118.918  0.00  0.00     0.149 HD
ENDBRANCH   6  13
BRANCH   5  18
ATOM     18  N   LIG d   1      -9.745  78.272 118.388  0.00  0.00     0.381 N 
ATOM     19  H   LIG d   1      -9.712  78.547 119.349  0.00  0.00    -0.090 HD
ATOM     20  H   LIG d   1     -10.629  77.826 118.218  0.00  0.00    -0.090 HD
ATOM     21  H   LIG d   1      -9.649  79.072 117.802  0.00  0.00    -0.090 HD
ENDBRANCH   5  18
BRANCH   3  22
ATOM     22  C   LIG d   1      -8.671  74.015 116.474  0.00  0.00     0.382 C 
ATOM     23  O   LIG d   1      -9.836  73.646 116.761  0.00  0.00    -0.241 OA
ATOM     24  O   LIG d   1      -7.870  73.194 115.987  0.00  0.00    -0.241 OA
ENDBRANCH   3  22
TORSDOF 7
ENDMDL
MODEL 6
REMARK VINA RESULT:      -5.1      1.976      4.388
REMARK  7 active torsions:
REMARK  status: ('A' for Active; 'I' for Inactive)
REMARK    1  A    between atoms: C_2  and  C_3 
REMARK    2  A    between atoms: C_3  and  O_6 
REMARK    3  A    between atoms: C_3  and  C_4 
REMARK    4  A    between atoms: C_7  and  O_6 
REMARK    5  A    between atoms: C_9  and  C_10 
REMARK    6  A    between atoms: N_15  and  C_14 
REMARK    7  A    between atoms: N_20  and  C_19 
REMARK       I    between atoms: C_22  and  N_20 
ROOT
ATOM      1  C   LIG d   1      -7.263  77.733 117.588  0.00  0.00     0.161 C 
ATOM      2  C   LIG d   1      -8.233  78.483 118.274  0.00  0.00     0.016 C 
ATOM      3  C   LIG d   1      -9.568  78.052 118.450  0.00  0.00     0.038 C 
ATOM      4  C   LIG d   1      -9.987  76.765 118.081  0.00  0.00     0.028 C 
ATOM      5  C   LIG d   1      -9.176  76.170 116.935  0.00  0.00    -0.047 C 
ATOM      6  C   LIG d   1      -7.672  76.278 117.275  0.00  0.00     0.091 C 
ENDROOT
BRANCH   1   7
ATOM      7  O   LIG d   1      -6.021  77.758 118.318  0.00  0.00    -0.368 OA
BRANCH   7   8
ATOM      8  C   LIG d   1      -4.995  78.640 117.799  0.00  0.00     0.119 C 
BRANCH   8   9
ATOM      9  C   LIG d   1      -3.753  77.779 117.498  0.00  0.00     0.028 C 
ATOM     10  C   LIG d   1      -3.655  77.387 116.014  0.00  0.00     0.006 C 
ENDBRANCH   8   9
BRANCH   8  11
ATOM     11  C   LIG d   1      -4.541  79.650 118.858  0.00  0.00     0.028 C 
ATOM     12  C   LIG d   1      -5.453  80.885 118.932  0.00  0.00     0.006 C 
ENDBRANCH   8  11
ENDBRANCH   7   8
ENDBRANCH   1   7
BRANCH   6  13
ATOM     13  N   LIG d   1      -6.805  75.795 116.170  0.00  0.00    -0.311 N 
ATOM     14  C   LIG d   1      -6.480  74.515 115.999  0.00  0.00     0.210 C 
ATOM     15  C   LIG d   1      -5.558  74.235 114.808  0.00  0.00     0.109 C 
ATOM     16  O   LIG d   1      -6.893  73.580 116.701  0.00  0.00    -0.276 OA
ATOM     17  H   LIG d   1      -6.450  76.483 115.534  0.00  0.00     0.149 HD
ENDBRANCH   6  13
BRANCH   5  18
ATOM     18  N   LIG d   1      -9.627  74.778 116.746  0.00  0.00     0.381 N 
ATOM     19  H   LIG d   1      -9.210  74.396 115.920  0.00  0.00    -0.090 HD
ATOM     20  H   LIG d   1     -10.625  74.773 116.626  0.00  0.00    -0.090 HD
ATOM     21  H   LIG d   1      -9.378  74.228 117.538  0.00  0.00    -0.090 HD
ENDBRANCH   5  18
BRANCH   3  22
ATOM     22  C   LIG d   1     -10.511  78.929 118.966  0.00  0.00     0.382 C 
ATOM     23  O   LIG d   1     -11.470  78.490 119.646  0.00  0.00    -0.241 OA
ATOM     24  O   LIG d   1     -10.438  80.148 118.724  0.00  0.00    -0.241 OA
ENDBRANCH   3  22
TORSDOF 7
ENDMDL
MODEL 7
REMARK VINA RESULT:      -5.1      2.175      4.853
REMARK  7 active torsions:
REMARK  status: ('A' for Active; 'I' for Inactive)
REMARK    1  A    between atoms: C_2  and  C_3 
REMARK    2  A    between atoms: C_3  and  O_6 
REMARK    3  A    between atoms: C_3  and  C_4 
REMARK    4  A    between atoms: C_7  and  O_6 
REMARK    5  A    between atoms: C_9  and  C_10 
REMARK    6  A    between atoms: N_15  and  C_14 
REMARK    7  A    between atoms: N_20  and  C_19 
REMARK       I    between atoms: C_22  and  N_20 
ROOT
ATOM      1  C   LIG d   1      -6.846  77.012 116.763  0.00  0.00     0.161 C 
ATOM      2  C   LIG d   1      -8.061  76.356 117.022  0.00  0.00     0.016 C 
ATOM      3  C   LIG d   1      -8.343  75.040 116.587  0.00  0.00     0.038 C 
ATOM      4  C   LIG d   1      -7.365  74.230 115.992  0.00  0.00     0.028 C 
ATOM      5  C   LIG d   1      -6.287  75.022 115.260  0.00  0.00    -0.047 C 
ATOM      6  C   LIG d   1      -5.727  76.104 116.211  0.00  0.00     0.091 C 
ENDROOT
BRANCH   1   7
ATOM      7  O   LIG d   1      -6.398  77.695 117.950  0.00  0.00    -0.368 OA
BRANCH   7   8
ATOM      8  C   LIG d   1      -6.460  79.142 117.914  0.00  0.00     0.119 C 
BRANCH   8   9
ATOM      9  C   LIG d   1      -5.082  79.675 118.351  0.00  0.00     0.028 C 
ATOM     10  C   LIG d   1      -5.180  81.022 119.089  0.00  0.00     0.006 C 
ENDBRANCH   8   9
BRANCH   8  11
ATOM     11  C   LIG d   1      -7.451  79.684 118.948  0.00  0.00     0.028 C 
ATOM     12  C   LIG d   1      -8.890  79.755 118.413  0.00  0.00     0.006 C 
ENDBRANCH   8  11
ENDBRANCH   7   8
ENDBRANCH   1   7
BRANCH   6  13
ATOM     13  N   LIG d   1      -4.725  76.979 115.547  0.00  0.00    -0.311 N 
ATOM     14  C   LIG d   1      -3.411  76.777 115.622  0.00  0.00     0.210 C 
ATOM     15  C   LIG d   1      -2.555  77.808 114.880  0.00  0.00     0.109 C 
ATOM     16  O   LIG d   1      -2.874  75.822 116.204  0.00  0.00    -0.276 OA
ATOM     17  H   LIG d   1      -5.075  77.760 115.027  0.00  0.00     0.149 HD
ENDBRANCH   6  13
BRANCH   5  18
ATOM     18  N   LIG d   1      -5.261  74.064 114.806  0.00  0.00     0.381 N 
ATOM     19  H   LIG d   1      -4.811  74.414 113.984  0.00  0.00    -0.090 HD
ATOM     20  H   LIG d   1      -5.708  73.195 114.575  0.00  0.00    -0.090 HD
ATOM     21  H   LIG d   1      -4.588  73.919 115.526  0.00  0.00    -0.090 HD
ENDBRANCH   5  18
BRANCH   3  22
ATOM     22  C   LIG d   1      -9.629  74.536 116.713  0.00  0.00     0.382 C 
ATOM     23  O   LIG d   1      -9.852  73.323 116.482  0.00  0.00    -0.241 OA
ATOM     24  O   LIG d   1     -10.576  75.288 117.011  0.00  0.00    -0.241 OA
ENDBRANCH   3  22
TORSDOF 7
ENDMDL
MODEL 8
REMARK VINA RESULT:      -4.9      2.188      5.511
REMARK  7 active torsions:
REMARK  status: ('A' for Active; 'I' for Inactive)
REMARK    1  A    between atoms: C_2  and  C_3 
REMARK    2  A    between atoms: C_3  and  O_6 
REMARK    3  A    between atoms: C_3  and  C_4 
REMARK    4  A    between atoms: C_7  and  O_6 
REMARK    5  A    between atoms: C_9  and  C_10 
REMARK    6  A    between atoms: N_15  and  C_14 
REMARK    7  A    between atoms: N_20  and  C_19 
REMARK       I    between atoms: C_22  and  N_20 
ROOT
ATOM      1  C   LIG d   1      -5.752  77.516 117.107  0.00  0.00     0.161 C 
ATOM      2  C   LIG d   1      -5.753  76.328 116.358  0.00  0.00     0.016 C 
ATOM      3  C   LIG d   1      -6.906  75.534 116.160  0.00  0.00     0.038 C 
ATOM      4  C   LIG d   1      -8.178  75.957 116.574  0.00  0.00     0.028 C 
ATOM      5  C   LIG d   1      -8.142  76.901 117.771  0.00  0.00    -0.047 C 
ATOM      6  C   LIG d   1      -7.153  78.051 117.474  0.00  0.00     0.091 C 
ENDROOT
BRANCH   1   7
ATOM      7  O   LIG d   1      -4.994  78.529 116.417  0.00  0.00    -0.368 OA
BRANCH   7   8
ATOM      8  C   LIG d   1      -3.750  78.930 117.041  0.00  0.00     0.119 C 
BRANCH   8   9
ATOM      9  C   LIG d   1      -2.601  78.453 116.133  0.00  0.00     0.028 C 
ATOM     10  C   LIG d   1      -1.991  77.123 116.608  0.00  0.00     0.006 C 
ENDBRANCH   8   9
BRANCH   8  11
ATOM     11  C   LIG d   1      -3.538  78.210 118.376  0.00  0.00     0.028 C 
ATOM     12  C   LIG d   1      -3.508  79.172 119.574  0.00  0.00     0.006 C 
ENDBRANCH   8  11
ENDBRANCH   7   8
ENDBRANCH   1   7
BRANCH   6  13
ATOM     13  N   LIG d   1      -6.994  78.974 118.627  0.00  0.00    -0.311 N 
ATOM     14  C   LIG d   1      -7.214  80.286 118.552  0.00  0.00     0.210 C 
ATOM     15  C   LIG d   1      -6.972  81.058 119.852  0.00  0.00     0.109 C 
ATOM     16  O   LIG d   1      -7.617  80.878 117.540  0.00  0.00    -0.276 OA
ATOM     17  H   LIG d   1      -6.699  78.573 119.496  0.00  0.00     0.149 HD
ENDBRANCH   6  13
BRANCH   5  18
ATOM     18  N   LIG d   1      -9.520  77.371 118.010  0.00  0.00     0.381 N 
ATOM     19  H   LIG d   1      -9.787  78.014 117.292  0.00  0.00    -0.090 HD
ATOM     20  H   LIG d   1      -9.551  77.851 118.892  0.00  0.00    -0.090 HD
ATOM     21  H   LIG d   1     -10.147  76.596 118.023  0.00  0.00    -0.090 HD
ENDBRANCH   5  18
BRANCH   3  22
ATOM     22  C   LIG d   1      -6.787  74.282 115.575  0.00  0.00     0.382 C 
ATOM     23  O   LIG d   1      -5.819  74.036 114.814  0.00  0.00    -0.241 OA
ATOM     24  O   LIG d   1      -7.657  73.411 115.762  0.00  0.00    -0.241 OA
ENDBRANCH   3  22
TORSDOF 7
ENDMDL
MODEL 9
REMARK VINA RESULT:      -4.8      1.712      2.511
REMARK  7 active torsions:
REMARK  status: ('A' for Active; 'I' for Inactive)
REMARK    1  A    between atoms: C_2  and  C_3 
REMARK    2  A    between atoms: C_3  and  O_6 
REMARK    3  A    between atoms: C_3  and  C_4 
REMARK    4  A    between atoms: C_7  and  O_6 
REMARK    5  A    between atoms: C_9  and  C_10 
REMARK    6  A    between atoms: N_15  and  C_14 
REMARK    7  A    between atoms: N_20  and  C_19 
REMARK       I    between atoms: C_22  and  N_20 
ROOT
ATOM      1  C   LIG d   1      -6.462  77.569 117.272  0.00  0.00     0.161 C 
ATOM      2  C   LIG d   1      -7.816  77.254 117.478  0.00  0.00     0.016 C 
ATOM      3  C   LIG d   1      -8.737  78.138 118.087  0.00  0.00     0.038 C 
ATOM      4  C   LIG d   1      -8.399  79.464 118.395  0.00  0.00     0.028 C 
ATOM      5  C   LIG d   1      -6.911  79.662 118.667  0.00  0.00    -0.047 C 
ATOM      6  C   LIG d   1      -6.102  79.052 117.500  0.00  0.00     0.091 C 
ENDROOT
BRANCH   1   7
ATOM      7  O   LIG d   1      -6.060  77.154 115.951  0.00  0.00    -0.368 OA
BRANCH   7   8
ATOM      8  C   LIG d   1      -5.281  75.934 115.877  0.00  0.00     0.119 C 
BRANCH   8   9
ATOM      9  C   LIG d   1      -3.940  76.282 115.201  0.00  0.00     0.028 C 
ATOM     10  C   LIG d   1      -2.775  75.434 115.738  0.00  0.00     0.006 C 
ENDBRANCH   8   9
BRANCH   8  11
ATOM     11  C   LIG d   1      -5.944  74.905 114.957  0.00  0.00     0.028 C 
ATOM     12  C   LIG d   1      -6.612  73.758 115.731  0.00  0.00     0.006 C 
ENDBRANCH   8  11
ENDBRANCH   7   8
ENDBRANCH   1   7
BRANCH   6  13
ATOM     13  N   LIG d   1      -4.635  79.128 117.727  0.00  0.00    -0.311 N 
ATOM     14  C   LIG d   1      -4.037  78.661 118.822  0.00  0.00     0.210 C 
ATOM     15  C   LIG d   1      -2.519  78.859 118.864  0.00  0.00     0.109 C 
ATOM     16  O   LIG d   1      -4.616  78.072 119.747  0.00  0.00    -0.276 OA
ATOM     17  H   LIG d   1      -4.085  79.563 117.012  0.00  0.00     0.149 HD
ENDBRANCH   6  13
BRANCH   5  18
ATOM     18  N   LIG d   1      -6.679  81.109 118.839  0.00  0.00     0.381 N 
ATOM     19  H   LIG d   1      -5.698  81.286 118.930  0.00  0.00    -0.090 HD
ATOM     20  H   LIG d   1      -7.134  81.414 119.681  0.00  0.00    -0.090 HD
ATOM     21  H   LIG d   1      -7.042  81.607 118.056  0.00  0.00    -0.090 HD
ENDBRANCH   5  18
BRANCH   3  22
ATOM     22  C   LIG d   1     -10.001  77.684 118.429  0.00  0.00     0.382 C 
ATOM     23  O   LIG d   1     -10.838  78.475 118.928  0.00  0.00    -0.241 OA
ATOM     24  O   LIG d   1     -10.301  76.483 118.287  0.00  0.00    -0.241 OA
ENDBRANCH   3  22
TORSDOF 7
ENDMDL
