MODEL 1
REMARK VINA RESULT:      -5.8      0.000      0.000
REMARK  7 active torsions:
REMARK  status: ('A' for Active; 'I' for Inactive)
REMARK    1  A    between atoms: C_2  and  C_3 
REMARK    2  A    between atoms: C_3  and  O_6 
REMARK    3  A    between atoms: C_3  and  C_4 
REMARK    4  A    between atoms: C_7  and  O_6 
REMARK    5  A    between atoms: C_9  and  C_10 
REMARK    6  A    between atoms: N_15  and  C_14 
REMARK    7  A    between atoms: N_20  and  C_19 
REMARK       I    between atoms: C_22  and  N_20 
ROOT
ATOM      1  C   LIG d   1      -5.751  92.860 117.442  0.00  0.00     0.161 C 
ATOM      2  C   LIG d   1      -6.821  91.996 117.153  0.00  0.00     0.016 C 
ATOM      3  C   LIG d   1      -6.648  90.653 116.746  0.00  0.00     0.038 C 
ATOM      4  C   LIG d   1      -5.389  90.034 116.746  0.00  0.00     0.028 C 
ATOM      5  C   LIG d   1      -4.234  91.010 116.544  0.00  0.00    -0.047 C 
ATOM      6  C   LIG d   1      -4.375  92.171 117.555  0.00  0.00     0.091 C 
ENDROOT
BRANCH   1   7
ATOM      7  O   LIG d   1      -6.038  93.607 118.640  0.00  0.00    -0.368 OA
BRANCH   7   8
ATOM      8  C   LIG d   1      -6.937  94.733 118.490  0.00  0.00     0.119 C 
BRANCH   8   9
ATOM      9  C   LIG d   1      -6.159  96.003 118.884  0.00  0.00     0.028 C 
ATOM     10  C   LIG d   1      -4.886  95.687 119.687  0.00  0.00     0.006 C 
ENDBRANCH   8   9
BRANCH   8  11
ATOM     11  C   LIG d   1      -8.104  94.650 119.479  0.00  0.00     0.028 C 
ATOM     12  C   LIG d   1      -9.241  95.628 119.143  0.00  0.00     0.006 C 
ENDBRANCH   8  11
ENDBRANCH   7   8
ENDBRANCH   1   7
BRANCH   6  13
ATOM     13  N   LIG d   1      -3.333  93.214 117.370  0.00  0.00    -0.311 N 
ATOM     14  C   LIG d   1      -2.205  93.256 118.076  0.00  0.00     0.210 C 
ATOM     15  C   LIG d   1      -1.275  94.427 117.740  0.00  0.00     0.109 C 
ATOM     16  O   LIG d   1      -1.871  92.418 118.926  0.00  0.00    -0.276 OA
ATOM     17  H   LIG d   1      -3.509  93.916 116.678  0.00  0.00     0.149 HD
ENDBRANCH   6  13
BRANCH   5  18
ATOM     18  N   LIG d   1      -2.978  90.253 116.704  0.00  0.00     0.381 N 
ATOM     19  H   LIG d   1      -2.821  89.684 115.896  0.00  0.00    -0.090 HD
ATOM     20  H   LIG d   1      -3.061  89.651 117.504  0.00  0.00    -0.090 HD
ATOM     21  H   LIG d   1      -2.215  90.882 116.829  0.00  0.00    -0.090 HD
ENDBRANCH   5  18
BRANCH   3  22
ATOM     22  C   LIG d   1      -7.739  89.926 116.294  0.00  0.00     0.382 C 
ATOM     23  O   LIG d   1      -7.990  88.800 116.788  0.00  0.00    -0.241 OA
ATOM     24  O   LIG d   1      -8.449  90.362 115.369  0.00  0.00    -0.241 OA
ENDBRANCH   3  22
TORSDOF 7
ENDMDL
MODEL 2
REMARK VINA RESULT:      -5.4      1.958      4.778
REMARK  7 active torsions:
REMARK  status: ('A' for Active; 'I' for Inactive)
REMARK    1  A    between atoms: C_2  and  C_3 
REMARK    2  A    between atoms: C_3  and  O_6 
REMARK    3  A    between atoms: C_3  and  C_4 
REMARK    4  A    between atoms: C_7  and  O_6 
REMARK    5  A    between atoms: C_9  and  C_10 
REMARK    6  A    between atoms: N_15  and  C_14 
REMARK    7  A    between atoms: N_20  and  C_19 
REMARK       I    between atoms: C_22  and  N_20 
ROOT
ATOM      1  C   LIG d   1      -5.946  92.872 117.537  0.00  0.00     0.161 C 
ATOM      2  C   LIG d   1      -7.223  93.412 117.762  0.00  0.00     0.016 C 
ATOM      3  C   LIG d   1      -7.502  94.350 118.783  0.00  0.00     0.038 C 
ATOM      4  C   LIG d   1      -6.485  94.930 119.555  0.00  0.00     0.028 C 
ATOM      5  C   LIG d   1      -5.254  94.041 119.700  0.00  0.00    -0.047 C 
ATOM      6  C   LIG d   1      -4.803  93.576 118.297  0.00  0.00     0.091 C 
ENDROOT
BRANCH   1   7
ATOM      7  O   LIG d   1      -5.668  92.850 116.123  0.00  0.00    -0.368 OA
BRANCH   7   8
ATOM      8  C   LIG d   1      -5.738  91.553 115.479  0.00  0.00     0.119 C 
BRANCH   8   9
ATOM      9  C   LIG d   1      -7.166  91.390 114.922  0.00  0.00     0.028 C 
ATOM     10  C   LIG d   1      -7.942  90.261 115.619  0.00  0.00     0.006 C 
ENDBRANCH   8   9
BRANCH   8  11
ATOM     11  C   LIG d   1      -5.567  90.418 116.493  0.00  0.00     0.028 C 
ATOM     12  C   LIG d   1      -4.218  89.695 116.354  0.00  0.00     0.006 C 
ENDBRANCH   8  11
ENDBRANCH   7   8
ENDBRANCH   1   7
BRANCH   6  13
ATOM     13  N   LIG d   1      -3.654  92.634 118.355  0.00  0.00    -0.311 N 
ATOM     14  C   LIG d   1      -2.386  93.015 118.212  0.00  0.00     0.210 C 
ATOM     15  C   LIG d   1      -1.358  91.881 118.285  0.00  0.00     0.109 C 
ATOM     16  O   LIG d   1      -2.012  94.188 118.065  0.00  0.00    -0.276 OA
ATOM     17  H   LIG d   1      -3.865  91.666 118.502  0.00  0.00     0.149 HD
ENDBRANCH   6  13
BRANCH   5  18
ATOM     18  N   LIG d   1      -4.222  94.822 120.410  0.00  0.00     0.381 N 
ATOM     19  H   LIG d   1      -3.313  94.493 120.154  0.00  0.00    -0.090 HD
ATOM     20  H   LIG d   1      -4.338  94.690 121.399  0.00  0.00    -0.090 HD
ATOM     21  H   LIG d   1      -4.310  95.788 120.184  0.00  0.00    -0.090 HD
ENDBRANCH   5  18
BRANCH   3  22
ATOM     22  C   LIG d   1      -8.817  94.688 119.065  0.00  0.00     0.382 C 
ATOM     23  O   LIG d   1      -9.456  94.046 119.933  0.00  0.00    -0.241 OA
ATOM     24  O   LIG d   1      -9.386  95.596 118.431  0.00  0.00    -0.241 OA
ENDBRANCH   3  22
TORSDOF 7
ENDMDL
MODEL 3
REMARK VINA RESULT:      -5.2      2.109      4.459
REMARK  7 active torsions:
REMARK  status: ('A' for Active; 'I' for Inactive)
REMARK    1  A    between atoms: C_2  and  C_3 
REMARK    2  A    between atoms: C_3  and  O_6 
REMARK    3  A    between atoms: C_3  and  C_4 
REMARK    4  A    between atoms: C_7  and  O_6 
REMARK    5  A    between atoms: C_9  and  C_10 
REMARK    6  A    between atoms: N_15  and  C_14 
REMARK    7  A    between atoms: N_20  and  C_19 
REMARK       I    between atoms: C_22  and  N_20 
ROOT
ATOM      1  C   LIG d   1      -4.300  92.458 117.890  0.00  0.00     0.161 C 
ATOM      2  C   LIG d   1      -4.449  91.448 116.925  0.00  0.00     0.016 C 
ATOM      3  C   LIG d   1      -5.661  91.195 116.243  0.00  0.00     0.038 C 
ATOM      4  C   LIG d   1      -6.774  92.040 116.371  0.00  0.00     0.028 C 
ATOM      5  C   LIG d   1      -6.830  92.768 117.710  0.00  0.00    -0.047 C 
ATOM      6  C   LIG d   1      -5.471  93.460 117.962  0.00  0.00     0.091 C 
ENDROOT
BRANCH   1   7
ATOM      7  O   LIG d   1      -3.056  93.155 117.680  0.00  0.00    -0.368 OA
BRANCH   7   8
ATOM      8  C   LIG d   1      -1.890  92.584 118.322  0.00  0.00     0.119 C 
BRANCH   8   9
ATOM      9  C   LIG d   1      -2.217  92.424 119.819  0.00  0.00     0.028 C 
ATOM     10  C   LIG d   1      -2.043  93.737 120.601  0.00  0.00     0.006 C 
ENDBRANCH   8   9
BRANCH   8  11
ATOM     11  C   LIG d   1      -0.698  93.544 118.268  0.00  0.00     0.028 C 
ATOM     12  C   LIG d   1      -0.882  94.665 117.232  0.00  0.00     0.006 C 
ENDBRANCH   8  11
ENDBRANCH   7   8
ENDBRANCH   1   7
BRANCH   6  13
ATOM     13  N   LIG d   1      -5.412  94.126 119.289  0.00  0.00    -0.311 N 
ATOM     14  C   LIG d   1      -5.730  95.405 119.483  0.00  0.00     0.210 C 
ATOM     15  C   LIG d   1      -5.580  95.897 120.926  0.00  0.00     0.109 C 
ATOM     16  O   LIG d   1      -6.152  96.170 118.603  0.00  0.00    -0.276 OA
ATOM     17  H   LIG d   1      -5.109  93.570 120.065  0.00  0.00     0.149 HD
ENDBRANCH   6  13
BRANCH   5  18
ATOM     18  N   LIG d   1      -7.960  93.715 117.654  0.00  0.00     0.381 N 
ATOM     19  H   LIG d   1      -7.879  94.292 116.841  0.00  0.00    -0.090 HD
ATOM     20  H   LIG d   1      -7.927  94.308 118.466  0.00  0.00    -0.090 HD
ATOM     21  H   LIG d   1      -8.822  93.217 117.633  0.00  0.00    -0.090 HD
ENDBRANCH   5  18
BRANCH   3  22
ATOM     22  C   LIG d   1      -5.781  90.063 115.451  0.00  0.00     0.382 C 
ATOM     23  O   LIG d   1      -6.896  89.753 114.966  0.00  0.00    -0.241 OA
ATOM     24  O   LIG d   1      -4.799  89.324 115.252  0.00  0.00    -0.241 OA
ENDBRANCH   3  22
TORSDOF 7
ENDMDL
MODEL 4
REMARK VINA RESULT:      -5.1     15.074     18.015
REMARK  7 active torsions:
REMARK  status: ('A' for Active; 'I' for Inactive)
REMARK    1  A    between atoms: C_2  and  C_3 
REMARK    2  A    between atoms: C_3  and  O_6 
REMARK    3  A    between atoms: C_3  and  C_4 
REMARK    4  A    between atoms: C_7  and  O_6 
REMARK    5  A    between atoms: C_9  and  C_10 
REMARK    6  A    between atoms: N_15  and  C_14 
REMARK    7  A    between atoms: N_20  and  C_19 
REMARK       I    between atoms: C_22  and  N_20 
ROOT
ATOM      1  C   LIG d   1      -4.020  74.499 116.560  0.00  0.00     0.161 C 
ATOM      2  C   LIG d   1      -4.975  73.498 116.319  0.00  0.00     0.016 C 
ATOM      3  C   LIG d   1      -6.351  73.648 116.610  0.00  0.00     0.038 C 
ATOM      4  C   LIG d   1      -6.891  74.874 117.026  0.00  0.00     0.028 C 
ATOM      5  C   LIG d   1      -5.890  75.758 117.763  0.00  0.00    -0.047 C 
ATOM      6  C   LIG d   1      -4.607  75.882 116.910  0.00  0.00     0.091 C 
ENDROOT
BRANCH   1   7
ATOM      7  O   LIG d   1      -3.127  74.604 115.434  0.00  0.00    -0.368 OA
BRANCH   7   8
ATOM      8  C   LIG d   1      -1.742  74.261 115.684  0.00  0.00     0.119 C 
BRANCH   8   9
ATOM      9  C   LIG d   1      -1.660  73.678 117.109  0.00  0.00     0.028 C 
ATOM     10  C   LIG d   1      -0.560  74.344 117.953  0.00  0.00     0.006 C 
ENDBRANCH   8   9
BRANCH   8  11
ATOM     11  C   LIG d   1      -0.854  75.508 115.705  0.00  0.00     0.028 C 
ATOM     12  C   LIG d   1      -1.387  76.634 114.805  0.00  0.00     0.006 C 
ENDBRANCH   8  11
ENDBRANCH   7   8
ENDBRANCH   1   7
BRANCH   6  13
ATOM     13  N   LIG d   1      -3.544  76.662 117.595  0.00  0.00    -0.311 N 
ATOM     14  C   LIG d   1      -3.366  77.971 117.421  0.00  0.00     0.210 C 
ATOM     15  C   LIG d   1      -2.199  78.575 118.208  0.00  0.00     0.109 C 
ATOM     16  O   LIG d   1      -4.084  78.694 116.714  0.00  0.00    -0.276 OA
ATOM     17  H   LIG d   1      -2.935  76.160 118.212  0.00  0.00     0.149 HD
ENDBRANCH   6  13
BRANCH   5  18
ATOM     18  N   LIG d   1      -6.544  77.056 118.017  0.00  0.00     0.381 N 
ATOM     19  H   LIG d   1      -7.332  76.926 118.619  0.00  0.00    -0.090 HD
ATOM     20  H   LIG d   1      -6.872  77.430 117.144  0.00  0.00    -0.090 HD
ATOM     21  H   LIG d   1      -5.897  77.687 118.436  0.00  0.00    -0.090 HD
ENDBRANCH   5  18
BRANCH   3  22
ATOM     22  C   LIG d   1      -7.195  72.551 116.525  0.00  0.00     0.382 C 
ATOM     23  O   LIG d   1      -8.326  72.587 117.067  0.00  0.00    -0.241 OA
ATOM     24  O   LIG d   1      -6.823  71.511 115.950  0.00  0.00    -0.241 OA
ENDBRANCH   3  22
TORSDOF 7
ENDMDL
MODEL 5
REMARK VINA RESULT:      -5.1      2.345      4.880
REMARK  7 active torsions:
REMARK  status: ('A' for Active; 'I' for Inactive)
REMARK    1  A    between atoms: C_2  and  C_3 
REMARK    2  A    between atoms: C_3  and  O_6 
REMARK    3  A    between atoms: C_3  and  C_4 
REMARK    4  A    between atoms: C_7  and  O_6 
REMARK    5  A    between atoms: C_9  and  C_10 
REMARK    6  A    between atoms: N_15  and  C_14 
REMARK    7  A    between atoms: N_20  and  C_19 
REMARK       I    between atoms: C_22  and  N_20 
ROOT
ATOM      1  C   LIG d   1      -4.106  90.885 117.726  0.00  0.00     0.161 C 
ATOM      2  C   LIG d   1      -5.165  90.245 117.062  0.00  0.00     0.016 C 
ATOM      3  C   LIG d   1      -6.377  90.892 116.728  0.00  0.00     0.038 C 
ATOM      4  C   LIG d   1      -6.554  92.272 116.901  0.00  0.00     0.028 C 
ATOM      5  C   LIG d   1      -5.706  92.854 118.027  0.00  0.00    -0.047 C 
ATOM      6  C   LIG d   1      -4.236  92.420 117.825  0.00  0.00     0.091 C 
ENDROOT
BRANCH   1   7
ATOM      7  O   LIG d   1      -2.854  90.528 117.107  0.00  0.00    -0.368 OA
BRANCH   7   8
ATOM      8  C   LIG d   1      -1.875  89.895 117.968  0.00  0.00     0.119 C 
BRANCH   8   9
ATOM      9  C   LIG d   1      -0.491  90.451 117.581  0.00  0.00     0.028 C 
ATOM     10  C   LIG d   1       0.454  89.358 117.054  0.00  0.00     0.006 C 
ENDBRANCH   8   9
BRANCH   8  11
ATOM     11  C   LIG d   1      -1.794  88.388 117.708  0.00  0.00     0.028 C 
ATOM     12  C   LIG d   1      -2.121  87.550 118.954  0.00  0.00     0.006 C 
ENDBRANCH   8  11
ENDBRANCH   7   8
ENDBRANCH   1   7
BRANCH   6  13
ATOM     13  N   LIG d   1      -3.353  92.876 118.929  0.00  0.00    -0.311 N 
ATOM     14  C   LIG d   1      -2.244  93.588 118.734  0.00  0.00     0.210 C 
ATOM     15  C   LIG d   1      -1.468  93.938 120.007  0.00  0.00     0.109 C 
ATOM     16  O   LIG d   1      -1.846  93.989 117.630  0.00  0.00    -0.276 OA
ATOM     17  H   LIG d   1      -3.618  92.622 119.860  0.00  0.00     0.149 HD
ENDBRANCH   6  13
BRANCH   5  18
ATOM     18  N   LIG d   1      -5.883  94.319 118.007  0.00  0.00     0.381 N 
ATOM     19  H   LIG d   1      -6.225  94.607 117.112  0.00  0.00    -0.090 HD
ATOM     20  H   LIG d   1      -4.992  94.756 118.161  0.00  0.00    -0.090 HD
ATOM     21  H   LIG d   1      -6.524  94.594 118.719  0.00  0.00    -0.090 HD
ENDBRANCH   5  18
BRANCH   3  22
ATOM     22  C   LIG d   1      -7.444  90.146 116.249  0.00  0.00     0.382 C 
ATOM     23  O   LIG d   1      -7.706  89.029 116.756  0.00  0.00    -0.241 OA
ATOM     24  O   LIG d   1      -8.121  90.557 115.288  0.00  0.00    -0.241 OA
ENDBRANCH   3  22
TORSDOF 7
ENDMDL
MODEL 6
REMARK VINA RESULT:      -5.0      1.159      1.856
REMARK  7 active torsions:
REMARK  status: ('A' for Active; 'I' for Inactive)
REMARK    1  A    between atoms: C_2  and  C_3 
REMARK    2  A    between atoms: C_3  and  O_6 
REMARK    3  A    between atoms: C_3  and  C_4 
REMARK    4  A    between atoms: C_7  and  O_6 
REMARK    5  A    between atoms: C_9  and  C_10 
REMARK    6  A    between atoms: N_15  and  C_14 
REMARK    7  A    between atoms: N_20  and  C_19 
REMARK       I    between atoms: C_22  and  N_20 
ROOT
ATOM      1  C   LIG d   1      -5.953  92.788 118.368  0.00  0.00     0.161 C 
ATOM      2  C   LIG d   1      -6.848  91.820 117.883  0.00  0.00     0.016 C 
ATOM      3  C   LIG d   1      -6.438  90.663 117.181  0.00  0.00     0.038 C 
ATOM      4  C   LIG d   1      -5.085  90.317 117.048  0.00  0.00     0.028 C 
ATOM      5  C   LIG d   1      -4.147  91.519 117.081  0.00  0.00    -0.047 C 
ATOM      6  C   LIG d   1      -4.468  92.372 118.330  0.00  0.00     0.091 C 
ENDROOT
BRANCH   1   7
ATOM      7  O   LIG d   1      -6.331  93.176 119.704  0.00  0.00    -0.368 OA
BRANCH   7   8
ATOM      8  C   LIG d   1      -6.896  94.502 119.846  0.00  0.00     0.119 C 
BRANCH   8   9
ATOM      9  C   LIG d   1      -8.430  94.358 119.807  0.00  0.00     0.028 C 
ATOM     10  C   LIG d   1      -9.036  94.157 121.206  0.00  0.00     0.006 C 
ENDBRANCH   8   9
BRANCH   8  11
ATOM     11  C   LIG d   1      -6.542  95.391 118.650  0.00  0.00     0.028 C 
ATOM     12  C   LIG d   1      -5.782  96.663 119.057  0.00  0.00     0.006 C 
ENDBRANCH   8  11
ENDBRANCH   7   8
ENDBRANCH   1   7
BRANCH   6  13
ATOM     13  N   LIG d   1      -3.652  93.612 118.394  0.00  0.00    -0.311 N 
ATOM     14  C   LIG d   1      -2.855  93.914 119.418  0.00  0.00     0.210 C 
ATOM     15  C   LIG d   1      -2.118  95.251 119.292  0.00  0.00     0.109 C 
ATOM     16  O   LIG d   1      -2.664  93.185 120.403  0.00  0.00    -0.276 OA
ATOM     17  H   LIG d   1      -3.722  94.245 117.621  0.00  0.00     0.149 HD
ENDBRANCH   6  13
BRANCH   5  18
ATOM     18  N   LIG d   1      -2.764  91.005 117.072  0.00  0.00     0.381 N 
ATOM     19  H   LIG d   1      -2.706  90.198 116.483  0.00  0.00    -0.090 HD
ATOM     20  H   LIG d   1      -2.512  90.732 118.006  0.00  0.00    -0.090 HD
ATOM     21  H   LIG d   1      -2.140  91.709 116.745  0.00  0.00    -0.090 HD
ENDBRANCH   5  18
BRANCH   3  22
ATOM     22  C   LIG d   1      -7.387  89.858 116.569  0.00  0.00     0.382 C 
ATOM     23  O   LIG d   1      -8.383  89.459 117.218  0.00  0.00    -0.241 OA
ATOM     24  O   LIG d   1      -7.236  89.490 115.388  0.00  0.00    -0.241 OA
ENDBRANCH   3  22
TORSDOF 7
ENDMDL
MODEL 7
REMARK VINA RESULT:      -4.8      2.202      3.853
REMARK  7 active torsions:
REMARK  status: ('A' for Active; 'I' for Inactive)
REMARK    1  A    between atoms: C_2  and  C_3 
REMARK    2  A    between atoms: C_3  and  O_6 
REMARK    3  A    between atoms: C_3  and  C_4 
REMARK    4  A    between atoms: C_7  and  O_6 
REMARK    5  A    between atoms: C_9  and  C_10 
REMARK    6  A    between atoms: N_15  and  C_14 
REMARK    7  A    between atoms: N_20  and  C_19 
REMARK       I    between atoms: C_22  and  N_20 
ROOT
ATOM      1  C   LIG d   1      -3.587  92.261 117.818  0.00  0.00     0.161 C 
ATOM      2  C   LIG d   1      -4.932  92.647 117.692  0.00  0.00     0.016 C 
ATOM      3  C   LIG d   1      -5.906  91.866 117.029  0.00  0.00     0.038 C 
ATOM      4  C   LIG d   1      -5.632  90.567 116.575  0.00  0.00     0.028 C 
ATOM      5  C   LIG d   1      -4.163  90.343 116.231  0.00  0.00    -0.047 C 
ATOM      6  C   LIG d   1      -3.294  90.798 117.426  0.00  0.00     0.091 C 
ENDROOT
BRANCH   1   7
ATOM      7  O   LIG d   1      -3.127  92.523 119.159  0.00  0.00    -0.368 OA
BRANCH   7   8
ATOM      8  C   LIG d   1      -2.169  93.600 119.305  0.00  0.00     0.119 C 
BRANCH   8   9
ATOM      9  C   LIG d   1      -2.916  94.804 119.910  0.00  0.00     0.028 C 
ATOM     10  C   LIG d   1      -3.983  94.380 120.933  0.00  0.00     0.006 C 
ENDBRANCH   8   9
BRANCH   8  11
ATOM     11  C   LIG d   1      -1.658  94.080 117.944  0.00  0.00     0.028 C 
ATOM     12  C   LIG d   1      -0.161  93.800 117.736  0.00  0.00     0.006 C 
ENDBRANCH   8  11
ENDBRANCH   7   8
ENDBRANCH   1   7
BRANCH   6  13
ATOM     13  N   LIG d   1      -1.839  90.691 117.141  0.00  0.00    -0.311 N 
ATOM     14  C   LIG d   1      -1.093  89.653 117.516  0.00  0.00     0.210 C 
ATOM     15  C   LIG d   1       0.389  89.753 117.139  0.00  0.00     0.109 C 
ATOM     16  O   LIG d   1      -1.524  88.646 118.096  0.00  0.00    -0.276 OA
ATOM     17  H   LIG d   1      -1.414  91.451 116.647  0.00  0.00     0.149 HD
ENDBRANCH   6  13
BRANCH   5  18
ATOM     18  N   LIG d   1      -3.995  88.914 115.905  0.00  0.00     0.381 N 
ATOM     19  H   LIG d   1      -3.128  88.776 115.425  0.00  0.00    -0.090 HD
ATOM     20  H   LIG d   1      -4.741  88.630 115.295  0.00  0.00    -0.090 HD
ATOM     21  H   LIG d   1      -4.012  88.370 116.739  0.00  0.00    -0.090 HD
ENDBRANCH   5  18
BRANCH   3  22
ATOM     22  C   LIG d   1      -7.161  92.400 116.779  0.00  0.00     0.382 C 
ATOM     23  O   LIG d   1      -7.590  93.348 117.480  0.00  0.00    -0.241 OA
ATOM     24  O   LIG d   1      -7.888  91.916 115.890  0.00  0.00    -0.241 OA
ENDBRANCH   3  22
TORSDOF 7
ENDMDL
MODEL 8
REMARK VINA RESULT:      -4.7      2.401      6.378
REMARK  7 active torsions:
REMARK  status: ('A' for Active; 'I' for Inactive)
REMARK    1  A    between atoms: C_2  and  C_3 
REMARK    2  A    between atoms: C_3  and  O_6 
REMARK    3  A    between atoms: C_3  and  C_4 
REMARK    4  A    between atoms: C_7  and  O_6 
REMARK    5  A    between atoms: C_9  and  C_10 
REMARK    6  A    between atoms: N_15  and  C_14 
REMARK    7  A    between atoms: N_20  and  C_19 
REMARK       I    between atoms: C_22  and  N_20 
ROOT
ATOM      1  C   LIG d   1      -4.977  93.157 118.184  0.00  0.00     0.161 C 
ATOM      2  C   LIG d   1      -4.536  94.049 119.176  0.00  0.00     0.016 C 
ATOM      3  C   LIG d   1      -5.362  95.039 119.755  0.00  0.00     0.038 C 
ATOM      4  C   LIG d   1      -6.738  95.108 119.487  0.00  0.00     0.028 C 
ATOM      5  C   LIG d   1      -7.116  94.554 118.117  0.00  0.00    -0.047 C 
ATOM      6  C   LIG d   1      -6.504  93.144 117.959  0.00  0.00     0.091 C 
ENDROOT
BRANCH   1   7
ATOM      7  O   LIG d   1      -4.502  91.828 118.475  0.00  0.00    -0.368 OA
BRANCH   7   8
ATOM      8  C   LIG d   1      -3.432  91.335 117.632  0.00  0.00     0.119 C 
BRANCH   8   9
ATOM      9  C   LIG d   1      -3.662  89.826 117.427  0.00  0.00     0.028 C 
ATOM     10  C   LIG d   1      -4.186  89.498 116.018  0.00  0.00     0.006 C 
ENDBRANCH   8   9
BRANCH   8  11
ATOM     11  C   LIG d   1      -2.074  91.447 118.333  0.00  0.00     0.028 C 
ATOM     12  C   LIG d   1      -0.963  90.675 117.605  0.00  0.00     0.006 C 
ENDBRANCH   8  11
ENDBRANCH   7   8
ENDBRANCH   1   7
BRANCH   6  13
ATOM     13  N   LIG d   1      -6.755  92.564 116.614  0.00  0.00    -0.311 N 
ATOM     14  C   LIG d   1      -7.225  91.333 116.422  0.00  0.00     0.210 C 
ATOM     15  C   LIG d   1      -7.392  90.925 114.955  0.00  0.00     0.109 C 
ATOM     16  O   LIG d   1      -7.548  90.550 117.328  0.00  0.00    -0.276 OA
ATOM     17  H   LIG d   1      -6.549  93.142 115.823  0.00  0.00     0.149 HD
ENDBRANCH   6  13
BRANCH   5  18
ATOM     18  N   LIG d   1      -8.588  94.560 118.025  0.00  0.00     0.381 N 
ATOM     19  H   LIG d   1      -8.985  94.582 118.944  0.00  0.00    -0.090 HD
ATOM     20  H   LIG d   1      -8.889  93.715 117.572  0.00  0.00    -0.090 HD
ATOM     21  H   LIG d   1      -8.894  95.352 117.504  0.00  0.00    -0.090 HD
ENDBRANCH   5  18
BRANCH   3  22
ATOM     22  C   LIG d   1      -4.804  96.002 120.583  0.00  0.00     0.382 C 
ATOM     23  O   LIG d   1      -5.354  97.123 120.701  0.00  0.00    -0.241 OA
ATOM     24  O   LIG d   1      -3.734  95.778 121.179  0.00  0.00    -0.241 OA
ENDBRANCH   3  22
TORSDOF 7
ENDMDL
MODEL 9
REMARK VINA RESULT:      -4.5      2.287      5.612
REMARK  7 active torsions:
REMARK  status: ('A' for Active; 'I' for Inactive)
REMARK    1  A    between atoms: C_2  and  C_3 
REMARK    2  A    between atoms: C_3  and  O_6 
REMARK    3  A    between atoms: C_3  and  C_4 
REMARK    4  A    between atoms: C_7  and  O_6 
REMARK    5  A    between atoms: C_9  and  C_10 
REMARK    6  A    between atoms: N_15  and  C_14 
REMARK    7  A    between atoms: N_20  and  C_19 
REMARK       I    between atoms: C_22  and  N_20 
ROOT
ATOM      1  C   LIG d   1      -4.270  92.745 118.212  0.00  0.00     0.161 C 
ATOM      2  C   LIG d   1      -4.644  93.932 118.864  0.00  0.00     0.016 C 
ATOM      3  C   LIG d   1      -5.914  94.535 118.715  0.00  0.00     0.038 C 
ATOM      4  C   LIG d   1      -6.955  93.907 118.015  0.00  0.00     0.028 C 
ATOM      5  C   LIG d   1      -6.467  92.959 116.925  0.00  0.00    -0.047 C 
ATOM      6  C   LIG d   1      -5.430  91.987 117.533  0.00  0.00     0.091 C 
ENDROOT
BRANCH   1   7
ATOM      7  O   LIG d   1      -3.576  91.880 119.132  0.00  0.00    -0.368 OA
BRANCH   7   8
ATOM      8  C   LIG d   1      -2.153  91.721 118.908  0.00  0.00     0.119 C 
BRANCH   8   9
ATOM      9  C   LIG d   1      -1.870  90.211 118.785  0.00  0.00     0.028 C 
ATOM     10  C   LIG d   1      -3.080  89.352 119.187  0.00  0.00     0.006 C 
ENDBRANCH   8   9
BRANCH   8  11
ATOM     11  C   LIG d   1      -1.343  92.189 120.121  0.00  0.00     0.028 C 
ATOM     12  C   LIG d   1      -2.202  92.352 121.384  0.00  0.00     0.006 C 
ENDBRANCH   8  11
ENDBRANCH   7   8
ENDBRANCH   1   7
BRANCH   6  13
ATOM     13  N   LIG d   1      -4.839  91.080 116.515  0.00  0.00    -0.311 N 
ATOM     14  C   LIG d   1      -5.357  89.893 116.202  0.00  0.00     0.210 C 
ATOM     15  C   LIG d   1      -4.580  89.108 115.141  0.00  0.00     0.109 C 
ATOM     16  O   LIG d   1      -6.404  89.430 116.680  0.00  0.00    -0.276 OA
ATOM     17  H   LIG d   1      -4.006  91.390 116.056  0.00  0.00     0.149 HD
ENDBRANCH   6  13
BRANCH   5  18
ATOM     18  N   LIG d   1      -7.649  92.271 116.372  0.00  0.00     0.381 N 
ATOM     19  H   LIG d   1      -8.180  91.860 117.113  0.00  0.00    -0.090 HD
ATOM     20  H   LIG d   1      -7.340  91.536 115.760  0.00  0.00    -0.090 HD
ATOM     21  H   LIG d   1      -8.214  92.917 115.867  0.00  0.00    -0.090 HD
ENDBRANCH   5  18
BRANCH   3  22
ATOM     22  C   LIG d   1      -6.140  95.800 119.236  0.00  0.00     0.382 C 
ATOM     23  O   LIG d   1      -5.178  96.588 119.407  0.00  0.00    -0.241 OA
ATOM     24  O   LIG d   1      -7.286  96.147 119.578  0.00  0.00    -0.241 OA
ENDBRANCH   3  22
TORSDOF 7
ENDMDL
