MODEL 1
REMARK VINA RESULT:      -5.5      0.000      0.000
REMARK  7 active torsions:
REMARK  status: ('A' for Active; 'I' for Inactive)
REMARK    1  A    between atoms: C_2  and  C_3 
REMARK    2  A    between atoms: C_3  and  O_6 
REMARK    3  A    between atoms: C_3  and  C_4 
REMARK    4  A    between atoms: C_7  and  O_6 
REMARK    5  A    between atoms: C_9  and  C_10 
REMARK    6  A    between atoms: N_15  and  C_14 
REMARK    7  A    between atoms: N_20  and  C_19 
REMARK       I    between atoms: C_22  and  N_20 
ROOT
ATOM      1  C   LIG d   1      -7.875  75.555 117.979  0.00  0.00     0.161 C 
ATOM      2  C   LIG d   1      -7.990  74.259 117.449  0.00  0.00     0.016 C 
ATOM      3  C   LIG d   1      -9.191  73.514 117.470  0.00  0.00     0.038 C 
ATOM      4  C   LIG d   1     -10.406  74.076 117.891  0.00  0.00     0.028 C 
ATOM      5  C   LIG d   1     -10.233  75.206 118.900  0.00  0.00    -0.047 C 
ATOM      6  C   LIG d   1      -9.216  76.227 118.341  0.00  0.00     0.091 C 
ENDROOT
BRANCH   1   7
ATOM      7  O   LIG d   1      -7.126  76.389 117.073  0.00  0.00    -0.368 OA
BRANCH   7   8
ATOM      8  C   LIG d   1      -5.706  76.112 116.979  0.00  0.00     0.119 C 
BRANCH   8   9
ATOM      9  C   LIG d   1      -4.964  77.247 117.712  0.00  0.00     0.028 C 
ATOM     10  C   LIG d   1      -5.741  78.574 117.678  0.00  0.00     0.006 C 
ENDBRANCH   8   9
BRANCH   8  11
ATOM     11  C   LIG d   1      -5.221  76.181 115.528  0.00  0.00     0.028 C 
ATOM     12  C   LIG d   1      -5.310  74.828 114.805  0.00  0.00     0.006 C 
ENDBRANCH   8  11
ENDBRANCH   7   8
ENDBRANCH   1   7
BRANCH   6  13
ATOM     13  N   LIG d   1      -8.925  77.322 119.303  0.00  0.00    -0.311 N 
ATOM     14  C   LIG d   1      -9.589  78.477 119.322  0.00  0.00     0.210 C 
ATOM     15  C   LIG d   1      -9.116  79.477 120.382  0.00  0.00     0.109 C 
ATOM     16  O   LIG d   1     -10.545  78.755 118.583  0.00  0.00    -0.276 OA
ATOM     17  H   LIG d   1      -8.185  77.168 119.960  0.00  0.00     0.149 HD
ENDBRANCH   6  13
BRANCH   5  18
ATOM     18  N   LIG d   1     -11.564  75.791 119.147  0.00  0.00     0.381 N 
ATOM     19  H   LIG d   1     -11.541  76.774 118.964  0.00  0.00    -0.090 HD
ATOM     20  H   LIG d   1     -11.805  75.655 120.113  0.00  0.00    -0.090 HD
ATOM     21  H   LIG d   1     -12.243  75.353 118.563  0.00  0.00    -0.090 HD
ENDBRANCH   5  18
BRANCH   3  22
ATOM     22  C   LIG d   1      -9.177  72.176 117.104  0.00  0.00     0.382 C 
ATOM     23  O   LIG d   1      -8.107  71.643 116.722  0.00  0.00    -0.241 OA
ATOM     24  O   LIG d   1     -10.228  71.508 117.110  0.00  0.00    -0.241 OA
ENDBRANCH   3  22
TORSDOF 7
ENDMDL
MODEL 2
REMARK VINA RESULT:      -5.2      2.162      4.625
REMARK  7 active torsions:
REMARK  status: ('A' for Active; 'I' for Inactive)
REMARK    1  A    between atoms: C_2  and  C_3 
REMARK    2  A    between atoms: C_3  and  O_6 
REMARK    3  A    between atoms: C_3  and  C_4 
REMARK    4  A    between atoms: C_7  and  O_6 
REMARK    5  A    between atoms: C_9  and  C_10 
REMARK    6  A    between atoms: N_15  and  C_14 
REMARK    7  A    between atoms: N_20  and  C_19 
REMARK       I    between atoms: C_22  and  N_20 
ROOT
ATOM      1  C   LIG d   1      -8.002  76.410 117.502  0.00  0.00     0.161 C 
ATOM      2  C   LIG d   1      -7.134  75.509 116.864  0.00  0.00     0.016 C 
ATOM      3  C   LIG d   1      -5.750  75.746 116.698  0.00  0.00     0.038 C 
ATOM      4  C   LIG d   1      -5.109  76.841 117.297  0.00  0.00     0.028 C 
ATOM      5  C   LIG d   1      -6.031  78.035 117.520  0.00  0.00    -0.047 C 
ATOM      6  C   LIG d   1      -7.301  77.557 118.259  0.00  0.00     0.091 C 
ENDROOT
BRANCH   1   7
ATOM      7  O   LIG d   1      -8.887  75.693 118.386  0.00  0.00    -0.368 OA
BRANCH   7   8
ATOM      8  C   LIG d   1     -10.298  75.752 118.061  0.00  0.00     0.119 C 
BRANCH   8   9
ATOM      9  C   LIG d   1     -11.082  75.371 119.332  0.00  0.00     0.028 C 
ATOM     10  C   LIG d   1     -10.473  75.986 120.603  0.00  0.00     0.006 C 
ENDBRANCH   8   9
BRANCH   8  11
ATOM     11  C   LIG d   1     -10.675  74.694 117.020  0.00  0.00     0.028 C 
ATOM     12  C   LIG d   1     -10.129  73.299 117.363  0.00  0.00     0.006 C 
ENDBRANCH   8  11
ENDBRANCH   7   8
ENDBRANCH   1   7
BRANCH   6  13
ATOM     13  N   LIG d   1      -8.294  78.647 118.443  0.00  0.00    -0.311 N 
ATOM     14  C   LIG d   1      -8.644  79.127 119.635  0.00  0.00     0.210 C 
ATOM     15  C   LIG d   1      -9.700  80.237 119.602  0.00  0.00     0.109 C 
ATOM     16  O   LIG d   1      -8.157  78.761 120.716  0.00  0.00    -0.276 OA
ATOM     17  H   LIG d   1      -8.716  79.024 117.617  0.00  0.00     0.149 HD
ENDBRANCH   6  13
BRANCH   5  18
ATOM     18  N   LIG d   1      -5.271  79.050 118.274  0.00  0.00     0.381 N 
ATOM     19  H   LIG d   1      -4.354  79.145 117.884  0.00  0.00    -0.090 HD
ATOM     20  H   LIG d   1      -5.177  78.745 119.227  0.00  0.00    -0.090 HD
ATOM     21  H   LIG d   1      -5.746  79.925 118.242  0.00  0.00    -0.090 HD
ENDBRANCH   5  18
BRANCH   3  22
ATOM     22  C   LIG d   1      -5.000  74.904 115.892  0.00  0.00     0.382 C 
ATOM     23  O   LIG d   1      -5.497  74.439 114.837  0.00  0.00    -0.241 OA
ATOM     24  O   LIG d   1      -3.849  74.567 116.228  0.00  0.00    -0.241 OA
ENDBRANCH   3  22
TORSDOF 7
ENDMDL
MODEL 3
REMARK VINA RESULT:      -4.9      2.897      3.963
REMARK  7 active torsions:
REMARK  status: ('A' for Active; 'I' for Inactive)
REMARK    1  A    between atoms: C_2  and  C_3 
REMARK    2  A    between atoms: C_3  and  O_6 
REMARK    3  A    between atoms: C_3  and  C_4 
REMARK    4  A    between atoms: C_7  and  O_6 
REMARK    5  A    between atoms: C_9  and  C_10 
REMARK    6  A    between atoms: N_15  and  C_14 
REMARK    7  A    between atoms: N_20  and  C_19 
REMARK       I    between atoms: C_22  and  N_20 
ROOT
ATOM      1  C   LIG d   1      -7.497  78.516 118.528  0.00  0.00     0.161 C 
ATOM      2  C   LIG d   1      -8.400  77.439 118.529  0.00  0.00     0.016 C 
ATOM      3  C   LIG d   1      -9.777  77.579 118.820  0.00  0.00     0.038 C 
ATOM      4  C   LIG d   1     -10.376  78.837 118.982  0.00  0.00     0.028 C 
ATOM      5  C   LIG d   1      -9.414  79.906 119.488  0.00  0.00    -0.047 C 
ATOM      6  C   LIG d   1      -8.154  79.910 118.593  0.00  0.00     0.091 C 
ENDROOT
BRANCH   1   7
ATOM      7  O   LIG d   1      -6.629  78.423 117.381  0.00  0.00    -0.368 OA
BRANCH   7   8
ATOM      8  C   LIG d   1      -5.717  77.298 117.361  0.00  0.00     0.119 C 
BRANCH   8   9
ATOM      9  C   LIG d   1      -4.285  77.861 117.434  0.00  0.00     0.028 C 
ATOM     10  C   LIG d   1      -4.199  79.314 116.937  0.00  0.00     0.006 C 
ENDBRANCH   8   9
BRANCH   8  11
ATOM     11  C   LIG d   1      -5.790  76.546 116.029  0.00  0.00     0.028 C 
ATOM     12  C   LIG d   1      -6.566  75.223 116.132  0.00  0.00     0.006 C 
ENDBRANCH   8  11
ENDBRANCH   7   8
ENDBRANCH   1   7
BRANCH   6  13
ATOM     13  N   LIG d   1      -7.124  80.870 119.070  0.00  0.00    -0.311 N 
ATOM     14  C   LIG d   1      -6.592  81.817 118.299  0.00  0.00     0.210 C 
ATOM     15  C   LIG d   1      -5.532  82.687 118.982  0.00  0.00     0.109 C 
ATOM     16  O   LIG d   1      -6.920  82.040 117.124  0.00  0.00    -0.276 OA
ATOM     17  H   LIG d   1      -6.822  80.781 120.020  0.00  0.00     0.149 HD
ENDBRANCH   6  13
BRANCH   5  18
ATOM     18  N   LIG d   1     -10.134  81.194 119.479  0.00  0.00     0.381 N 
ATOM     19  H   LIG d   1     -10.924  81.144 120.090  0.00  0.00    -0.090 HD
ATOM     20  H   LIG d   1     -10.466  81.374 118.548  0.00  0.00    -0.090 HD
ATOM     21  H   LIG d   1      -9.525  81.926 119.771  0.00  0.00    -0.090 HD
ENDBRANCH   5  18
BRANCH   3  22
ATOM     22  C   LIG d   1     -10.561  76.448 118.991  0.00  0.00     0.382 C 
ATOM     23  O   LIG d   1     -10.163  75.514 119.727  0.00  0.00    -0.241 OA
ATOM     24  O   LIG d   1     -11.642  76.332 118.382  0.00  0.00    -0.241 OA
ENDBRANCH   3  22
TORSDOF 7
ENDMDL
MODEL 4
REMARK VINA RESULT:      -4.9      2.370      4.374
REMARK  7 active torsions:
REMARK  status: ('A' for Active; 'I' for Inactive)
REMARK    1  A    between atoms: C_2  and  C_3 
REMARK    2  A    between atoms: C_3  and  O_6 
REMARK    3  A    between atoms: C_3  and  C_4 
REMARK    4  A    between atoms: C_7  and  O_6 
REMARK    5  A    between atoms: C_9  and  C_10 
REMARK    6  A    between atoms: N_15  and  C_14 
REMARK    7  A    between atoms: N_20  and  C_19 
REMARK       I    between atoms: C_22  and  N_20 
ROOT
ATOM      1  C   LIG d   1      -7.515  77.664 118.227  0.00  0.00     0.161 C 
ATOM      2  C   LIG d   1      -6.436  77.440 117.356  0.00  0.00     0.016 C 
ATOM      3  C   LIG d   1      -6.310  76.281 116.555  0.00  0.00     0.038 C 
ATOM      4  C   LIG d   1      -7.338  75.331 116.459  0.00  0.00     0.028 C 
ATOM      5  C   LIG d   1      -8.219  75.265 117.701  0.00  0.00    -0.047 C 
ATOM      6  C   LIG d   1      -8.700  76.691 118.053  0.00  0.00     0.091 C 
ENDROOT
BRANCH   1   7
ATOM      7  O   LIG d   1      -7.965  79.028 118.108  0.00  0.00    -0.368 OA
BRANCH   7   8
ATOM      8  C   LIG d   1      -7.615  79.913 119.201  0.00  0.00     0.119 C 
BRANCH   8   9
ATOM      9  C   LIG d   1      -8.918  80.275 119.939  0.00  0.00     0.028 C 
ATOM     10  C   LIG d   1     -10.127  80.353 118.991  0.00  0.00     0.006 C 
ENDBRANCH   8   9
BRANCH   8  11
ATOM     11  C   LIG d   1      -7.058  81.243 118.685  0.00  0.00     0.028 C 
ATOM     12  C   LIG d   1      -5.750  81.075 117.895  0.00  0.00     0.006 C 
ENDBRANCH   8  11
ENDBRANCH   7   8
ENDBRANCH   1   7
BRANCH   6  13
ATOM     13  N   LIG d   1      -9.500  76.727 119.305  0.00  0.00    -0.311 N 
ATOM     14  C   LIG d   1     -10.830  76.666 119.328  0.00  0.00     0.210 C 
ATOM     15  C   LIG d   1     -11.457  76.739 120.723  0.00  0.00     0.109 C 
ATOM     16  O   LIG d   1     -11.548  76.525 118.327  0.00  0.00    -0.276 OA
ATOM     17  H   LIG d   1      -8.995  76.809 120.166  0.00  0.00     0.149 HD
ENDBRANCH   6  13
BRANCH   5  18
ATOM     18  N   LIG d   1      -9.328  74.336 117.412  0.00  0.00     0.381 N 
ATOM     19  H   LIG d   1      -8.967  73.487 117.025  0.00  0.00    -0.090 HD
ATOM     20  H   LIG d   1      -9.937  74.758 116.733  0.00  0.00    -0.090 HD
ATOM     21  H   LIG d   1      -9.836  74.140 118.247  0.00  0.00    -0.090 HD
ENDBRANCH   5  18
BRANCH   3  22
ATOM     22  C   LIG d   1      -5.128  76.045 115.870  0.00  0.00     0.382 C 
ATOM     23  O   LIG d   1      -4.447  75.023 116.129  0.00  0.00    -0.241 OA
ATOM     24  O   LIG d   1      -4.712  76.862 115.028  0.00  0.00    -0.241 OA
ENDBRANCH   3  22
TORSDOF 7
ENDMDL
MODEL 5
REMARK VINA RESULT:      -4.9      1.633      1.925
REMARK  7 active torsions:
REMARK  status: ('A' for Active; 'I' for Inactive)
REMARK    1  A    between atoms: C_2  and  C_3 
REMARK    2  A    between atoms: C_3  and  O_6 
REMARK    3  A    between atoms: C_3  and  C_4 
REMARK    4  A    between atoms: C_7  and  O_6 
REMARK    5  A    between atoms: C_9  and  C_10 
REMARK    6  A    between atoms: N_15  and  C_14 
REMARK    7  A    between atoms: N_20  and  C_19 
REMARK       I    between atoms: C_22  and  N_20 
ROOT
ATOM      1  C   LIG d   1      -8.490  76.606 118.675  0.00  0.00     0.161 C 
ATOM      2  C   LIG d   1      -8.287  75.354 118.071  0.00  0.00     0.016 C 
ATOM      3  C   LIG d   1      -9.333  74.441 117.801  0.00  0.00     0.038 C 
ATOM      4  C   LIG d   1     -10.681  74.785 117.979  0.00  0.00     0.028 C 
ATOM      5  C   LIG d   1     -10.899  75.843 119.055  0.00  0.00    -0.047 C 
ATOM      6  C   LIG d   1      -9.967  77.044 118.775  0.00  0.00     0.091 C 
ENDROOT
BRANCH   1   7
ATOM      7  O   LIG d   1      -7.715  77.610 117.990  0.00  0.00    -0.368 OA
BRANCH   7   8
ATOM      8  C   LIG d   1      -6.331  77.736 118.400  0.00  0.00     0.119 C 
BRANCH   8   9
ATOM      9  C   LIG d   1      -6.320  78.009 119.916  0.00  0.00     0.028 C 
ATOM     10  C   LIG d   1      -6.559  79.492 120.247  0.00  0.00     0.006 C 
ENDBRANCH   8   9
BRANCH   8  11
ATOM     11  C   LIG d   1      -5.671  78.962 117.762  0.00  0.00     0.028 C 
ATOM     12  C   LIG d   1      -4.461  78.599 116.887  0.00  0.00     0.006 C 
ENDBRANCH   8  11
ENDBRANCH   7   8
ENDBRANCH   1   7
BRANCH   6  13
ATOM     13  N   LIG d   1     -10.056  78.089 119.828  0.00  0.00    -0.311 N 
ATOM     14  C   LIG d   1     -10.222  79.383 119.564  0.00  0.00     0.210 C 
ATOM     15  C   LIG d   1     -10.268  80.294 120.795  0.00  0.00     0.109 C 
ATOM     16  O   LIG d   1     -10.369  79.860 118.428  0.00  0.00    -0.276 OA
ATOM     17  H   LIG d   1      -9.978  77.786 120.779  0.00  0.00     0.149 HD
ENDBRANCH   6  13
BRANCH   5  18
ATOM     18  N   LIG d   1     -12.329  76.206 119.040  0.00  0.00     0.381 N 
ATOM     19  H   LIG d   1     -12.583  76.620 119.915  0.00  0.00    -0.090 HD
ATOM     20  H   LIG d   1     -12.875  75.371 118.916  0.00  0.00    -0.090 HD
ATOM     21  H   LIG d   1     -12.511  76.844 118.298  0.00  0.00    -0.090 HD
ENDBRANCH   5  18
BRANCH   3  22
ATOM     22  C   LIG d   1      -9.031  73.154 117.383  0.00  0.00     0.382 C 
ATOM     23  O   LIG d   1      -7.835  72.781 117.318  0.00  0.00    -0.241 OA
ATOM     24  O   LIG d   1      -9.936  72.376 117.029  0.00  0.00    -0.241 OA
ENDBRANCH   3  22
TORSDOF 7
ENDMDL
MODEL 6
REMARK VINA RESULT:      -4.7      2.599      5.322
REMARK  7 active torsions:
REMARK  status: ('A' for Active; 'I' for Inactive)
REMARK    1  A    between atoms: C_2  and  C_3 
REMARK    2  A    between atoms: C_3  and  O_6 
REMARK    3  A    between atoms: C_3  and  C_4 
REMARK    4  A    between atoms: C_7  and  O_6 
REMARK    5  A    between atoms: C_9  and  C_10 
REMARK    6  A    between atoms: N_15  and  C_14 
REMARK    7  A    between atoms: N_20  and  C_19 
REMARK       I    between atoms: C_22  and  N_20 
ROOT
ATOM      1  C   LIG d   1      -5.997  76.460 116.184  0.00  0.00     0.161 C 
ATOM      2  C   LIG d   1      -4.858  75.799 115.695  0.00  0.00     0.016 C 
ATOM      3  C   LIG d   1      -3.616  75.785 116.372  0.00  0.00     0.038 C 
ATOM      4  C   LIG d   1      -3.471  76.307 117.665  0.00  0.00     0.028 C 
ATOM      5  C   LIG d   1      -4.459  77.425 117.982  0.00  0.00    -0.047 C 
ATOM      6  C   LIG d   1      -5.888  76.941 117.646  0.00  0.00     0.091 C 
ENDROOT
BRANCH   1   7
ATOM      7  O   LIG d   1      -7.157  75.621 116.018  0.00  0.00    -0.368 OA
BRANCH   7   8
ATOM      8  C   LIG d   1      -7.437  74.698 117.099  0.00  0.00     0.119 C 
BRANCH   8   9
ATOM      9  C   LIG d   1      -6.943  73.306 116.658  0.00  0.00     0.028 C 
ATOM     10  C   LIG d   1      -7.760  72.166 117.290  0.00  0.00     0.006 C 
ENDBRANCH   8   9
BRANCH   8  11
ATOM     11  C   LIG d   1      -8.944  74.541 117.323  0.00  0.00     0.028 C 
ATOM     12  C   LIG d   1      -9.405  75.098 118.679  0.00  0.00     0.006 C 
ENDBRANCH   8  11
ENDBRANCH   7   8
ENDBRANCH   1   7
BRANCH   6  13
ATOM     13  N   LIG d   1      -6.908  78.003 117.848  0.00  0.00    -0.311 N 
ATOM     14  C   LIG d   1      -7.550  78.194 118.999  0.00  0.00     0.210 C 
ATOM     15  C   LIG d   1      -8.576  79.331 118.986  0.00  0.00     0.109 C 
ATOM     16  O   LIG d   1      -7.344  77.550 120.039  0.00  0.00    -0.276 OA
ATOM     17  H   LIG d   1      -7.114  78.592 117.064  0.00  0.00     0.149 HD
ENDBRANCH   6  13
BRANCH   5  18
ATOM     18  N   LIG d   1      -4.288  77.781 119.403  0.00  0.00     0.381 N 
ATOM     19  H   LIG d   1      -3.395  78.211 119.539  0.00  0.00    -0.090 HD
ATOM     20  H   LIG d   1      -4.321  76.942 119.955  0.00  0.00    -0.090 HD
ATOM     21  H   LIG d   1      -5.011  78.404 119.688  0.00  0.00    -0.090 HD
ENDBRANCH   5  18
BRANCH   3  22
ATOM     22  C   LIG d   1      -2.493  75.278 115.736  0.00  0.00     0.382 C 
ATOM     23  O   LIG d   1      -2.032  74.161 116.073  0.00  0.00    -0.241 OA
ATOM     24  O   LIG d   1      -1.909  75.943 114.860  0.00  0.00    -0.241 OA
ENDBRANCH   3  22
TORSDOF 7
ENDMDL
MODEL 7
REMARK VINA RESULT:      -4.7      2.836      6.592
REMARK  7 active torsions:
REMARK  status: ('A' for Active; 'I' for Inactive)
REMARK    1  A    between atoms: C_2  and  C_3 
REMARK    2  A    between atoms: C_3  and  O_6 
REMARK    3  A    between atoms: C_3  and  C_4 
REMARK    4  A    between atoms: C_7  and  O_6 
REMARK    5  A    between atoms: C_9  and  C_10 
REMARK    6  A    between atoms: N_15  and  C_14 
REMARK    7  A    between atoms: N_20  and  C_19 
REMARK       I    between atoms: C_22  and  N_20 
ROOT
ATOM      1  C   LIG d   1      -7.252  77.510 118.291  0.00  0.00     0.161 C 
ATOM      2  C   LIG d   1      -7.830  78.650 118.874  0.00  0.00     0.016 C 
ATOM      3  C   LIG d   1      -7.263  79.942 118.786  0.00  0.00     0.038 C 
ATOM      4  C   LIG d   1      -6.151  80.210 117.974  0.00  0.00     0.028 C 
ATOM      5  C   LIG d   1      -5.242  79.001 117.774  0.00  0.00    -0.047 C 
ATOM      6  C   LIG d   1      -6.099  77.801 117.308  0.00  0.00     0.091 C 
ENDROOT
BRANCH   1   7
ATOM      7  O   LIG d   1      -8.272  76.721 117.647  0.00  0.00    -0.368 OA
BRANCH   7   8
ATOM      8  C   LIG d   1      -9.327  76.221 118.504  0.00  0.00     0.119 C 
BRANCH   8   9
ATOM      9  C   LIG d   1      -8.711  75.143 119.417  0.00  0.00     0.028 C 
ATOM     10  C   LIG d   1      -8.909  75.455 120.910  0.00  0.00     0.006 C 
ENDBRANCH   8   9
BRANCH   8  11
ATOM     11  C   LIG d   1     -10.407  75.497 117.695  0.00  0.00     0.028 C 
ATOM     12  C   LIG d   1     -10.080  74.014 117.457  0.00  0.00     0.006 C 
ENDBRANCH   8  11
ENDBRANCH   7   8
ENDBRANCH   1   7
BRANCH   6  13
ATOM     13  N   LIG d   1      -5.301  76.555 117.170  0.00  0.00    -0.311 N 
ATOM     14  C   LIG d   1      -4.772  76.147 116.018  0.00  0.00     0.210 C 
ATOM     15  C   LIG d   1      -4.003  74.824 116.092  0.00  0.00     0.109 C 
ATOM     16  O   LIG d   1      -4.841  76.771 114.948  0.00  0.00    -0.276 OA
ATOM     17  H   LIG d   1      -5.169  76.004 117.996  0.00  0.00     0.149 HD
ENDBRANCH   6  13
BRANCH   5  18
ATOM     18  N   LIG d   1      -4.202  79.382 116.800  0.00  0.00     0.381 N 
ATOM     19  H   LIG d   1      -3.403  78.790 116.909  0.00  0.00    -0.090 HD
ATOM     20  H   LIG d   1      -3.920  80.329 116.979  0.00  0.00    -0.090 HD
ATOM     21  H   LIG d   1      -4.558  79.303 115.873  0.00  0.00    -0.090 HD
ENDBRANCH   5  18
BRANCH   3  22
ATOM     22  C   LIG d   1      -7.787  80.976 119.547  0.00  0.00     0.382 C 
ATOM     23  O   LIG d   1      -9.018  81.017 119.786  0.00  0.00    -0.241 OA
ATOM     24  O   LIG d   1      -7.051  81.893 119.959  0.00  0.00    -0.241 OA
ENDBRANCH   3  22
TORSDOF 7
ENDMDL
MODEL 8
REMARK VINA RESULT:      -4.7      2.100      2.783
REMARK  7 active torsions:
REMARK  status: ('A' for Active; 'I' for Inactive)
REMARK    1  A    between atoms: C_2  and  C_3 
REMARK    2  A    between atoms: C_3  and  O_6 
REMARK    3  A    between atoms: C_3  and  C_4 
REMARK    4  A    between atoms: C_7  and  O_6 
REMARK    5  A    between atoms: C_9  and  C_10 
REMARK    6  A    between atoms: N_15  and  C_14 
REMARK    7  A    between atoms: N_20  and  C_19 
REMARK       I    between atoms: C_22  and  N_20 
ROOT
ATOM      1  C   LIG d   1      -6.239  76.804 117.290  0.00  0.00     0.161 C 
ATOM      2  C   LIG d   1      -6.911  75.586 117.089  0.00  0.00     0.016 C 
ATOM      3  C   LIG d   1      -8.237  75.349 117.518  0.00  0.00     0.038 C 
ATOM      4  C   LIG d   1      -9.039  76.371 118.047  0.00  0.00     0.028 C 
ATOM      5  C   LIG d   1      -8.240  77.476 118.730  0.00  0.00    -0.047 C 
ATOM      6  C   LIG d   1      -7.135  77.966 117.766  0.00  0.00     0.091 C 
ENDROOT
BRANCH   1   7
ATOM      7  O   LIG d   1      -5.531  77.175 116.091  0.00  0.00    -0.368 OA
BRANCH   7   8
ATOM      8  C   LIG d   1      -4.107  76.908 116.082  0.00  0.00     0.119 C 
BRANCH   8   9
ATOM      9  C   LIG d   1      -3.416  78.105 115.401  0.00  0.00     0.028 C 
ATOM     10  C   LIG d   1      -3.392  79.355 116.295  0.00  0.00     0.006 C 
ENDBRANCH   8   9
BRANCH   8  11
ATOM     11  C   LIG d   1      -3.773  75.695 115.208  0.00  0.00     0.028 C 
ATOM     12  C   LIG d   1      -2.679  74.805 115.817  0.00  0.00     0.006 C 
ENDBRANCH   8  11
ENDBRANCH   7   8
ENDBRANCH   1   7
BRANCH   6  13
ATOM     13  N   LIG d   1      -6.254  78.989 118.387  0.00  0.00    -0.311 N 
ATOM     14  C   LIG d   1      -6.460  80.300 118.275  0.00  0.00     0.210 C 
ATOM     15  C   LIG d   1      -5.420  81.180 118.975  0.00  0.00     0.109 C 
ATOM     16  O   LIG d   1      -7.423  80.817 117.689  0.00  0.00    -0.276 OA
ATOM     17  H   LIG d   1      -5.465  78.656 118.907  0.00  0.00     0.149 HD
ENDBRANCH   6  13
BRANCH   5  18
ATOM     18  N   LIG d   1      -9.187  78.540 119.113  0.00  0.00     0.381 N 
ATOM     19  H   LIG d   1     -10.114  78.282 118.840  0.00  0.00    -0.090 HD
ATOM     20  H   LIG d   1      -8.940  79.385 118.628  0.00  0.00    -0.090 HD
ATOM     21  H   LIG d   1      -9.152  78.691 120.097  0.00  0.00    -0.090 HD
ENDBRANCH   5  18
BRANCH   3  22
ATOM     22  C   LIG d   1      -8.760  74.067 117.456  0.00  0.00     0.382 C 
ATOM     23  O   LIG d   1      -7.993  73.074 117.483  0.00  0.00    -0.241 OA
ATOM     24  O   LIG d   1      -9.987  73.890 117.329  0.00  0.00    -0.241 OA
ENDBRANCH   3  22
TORSDOF 7
ENDMDL
MODEL 9
REMARK VINA RESULT:      -4.6     18.558     21.319
REMARK  7 active torsions:
REMARK  status: ('A' for Active; 'I' for Inactive)
REMARK    1  A    between atoms: C_2  and  C_3 
REMARK    2  A    between atoms: C_3  and  O_6 
REMARK    3  A    between atoms: C_3  and  C_4 
REMARK    4  A    between atoms: C_7  and  O_6 
REMARK    5  A    between atoms: C_9  and  C_10 
REMARK    6  A    between atoms: N_15  and  C_14 
REMARK    7  A    between atoms: N_20  and  C_19 
REMARK       I    between atoms: C_22  and  N_20 
ROOT
ATOM      1  C   LIG d   1      -5.199  95.995 120.006  0.00  0.00     0.161 C 
ATOM      2  C   LIG d   1      -6.424  95.557 119.477  0.00  0.00     0.016 C 
ATOM      3  C   LIG d   1      -7.226  96.343 118.618  0.00  0.00     0.038 C 
ATOM      4  C   LIG d   1      -6.781  97.571 118.105  0.00  0.00     0.028 C 
ATOM      5  C   LIG d   1      -5.776  98.276 119.010  0.00  0.00    -0.047 C 
ATOM      6  C   LIG d   1      -4.644  97.286 119.369  0.00  0.00     0.091 C 
ENDROOT
BRANCH   1   7
ATOM      7  O   LIG d   1      -4.224  94.936 119.921  0.00  0.00    -0.368 OA
BRANCH   7   8
ATOM      8  C   LIG d   1      -3.865  94.506 118.585  0.00  0.00     0.119 C 
BRANCH   8   9
ATOM      9  C   LIG d   1      -4.051  92.977 118.526  0.00  0.00     0.028 C 
ATOM     10  C   LIG d   1      -4.525  92.498 117.143  0.00  0.00     0.006 C 
ENDBRANCH   8   9
BRANCH   8  11
ATOM     11  C   LIG d   1      -2.378  94.744 118.304  0.00  0.00     0.028 C 
ATOM     12  C   LIG d   1      -1.546  94.896 119.587  0.00  0.00     0.006 C 
ENDBRANCH   8  11
ENDBRANCH   7   8
ENDBRANCH   1   7
BRANCH   6  13
ATOM     13  N   LIG d   1      -3.662  97.870 120.319  0.00  0.00    -0.311 N 
ATOM     14  C   LIG d   1      -2.533  98.463 119.935  0.00  0.00     0.210 C 
ATOM     15  C   LIG d   1      -1.651  98.979 121.077  0.00  0.00     0.109 C 
ATOM     16  O   LIG d   1      -2.193  98.640 118.755  0.00  0.00    -0.276 OA
ATOM     17  H   LIG d   1      -3.873  97.799 121.295  0.00  0.00     0.149 HD
ENDBRANCH   6  13
BRANCH   5  18
ATOM     18  N   LIG d   1      -5.293  99.471 118.292  0.00  0.00     0.381 N 
ATOM     19  H   LIG d   1      -4.949  99.208 117.390  0.00  0.00    -0.090 HD
ATOM     20  H   LIG d   1      -4.536  99.878 118.812  0.00  0.00    -0.090 HD
ATOM     21  H   LIG d   1      -6.032 100.132 118.194  0.00  0.00    -0.090 HD
ENDBRANCH   5  18
BRANCH   3  22
ATOM     22  C   LIG d   1      -8.507  95.920 118.295  0.00  0.00     0.382 C 
ATOM     23  O   LIG d   1      -8.999  94.918 118.868  0.00  0.00    -0.241 OA
ATOM     24  O   LIG d   1      -9.159  96.501 117.407  0.00  0.00    -0.241 OA
ENDBRANCH   3  22
TORSDOF 7
ENDMDL
