MODEL 1
REMARK VINA RESULT:      -5.2      0.000      0.000
REMARK  7 active torsions:
REMARK  status: ('A' for Active; 'I' for Inactive)
REMARK    1  A    between atoms: C_2  and  C_3 
REMARK    2  A    between atoms: C_3  and  O_6 
REMARK    3  A    between atoms: C_3  and  C_4 
REMARK    4  A    between atoms: C_7  and  O_6 
REMARK    5  A    between atoms: C_9  and  C_10 
REMARK    6  A    between atoms: N_15  and  C_14 
REMARK    7  A    between atoms: N_20  and  C_19 
REMARK       I    between atoms: C_22  and  N_20 
ROOT
ATOM      1  C   LIG d   1      -6.452  93.741 118.192  0.00  0.00     0.161 C 
ATOM      2  C   LIG d   1      -7.115  92.968 117.225  0.00  0.00     0.016 C 
ATOM      3  C   LIG d   1      -6.492  91.925 116.501  0.00  0.00     0.038 C 
ATOM      4  C   LIG d   1      -5.196  91.482 116.806  0.00  0.00     0.028 C 
ATOM      5  C   LIG d   1      -4.317  92.562 117.427  0.00  0.00    -0.047 C 
ATOM      6  C   LIG d   1      -5.071  93.200 118.617  0.00  0.00     0.091 C 
ENDROOT
BRANCH   1   7
ATOM      7  O   LIG d   1      -7.299  93.913 119.345  0.00  0.00    -0.368 OA
BRANCH   7   8
ATOM      8  C   LIG d   1      -7.845  95.240 119.542  0.00  0.00     0.119 C 
BRANCH   8   9
ATOM      9  C   LIG d   1      -9.346  95.180 119.196  0.00  0.00     0.028 C 
ATOM     10  C   LIG d   1     -10.200  94.682 120.375  0.00  0.00     0.006 C 
ENDBRANCH   8   9
BRANCH   8  11
ATOM     11  C   LIG d   1      -7.242  96.244 118.555  0.00  0.00     0.028 C 
ATOM     12  C   LIG d   1      -6.499  97.394 119.253  0.00  0.00     0.006 C 
ENDBRANCH   8  11
ENDBRANCH   7   8
ENDBRANCH   1   7
BRANCH   6  13
ATOM     13  N   LIG d   1      -4.316  94.325 119.229  0.00  0.00    -0.311 N 
ATOM     14  C   LIG d   1      -4.095  94.433 120.538  0.00  0.00     0.210 C 
ATOM     15  C   LIG d   1      -3.312  95.681 120.960  0.00  0.00     0.109 C 
ATOM     16  O   LIG d   1      -4.446  93.599 121.386  0.00  0.00    -0.276 OA
ATOM     17  H   LIG d   1      -3.968  95.030 118.610  0.00  0.00     0.149 HD
ENDBRANCH   6  13
BRANCH   5  18
ATOM     18  N   LIG d   1      -3.044  91.930 117.821  0.00  0.00     0.381 N 
ATOM     19  H   LIG d   1      -2.297  92.302 117.270  0.00  0.00    -0.090 HD
ATOM     20  H   LIG d   1      -3.104  90.942 117.645  0.00  0.00    -0.090 HD
ATOM     21  H   LIG d   1      -2.867  92.092 118.787  0.00  0.00    -0.090 HD
ENDBRANCH   5  18
BRANCH   3  22
ATOM     22  C   LIG d   1      -7.154  91.339 115.433  0.00  0.00     0.382 C 
ATOM     23  O   LIG d   1      -6.846  90.180 115.064  0.00  0.00    -0.241 OA
ATOM     24  O   LIG d   1      -8.024  91.972 114.805  0.00  0.00    -0.241 OA
ENDBRANCH   3  22
TORSDOF 7
ENDMDL
MODEL 2
REMARK VINA RESULT:      -4.7     13.888     16.250
REMARK  7 active torsions:
REMARK  status: ('A' for Active; 'I' for Inactive)
REMARK    1  A    between atoms: C_2  and  C_3 
REMARK    2  A    between atoms: C_3  and  O_6 
REMARK    3  A    between atoms: C_3  and  C_4 
REMARK    4  A    between atoms: C_7  and  O_6 
REMARK    5  A    between atoms: C_9  and  C_10 
REMARK    6  A    between atoms: N_15  and  C_14 
REMARK    7  A    between atoms: N_20  and  C_19 
REMARK       I    between atoms: C_22  and  N_20 
ROOT
ATOM      1  C   LIG d   1      -6.918  77.456 118.967  0.00  0.00     0.161 C 
ATOM      2  C   LIG d   1      -8.274  77.701 119.241  0.00  0.00     0.016 C 
ATOM      3  C   LIG d   1      -8.853  78.990 119.212  0.00  0.00     0.038 C 
ATOM      4  C   LIG d   1      -8.145  80.111 118.756  0.00  0.00     0.028 C 
ATOM      5  C   LIG d   1      -6.637  79.996 118.953  0.00  0.00    -0.047 C 
ATOM      6  C   LIG d   1      -6.155  78.652 118.360  0.00  0.00     0.091 C 
ENDROOT
BRANCH   1   7
ATOM      7  O   LIG d   1      -6.792  76.298 118.118  0.00  0.00    -0.368 OA
BRANCH   7   8
ATOM      8  C   LIG d   1      -7.747  76.197 117.033  0.00  0.00     0.119 C 
BRANCH   8   9
ATOM      9  C   LIG d   1      -8.522  74.878 117.221  0.00  0.00     0.028 C 
ATOM     10  C   LIG d   1     -10.035  75.103 117.376  0.00  0.00     0.006 C 
ENDBRANCH   8   9
BRANCH   8  11
ATOM     11  C   LIG d   1      -7.042  76.064 115.680  0.00  0.00     0.028 C 
ATOM     12  C   LIG d   1      -5.515  75.950 115.813  0.00  0.00     0.006 C 
ENDBRANCH   8  11
ENDBRANCH   7   8
ENDBRANCH   1   7
BRANCH   6  13
ATOM     13  N   LIG d   1      -4.704  78.421 118.584  0.00  0.00    -0.311 N 
ATOM     14  C   LIG d   1      -3.763  78.766 117.708  0.00  0.00     0.210 C 
ATOM     15  C   LIG d   1      -2.331  78.420 118.127  0.00  0.00     0.109 C 
ATOM     16  O   LIG d   1      -3.975  79.355 116.637  0.00  0.00    -0.276 OA
ATOM     17  H   LIG d   1      -4.440  77.976 119.441  0.00  0.00     0.149 HD
ENDBRANCH   6  13
BRANCH   5  18
ATOM     18  N   LIG d   1      -6.013  81.168 118.311  0.00  0.00     0.381 N 
ATOM     19  H   LIG d   1      -5.034  81.004 118.185  0.00  0.00    -0.090 HD
ATOM     20  H   LIG d   1      -6.125  81.966 118.911  0.00  0.00    -0.090 HD
ATOM     21  H   LIG d   1      -6.443  81.343 117.429  0.00  0.00    -0.090 HD
ENDBRANCH   5  18
BRANCH   3  22
ATOM     22  C   LIG d   1     -10.145  79.173 119.681  0.00  0.00     0.382 C 
ATOM     23  O   LIG d   1     -10.471  80.261 120.214  0.00  0.00    -0.241 OA
ATOM     24  O   LIG d   1     -10.978  78.248 119.617  0.00  0.00    -0.241 OA
ENDBRANCH   3  22
TORSDOF 7
ENDMDL
MODEL 3
REMARK VINA RESULT:      -4.7     12.146     14.289
REMARK  7 active torsions:
REMARK  status: ('A' for Active; 'I' for Inactive)
REMARK    1  A    between atoms: C_2  and  C_3 
REMARK    2  A    between atoms: C_3  and  O_6 
REMARK    3  A    between atoms: C_3  and  C_4 
REMARK    4  A    between atoms: C_7  and  O_6 
REMARK    5  A    between atoms: C_9  and  C_10 
REMARK    6  A    between atoms: N_15  and  C_14 
REMARK    7  A    between atoms: N_20  and  C_19 
REMARK       I    between atoms: C_22  and  N_20 
ROOT
ATOM      1  C   LIG d   1      -6.982  80.411 118.770  0.00  0.00     0.161 C 
ATOM      2  C   LIG d   1      -5.743  80.203 118.140  0.00  0.00     0.016 C 
ATOM      3  C   LIG d   1      -5.167  78.924 117.961  0.00  0.00     0.038 C 
ATOM      4  C   LIG d   1      -5.865  77.747 118.266  0.00  0.00     0.028 C 
ATOM      5  C   LIG d   1      -6.906  77.927 119.366  0.00  0.00    -0.047 C 
ATOM      6  C   LIG d   1      -7.809  79.131 119.009  0.00  0.00     0.091 C 
ENDROOT
BRANCH   1   7
ATOM      7  O   LIG d   1      -7.753  81.374 118.024  0.00  0.00    -0.368 OA
BRANCH   7   8
ATOM      8  C   LIG d   1      -7.977  82.650 118.671  0.00  0.00     0.119 C 
BRANCH   8   9
ATOM      9  C   LIG d   1      -7.099  82.688 119.937  0.00  0.00     0.028 C 
ATOM     10  C   LIG d   1      -6.151  83.898 119.958  0.00  0.00     0.006 C 
ENDBRANCH   8   9
BRANCH   8  11
ATOM     11  C   LIG d   1      -9.418  82.776 119.173  0.00  0.00     0.028 C 
ATOM     12  C   LIG d   1     -10.439  82.139 118.217  0.00  0.00     0.006 C 
ENDBRANCH   8  11
ENDBRANCH   7   8
ENDBRANCH   1   7
BRANCH   6  13
ATOM     13  N   LIG d   1      -8.802  79.429 120.074  0.00  0.00    -0.311 N 
ATOM     14  C   LIG d   1     -10.058  78.985 120.050  0.00  0.00     0.210 C 
ATOM     15  C   LIG d   1     -10.921  79.426 121.236  0.00  0.00     0.109 C 
ATOM     16  O   LIG d   1     -10.529  78.242 119.176  0.00  0.00    -0.276 OA
ATOM     17  H   LIG d   1      -8.495  80.000 120.836  0.00  0.00     0.149 HD
ENDBRANCH   6  13
BRANCH   5  18
ATOM     18  N   LIG d   1      -7.652  76.661 119.486  0.00  0.00     0.381 N 
ATOM     19  H   LIG d   1      -7.215  75.956 118.926  0.00  0.00    -0.090 HD
ATOM     20  H   LIG d   1      -8.587  76.800 119.144  0.00  0.00    -0.090 HD
ATOM     21  H   LIG d   1      -7.678  76.369 120.438  0.00  0.00    -0.090 HD
ENDBRANCH   5  18
BRANCH   3  22
ATOM     22  C   LIG d   1      -3.861  78.817 117.508  0.00  0.00     0.382 C 
ATOM     23  O   LIG d   1      -3.012  78.186 118.184  0.00  0.00    -0.241 OA
ATOM     24  O   LIG d   1      -3.509  79.380 116.454  0.00  0.00    -0.241 OA
ENDBRANCH   3  22
TORSDOF 7
ENDMDL
MODEL 4
REMARK VINA RESULT:      -4.7     14.122     16.404
REMARK  7 active torsions:
REMARK  status: ('A' for Active; 'I' for Inactive)
REMARK    1  A    between atoms: C_2  and  C_3 
REMARK    2  A    between atoms: C_3  and  O_6 
REMARK    3  A    between atoms: C_3  and  C_4 
REMARK    4  A    between atoms: C_7  and  O_6 
REMARK    5  A    between atoms: C_9  and  C_10 
REMARK    6  A    between atoms: N_15  and  C_14 
REMARK    7  A    between atoms: N_20  and  C_19 
REMARK       I    between atoms: C_22  and  N_20 
ROOT
ATOM      1  C   LIG d   1      -6.760  77.646 118.102  0.00  0.00     0.161 C 
ATOM      2  C   LIG d   1      -6.264  76.864 117.045  0.00  0.00     0.016 C 
ATOM      3  C   LIG d   1      -7.012  75.842 116.417  0.00  0.00     0.038 C 
ATOM      4  C   LIG d   1      -8.370  75.633 116.704  0.00  0.00     0.028 C 
ATOM      5  C   LIG d   1      -8.764  76.061 118.114  0.00  0.00    -0.047 C 
ATOM      6  C   LIG d   1      -8.276  77.508 118.353  0.00  0.00     0.091 C 
ENDROOT
BRANCH   1   7
ATOM      7  O   LIG d   1      -6.411  79.029 117.891  0.00  0.00    -0.368 OA
BRANCH   7   8
ATOM      8  C   LIG d   1      -5.306  79.535 118.679  0.00  0.00     0.119 C 
BRANCH   8   9
ATOM      9  C   LIG d   1      -5.691  80.947 119.163  0.00  0.00     0.028 C 
ATOM     10  C   LIG d   1      -7.043  81.412 118.597  0.00  0.00     0.006 C 
ENDBRANCH   8   9
BRANCH   8  11
ATOM     11  C   LIG d   1      -4.052  79.728 117.822  0.00  0.00     0.028 C 
ATOM     12  C   LIG d   1      -2.928  78.742 118.180  0.00  0.00     0.006 C 
ENDBRANCH   8  11
ENDBRANCH   7   8
ENDBRANCH   1   7
BRANCH   6  13
ATOM     13  N   LIG d   1      -8.546  77.975 119.738  0.00  0.00    -0.311 N 
ATOM     14  C   LIG d   1      -9.627  78.675 120.078  0.00  0.00     0.210 C 
ATOM     15  C   LIG d   1      -9.702  79.074 121.555  0.00  0.00     0.109 C 
ATOM     16  O   LIG d   1     -10.548  78.975 119.303  0.00  0.00    -0.276 OA
ATOM     17  H   LIG d   1      -7.866  77.749 120.437  0.00  0.00     0.149 HD
ENDBRANCH   6  13
BRANCH   5  18
ATOM     18  N   LIG d   1     -10.227  75.918 118.230  0.00  0.00     0.381 N 
ATOM     19  H   LIG d   1     -10.642  75.925 117.320  0.00  0.00    -0.090 HD
ATOM     20  H   LIG d   1     -10.590  76.698 118.749  0.00  0.00    -0.090 HD
ATOM     21  H   LIG d   1     -10.450  75.066 118.698  0.00  0.00    -0.090 HD
ENDBRANCH   5  18
BRANCH   3  22
ATOM     22  C   LIG d   1      -6.391  74.989 115.518  0.00  0.00     0.382 C 
ATOM     23  O   LIG d   1      -5.426  75.399 114.829  0.00  0.00    -0.241 OA
ATOM     24  O   LIG d   1      -6.810  73.827 115.355  0.00  0.00    -0.241 OA
ENDBRANCH   3  22
TORSDOF 7
ENDMDL
MODEL 5
REMARK VINA RESULT:      -4.5     14.209     16.693
REMARK  7 active torsions:
REMARK  status: ('A' for Active; 'I' for Inactive)
REMARK    1  A    between atoms: C_2  and  C_3 
REMARK    2  A    between atoms: C_3  and  O_6 
REMARK    3  A    between atoms: C_3  and  C_4 
REMARK    4  A    between atoms: C_7  and  O_6 
REMARK    5  A    between atoms: C_9  and  C_10 
REMARK    6  A    between atoms: N_15  and  C_14 
REMARK    7  A    between atoms: N_20  and  C_19 
REMARK       I    between atoms: C_22  and  N_20 
ROOT
ATOM      1  C   LIG d   1      -6.698  77.273 118.213  0.00  0.00     0.161 C 
ATOM      2  C   LIG d   1      -7.923  76.648 117.929  0.00  0.00     0.016 C 
ATOM      3  C   LIG d   1      -9.155  77.062 118.486  0.00  0.00     0.038 C 
ATOM      4  C   LIG d   1      -9.267  78.232 119.252  0.00  0.00     0.028 C 
ATOM      5  C   LIG d   1      -7.978  78.606 119.976  0.00  0.00    -0.047 C 
ATOM      6  C   LIG d   1      -6.815  78.618 118.958  0.00  0.00     0.091 C 
ENDROOT
BRANCH   1   7
ATOM      7  O   LIG d   1      -5.940  77.437 116.998  0.00  0.00    -0.368 OA
BRANCH   7   8
ATOM      8  C   LIG d   1      -4.945  76.421 116.725  0.00  0.00     0.119 C 
BRANCH   8   9
ATOM      9  C   LIG d   1      -3.561  77.092 116.817  0.00  0.00     0.028 C 
ATOM     10  C   LIG d   1      -2.750  76.601 118.028  0.00  0.00     0.006 C 
ENDBRANCH   8   9
BRANCH   8  11
ATOM     11  C   LIG d   1      -5.051  75.909 115.285  0.00  0.00     0.028 C 
ATOM     12  C   LIG d   1      -6.172  74.873 115.103  0.00  0.00     0.006 C 
ENDBRANCH   8  11
ENDBRANCH   7   8
ENDBRANCH   1   7
BRANCH   6  13
ATOM     13  N   LIG d   1      -5.503  78.893 119.600  0.00  0.00    -0.311 N 
ATOM     14  C   LIG d   1      -4.625  79.775 119.125  0.00  0.00     0.210 C 
ATOM     15  C   LIG d   1      -3.325  79.890 119.928  0.00  0.00     0.109 C 
ATOM     16  O   LIG d   1      -4.813  80.496 118.133  0.00  0.00    -0.276 OA
ATOM     17  H   LIG d   1      -5.283  78.375 120.428  0.00  0.00     0.149 HD
ENDBRANCH   6  13
BRANCH   5  18
ATOM     18  N   LIG d   1      -8.195  79.915 120.623  0.00  0.00     0.381 N 
ATOM     19  H   LIG d   1      -7.773  79.918 121.530  0.00  0.00    -0.090 HD
ATOM     20  H   LIG d   1      -9.182  80.063 120.734  0.00  0.00    -0.090 HD
ATOM     21  H   LIG d   1      -7.803  80.640 120.064  0.00  0.00    -0.090 HD
ENDBRANCH   5  18
BRANCH   3  22
ATOM     22  C   LIG d   1     -10.286  76.279 118.310  0.00  0.00     0.382 C 
ATOM     23  O   LIG d   1     -10.195  75.163 117.745  0.00  0.00    -0.241 OA
ATOM     24  O   LIG d   1     -11.404  76.695 118.670  0.00  0.00    -0.241 OA
ENDBRANCH   3  22
TORSDOF 7
ENDMDL
MODEL 6
REMARK VINA RESULT:      -4.5      5.603      8.157
REMARK  7 active torsions:
REMARK  status: ('A' for Active; 'I' for Inactive)
REMARK    1  A    between atoms: C_2  and  C_3 
REMARK    2  A    between atoms: C_3  and  O_6 
REMARK    3  A    between atoms: C_3  and  C_4 
REMARK    4  A    between atoms: C_7  and  O_6 
REMARK    5  A    between atoms: C_9  and  C_10 
REMARK    6  A    between atoms: N_15  and  C_14 
REMARK    7  A    between atoms: N_20  and  C_19 
REMARK       I    between atoms: C_22  and  N_20 
ROOT
ATOM      1  C   LIG d   1      -0.162  91.167 117.579  0.00  0.00     0.161 C 
ATOM      2  C   LIG d   1       1.215  91.208 117.303  0.00  0.00     0.016 C 
ATOM      3  C   LIG d   1       1.955  92.409 117.211  0.00  0.00     0.038 C 
ATOM      4  C   LIG d   1       1.394  93.652 117.539  0.00  0.00     0.028 C 
ATOM      5  C   LIG d   1      -0.116  93.710 117.331  0.00  0.00    -0.047 C 
ATOM      6  C   LIG d   1      -0.767  92.506 118.049  0.00  0.00     0.091 C 
ENDROOT
BRANCH   1   7
ATOM      7  O   LIG d   1      -0.438  90.128 118.539  0.00  0.00    -0.368 OA
BRANCH   7   8
ATOM      8  C   LIG d   1      -1.221  89.008 118.058  0.00  0.00     0.119 C 
BRANCH   8   9
ATOM      9  C   LIG d   1      -2.478  88.907 118.944  0.00  0.00     0.028 C 
ATOM     10  C   LIG d   1      -2.371  87.783 119.989  0.00  0.00     0.006 C 
ENDBRANCH   8   9
BRANCH   8  11
ATOM     11  C   LIG d   1      -0.479  87.683 118.255  0.00  0.00     0.028 C 
ATOM     12  C   LIG d   1       0.438  87.331 117.073  0.00  0.00     0.006 C 
ENDBRANCH   8  11
ENDBRANCH   7   8
ENDBRANCH   1   7
BRANCH   6  13
ATOM     13  N   LIG d   1      -2.235  92.440 117.825  0.00  0.00    -0.311 N 
ATOM     14  C   LIG d   1      -3.127  92.998 118.642  0.00  0.00     0.210 C 
ATOM     15  C   LIG d   1      -4.591  92.794 118.237  0.00  0.00     0.109 C 
ATOM     16  O   LIG d   1      -2.845  93.671 119.644  0.00  0.00    -0.276 OA
ATOM     17  H   LIG d   1      -2.551  91.940 117.018  0.00  0.00     0.149 HD
ENDBRANCH   6  13
BRANCH   5  18
ATOM     18  N   LIG d   1      -0.586  95.012 117.841  0.00  0.00     0.381 N 
ATOM     19  H   LIG d   1      -1.458  94.893 118.318  0.00  0.00    -0.090 HD
ATOM     20  H   LIG d   1      -0.734  95.631 117.063  0.00  0.00    -0.090 HD
ATOM     21  H   LIG d   1       0.090  95.400 118.460  0.00  0.00    -0.090 HD
ENDBRANCH   5  18
BRANCH   3  22
ATOM     22  C   LIG d   1       3.261  92.377 116.748  0.00  0.00     0.382 C 
ATOM     23  O   LIG d   1       4.033  93.338 116.983  0.00  0.00    -0.241 OA
ATOM     24  O   LIG d   1       3.664  91.421 116.059  0.00  0.00    -0.241 OA
ENDBRANCH   3  22
TORSDOF 7
ENDMDL
MODEL 7
REMARK VINA RESULT:      -4.5     13.733     16.256
REMARK  7 active torsions:
REMARK  status: ('A' for Active; 'I' for Inactive)
REMARK    1  A    between atoms: C_2  and  C_3 
REMARK    2  A    between atoms: C_3  and  O_6 
REMARK    3  A    between atoms: C_3  and  C_4 
REMARK    4  A    between atoms: C_7  and  O_6 
REMARK    5  A    between atoms: C_9  and  C_10 
REMARK    6  A    between atoms: N_15  and  C_14 
REMARK    7  A    between atoms: N_20  and  C_19 
REMARK       I    between atoms: C_22  and  N_20 
ROOT
ATOM      1  C   LIG d   1      -6.449  77.715 119.274  0.00  0.00     0.161 C 
ATOM      2  C   LIG d   1      -7.378  78.768 119.258  0.00  0.00     0.016 C 
ATOM      3  C   LIG d   1      -7.089  80.054 118.747  0.00  0.00     0.038 C 
ATOM      4  C   LIG d   1      -5.889  80.332 118.075  0.00  0.00     0.028 C 
ATOM      5  C   LIG d   1      -4.729  79.446 118.516  0.00  0.00    -0.047 C 
ATOM      6  C   LIG d   1      -5.172  77.967 118.445  0.00  0.00     0.091 C 
ENDROOT
BRANCH   1   7
ATOM      7  O   LIG d   1      -7.087  76.493 118.853  0.00  0.00    -0.368 OA
BRANCH   7   8
ATOM      8  C   LIG d   1      -7.974  76.598 117.712  0.00  0.00     0.119 C 
BRANCH   8   9
ATOM      9  C   LIG d   1      -9.388  76.215 118.189  0.00  0.00     0.028 C 
ATOM     10  C   LIG d   1      -9.985  75.051 117.380  0.00  0.00     0.006 C 
ENDBRANCH   8   9
BRANCH   8  11
ATOM     11  C   LIG d   1      -7.618  75.571 116.633  0.00  0.00     0.028 C 
ATOM     12  C   LIG d   1      -6.492  76.049 115.703  0.00  0.00     0.006 C 
ENDBRANCH   8  11
ENDBRANCH   7   8
ENDBRANCH   1   7
BRANCH   6  13
ATOM     13  N   LIG d   1      -4.124  77.037 118.939  0.00  0.00    -0.311 N 
ATOM     14  C   LIG d   1      -3.208  76.477 118.150  0.00  0.00     0.210 C 
ATOM     15  C   LIG d   1      -2.232  75.533 118.860  0.00  0.00     0.109 C 
ATOM     16  O   LIG d   1      -3.091  76.699 116.935  0.00  0.00    -0.276 OA
ATOM     17  H   LIG d   1      -4.126  76.826 119.918  0.00  0.00     0.149 HD
ENDBRANCH   6  13
BRANCH   5  18
ATOM     18  N   LIG d   1      -3.580  79.748 117.641  0.00  0.00     0.381 N 
ATOM     19  H   LIG d   1      -2.922  78.995 117.674  0.00  0.00    -0.090 HD
ATOM     20  H   LIG d   1      -3.126  80.579 117.976  0.00  0.00    -0.090 HD
ATOM     21  H   LIG d   1      -3.891  79.885 116.704  0.00  0.00    -0.090 HD
ENDBRANCH   5  18
BRANCH   3  22
ATOM     22  C   LIG d   1      -7.989  81.090 118.942  0.00  0.00     0.382 C 
ATOM     23  O   LIG d   1      -8.308  81.433 120.106  0.00  0.00    -0.241 OA
ATOM     24  O   LIG d   1      -8.521  81.657 117.968  0.00  0.00    -0.241 OA
ENDBRANCH   3  22
TORSDOF 7
ENDMDL
MODEL 8
REMARK VINA RESULT:      -4.4      1.793      2.025
REMARK  7 active torsions:
REMARK  status: ('A' for Active; 'I' for Inactive)
REMARK    1  A    between atoms: C_2  and  C_3 
REMARK    2  A    between atoms: C_3  and  O_6 
REMARK    3  A    between atoms: C_3  and  C_4 
REMARK    4  A    between atoms: C_7  and  O_6 
REMARK    5  A    between atoms: C_9  and  C_10 
REMARK    6  A    between atoms: N_15  and  C_14 
REMARK    7  A    between atoms: N_20  and  C_19 
REMARK       I    between atoms: C_22  and  N_20 
ROOT
ATOM      1  C   LIG d   1      -5.141  93.472 119.058  0.00  0.00     0.161 C 
ATOM      2  C   LIG d   1      -6.127  93.176 118.102  0.00  0.00     0.016 C 
ATOM      3  C   LIG d   1      -5.925  92.279 117.028  0.00  0.00     0.038 C 
ATOM      4  C   LIG d   1      -4.765  91.497 116.923  0.00  0.00     0.028 C 
ATOM      5  C   LIG d   1      -3.544  92.134 117.578  0.00  0.00    -0.047 C 
ATOM      6  C   LIG d   1      -3.907  92.545 119.023  0.00  0.00     0.091 C 
ENDROOT
BRANCH   1   7
ATOM      7  O   LIG d   1      -5.724  93.480 120.376  0.00  0.00    -0.368 OA
BRANCH   7   8
ATOM      8  C   LIG d   1      -5.931  94.784 120.973  0.00  0.00     0.119 C 
BRANCH   8   9
ATOM      9  C   LIG d   1      -7.421  95.140 120.802  0.00  0.00     0.028 C 
ATOM     10  C   LIG d   1      -8.347  94.167 121.551  0.00  0.00     0.006 C 
ENDBRANCH   8   9
BRANCH   8  11
ATOM     11  C   LIG d   1      -5.165  95.872 120.215  0.00  0.00     0.028 C 
ATOM     12  C   LIG d   1      -5.455  97.285 120.745  0.00  0.00     0.006 C 
ENDBRANCH   8  11
ENDBRANCH   7   8
ENDBRANCH   1   7
BRANCH   6  13
ATOM     13  N   LIG d   1      -2.794  93.252 119.708  0.00  0.00    -0.311 N 
ATOM     14  C   LIG d   1      -1.914  92.641 120.500  0.00  0.00     0.210 C 
ATOM     15  C   LIG d   1      -0.858  93.560 121.123  0.00  0.00     0.109 C 
ATOM     16  O   LIG d   1      -1.889  91.421 120.719  0.00  0.00    -0.276 OA
ATOM     17  H   LIG d   1      -2.722  94.240 119.561  0.00  0.00     0.149 HD
ENDBRANCH   6  13
BRANCH   5  18
ATOM     18  N   LIG d   1      -2.443  91.155 117.515  0.00  0.00     0.381 N 
ATOM     19  H   LIG d   1      -2.764  90.263 117.835  0.00  0.00    -0.090 HD
ATOM     20  H   LIG d   1      -1.702  91.459 118.122  0.00  0.00    -0.090 HD
ATOM     21  H   LIG d   1      -2.106  91.079 116.581  0.00  0.00    -0.090 HD
ENDBRANCH   5  18
BRANCH   3  22
ATOM     22  C   LIG d   1      -6.874  92.187 116.022  0.00  0.00     0.382 C 
ATOM     23  O   LIG d   1      -6.514  92.156 114.820  0.00  0.00    -0.241 OA
ATOM     24  O   LIG d   1      -8.089  92.178 116.298  0.00  0.00    -0.241 OA
ENDBRANCH   3  22
TORSDOF 7
ENDMDL
MODEL 9
REMARK VINA RESULT:      -4.4      1.487      4.650
REMARK  7 active torsions:
REMARK  status: ('A' for Active; 'I' for Inactive)
REMARK    1  A    between atoms: C_2  and  C_3 
REMARK    2  A    between atoms: C_3  and  O_6 
REMARK    3  A    between atoms: C_3  and  C_4 
REMARK    4  A    between atoms: C_7  and  O_6 
REMARK    5  A    between atoms: C_9  and  C_10 
REMARK    6  A    between atoms: N_15  and  C_14 
REMARK    7  A    between atoms: N_20  and  C_19 
REMARK       I    between atoms: C_22  and  N_20 
ROOT
ATOM      1  C   LIG d   1      -6.184  93.462 118.640  0.00  0.00     0.161 C 
ATOM      2  C   LIG d   1      -5.259  94.075 119.501  0.00  0.00     0.016 C 
ATOM      3  C   LIG d   1      -3.883  93.751 119.522  0.00  0.00     0.038 C 
ATOM      4  C   LIG d   1      -3.308  92.893 118.572  0.00  0.00     0.028 C 
ATOM      5  C   LIG d   1      -4.288  91.869 118.010  0.00  0.00    -0.047 C 
ATOM      6  C   LIG d   1      -5.557  92.605 117.521  0.00  0.00     0.091 C 
ENDROOT
BRANCH   1   7
ATOM      7  O   LIG d   1      -7.061  94.457 118.077  0.00  0.00    -0.368 OA
BRANCH   7   8
ATOM      8  C   LIG d   1      -7.689  95.361 119.019  0.00  0.00     0.119 C 
BRANCH   8   9
ATOM      9  C   LIG d   1      -9.185  95.000 119.081  0.00  0.00     0.028 C 
ATOM     10  C   LIG d   1      -9.937  95.797 120.160  0.00  0.00     0.006 C 
ENDBRANCH   8   9
BRANCH   8  11
ATOM     11  C   LIG d   1      -7.641  96.808 118.520  0.00  0.00     0.028 C 
ATOM     12  C   LIG d   1      -6.984  97.765 119.528  0.00  0.00     0.006 C 
ENDBRANCH   8  11
ENDBRANCH   7   8
ENDBRANCH   1   7
BRANCH   6  13
ATOM     13  N   LIG d   1      -6.602  91.668 117.033  0.00  0.00    -0.311 N 
ATOM     14  C   LIG d   1      -6.880  91.487 115.742  0.00  0.00     0.210 C 
ATOM     15  C   LIG d   1      -8.008  90.490 115.457  0.00  0.00     0.109 C 
ATOM     16  O   LIG d   1      -6.278  92.034 114.806  0.00  0.00    -0.276 OA
ATOM     17  H   LIG d   1      -7.119  91.160 117.724  0.00  0.00     0.149 HD
ENDBRANCH   6  13
BRANCH   5  18
ATOM     18  N   LIG d   1      -3.596  91.134 116.935  0.00  0.00     0.381 N 
ATOM     19  H   LIG d   1      -4.133  90.331 116.674  0.00  0.00    -0.090 HD
ATOM     20  H   LIG d   1      -2.705  90.820 117.277  0.00  0.00    -0.090 HD
ATOM     21  H   LIG d   1      -3.466  91.727 116.145  0.00  0.00    -0.090 HD
ENDBRANCH   5  18
BRANCH   3  22
ATOM     22  C   LIG d   1      -3.073  94.257 120.528  0.00  0.00     0.382 C 
ATOM     23  O   LIG d   1      -2.613  95.421 120.436  0.00  0.00    -0.241 OA
ATOM     24  O   LIG d   1      -2.761  93.549 121.504  0.00  0.00    -0.241 OA
ENDBRANCH   3  22
TORSDOF 7
ENDMDL
