MODEL 1
REMARK VINA RESULT:      -5.3      0.000      0.000
REMARK  7 active torsions:
REMARK  status: ('A' for Active; 'I' for Inactive)
REMARK    1  A    between atoms: C_2  and  C_3 
REMARK    2  A    between atoms: C_3  and  O_6 
REMARK    3  A    between atoms: C_3  and  C_4 
REMARK    4  A    between atoms: C_7  and  O_6 
REMARK    5  A    between atoms: C_9  and  C_10 
REMARK    6  A    between atoms: N_15  and  C_14 
REMARK    7  A    between atoms: N_20  and  C_19 
REMARK       I    between atoms: C_22  and  N_20 
ROOT
ATOM      1  C   LIG d   1      -6.144  77.994 117.008  0.00  0.00     0.161 C 
ATOM      2  C   LIG d   1      -7.519  78.273 117.070  0.00  0.00     0.016 C 
ATOM      3  C   LIG d   1      -8.047  79.463 117.622  0.00  0.00     0.038 C 
ATOM      4  C   LIG d   1      -7.223  80.527 118.015  0.00  0.00     0.028 C 
ATOM      5  C   LIG d   1      -5.825  80.087 118.438  0.00  0.00    -0.047 C 
ATOM      6  C   LIG d   1      -5.225  79.191 117.330  0.00  0.00     0.091 C 
ENDROOT
BRANCH   1   7
ATOM      7  O   LIG d   1      -5.815  77.444 115.717  0.00  0.00    -0.368 OA
BRANCH   7   8
ATOM      8  C   LIG d   1      -5.356  76.069 115.708  0.00  0.00     0.119 C 
BRANCH   8   9
ATOM      9  C   LIG d   1      -4.109  76.003 114.805  0.00  0.00     0.028 C 
ATOM     10  C   LIG d   1      -2.939  75.263 115.474  0.00  0.00     0.006 C 
ENDBRANCH   8   9
BRANCH   8  11
ATOM     11  C   LIG d   1      -6.383  75.143 115.048  0.00  0.00     0.028 C 
ATOM     12  C   LIG d   1      -6.665  73.881 115.878  0.00  0.00     0.006 C 
ENDBRANCH   8  11
ENDBRANCH   7   8
ENDBRANCH   1   7
BRANCH   6  13
ATOM     13  N   LIG d   1      -3.892  78.648 117.700  0.00  0.00    -0.311 N 
ATOM     14  C   LIG d   1      -2.812  78.770 116.931  0.00  0.00     0.210 C 
ATOM     15  C   LIG d   1      -1.543  78.120 117.491  0.00  0.00     0.109 C 
ATOM     16  O   LIG d   1      -2.776  79.382 115.853  0.00  0.00    -0.276 OA
ATOM     17  H   LIG d   1      -3.824  78.163 118.574  0.00  0.00     0.149 HD
ENDBRANCH   6  13
BRANCH   5  18
ATOM     18  N   LIG d   1      -5.031  81.305 118.689  0.00  0.00     0.381 N 
ATOM     19  H   LIG d   1      -4.243  81.328 118.074  0.00  0.00    -0.090 HD
ATOM     20  H   LIG d   1      -4.693  81.283 119.635  0.00  0.00    -0.090 HD
ATOM     21  H   LIG d   1      -5.595  82.114 118.549  0.00  0.00    -0.090 HD
ENDBRANCH   5  18
BRANCH   3  22
ATOM     22  C   LIG d   1      -9.414  79.579 117.822  0.00  0.00     0.382 C 
ATOM     23  O   LIG d   1     -10.074  78.595 118.234  0.00  0.00    -0.241 OA
ATOM     24  O   LIG d   1     -10.003  80.644 117.554  0.00  0.00    -0.241 OA
ENDBRANCH   3  22
TORSDOF 7
ENDMDL
MODEL 2
REMARK VINA RESULT:      -5.3     13.060     15.706
REMARK  7 active torsions:
REMARK  status: ('A' for Active; 'I' for Inactive)
REMARK    1  A    between atoms: C_2  and  C_3 
REMARK    2  A    between atoms: C_3  and  O_6 
REMARK    3  A    between atoms: C_3  and  C_4 
REMARK    4  A    between atoms: C_7  and  O_6 
REMARK    5  A    between atoms: C_9  and  C_10 
REMARK    6  A    between atoms: N_15  and  C_14 
REMARK    7  A    between atoms: N_20  and  C_19 
REMARK       I    between atoms: C_22  and  N_20 
ROOT
ATOM      1  C   LIG d   1      -6.167  92.456 118.827  0.00  0.00     0.161 C 
ATOM      2  C   LIG d   1      -6.055  91.357 117.959  0.00  0.00     0.016 C 
ATOM      3  C   LIG d   1      -6.607  91.334 116.658  0.00  0.00     0.038 C 
ATOM      4  C   LIG d   1      -7.183  92.474 116.076  0.00  0.00     0.028 C 
ATOM      5  C   LIG d   1      -7.765  93.446 117.097  0.00  0.00    -0.047 C 
ATOM      6  C   LIG d   1      -6.695  93.748 118.170  0.00  0.00     0.091 C 
ENDROOT
BRANCH   1   7
ATOM      7  O   LIG d   1      -4.900  92.702 119.470  0.00  0.00    -0.368 OA
BRANCH   7   8
ATOM      8  C   LIG d   1      -3.941  93.480 118.712  0.00  0.00     0.119 C 
BRANCH   8   9
ATOM      9  C   LIG d   1      -2.675  92.619 118.545  0.00  0.00     0.028 C 
ATOM     10  C   LIG d   1      -2.612  91.465 119.559  0.00  0.00     0.006 C 
ENDBRANCH   8   9
BRANCH   8  11
ATOM     11  C   LIG d   1      -3.489  94.719 119.490  0.00  0.00     0.028 C 
ATOM     12  C   LIG d   1      -3.953  94.704 120.955  0.00  0.00     0.006 C 
ENDBRANCH   8  11
ENDBRANCH   7   8
ENDBRANCH   1   7
BRANCH   6  13
ATOM     13  N   LIG d   1      -7.210  94.626 119.253  0.00  0.00    -0.311 N 
ATOM     14  C   LIG d   1      -7.061  95.949 119.257  0.00  0.00     0.210 C 
ATOM     15  C   LIG d   1      -7.650  96.662 120.479  0.00  0.00     0.109 C 
ATOM     16  O   LIG d   1      -6.526  96.604 118.350  0.00  0.00    -0.276 OA
ATOM     17  H   LIG d   1      -7.685  94.181 120.014  0.00  0.00     0.149 HD
ENDBRANCH   6  13
BRANCH   5  18
ATOM     18  N   LIG d   1      -8.207  94.648 116.366  0.00  0.00     0.381 N 
ATOM     19  H   LIG d   1      -8.125  94.495 115.380  0.00  0.00    -0.090 HD
ATOM     20  H   LIG d   1      -7.611  95.418 116.615  0.00  0.00    -0.090 HD
ATOM     21  H   LIG d   1      -9.152  94.861 116.599  0.00  0.00    -0.090 HD
ENDBRANCH   5  18
BRANCH   3  22
ATOM     22  C   LIG d   1      -6.622  90.149 115.938  0.00  0.00     0.382 C 
ATOM     23  O   LIG d   1      -7.605  89.374 116.027  0.00  0.00    -0.241 OA
ATOM     24  O   LIG d   1      -5.646  89.824 115.236  0.00  0.00    -0.241 OA
ENDBRANCH   3  22
TORSDOF 7
ENDMDL
MODEL 3
REMARK VINA RESULT:      -5.2     13.075     15.378
REMARK  7 active torsions:
REMARK  status: ('A' for Active; 'I' for Inactive)
REMARK    1  A    between atoms: C_2  and  C_3 
REMARK    2  A    between atoms: C_3  and  O_6 
REMARK    3  A    between atoms: C_3  and  C_4 
REMARK    4  A    between atoms: C_7  and  O_6 
REMARK    5  A    between atoms: C_9  and  C_10 
REMARK    6  A    between atoms: N_15  and  C_14 
REMARK    7  A    between atoms: N_20  and  C_19 
REMARK       I    between atoms: C_22  and  N_20 
ROOT
ATOM      1  C   LIG d   1      -5.100  92.539 118.180  0.00  0.00     0.161 C 
ATOM      2  C   LIG d   1      -5.441  91.580 117.212  0.00  0.00     0.016 C 
ATOM      3  C   LIG d   1      -6.323  91.838 116.138  0.00  0.00     0.038 C 
ATOM      4  C   LIG d   1      -6.811  93.126 115.872  0.00  0.00     0.028 C 
ATOM      5  C   LIG d   1      -6.897  94.009 117.112  0.00  0.00    -0.047 C 
ATOM      6  C   LIG d   1      -5.535  93.981 117.843  0.00  0.00     0.091 C 
ENDROOT
BRANCH   1   7
ATOM      7  O   LIG d   1      -3.683  92.491 118.439  0.00  0.00    -0.368 OA
BRANCH   7   8
ATOM      8  C   LIG d   1      -3.278  91.793 119.643  0.00  0.00     0.119 C 
BRANCH   8   9
ATOM      9  C   LIG d   1      -2.730  92.846 120.625  0.00  0.00     0.028 C 
ATOM     10  C   LIG d   1      -1.686  93.769 119.975  0.00  0.00     0.006 C 
ENDBRANCH   8   9
BRANCH   8  11
ATOM     11  C   LIG d   1      -2.107  90.845 119.370  0.00  0.00     0.028 C 
ATOM     12  C   LIG d   1      -2.115  90.285 117.939  0.00  0.00     0.006 C 
ENDBRANCH   8  11
ENDBRANCH   7   8
ENDBRANCH   1   7
BRANCH   6  13
ATOM     13  N   LIG d   1      -5.558  94.752 119.114  0.00  0.00    -0.311 N 
ATOM     14  C   LIG d   1      -4.747  95.779 119.362  0.00  0.00     0.210 C 
ATOM     15  C   LIG d   1      -4.922  96.422 120.741  0.00  0.00     0.109 C 
ATOM     16  O   LIG d   1      -3.921  96.239 118.559  0.00  0.00    -0.276 OA
ATOM     17  H   LIG d   1      -6.219  94.467 119.809  0.00  0.00     0.149 HD
ENDBRANCH   6  13
BRANCH   5  18
ATOM     18  N   LIG d   1      -7.288  95.361 116.670  0.00  0.00     0.381 N 
ATOM     19  H   LIG d   1      -7.633  95.324 115.732  0.00  0.00    -0.090 HD
ATOM     20  H   LIG d   1      -6.477  95.955 116.685  0.00  0.00    -0.090 HD
ATOM     21  H   LIG d   1      -7.989  95.729 117.276  0.00  0.00    -0.090 HD
ENDBRANCH   5  18
BRANCH   3  22
ATOM     22  C   LIG d   1      -6.759  90.791 115.340  0.00  0.00     0.382 C 
ATOM     23  O   LIG d   1      -7.893  90.840 114.805  0.00  0.00    -0.241 OA
ATOM     24  O   LIG d   1      -6.050  89.779 115.183  0.00  0.00    -0.241 OA
ENDBRANCH   3  22
TORSDOF 7
ENDMDL
MODEL 4
REMARK VINA RESULT:      -5.0     13.010     15.639
REMARK  7 active torsions:
REMARK  status: ('A' for Active; 'I' for Inactive)
REMARK    1  A    between atoms: C_2  and  C_3 
REMARK    2  A    between atoms: C_3  and  O_6 
REMARK    3  A    between atoms: C_3  and  C_4 
REMARK    4  A    between atoms: C_7  and  O_6 
REMARK    5  A    between atoms: C_9  and  C_10 
REMARK    6  A    between atoms: N_15  and  C_14 
REMARK    7  A    between atoms: N_20  and  C_19 
REMARK       I    between atoms: C_22  and  N_20 
ROOT
ATOM      1  C   LIG d   1      -5.257  93.613 117.403  0.00  0.00     0.161 C 
ATOM      2  C   LIG d   1      -6.182  92.861 116.659  0.00  0.00     0.016 C 
ATOM      3  C   LIG d   1      -6.327  91.460 116.787  0.00  0.00     0.038 C 
ATOM      4  C   LIG d   1      -5.657  90.733 117.782  0.00  0.00     0.028 C 
ATOM      5  C   LIG d   1      -4.342  91.371 118.217  0.00  0.00    -0.047 C 
ATOM      6  C   LIG d   1      -4.597  92.854 118.573  0.00  0.00     0.091 C 
ENDROOT
BRANCH   1   7
ATOM      7  O   LIG d   1      -5.882  94.822 117.880  0.00  0.00    -0.368 OA
BRANCH   7   8
ATOM      8  C   LIG d   1      -7.320  94.900 117.724  0.00  0.00     0.119 C 
BRANCH   8   9
ATOM      9  C   LIG d   1      -7.656  96.325 117.242  0.00  0.00     0.028 C 
ATOM     10  C   LIG d   1      -6.921  97.407 118.051  0.00  0.00     0.006 C 
ENDBRANCH   8   9
BRANCH   8  11
ATOM     11  C   LIG d   1      -8.035  94.748 119.070  0.00  0.00     0.028 C 
ATOM     12  C   LIG d   1      -8.753  93.396 119.213  0.00  0.00     0.006 C 
ENDBRANCH   8  11
ENDBRANCH   7   8
ENDBRANCH   1   7
BRANCH   6  13
ATOM     13  N   LIG d   1      -3.347  93.574 118.928  0.00  0.00    -0.311 N 
ATOM     14  C   LIG d   1      -2.910  93.711 120.179  0.00  0.00     0.210 C 
ATOM     15  C   LIG d   1      -1.609  94.507 120.326  0.00  0.00     0.109 C 
ATOM     16  O   LIG d   1      -3.459  93.221 121.177  0.00  0.00    -0.276 OA
ATOM     17  H   LIG d   1      -2.822  93.976 118.176  0.00  0.00     0.149 HD
ENDBRANCH   6  13
BRANCH   5  18
ATOM     18  N   LIG d   1      -3.820  90.586 119.352  0.00  0.00     0.381 N 
ATOM     19  H   LIG d   1      -3.036  90.041 119.055  0.00  0.00    -0.090 HD
ATOM     20  H   LIG d   1      -4.538  89.958 119.670  0.00  0.00    -0.090 HD
ATOM     21  H   LIG d   1      -3.550  91.195 120.092  0.00  0.00    -0.090 HD
ENDBRANCH   5  18
BRANCH   3  22
ATOM     22  C   LIG d   1      -7.120  90.767 115.885  0.00  0.00     0.382 C 
ATOM     23  O   LIG d   1      -7.624  91.365 114.904  0.00  0.00    -0.241 OA
ATOM     24  O   LIG d   1      -7.374  89.561 116.065  0.00  0.00    -0.241 OA
ENDBRANCH   3  22
TORSDOF 7
ENDMDL
MODEL 5
REMARK VINA RESULT:      -5.0     12.793     15.162
REMARK  7 active torsions:
REMARK  status: ('A' for Active; 'I' for Inactive)
REMARK    1  A    between atoms: C_2  and  C_3 
REMARK    2  A    between atoms: C_3  and  O_6 
REMARK    3  A    between atoms: C_3  and  C_4 
REMARK    4  A    between atoms: C_7  and  O_6 
REMARK    5  A    between atoms: C_9  and  C_10 
REMARK    6  A    between atoms: N_15  and  C_14 
REMARK    7  A    between atoms: N_20  and  C_19 
REMARK       I    between atoms: C_22  and  N_20 
ROOT
ATOM      1  C   LIG d   1      -4.603  92.908 117.889  0.00  0.00     0.161 C 
ATOM      2  C   LIG d   1      -5.586  93.902 117.748  0.00  0.00     0.016 C 
ATOM      3  C   LIG d   1      -6.847  93.670 117.153  0.00  0.00     0.038 C 
ATOM      4  C   LIG d   1      -7.272  92.382 116.794  0.00  0.00     0.028 C 
ATOM      5  C   LIG d   1      -6.123  91.438 116.455  0.00  0.00    -0.047 C 
ATOM      6  C   LIG d   1      -5.090  91.472 117.604  0.00  0.00     0.091 C 
ENDROOT
BRANCH   1   7
ATOM      7  O   LIG d   1      -4.015  92.986 119.203  0.00  0.00    -0.368 OA
BRANCH   7   8
ATOM      8  C   LIG d   1      -2.797  93.764 119.311  0.00  0.00     0.119 C 
BRANCH   8   9
ATOM      9  C   LIG d   1      -1.672  92.806 119.748  0.00  0.00     0.028 C 
ATOM     10  C   LIG d   1      -0.710  92.467 118.597  0.00  0.00     0.006 C 
ENDBRANCH   8   9
BRANCH   8  11
ATOM     11  C   LIG d   1      -2.899  94.806 120.428  0.00  0.00     0.028 C 
ATOM     12  C   LIG d   1      -3.434  96.160 119.934  0.00  0.00     0.006 C 
ENDBRANCH   8  11
ENDBRANCH   7   8
ENDBRANCH   1   7
BRANCH   6  13
ATOM     13  N   LIG d   1      -3.893  90.640 117.315  0.00  0.00    -0.311 N 
ATOM     14  C   LIG d   1      -3.342  89.814 118.202  0.00  0.00     0.210 C 
ATOM     15  C   LIG d   1      -2.101  89.065 117.706  0.00  0.00     0.109 C 
ATOM     16  O   LIG d   1      -3.783  89.605 119.343  0.00  0.00    -0.276 OA
ATOM     17  H   LIG d   1      -3.489  90.724 116.402  0.00  0.00     0.149 HD
ENDBRANCH   6  13
BRANCH   5  18
ATOM     18  N   LIG d   1      -6.698  90.098 116.234  0.00  0.00     0.381 N 
ATOM     19  H   LIG d   1      -7.610  90.049 116.642  0.00  0.00    -0.090 HD
ATOM     20  H   LIG d   1      -6.114  89.415 116.684  0.00  0.00    -0.090 HD
ATOM     21  H   LIG d   1      -6.752  89.907 115.257  0.00  0.00    -0.090 HD
ENDBRANCH   5  18
BRANCH   3  22
ATOM     22  C   LIG d   1      -7.684  94.740 116.876  0.00  0.00     0.382 C 
ATOM     23  O   LIG d   1      -7.292  95.913 117.087  0.00  0.00    -0.241 OA
ATOM     24  O   LIG d   1      -8.842  94.546 116.460  0.00  0.00    -0.241 OA
ENDBRANCH   3  22
TORSDOF 7
ENDMDL
MODEL 6
REMARK VINA RESULT:      -4.8      2.295      4.673
REMARK  7 active torsions:
REMARK  status: ('A' for Active; 'I' for Inactive)
REMARK    1  A    between atoms: C_2  and  C_3 
REMARK    2  A    between atoms: C_3  and  O_6 
REMARK    3  A    between atoms: C_3  and  C_4 
REMARK    4  A    between atoms: C_7  and  O_6 
REMARK    5  A    between atoms: C_9  and  C_10 
REMARK    6  A    between atoms: N_15  and  C_14 
REMARK    7  A    between atoms: N_20  and  C_19 
REMARK       I    between atoms: C_22  and  N_20 
ROOT
ATOM      1  C   LIG d   1      -5.824  78.816 117.279  0.00  0.00     0.161 C 
ATOM      2  C   LIG d   1      -4.689  78.220 117.853  0.00  0.00     0.016 C 
ATOM      3  C   LIG d   1      -4.538  78.013 119.244  0.00  0.00     0.038 C 
ATOM      4  C   LIG d   1      -5.585  78.251 120.147  0.00  0.00     0.028 C 
ATOM      5  C   LIG d   1      -6.561  79.322 119.673  0.00  0.00    -0.047 C 
ATOM      6  C   LIG d   1      -7.022  78.981 118.237  0.00  0.00     0.091 C 
ENDROOT
BRANCH   1   7
ATOM      7  O   LIG d   1      -6.220  78.082 116.104  0.00  0.00    -0.368 OA
BRANCH   7   8
ATOM      8  C   LIG d   1      -5.907  76.667 116.101  0.00  0.00     0.119 C 
BRANCH   8   9
ATOM      9  C   LIG d   1      -5.100  76.375 114.821  0.00  0.00     0.028 C 
ATOM     10  C   LIG d   1      -3.644  75.978 115.123  0.00  0.00     0.006 C 
ENDBRANCH   8   9
BRANCH   8  11
ATOM     11  C   LIG d   1      -7.174  75.816 115.984  0.00  0.00     0.028 C 
ATOM     12  C   LIG d   1      -6.875  74.310 115.899  0.00  0.00     0.006 C 
ENDBRANCH   8  11
ENDBRANCH   7   8
ENDBRANCH   1   7
BRANCH   6  13
ATOM     13  N   LIG d   1      -7.915  80.023 117.666  0.00  0.00    -0.311 N 
ATOM     14  C   LIG d   1      -9.244  79.949 117.700  0.00  0.00     0.210 C 
ATOM     15  C   LIG d   1      -9.974  81.121 117.036  0.00  0.00     0.109 C 
ATOM     16  O   LIG d   1      -9.888  79.040 118.245  0.00  0.00    -0.276 OA
ATOM     17  H   LIG d   1      -7.476  80.812 117.232  0.00  0.00     0.149 HD
ENDBRANCH   6  13
BRANCH   5  18
ATOM     18  N   LIG d   1      -7.673  79.372 120.641  0.00  0.00     0.381 N 
ATOM     19  H   LIG d   1      -7.318  79.262 121.570  0.00  0.00    -0.090 HD
ATOM     20  H   LIG d   1      -8.303  78.612 120.452  0.00  0.00    -0.090 HD
ATOM     21  H   LIG d   1      -8.156  80.240 120.562  0.00  0.00    -0.090 HD
ENDBRANCH   5  18
BRANCH   3  22
ATOM     22  C   LIG d   1      -3.315  77.598 119.748  0.00  0.00     0.382 C 
ATOM     23  O   LIG d   1      -2.639  76.741 119.129  0.00  0.00    -0.241 OA
ATOM     24  O   LIG d   1      -2.898  78.038 120.836  0.00  0.00    -0.241 OA
ENDBRANCH   3  22
TORSDOF 7
ENDMDL
MODEL 7
REMARK VINA RESULT:      -4.7      1.174      2.020
REMARK  7 active torsions:
REMARK  status: ('A' for Active; 'I' for Inactive)
REMARK    1  A    between atoms: C_2  and  C_3 
REMARK    2  A    between atoms: C_3  and  O_6 
REMARK    3  A    between atoms: C_3  and  C_4 
REMARK    4  A    between atoms: C_7  and  O_6 
REMARK    5  A    between atoms: C_9  and  C_10 
REMARK    6  A    between atoms: N_15  and  C_14 
REMARK    7  A    between atoms: N_20  and  C_19 
REMARK       I    between atoms: C_22  and  N_20 
ROOT
ATOM      1  C   LIG d   1      -6.032  77.601 117.109  0.00  0.00     0.161 C 
ATOM      2  C   LIG d   1      -7.310  78.169 116.981  0.00  0.00     0.016 C 
ATOM      3  C   LIG d   1      -7.806  79.173 117.844  0.00  0.00     0.038 C 
ATOM      4  C   LIG d   1      -6.994  79.789 118.808  0.00  0.00     0.028 C 
ATOM      5  C   LIG d   1      -5.861  78.898 119.304  0.00  0.00    -0.047 C 
ATOM      6  C   LIG d   1      -5.092  78.339 118.086  0.00  0.00     0.091 C 
ENDROOT
BRANCH   1   7
ATOM      7  O   LIG d   1      -5.416  77.486 115.812  0.00  0.00    -0.368 OA
BRANCH   7   8
ATOM      8  C   LIG d   1      -5.389  76.157 115.234  0.00  0.00     0.119 C 
BRANCH   8   9
ATOM      9  C   LIG d   1      -6.570  75.369 115.834  0.00  0.00     0.028 C 
ATOM     10  C   LIG d   1      -6.367  73.847 115.739  0.00  0.00     0.006 C 
ENDBRANCH   8   9
BRANCH   8  11
ATOM     11  C   LIG d   1      -4.133  75.391 115.658  0.00  0.00     0.028 C 
ATOM     12  C   LIG d   1      -2.838  76.034 115.136  0.00  0.00     0.006 C 
ENDBRANCH   8  11
ENDBRANCH   7   8
ENDBRANCH   1   7
BRANCH   6  13
ATOM     13  N   LIG d   1      -4.018  77.390 118.480  0.00  0.00    -0.311 N 
ATOM     14  C   LIG d   1      -2.719  77.669 118.379  0.00  0.00     0.210 C 
ATOM     15  C   LIG d   1      -1.780  76.543 118.821  0.00  0.00     0.109 C 
ATOM     16  O   LIG d   1      -2.257  78.754 117.995  0.00  0.00    -0.276 OA
ATOM     17  H   LIG d   1      -4.304  76.497 118.831  0.00  0.00     0.149 HD
ENDBRANCH   6  13
BRANCH   5  18
ATOM     18  N   LIG d   1      -5.014  79.711 120.199  0.00  0.00     0.381 N 
ATOM     19  H   LIG d   1      -4.049  79.542 119.997  0.00  0.00    -0.090 HD
ATOM     20  H   LIG d   1      -5.190  79.437 121.150  0.00  0.00    -0.090 HD
ATOM     21  H   LIG d   1      -5.223  80.678 120.080  0.00  0.00    -0.090 HD
ENDBRANCH   5  18
BRANCH   3  22
ATOM     22  C   LIG d   1      -9.141  79.543 117.773  0.00  0.00     0.382 C 
ATOM     23  O   LIG d   1      -9.450  80.716 117.455  0.00  0.00    -0.241 OA
ATOM     24  O   LIG d   1     -10.038  78.730 118.066  0.00  0.00    -0.241 OA
ENDBRANCH   3  22
TORSDOF 7
ENDMDL
MODEL 8
REMARK VINA RESULT:      -4.6     11.744     13.771
REMARK  7 active torsions:
REMARK  status: ('A' for Active; 'I' for Inactive)
REMARK    1  A    between atoms: C_2  and  C_3 
REMARK    2  A    between atoms: C_3  and  O_6 
REMARK    3  A    between atoms: C_3  and  C_4 
REMARK    4  A    between atoms: C_7  and  O_6 
REMARK    5  A    between atoms: C_9  and  C_10 
REMARK    6  A    between atoms: N_15  and  C_14 
REMARK    7  A    between atoms: N_20  and  C_19 
REMARK       I    between atoms: C_22  and  N_20 
ROOT
ATOM      1  C   LIG d   1      -4.162  91.221 118.430  0.00  0.00     0.161 C 
ATOM      2  C   LIG d   1      -5.039  90.684 117.473  0.00  0.00     0.016 C 
ATOM      3  C   LIG d   1      -5.942  91.469 116.718  0.00  0.00     0.038 C 
ATOM      4  C   LIG d   1      -5.921  92.871 116.762  0.00  0.00     0.028 C 
ATOM      5  C   LIG d   1      -5.402  93.428 118.083  0.00  0.00    -0.047 C 
ATOM      6  C   LIG d   1      -4.047  92.760 118.412  0.00  0.00     0.091 C 
ENDROOT
BRANCH   1   7
ATOM      7  O   LIG d   1      -2.859  90.620 118.290  0.00  0.00    -0.368 OA
BRANCH   7   8
ATOM      8  C   LIG d   1      -2.436  89.756 119.373  0.00  0.00     0.119 C 
BRANCH   8   9
ATOM      9  C   LIG d   1      -0.986  90.137 119.729  0.00  0.00     0.028 C 
ATOM     10  C   LIG d   1       0.027  89.622 118.693  0.00  0.00     0.006 C 
ENDBRANCH   8   9
BRANCH   8  11
ATOM     11  C   LIG d   1      -2.373  88.292 118.926  0.00  0.00     0.028 C 
ATOM     12  C   LIG d   1      -2.506  87.306 120.098  0.00  0.00     0.006 C 
ENDBRANCH   8  11
ENDBRANCH   7   8
ENDBRANCH   1   7
BRANCH   6  13
ATOM     13  N   LIG d   1      -3.509  93.186 119.730  0.00  0.00    -0.311 N 
ATOM     14  C   LIG d   1      -2.230  93.496 119.934  0.00  0.00     0.210 C 
ATOM     15  C   LIG d   1      -1.883  93.892 121.373  0.00  0.00     0.109 C 
ATOM     16  O   LIG d   1      -1.357  93.513 119.053  0.00  0.00    -0.276 OA
ATOM     17  H   LIG d   1      -4.155  93.230 120.493  0.00  0.00     0.149 HD
ENDBRANCH   6  13
BRANCH   5  18
ATOM     18  N   LIG d   1      -5.304  94.893 117.941  0.00  0.00     0.381 N 
ATOM     19  H   LIG d   1      -5.182  95.313 118.841  0.00  0.00    -0.090 HD
ATOM     20  H   LIG d   1      -6.160  95.239 117.545  0.00  0.00    -0.090 HD
ATOM     21  H   LIG d   1      -4.537  95.128 117.351  0.00  0.00    -0.090 HD
ENDBRANCH   5  18
BRANCH   3  22
ATOM     22  C   LIG d   1      -6.905  90.848 115.938  0.00  0.00     0.382 C 
ATOM     23  O   LIG d   1      -7.192  89.643 116.136  0.00  0.00    -0.241 OA
ATOM     24  O   LIG d   1      -7.460  91.466 115.009  0.00  0.00    -0.241 OA
ENDBRANCH   3  22
TORSDOF 7
ENDMDL
MODEL 9
REMARK VINA RESULT:      -4.5      2.162      5.630
REMARK  7 active torsions:
REMARK  status: ('A' for Active; 'I' for Inactive)
REMARK    1  A    between atoms: C_2  and  C_3 
REMARK    2  A    between atoms: C_3  and  O_6 
REMARK    3  A    between atoms: C_3  and  C_4 
REMARK    4  A    between atoms: C_7  and  O_6 
REMARK    5  A    between atoms: C_9  and  C_10 
REMARK    6  A    between atoms: N_15  and  C_14 
REMARK    7  A    between atoms: N_20  and  C_19 
REMARK       I    between atoms: C_22  and  N_20 
ROOT
ATOM      1  C   LIG d   1      -7.418  79.337 117.844  0.00  0.00     0.161 C 
ATOM      2  C   LIG d   1      -7.608  78.151 117.116  0.00  0.00     0.016 C 
ATOM      3  C   LIG d   1      -6.547  77.401 116.559  0.00  0.00     0.038 C 
ATOM      4  C   LIG d   1      -5.204  77.707 116.824  0.00  0.00     0.028 C 
ATOM      5  C   LIG d   1      -4.969  79.182 117.134  0.00  0.00    -0.047 C 
ATOM      6  C   LIG d   1      -5.955  79.626 118.238  0.00  0.00     0.091 C 
ENDROOT
BRANCH   1   7
ATOM      7  O   LIG d   1      -8.260  79.332 119.014  0.00  0.00    -0.368 OA
BRANCH   7   8
ATOM      8  C   LIG d   1      -9.535  80.008 118.885  0.00  0.00     0.119 C 
BRANCH   8   9
ATOM      9  C   LIG d   1      -9.279  81.342 118.157  0.00  0.00     0.028 C 
ATOM     10  C   LIG d   1     -10.274  81.584 117.009  0.00  0.00     0.006 C 
ENDBRANCH   8   9
BRANCH   8  11
ATOM     11  C   LIG d   1     -10.102  80.395 120.254  0.00  0.00     0.028 C 
ATOM     12  C   LIG d   1      -9.497  81.697 120.803  0.00  0.00     0.006 C 
ENDBRANCH   8  11
ENDBRANCH   7   8
ENDBRANCH   1   7
BRANCH   6  13
ATOM     13  N   LIG d   1      -5.849  81.077 118.542  0.00  0.00    -0.311 N 
ATOM     14  C   LIG d   1      -5.861  81.570 119.779  0.00  0.00     0.210 C 
ATOM     15  C   LIG d   1      -5.761  83.096 119.869  0.00  0.00     0.109 C 
ATOM     16  O   LIG d   1      -5.912  80.886 120.813  0.00  0.00    -0.276 OA
ATOM     17  H   LIG d   1      -5.772  81.702 117.763  0.00  0.00     0.149 HD
ENDBRANCH   6  13
BRANCH   5  18
ATOM     18  N   LIG d   1      -3.555  79.335 117.525  0.00  0.00     0.381 N 
ATOM     19  H   LIG d   1      -3.057  78.489 117.334  0.00  0.00    -0.090 HD
ATOM     20  H   LIG d   1      -3.508  79.513 118.513  0.00  0.00    -0.090 HD
ATOM     21  H   LIG d   1      -3.143  80.092 117.024  0.00  0.00    -0.090 HD
ENDBRANCH   5  18
BRANCH   3  22
ATOM     22  C   LIG d   1      -6.825  76.353 115.694  0.00  0.00     0.382 C 
ATOM     23  O   LIG d   1      -5.970  75.994 114.849  0.00  0.00    -0.241 OA
ATOM     24  O   LIG d   1      -7.937  75.793 115.718  0.00  0.00    -0.241 OA
ENDBRANCH   3  22
TORSDOF 7
ENDMDL
