MODEL 1
REMARK VINA RESULT:      -5.5      0.000      0.000
REMARK  7 active torsions:
REMARK  status: ('A' for Active; 'I' for Inactive)
REMARK    1  A    between atoms: C_2  and  C_3 
REMARK    2  A    between atoms: C_3  and  O_6 
REMARK    3  A    between atoms: C_3  and  C_4 
REMARK    4  A    between atoms: C_7  and  O_6 
REMARK    5  A    between atoms: C_9  and  C_10 
REMARK    6  A    between atoms: N_15  and  C_14 
REMARK    7  A    between atoms: N_20  and  C_19 
REMARK       I    between atoms: C_22  and  N_20 
ROOT
ATOM      1  C   LIG d   1      -7.617  74.539 118.813  0.00  0.00     0.161 C 
ATOM      2  C   LIG d   1      -8.881  75.063 119.132  0.00  0.00     0.016 C 
ATOM      3  C   LIG d   1      -9.318  76.344 118.724  0.00  0.00     0.038 C 
ATOM      4  C   LIG d   1      -8.573  77.133 117.835  0.00  0.00     0.028 C 
ATOM      5  C   LIG d   1      -7.074  76.860 117.893  0.00  0.00    -0.047 C 
ATOM      6  C   LIG d   1      -6.835  75.340 117.751  0.00  0.00     0.091 C 
ENDROOT
BRANCH   1   7
ATOM      7  O   LIG d   1      -7.748  73.162 118.407  0.00  0.00    -0.368 OA
BRANCH   7   8
ATOM      8  C   LIG d   1      -8.469  72.927 117.172  0.00  0.00     0.119 C 
BRANCH   8   9
ATOM      9  C   LIG d   1      -9.339  71.671 117.376  0.00  0.00     0.028 C 
ATOM     10  C   LIG d   1      -9.308  71.166 118.828  0.00  0.00     0.006 C 
ENDBRANCH   8   9
BRANCH   8  11
ATOM     11  C   LIG d   1      -7.515  72.579 116.027  0.00  0.00     0.028 C 
ATOM     12  C   LIG d   1      -6.561  71.425 116.376  0.00  0.00     0.006 C 
ENDBRANCH   8  11
ENDBRANCH   7   8
ENDBRANCH   1   7
BRANCH   6  13
ATOM     13  N   LIG d   1      -5.400  74.977 117.881  0.00  0.00    -0.311 N 
ATOM     14  C   LIG d   1      -4.585  74.820 116.839  0.00  0.00     0.210 C 
ATOM     15  C   LIG d   1      -3.148  74.426 117.195  0.00  0.00     0.109 C 
ATOM     16  O   LIG d   1      -4.908  75.002 115.656  0.00  0.00    -0.276 OA
ATOM     17  H   LIG d   1      -5.046  74.841 118.808  0.00  0.00     0.149 HD
ENDBRANCH   6  13
BRANCH   5  18
ATOM     18  N   LIG d   1      -6.436  77.649 116.822  0.00  0.00     0.381 N 
ATOM     19  H   LIG d   1      -6.283  77.070 116.020  0.00  0.00    -0.090 HD
ATOM     20  H   LIG d   1      -5.544  77.977 117.148  0.00  0.00    -0.090 HD
ATOM     21  H   LIG d   1      -7.014  78.422 116.578  0.00  0.00    -0.090 HD
ENDBRANCH   5  18
BRANCH   3  22
ATOM     22  C   LIG d   1     -10.496  76.865 119.239  0.00  0.00     0.382 C 
ATOM     23  O   LIG d   1     -10.706  76.835 120.476  0.00  0.00    -0.241 OA
ATOM     24  O   LIG d   1     -11.369  77.324 118.479  0.00  0.00    -0.241 OA
ENDBRANCH   3  22
TORSDOF 7
ENDMDL
MODEL 2
REMARK VINA RESULT:      -5.4      1.541      2.260
REMARK  7 active torsions:
REMARK  status: ('A' for Active; 'I' for Inactive)
REMARK    1  A    between atoms: C_2  and  C_3 
REMARK    2  A    between atoms: C_3  and  O_6 
REMARK    3  A    between atoms: C_3  and  C_4 
REMARK    4  A    between atoms: C_7  and  O_6 
REMARK    5  A    between atoms: C_9  and  C_10 
REMARK    6  A    between atoms: N_15  and  C_14 
REMARK    7  A    between atoms: N_20  and  C_19 
REMARK       I    between atoms: C_22  and  N_20 
ROOT
ATOM      1  C   LIG d   1      -7.565  76.176 117.623  0.00  0.00     0.161 C 
ATOM      2  C   LIG d   1      -8.839  76.604 118.030  0.00  0.00     0.016 C 
ATOM      3  C   LIG d   1      -9.179  77.963 118.222  0.00  0.00     0.038 C 
ATOM      4  C   LIG d   1      -8.305  79.003 117.872  0.00  0.00     0.028 C 
ATOM      5  C   LIG d   1      -6.834  78.604 117.936  0.00  0.00    -0.047 C 
ATOM      6  C   LIG d   1      -6.631  77.301 117.130  0.00  0.00     0.091 C 
ENDROOT
BRANCH   1   7
ATOM      7  O   LIG d   1      -7.691  75.153 116.616  0.00  0.00    -0.368 OA
BRANCH   7   8
ATOM      8  C   LIG d   1      -7.553  73.786 117.076  0.00  0.00     0.119 C 
BRANCH   8   9
ATOM      9  C   LIG d   1      -6.746  73.018 116.010  0.00  0.00     0.028 C 
ATOM     10  C   LIG d   1      -6.793  71.496 116.222  0.00  0.00     0.006 C 
ENDBRANCH   8   9
BRANCH   8  11
ATOM     11  C   LIG d   1      -8.911  73.080 117.142  0.00  0.00     0.028 C 
ATOM     12  C   LIG d   1      -9.339  72.748 118.581  0.00  0.00     0.006 C 
ENDBRANCH   8  11
ENDBRANCH   7   8
ENDBRANCH   1   7
BRANCH   6  13
ATOM     13  N   LIG d   1      -5.236  76.796 117.211  0.00  0.00    -0.311 N 
ATOM     14  C   LIG d   1      -4.492  76.523 116.140  0.00  0.00     0.210 C 
ATOM     15  C   LIG d   1      -3.088  75.993 116.447  0.00  0.00     0.109 C 
ATOM     16  O   LIG d   1      -4.851  76.699 114.966  0.00  0.00    -0.276 OA
ATOM     17  H   LIG d   1      -4.855  76.654 118.125  0.00  0.00     0.149 HD
ENDBRANCH   6  13
BRANCH   5  18
ATOM     18  N   LIG d   1      -6.043  79.735 117.416  0.00  0.00     0.381 N 
ATOM     19  H   LIG d   1      -5.138  79.415 117.135  0.00  0.00    -0.090 HD
ATOM     20  H   LIG d   1      -5.924  80.413 118.148  0.00  0.00    -0.090 HD
ATOM     21  H   LIG d   1      -6.511  80.151 116.641  0.00  0.00    -0.090 HD
ENDBRANCH   5  18
BRANCH   3  22
ATOM     22  C   LIG d   1     -10.392  78.292 118.807  0.00  0.00     0.382 C 
ATOM     23  O   LIG d   1     -11.371  77.514 118.701  0.00  0.00    -0.241 OA
ATOM     24  O   LIG d   1     -10.533  79.377 119.402  0.00  0.00    -0.241 OA
ENDBRANCH   3  22
TORSDOF 7
ENDMDL
MODEL 3
REMARK VINA RESULT:      -5.1      1.744      4.929
REMARK  7 active torsions:
REMARK  status: ('A' for Active; 'I' for Inactive)
REMARK    1  A    between atoms: C_2  and  C_3 
REMARK    2  A    between atoms: C_3  and  O_6 
REMARK    3  A    between atoms: C_3  and  C_4 
REMARK    4  A    between atoms: C_7  and  O_6 
REMARK    5  A    between atoms: C_9  and  C_10 
REMARK    6  A    between atoms: N_15  and  C_14 
REMARK    7  A    between atoms: N_20  and  C_19 
REMARK       I    between atoms: C_22  and  N_20 
ROOT
ATOM      1  C   LIG d   1      -8.069  75.481 116.300  0.00  0.00     0.161 C 
ATOM      2  C   LIG d   1      -6.868  75.195 115.630  0.00  0.00     0.016 C 
ATOM      3  C   LIG d   1      -5.621  75.751 115.998  0.00  0.00     0.038 C 
ATOM      4  C   LIG d   1      -5.465  76.517 117.163  0.00  0.00     0.028 C 
ATOM      5  C   LIG d   1      -6.738  77.243 117.585  0.00  0.00    -0.047 C 
ATOM      6  C   LIG d   1      -7.901  76.226 117.641  0.00  0.00     0.091 C 
ENDROOT
BRANCH   1   7
ATOM      7  O   LIG d   1      -8.822  74.266 116.493  0.00  0.00    -0.368 OA
BRANCH   7   8
ATOM      8  C   LIG d   1      -8.253  73.305 117.416  0.00  0.00     0.119 C 
BRANCH   8   9
ATOM      9  C   LIG d   1      -8.053  71.986 116.644  0.00  0.00     0.028 C 
ATOM     10  C   LIG d   1      -6.584  71.754 116.250  0.00  0.00     0.006 C 
ENDBRANCH   8   9
BRANCH   8  11
ATOM     11  C   LIG d   1      -9.233  72.969 118.544  0.00  0.00     0.028 C 
ATOM     12  C   LIG d   1      -9.436  71.457 118.727  0.00  0.00     0.006 C 
ENDBRANCH   8  11
ENDBRANCH   7   8
ENDBRANCH   1   7
BRANCH   6  13
ATOM     13  N   LIG d   1      -9.201  76.869 117.964  0.00  0.00    -0.311 N 
ATOM     14  C   LIG d   1      -9.668  76.996 119.205  0.00  0.00     0.210 C 
ATOM     15  C   LIG d   1     -11.038  77.672 119.314  0.00  0.00     0.109 C 
ATOM     16  O   LIG d   1      -9.063  76.641 120.228  0.00  0.00    -0.276 OA
ATOM     17  H   LIG d   1      -9.743  77.214 117.196  0.00  0.00     0.149 HD
ENDBRANCH   6  13
BRANCH   5  18
ATOM     18  N   LIG d   1      -6.473  77.889 118.884  0.00  0.00     0.381 N 
ATOM     19  H   LIG d   1      -7.051  78.699 118.984  0.00  0.00    -0.090 HD
ATOM     20  H   LIG d   1      -5.512  78.183 118.911  0.00  0.00    -0.090 HD
ATOM     21  H   LIG d   1      -6.653  77.250 119.626  0.00  0.00    -0.090 HD
ENDBRANCH   5  18
BRANCH   3  22
ATOM     22  C   LIG d   1      -4.520  75.574 115.174  0.00  0.00     0.382 C 
ATOM     23  O   LIG d   1      -4.191  74.421 114.806  0.00  0.00    -0.241 OA
ATOM     24  O   LIG d   1      -3.825  76.549 114.831  0.00  0.00    -0.241 OA
ENDBRANCH   3  22
TORSDOF 7
ENDMDL
MODEL 4
REMARK VINA RESULT:      -5.1      2.065      5.040
REMARK  7 active torsions:
REMARK  status: ('A' for Active; 'I' for Inactive)
REMARK    1  A    between atoms: C_2  and  C_3 
REMARK    2  A    between atoms: C_3  and  O_6 
REMARK    3  A    between atoms: C_3  and  C_4 
REMARK    4  A    between atoms: C_7  and  O_6 
REMARK    5  A    between atoms: C_9  and  C_10 
REMARK    6  A    between atoms: N_15  and  C_14 
REMARK    7  A    between atoms: N_20  and  C_19 
REMARK       I    between atoms: C_22  and  N_20 
ROOT
ATOM      1  C   LIG d   1      -8.595  74.825 118.412  0.00  0.00     0.161 C 
ATOM      2  C   LIG d   1      -9.214  73.578 118.594  0.00  0.00     0.016 C 
ATOM      3  C   LIG d   1      -8.562  72.344 118.364  0.00  0.00     0.038 C 
ATOM      4  C   LIG d   1      -7.190  72.273 118.079  0.00  0.00     0.028 C 
ATOM      5  C   LIG d   1      -6.648  73.522 117.391  0.00  0.00    -0.047 C 
ATOM      6  C   LIG d   1      -7.066  74.765 118.208  0.00  0.00     0.091 C 
ENDROOT
BRANCH   1   7
ATOM      7  O   LIG d   1      -8.920  75.698 119.512  0.00  0.00    -0.368 OA
BRANCH   7   8
ATOM      8  C   LIG d   1     -10.230  76.315 119.470  0.00  0.00     0.119 C 
BRANCH   8   9
ATOM      9  C   LIG d   1     -10.271  77.232 118.233  0.00  0.00     0.028 C 
ATOM     10  C   LIG d   1      -9.373  78.471 118.391  0.00  0.00     0.006 C 
ENDBRANCH   8   9
BRANCH   8  11
ATOM     11  C   LIG d   1     -10.448  77.242 120.670  0.00  0.00     0.028 C 
ATOM     12  C   LIG d   1     -11.668  76.844 121.516  0.00  0.00     0.006 C 
ENDBRANCH   8  11
ENDBRANCH   7   8
ENDBRANCH   1   7
BRANCH   6  13
ATOM     13  N   LIG d   1      -6.649  76.036 117.560  0.00  0.00    -0.311 N 
ATOM     14  C   LIG d   1      -5.908  76.960 118.169  0.00  0.00     0.210 C 
ATOM     15  C   LIG d   1      -5.607  78.205 117.327  0.00  0.00     0.109 C 
ATOM     16  O   LIG d   1      -5.444  76.854 119.314  0.00  0.00    -0.276 OA
ATOM     17  H   LIG d   1      -6.955  76.190 116.619  0.00  0.00     0.149 HD
ENDBRANCH   6  13
BRANCH   5  18
ATOM     18  N   LIG d   1      -5.186  73.369 117.278  0.00  0.00     0.381 N 
ATOM     19  H   LIG d   1      -4.770  73.403 118.188  0.00  0.00    -0.090 HD
ATOM     20  H   LIG d   1      -4.820  74.132 116.736  0.00  0.00    -0.090 HD
ATOM     21  H   LIG d   1      -4.966  72.503 116.837  0.00  0.00    -0.090 HD
ENDBRANCH   5  18
BRANCH   3  22
ATOM     22  C   LIG d   1      -9.294  71.167 118.379  0.00  0.00     0.382 C 
ATOM     23  O   LIG d   1      -9.627  70.622 117.299  0.00  0.00    -0.241 OA
ATOM     24  O   LIG d   1      -9.663  70.666 119.458  0.00  0.00    -0.241 OA
ENDBRANCH   3  22
TORSDOF 7
ENDMDL
MODEL 5
REMARK VINA RESULT:      -5.1      2.019      5.402
REMARK  7 active torsions:
REMARK  status: ('A' for Active; 'I' for Inactive)
REMARK    1  A    between atoms: C_2  and  C_3 
REMARK    2  A    between atoms: C_3  and  O_6 
REMARK    3  A    between atoms: C_3  and  C_4 
REMARK    4  A    between atoms: C_7  and  O_6 
REMARK    5  A    between atoms: C_9  and  C_10 
REMARK    6  A    between atoms: N_15  and  C_14 
REMARK    7  A    between atoms: N_20  and  C_19 
REMARK       I    between atoms: C_22  and  N_20 
ROOT
ATOM      1  C   LIG d   1      -5.714  74.840 117.240  0.00  0.00     0.161 C 
ATOM      2  C   LIG d   1      -4.556  74.195 116.777  0.00  0.00     0.016 C 
ATOM      3  C   LIG d   1      -3.247  74.661 117.040  0.00  0.00     0.038 C 
ATOM      4  C   LIG d   1      -3.003  75.727 117.918  0.00  0.00     0.028 C 
ATOM      5  C   LIG d   1      -4.159  76.718 118.005  0.00  0.00    -0.047 C 
ATOM      6  C   LIG d   1      -5.464  75.941 118.292  0.00  0.00     0.091 C 
ENDROOT
BRANCH   1   7
ATOM      7  O   LIG d   1      -6.647  73.865 117.747  0.00  0.00    -0.368 OA
BRANCH   7   8
ATOM      8  C   LIG d   1      -7.719  73.482 116.851  0.00  0.00     0.119 C 
BRANCH   8   9
ATOM      9  C   LIG d   1      -9.030  74.047 117.430  0.00  0.00     0.028 C 
ATOM     10  C   LIG d   1      -9.556  75.249 116.627  0.00  0.00     0.006 C 
ENDBRANCH   8   9
BRANCH   8  11
ATOM     11  C   LIG d   1      -7.908  71.962 116.826  0.00  0.00     0.028 C 
ATOM     12  C   LIG d   1      -9.178  71.508 117.564  0.00  0.00     0.006 C 
ENDBRANCH   8  11
ENDBRANCH   7   8
ENDBRANCH   1   7
BRANCH   6  13
ATOM     13  N   LIG d   1      -6.658  76.826 118.310  0.00  0.00    -0.311 N 
ATOM     14  C   LIG d   1      -7.508  76.890 119.333  0.00  0.00     0.210 C 
ATOM     15  C   LIG d   1      -8.684  77.853 119.138  0.00  0.00     0.109 C 
ATOM     16  O   LIG d   1      -7.382  76.266 120.397  0.00  0.00    -0.276 OA
ATOM     17  H   LIG d   1      -6.819  77.390 117.499  0.00  0.00     0.149 HD
ENDBRANCH   6  13
BRANCH   5  18
ATOM     18  N   LIG d   1      -3.827  77.699 119.056  0.00  0.00     0.381 N 
ATOM     19  H   LIG d   1      -4.602  77.802 119.680  0.00  0.00    -0.090 HD
ATOM     20  H   LIG d   1      -3.649  78.589 118.624  0.00  0.00    -0.090 HD
ATOM     21  H   LIG d   1      -3.023  77.399 119.561  0.00  0.00    -0.090 HD
ENDBRANCH   5  18
BRANCH   3  22
ATOM     22  C   LIG d   1      -2.168  74.083 116.390  0.00  0.00     0.382 C 
ATOM     23  O   LIG d   1      -1.945  74.352 115.185  0.00  0.00    -0.241 OA
ATOM     24  O   LIG d   1      -1.440  73.262 116.980  0.00  0.00    -0.241 OA
ENDBRANCH   3  22
TORSDOF 7
ENDMDL
MODEL 6
REMARK VINA RESULT:      -4.9      2.733      4.546
REMARK  7 active torsions:
REMARK  status: ('A' for Active; 'I' for Inactive)
REMARK    1  A    between atoms: C_2  and  C_3 
REMARK    2  A    between atoms: C_3  and  O_6 
REMARK    3  A    between atoms: C_3  and  C_4 
REMARK    4  A    between atoms: C_7  and  O_6 
REMARK    5  A    between atoms: C_9  and  C_10 
REMARK    6  A    between atoms: N_15  and  C_14 
REMARK    7  A    between atoms: N_20  and  C_19 
REMARK       I    between atoms: C_22  and  N_20 
ROOT
ATOM      1  C   LIG d   1      -7.414  77.094 117.204  0.00  0.00     0.161 C 
ATOM      2  C   LIG d   1      -7.192  78.460 117.444  0.00  0.00     0.016 C 
ATOM      3  C   LIG d   1      -8.138  79.304 118.069  0.00  0.00     0.038 C 
ATOM      4  C   LIG d   1      -9.319  78.802 118.636  0.00  0.00     0.028 C 
ATOM      5  C   LIG d   1      -9.813  77.521 117.972  0.00  0.00    -0.047 C 
ATOM      6  C   LIG d   1      -8.650  76.505 117.916  0.00  0.00     0.091 C 
ENDROOT
BRANCH   1   7
ATOM      7  O   LIG d   1      -6.233  76.340 117.545  0.00  0.00    -0.368 OA
BRANCH   7   8
ATOM      8  C   LIG d   1      -5.256  76.173 116.488  0.00  0.00     0.119 C 
BRANCH   8   9
ATOM      9  C   LIG d   1      -5.948  75.427 115.331  0.00  0.00     0.028 C 
ATOM     10  C   LIG d   1      -5.878  73.899 115.494  0.00  0.00     0.006 C 
ENDBRANCH   8   9
BRANCH   8  11
ATOM     11  C   LIG d   1      -4.107  75.262 116.929  0.00  0.00     0.028 C 
ATOM     12  C   LIG d   1      -3.250  75.882 118.044  0.00  0.00     0.006 C 
ENDBRANCH   8  11
ENDBRANCH   7   8
ENDBRANCH   1   7
BRANCH   6  13
ATOM     13  N   LIG d   1      -9.024  75.254 117.205  0.00  0.00    -0.311 N 
ATOM     14  C   LIG d   1      -8.851  74.038 117.721  0.00  0.00     0.210 C 
ATOM     15  C   LIG d   1      -9.286  72.883 116.814  0.00  0.00     0.109 C 
ATOM     16  O   LIG d   1      -8.408  73.808 118.856  0.00  0.00    -0.276 OA
ATOM     17  H   LIG d   1      -9.420  75.350 116.291  0.00  0.00     0.149 HD
ENDBRANCH   6  13
BRANCH   5  18
ATOM     18  N   LIG d   1     -10.969  77.035 118.748  0.00  0.00     0.381 N 
ATOM     19  H   LIG d   1     -11.804  77.126 118.205  0.00  0.00    -0.090 HD
ATOM     20  H   LIG d   1     -11.067  77.599 119.574  0.00  0.00    -0.090 HD
ATOM     21  H   LIG d   1     -10.832  76.081 119.003  0.00  0.00    -0.090 HD
ENDBRANCH   5  18
BRANCH   3  22
ATOM     22  C   LIG d   1      -7.925  80.674 118.095  0.00  0.00     0.382 C 
ATOM     23  O   LIG d   1      -7.222  81.216 117.209  0.00  0.00    -0.241 OA
ATOM     24  O   LIG d   1      -8.391  81.368 119.019  0.00  0.00    -0.241 OA
ENDBRANCH   3  22
TORSDOF 7
ENDMDL
MODEL 7
REMARK VINA RESULT:      -4.6      2.573      5.351
REMARK  7 active torsions:
REMARK  status: ('A' for Active; 'I' for Inactive)
REMARK    1  A    between atoms: C_2  and  C_3 
REMARK    2  A    between atoms: C_3  and  O_6 
REMARK    3  A    between atoms: C_3  and  C_4 
REMARK    4  A    between atoms: C_7  and  O_6 
REMARK    5  A    between atoms: C_9  and  C_10 
REMARK    6  A    between atoms: N_15  and  C_14 
REMARK    7  A    between atoms: N_20  and  C_19 
REMARK       I    between atoms: C_22  and  N_20 
ROOT
ATOM      1  C   LIG d   1      -5.865  75.600 116.307  0.00  0.00     0.161 C 
ATOM      2  C   LIG d   1      -4.678  75.030 115.817  0.00  0.00     0.016 C 
ATOM      3  C   LIG d   1      -3.467  75.006 116.547  0.00  0.00     0.038 C 
ATOM      4  C   LIG d   1      -3.401  75.417 117.887  0.00  0.00     0.028 C 
ATOM      5  C   LIG d   1      -4.449  76.462 118.252  0.00  0.00    -0.047 C 
ATOM      6  C   LIG d   1      -5.840  75.954 117.809  0.00  0.00     0.091 C 
ENDROOT
BRANCH   1   7
ATOM      7  O   LIG d   1      -6.979  74.734 116.015  0.00  0.00    -0.368 OA
BRANCH   7   8
ATOM      8  C   LIG d   1      -7.246  73.690 116.983  0.00  0.00     0.119 C 
BRANCH   8   9
ATOM      9  C   LIG d   1      -6.895  72.344 116.321  0.00  0.00     0.028 C 
ATOM     10  C   LIG d   1      -7.807  71.200 116.797  0.00  0.00     0.006 C 
ENDBRANCH   8   9
BRANCH   8  11
ATOM     11  C   LIG d   1      -8.740  73.603 117.311  0.00  0.00     0.028 C 
ATOM     12  C   LIG d   1      -9.055  73.995 118.764  0.00  0.00     0.006 C 
ENDBRANCH   8  11
ENDBRANCH   7   8
ENDBRANCH   1   7
BRANCH   6  13
ATOM     13  N   LIG d   1      -6.913  76.953 118.053  0.00  0.00    -0.311 N 
ATOM     14  C   LIG d   1      -6.872  78.201 117.590  0.00  0.00     0.210 C 
ATOM     15  C   LIG d   1      -8.072  79.073 117.974  0.00  0.00     0.109 C 
ATOM     16  O   LIG d   1      -5.972  78.659 116.870  0.00  0.00    -0.276 OA
ATOM     17  H   LIG d   1      -7.696  76.656 118.602  0.00  0.00     0.149 HD
ENDBRANCH   6  13
BRANCH   5  18
ATOM     18  N   LIG d   1      -4.356  76.699 119.705  0.00  0.00     0.381 N 
ATOM     19  H   LIG d   1      -3.638  76.122 120.096  0.00  0.00    -0.090 HD
ATOM     20  H   LIG d   1      -5.230  76.447 120.132  0.00  0.00    -0.090 HD
ATOM     21  H   LIG d   1      -4.155  77.658 119.882  0.00  0.00    -0.090 HD
ENDBRANCH   5  18
BRANCH   3  22
ATOM     22  C   LIG d   1      -2.297  74.602 115.923  0.00  0.00     0.382 C 
ATOM     23  O   LIG d   1      -1.985  75.079 114.806  0.00  0.00    -0.241 OA
ATOM     24  O   LIG d   1      -1.571  73.734 116.443  0.00  0.00    -0.241 OA
ENDBRANCH   3  22
TORSDOF 7
ENDMDL
MODEL 8
REMARK VINA RESULT:      -4.6      2.528      5.379
REMARK  7 active torsions:
REMARK  status: ('A' for Active; 'I' for Inactive)
REMARK    1  A    between atoms: C_2  and  C_3 
REMARK    2  A    between atoms: C_3  and  O_6 
REMARK    3  A    between atoms: C_3  and  C_4 
REMARK    4  A    between atoms: C_7  and  O_6 
REMARK    5  A    between atoms: C_9  and  C_10 
REMARK    6  A    between atoms: N_15  and  C_14 
REMARK    7  A    between atoms: N_20  and  C_19 
REMARK       I    between atoms: C_22  and  N_20 
ROOT
ATOM      1  C   LIG d   1      -5.746  74.500 117.517  0.00  0.00     0.161 C 
ATOM      2  C   LIG d   1      -5.997  73.171 117.138  0.00  0.00     0.016 C 
ATOM      3  C   LIG d   1      -7.297  72.637 116.988  0.00  0.00     0.038 C 
ATOM      4  C   LIG d   1      -8.443  73.444 117.060  0.00  0.00     0.028 C 
ATOM      5  C   LIG d   1      -8.260  74.678 117.936  0.00  0.00    -0.047 C 
ATOM      6  C   LIG d   1      -6.981  75.424 117.491  0.00  0.00     0.091 C 
ENDROOT
BRANCH   1   7
ATOM      7  O   LIG d   1      -4.692  75.050 116.701  0.00  0.00    -0.368 OA
BRANCH   7   8
ATOM      8  C   LIG d   1      -3.450  75.351 117.383  0.00  0.00     0.119 C 
BRANCH   8   9
ATOM      9  C   LIG d   1      -2.847  76.603 116.716  0.00  0.00     0.028 C 
ATOM     10  C   LIG d   1      -2.529  77.713 117.731  0.00  0.00     0.006 C 
ENDBRANCH   8   9
BRANCH   8  11
ATOM     11  C   LIG d   1      -2.415  74.242 117.172  0.00  0.00     0.028 C 
ATOM     12  C   LIG d   1      -1.642  74.391 115.852  0.00  0.00     0.006 C 
ENDBRANCH   8  11
ENDBRANCH   7   8
ENDBRANCH   1   7
BRANCH   6  13
ATOM     13  N   LIG d   1      -6.682  76.599 118.351  0.00  0.00    -0.311 N 
ATOM     14  C   LIG d   1      -6.262  77.769 117.874  0.00  0.00     0.210 C 
ATOM     15  C   LIG d   1      -5.992  78.841 118.935  0.00  0.00     0.109 C 
ATOM     16  O   LIG d   1      -6.117  78.031 116.670  0.00  0.00    -0.276 OA
ATOM     17  H   LIG d   1      -6.803  76.484 119.339  0.00  0.00     0.149 HD
ENDBRANCH   6  13
BRANCH   5  18
ATOM     18  N   LIG d   1      -9.480  75.498 117.812  0.00  0.00     0.381 N 
ATOM     19  H   LIG d   1      -9.321  76.247 117.168  0.00  0.00    -0.090 HD
ATOM     20  H   LIG d   1      -9.699  75.894 118.709  0.00  0.00    -0.090 HD
ATOM     21  H   LIG d   1     -10.239  74.934 117.496  0.00  0.00    -0.090 HD
ENDBRANCH   5  18
BRANCH   3  22
ATOM     22  C   LIG d   1      -7.463  71.273 116.802  0.00  0.00     0.382 C 
ATOM     23  O   LIG d   1      -6.687  70.645 116.042  0.00  0.00    -0.241 OA
ATOM     24  O   LIG d   1      -8.405  70.671 117.350  0.00  0.00    -0.241 OA
ENDBRANCH   3  22
TORSDOF 7
ENDMDL
MODEL 9
REMARK VINA RESULT:      -4.6      2.354      5.031
REMARK  7 active torsions:
REMARK  status: ('A' for Active; 'I' for Inactive)
REMARK    1  A    between atoms: C_2  and  C_3 
REMARK    2  A    between atoms: C_3  and  O_6 
REMARK    3  A    between atoms: C_3  and  C_4 
REMARK    4  A    between atoms: C_7  and  O_6 
REMARK    5  A    between atoms: C_9  and  C_10 
REMARK    6  A    between atoms: N_15  and  C_14 
REMARK    7  A    between atoms: N_20  and  C_19 
REMARK       I    between atoms: C_22  and  N_20 
ROOT
ATOM      1  C   LIG d   1      -7.635  74.833 119.514  0.00  0.00     0.161 C 
ATOM      2  C   LIG d   1      -6.800  75.937 119.752  0.00  0.00     0.016 C 
ATOM      3  C   LIG d   1      -5.587  76.159 119.059  0.00  0.00     0.038 C 
ATOM      4  C   LIG d   1      -5.201  75.368 117.967  0.00  0.00     0.028 C 
ATOM      5  C   LIG d   1      -5.759  73.949 118.020  0.00  0.00    -0.047 C 
ATOM      6  C   LIG d   1      -7.286  74.019 118.250  0.00  0.00     0.091 C 
ENDROOT
BRANCH   1   7
ATOM      7  O   LIG d   1      -9.010  75.261 119.470  0.00  0.00    -0.368 OA
BRANCH   7   8
ATOM      8  C   LIG d   1      -9.238  76.687 119.592  0.00  0.00     0.119 C 
BRANCH   8   9
ATOM      9  C   LIG d   1     -10.382  76.888 120.605  0.00  0.00     0.028 C 
ATOM     10  C   LIG d   1     -11.108  78.230 120.412  0.00  0.00     0.006 C 
ENDBRANCH   8   9
BRANCH   8  11
ATOM     11  C   LIG d   1      -9.749  77.285 118.278  0.00  0.00     0.028 C 
ATOM     12  C   LIG d   1     -10.150  76.213 117.252  0.00  0.00     0.006 C 
ENDBRANCH   8  11
ENDBRANCH   7   8
ENDBRANCH   1   7
BRANCH   6  13
ATOM     13  N   LIG d   1      -7.899  72.673 118.399  0.00  0.00    -0.311 N 
ATOM     14  C   LIG d   1      -8.873  72.220 117.612  0.00  0.00     0.210 C 
ATOM     15  C   LIG d   1      -9.376  70.813 117.950  0.00  0.00     0.109 C 
ATOM     16  O   LIG d   1      -9.346  72.837 116.645  0.00  0.00    -0.276 OA
ATOM     17  H   LIG d   1      -7.553  72.093 119.138  0.00  0.00     0.149 HD
ENDBRANCH   6  13
BRANCH   5  18
ATOM     18  N   LIG d   1      -5.394  73.279 116.758  0.00  0.00     0.381 N 
ATOM     19  H   LIG d   1      -6.108  72.627 116.502  0.00  0.00    -0.090 HD
ATOM     20  H   LIG d   1      -4.538  72.771 116.895  0.00  0.00    -0.090 HD
ATOM     21  H   LIG d   1      -5.276  73.955 116.035  0.00  0.00    -0.090 HD
ENDBRANCH   5  18
BRANCH   3  22
ATOM     22  C   LIG d   1      -4.727  77.161 119.483  0.00  0.00     0.382 C 
ATOM     23  O   LIG d   1      -3.978  77.735 118.657  0.00  0.00    -0.241 OA
ATOM     24  O   LIG d   1      -4.660  77.467 120.688  0.00  0.00    -0.241 OA
ENDBRANCH   3  22
TORSDOF 7
ENDMDL
