MODEL 1
REMARK VINA RESULT:      -6.1      0.000      0.000
REMARK  7 active torsions:
REMARK  status: ('A' for Active; 'I' for Inactive)
REMARK    1  A    between atoms: C_2  and  C_3 
REMARK    2  A    between atoms: C_3  and  O_6 
REMARK    3  A    between atoms: C_3  and  C_4 
REMARK    4  A    between atoms: C_7  and  O_6 
REMARK    5  A    between atoms: C_9  and  C_10 
REMARK    6  A    between atoms: N_15  and  C_14 
REMARK    7  A    between atoms: N_20  and  C_19 
REMARK       I    between atoms: C_22  and  N_20 
ROOT
ATOM      1  C   LIG d   1      -7.719  76.552 117.507  0.00  0.00     0.161 C 
ATOM      2  C   LIG d   1      -8.984  77.015 117.908  0.00  0.00     0.016 C 
ATOM      3  C   LIG d   1      -9.287  78.382 118.101  0.00  0.00     0.038 C 
ATOM      4  C   LIG d   1      -8.382  79.398 117.757  0.00  0.00     0.028 C 
ATOM      5  C   LIG d   1      -6.923  78.959 117.827  0.00  0.00    -0.047 C 
ATOM      6  C   LIG d   1      -6.753  77.652 117.019  0.00  0.00     0.091 C 
ENDROOT
BRANCH   1   7
ATOM      7  O   LIG d   1      -7.869  75.534 116.498  0.00  0.00    -0.368 OA
BRANCH   7   8
ATOM      8  C   LIG d   1      -7.781  74.163 116.957  0.00  0.00     0.119 C 
BRANCH   8   9
ATOM      9  C   LIG d   1      -6.528  73.538 116.314  0.00  0.00     0.028 C 
ATOM     10  C   LIG d   1      -6.127  74.242 115.006  0.00  0.00     0.006 C 
ENDBRANCH   8   9
BRANCH   8  11
ATOM     11  C   LIG d   1      -8.959  73.327 116.447  0.00  0.00     0.028 C 
ATOM     12  C   LIG d   1      -8.921  71.875 116.949  0.00  0.00     0.006 C 
ENDBRANCH   8  11
ENDBRANCH   7   8
ENDBRANCH   1   7
BRANCH   6  13
ATOM     13  N   LIG d   1      -5.372  77.108 117.106  0.00  0.00    -0.311 N 
ATOM     14  C   LIG d   1      -4.426  77.364 116.204  0.00  0.00     0.210 C 
ATOM     15  C   LIG d   1      -3.078  76.687 116.472  0.00  0.00     0.109 C 
ATOM     16  O   LIG d   1      -4.565  78.113 115.226  0.00  0.00    -0.276 OA
ATOM     17  H   LIG d   1      -5.163  76.516 117.886  0.00  0.00     0.149 HD
ENDBRANCH   6  13
BRANCH   5  18
ATOM     18  N   LIG d   1      -6.099  80.068 117.312  0.00  0.00     0.381 N 
ATOM     19  H   LIG d   1      -6.640  80.631 116.686  0.00  0.00    -0.090 HD
ATOM     20  H   LIG d   1      -5.322  79.686 116.801  0.00  0.00    -0.090 HD
ATOM     21  H   LIG d   1      -5.767  80.626 118.068  0.00  0.00    -0.090 HD
ENDBRANCH   5  18
BRANCH   3  22
ATOM     22  C   LIG d   1     -10.493  78.743 118.681  0.00  0.00     0.382 C 
ATOM     23  O   LIG d   1     -10.693  79.934 119.022  0.00  0.00    -0.241 OA
ATOM     24  O   LIG d   1     -11.367  77.885 118.909  0.00  0.00    -0.241 OA
ENDBRANCH   3  22
TORSDOF 7
ENDMDL
MODEL 2
REMARK VINA RESULT:      -5.5      2.204      4.593
REMARK  7 active torsions:
REMARK  status: ('A' for Active; 'I' for Inactive)
REMARK    1  A    between atoms: C_2  and  C_3 
REMARK    2  A    between atoms: C_3  and  O_6 
REMARK    3  A    between atoms: C_3  and  C_4 
REMARK    4  A    between atoms: C_7  and  O_6 
REMARK    5  A    between atoms: C_9  and  C_10 
REMARK    6  A    between atoms: N_15  and  C_14 
REMARK    7  A    between atoms: N_20  and  C_19 
REMARK       I    between atoms: C_22  and  N_20 
ROOT
ATOM      1  C   LIG d   1      -6.024  77.129 116.508  0.00  0.00     0.161 C 
ATOM      2  C   LIG d   1      -6.263  78.472 116.843  0.00  0.00     0.016 C 
ATOM      3  C   LIG d   1      -7.475  78.929 117.409  0.00  0.00     0.038 C 
ATOM      4  C   LIG d   1      -8.482  78.043 117.820  0.00  0.00     0.028 C 
ATOM      5  C   LIG d   1      -8.492  76.733 117.039  0.00  0.00    -0.047 C 
ATOM      6  C   LIG d   1      -7.068  76.131 117.051  0.00  0.00     0.091 C 
ENDROOT
BRANCH   1   7
ATOM      7  O   LIG d   1      -4.700  76.748 116.930  0.00  0.00    -0.368 OA
BRANCH   7   8
ATOM      8  C   LIG d   1      -3.704  76.639 115.883  0.00  0.00     0.119 C 
BRANCH   8   9
ATOM      9  C   LIG d   1      -3.407  75.140 115.681  0.00  0.00     0.028 C 
ATOM     10  C   LIG d   1      -1.987  74.757 116.132  0.00  0.00     0.006 C 
ENDBRANCH   8   9
BRANCH   8  11
ATOM     11  C   LIG d   1      -2.372  77.262 116.313  0.00  0.00     0.028 C 
ATOM     12  C   LIG d   1      -2.544  78.644 116.962  0.00  0.00     0.006 C 
ENDBRANCH   8  11
ENDBRANCH   7   8
ENDBRANCH   1   7
BRANCH   6  13
ATOM     13  N   LIG d   1      -6.970  74.891 116.238  0.00  0.00    -0.311 N 
ATOM     14  C   LIG d   1      -7.060  73.666 116.755  0.00  0.00     0.210 C 
ATOM     15  C   LIG d   1      -6.912  72.525 115.744  0.00  0.00     0.109 C 
ATOM     16  O   LIG d   1      -7.281  73.418 117.950  0.00  0.00    -0.276 OA
ATOM     17  H   LIG d   1      -6.822  75.001 115.254  0.00  0.00     0.149 HD
ENDBRANCH   6  13
BRANCH   5  18
ATOM     18  N   LIG d   1      -9.497  75.851 117.661  0.00  0.00     0.381 N 
ATOM     19  H   LIG d   1     -10.393  76.296 117.646  0.00  0.00    -0.090 HD
ATOM     20  H   LIG d   1      -9.241  75.690 118.619  0.00  0.00    -0.090 HD
ATOM     21  H   LIG d   1      -9.541  74.984 117.170  0.00  0.00    -0.090 HD
ENDBRANCH   5  18
BRANCH   3  22
ATOM     22  C   LIG d   1      -7.706  80.291 117.532  0.00  0.00     0.382 C 
ATOM     23  O   LIG d   1      -8.703  80.702 118.173  0.00  0.00    -0.241 OA
ATOM     24  O   LIG d   1      -6.955  81.112 116.973  0.00  0.00    -0.241 OA
ENDBRANCH   3  22
TORSDOF 7
ENDMDL
MODEL 3
REMARK VINA RESULT:      -5.3      2.183      4.978
REMARK  7 active torsions:
REMARK  status: ('A' for Active; 'I' for Inactive)
REMARK    1  A    between atoms: C_2  and  C_3 
REMARK    2  A    between atoms: C_3  and  O_6 
REMARK    3  A    between atoms: C_3  and  C_4 
REMARK    4  A    between atoms: C_7  and  O_6 
REMARK    5  A    between atoms: C_9  and  C_10 
REMARK    6  A    between atoms: N_15  and  C_14 
REMARK    7  A    between atoms: N_20  and  C_19 
REMARK       I    between atoms: C_22  and  N_20 
ROOT
ATOM      1  C   LIG d   1      -6.509  77.478 116.880  0.00  0.00     0.161 C 
ATOM      2  C   LIG d   1      -6.826  76.217 116.347  0.00  0.00     0.016 C 
ATOM      3  C   LIG d   1      -8.090  75.603 116.499  0.00  0.00     0.038 C 
ATOM      4  C   LIG d   1      -9.180  76.280 117.067  0.00  0.00     0.028 C 
ATOM      5  C   LIG d   1      -8.769  77.357 118.066  0.00  0.00    -0.047 C 
ATOM      6  C   LIG d   1      -7.718  78.279 117.407  0.00  0.00     0.091 C 
ENDROOT
BRANCH   1   7
ATOM      7  O   LIG d   1      -5.783  78.251 115.904  0.00  0.00    -0.368 OA
BRANCH   7   8
ATOM      8  C   LIG d   1      -4.380  78.479 116.188  0.00  0.00     0.119 C 
BRANCH   8   9
ATOM      9  C   LIG d   1      -3.564  77.591 115.229  0.00  0.00     0.028 C 
ATOM     10  C   LIG d   1      -3.062  76.304 115.906  0.00  0.00     0.006 C 
ENDBRANCH   8   9
BRANCH   8  11
ATOM     11  C   LIG d   1      -4.012  78.002 117.596  0.00  0.00     0.028 C 
ATOM     12  C   LIG d   1      -3.546  79.146 118.510  0.00  0.00     0.006 C 
ENDBRANCH   8  11
ENDBRANCH   7   8
ENDBRANCH   1   7
BRANCH   6  13
ATOM     13  N   LIG d   1      -7.200  79.309 118.344  0.00  0.00    -0.311 N 
ATOM     14  C   LIG d   1      -7.147  80.607 118.051  0.00  0.00     0.210 C 
ATOM     15  C   LIG d   1      -6.559  81.496 119.151  0.00  0.00     0.109 C 
ATOM     16  O   LIG d   1      -7.561  81.111 116.996  0.00  0.00    -0.276 OA
ATOM     17  H   LIG d   1      -6.872  78.992 119.236  0.00  0.00     0.149 HD
ENDBRANCH   6  13
BRANCH   5  18
ATOM     18  N   LIG d   1      -9.991  78.074 118.477  0.00  0.00     0.381 N 
ATOM     19  H   LIG d   1     -10.233  77.822 119.414  0.00  0.00    -0.090 HD
ATOM     20  H   LIG d   1     -10.746  77.801 117.872  0.00  0.00    -0.090 HD
ATOM     21  H   LIG d   1      -9.846  79.057 118.417  0.00  0.00    -0.090 HD
ENDBRANCH   5  18
BRANCH   3  22
ATOM     22  C   LIG d   1      -8.264  74.283 116.114  0.00  0.00     0.382 C 
ATOM     23  O   LIG d   1      -9.379  73.727 116.264  0.00  0.00    -0.241 OA
ATOM     24  O   LIG d   1      -7.308  73.626 115.659  0.00  0.00    -0.241 OA
ENDBRANCH   3  22
TORSDOF 7
ENDMDL
MODEL 4
REMARK VINA RESULT:      -5.2      2.279      5.228
REMARK  7 active torsions:
REMARK  status: ('A' for Active; 'I' for Inactive)
REMARK    1  A    between atoms: C_2  and  C_3 
REMARK    2  A    between atoms: C_3  and  O_6 
REMARK    3  A    between atoms: C_3  and  C_4 
REMARK    4  A    between atoms: C_7  and  O_6 
REMARK    5  A    between atoms: C_9  and  C_10 
REMARK    6  A    between atoms: N_15  and  C_14 
REMARK    7  A    between atoms: N_20  and  C_19 
REMARK       I    between atoms: C_22  and  N_20 
ROOT
ATOM      1  C   LIG d   1      -5.618  75.796 116.171  0.00  0.00     0.161 C 
ATOM      2  C   LIG d   1      -6.101  74.516 115.853  0.00  0.00     0.016 C 
ATOM      3  C   LIG d   1      -7.348  74.022 116.302  0.00  0.00     0.038 C 
ATOM      4  C   LIG d   1      -8.269  74.836 116.978  0.00  0.00     0.028 C 
ATOM      5  C   LIG d   1      -7.615  75.973 117.756  0.00  0.00    -0.047 C 
ATOM      6  C   LIG d   1      -6.657  76.739 116.815  0.00  0.00     0.091 C 
ENDROOT
BRANCH   1   7
ATOM      7  O   LIG d   1      -5.046  76.408 114.998  0.00  0.00    -0.368 OA
BRANCH   7   8
ATOM      8  C   LIG d   1      -3.599  76.459 114.947  0.00  0.00     0.119 C 
BRANCH   8   9
ATOM      9  C   LIG d   1      -3.070  75.976 116.311  0.00  0.00     0.028 C 
ATOM     10  C   LIG d   1      -2.082  74.805 116.177  0.00  0.00     0.006 C 
ENDBRANCH   8   9
BRANCH   8  11
ATOM     11  C   LIG d   1      -3.097  77.899 114.805  0.00  0.00     0.028 C 
ATOM     12  C   LIG d   1      -2.667  78.515 116.146  0.00  0.00     0.006 C 
ENDBRANCH   8  11
ENDBRANCH   7   8
ENDBRANCH   1   7
BRANCH   6  13
ATOM     13  N   LIG d   1      -5.912  77.816 117.518  0.00  0.00    -0.311 N 
ATOM     14  C   LIG d   1      -6.305  79.088 117.534  0.00  0.00     0.210 C 
ATOM     15  C   LIG d   1      -5.382  80.040 118.301  0.00  0.00     0.109 C 
ATOM     16  O   LIG d   1      -7.347  79.513 117.014  0.00  0.00    -0.276 OA
ATOM     17  H   LIG d   1      -5.071  77.553 117.993  0.00  0.00     0.149 HD
ENDBRANCH   6  13
BRANCH   5  18
ATOM     18  N   LIG d   1      -8.694  76.821 118.297  0.00  0.00     0.381 N 
ATOM     19  H   LIG d   1      -9.355  76.255 118.790  0.00  0.00    -0.090 HD
ATOM     20  H   LIG d   1      -9.170  77.269 117.533  0.00  0.00    -0.090 HD
ATOM     21  H   LIG d   1      -8.313  77.509 118.909  0.00  0.00    -0.090 HD
ENDBRANCH   5  18
BRANCH   3  22
ATOM     22  C   LIG d   1      -7.667  72.686 116.109  0.00  0.00     0.382 C 
ATOM     23  O   LIG d   1      -8.800  72.259 116.436  0.00  0.00    -0.241 OA
ATOM     24  O   LIG d   1      -6.821  71.894 115.653  0.00  0.00    -0.241 OA
ENDBRANCH   3  22
TORSDOF 7
ENDMDL
MODEL 5
REMARK VINA RESULT:      -5.2      2.273      5.326
REMARK  7 active torsions:
REMARK  status: ('A' for Active; 'I' for Inactive)
REMARK    1  A    between atoms: C_2  and  C_3 
REMARK    2  A    between atoms: C_3  and  O_6 
REMARK    3  A    between atoms: C_3  and  C_4 
REMARK    4  A    between atoms: C_7  and  O_6 
REMARK    5  A    between atoms: C_9  and  C_10 
REMARK    6  A    between atoms: N_15  and  C_14 
REMARK    7  A    between atoms: N_20  and  C_19 
REMARK       I    between atoms: C_22  and  N_20 
ROOT
ATOM      1  C   LIG d   1      -6.585  75.844 116.631  0.00  0.00     0.161 C 
ATOM      2  C   LIG d   1      -6.683  74.463 116.395  0.00  0.00     0.016 C 
ATOM      3  C   LIG d   1      -7.910  73.760 116.389  0.00  0.00     0.038 C 
ATOM      4  C   LIG d   1      -9.144  74.421 116.468  0.00  0.00     0.028 C 
ATOM      5  C   LIG d   1      -9.072  75.751 117.212  0.00  0.00    -0.047 C 
ATOM      6  C   LIG d   1      -7.930  76.601 116.610  0.00  0.00     0.091 C 
ENDROOT
BRANCH   1   7
ATOM      7  O   LIG d   1      -5.663  76.435 115.695  0.00  0.00    -0.368 OA
BRANCH   7   8
ATOM      8  C   LIG d   1      -4.285  76.533 116.133  0.00  0.00     0.119 C 
BRANCH   8   9
ATOM      9  C   LIG d   1      -3.840  77.996 115.937  0.00  0.00     0.028 C 
ATOM     10  C   LIG d   1      -4.189  78.882 117.144  0.00  0.00     0.006 C 
ENDBRANCH   8   9
BRANCH   8  11
ATOM     11  C   LIG d   1      -3.356  75.704 115.242  0.00  0.00     0.028 C 
ATOM     12  C   LIG d   1      -2.332  74.887 116.045  0.00  0.00     0.006 C 
ENDBRANCH   8  11
ENDBRANCH   7   8
ENDBRANCH   1   7
BRANCH   6  13
ATOM     13  N   LIG d   1      -7.736  77.884 117.334  0.00  0.00    -0.311 N 
ATOM     14  C   LIG d   1      -7.498  77.958 118.643  0.00  0.00     0.210 C 
ATOM     15  C   LIG d   1      -7.349  79.380 119.193  0.00  0.00     0.109 C 
ATOM     16  O   LIG d   1      -7.365  76.980 119.394  0.00  0.00    -0.276 OA
ATOM     17  H   LIG d   1      -7.796  78.726 116.795  0.00  0.00     0.149 HD
ENDBRANCH   6  13
BRANCH   5  18
ATOM     18  N   LIG d   1     -10.394  76.396 117.100  0.00  0.00     0.381 N 
ATOM     19  H   LIG d   1     -10.681  76.737 117.996  0.00  0.00    -0.090 HD
ATOM     20  H   LIG d   1     -11.064  75.714 116.793  0.00  0.00    -0.090 HD
ATOM     21  H   LIG d   1     -10.352  77.148 116.448  0.00  0.00    -0.090 HD
ENDBRANCH   5  18
BRANCH   3  22
ATOM     22  C   LIG d   1      -7.907  72.374 116.341  0.00  0.00     0.382 C 
ATOM     23  O   LIG d   1      -6.942  71.766 115.819  0.00  0.00    -0.241 OA
ATOM     24  O   LIG d   1      -8.878  71.725 116.774  0.00  0.00    -0.241 OA
ENDBRANCH   3  22
TORSDOF 7
ENDMDL
MODEL 6
REMARK VINA RESULT:      -4.8      2.603      6.568
REMARK  7 active torsions:
REMARK  status: ('A' for Active; 'I' for Inactive)
REMARK    1  A    between atoms: C_2  and  C_3 
REMARK    2  A    between atoms: C_3  and  O_6 
REMARK    3  A    between atoms: C_3  and  C_4 
REMARK    4  A    between atoms: C_7  and  O_6 
REMARK    5  A    between atoms: C_9  and  C_10 
REMARK    6  A    between atoms: N_15  and  C_14 
REMARK    7  A    between atoms: N_20  and  C_19 
REMARK       I    between atoms: C_22  and  N_20 
ROOT
ATOM      1  C   LIG d   1      -5.240  77.370 116.551  0.00  0.00     0.161 C 
ATOM      2  C   LIG d   1      -3.930  77.126 116.106  0.00  0.00     0.016 C 
ATOM      3  C   LIG d   1      -3.523  75.907 115.516  0.00  0.00     0.038 C 
ATOM      4  C   LIG d   1      -4.441  74.897 115.193  0.00  0.00     0.028 C 
ATOM      5  C   LIG d   1      -5.680  74.897 116.082  0.00  0.00    -0.047 C 
ATOM      6  C   LIG d   1      -6.280  76.321 116.106  0.00  0.00     0.091 C 
ENDROOT
BRANCH   1   7
ATOM      7  O   LIG d   1      -5.655  78.690 116.149  0.00  0.00    -0.368 OA
BRANCH   7   8
ATOM      8  C   LIG d   1      -5.831  79.656 117.215  0.00  0.00     0.119 C 
BRANCH   8   9
ATOM      9  C   LIG d   1      -5.286  79.021 118.509  0.00  0.00     0.028 C 
ATOM     10  C   LIG d   1      -4.032  79.742 119.032  0.00  0.00     0.006 C 
ENDBRANCH   8   9
BRANCH   8  11
ATOM     11  C   LIG d   1      -7.315  79.920 117.488  0.00  0.00     0.028 C 
ATOM     12  C   LIG d   1      -7.740  79.520 118.909  0.00  0.00     0.006 C 
ENDBRANCH   8  11
ENDBRANCH   7   8
ENDBRANCH   1   7
BRANCH   6  13
ATOM     13  N   LIG d   1      -7.447  76.429 117.020  0.00  0.00    -0.311 N 
ATOM     14  C   LIG d   1      -8.703  76.207 116.635  0.00  0.00     0.210 C 
ATOM     15  C   LIG d   1      -9.757  76.392 117.731  0.00  0.00     0.109 C 
ATOM     16  O   LIG d   1      -9.040  75.842 115.499  0.00  0.00    -0.276 OA
ATOM     17  H   LIG d   1      -7.261  76.690 117.969  0.00  0.00     0.149 HD
ENDBRANCH   6  13
BRANCH   5  18
ATOM     18  N   LIG d   1      -6.611  73.886 115.548  0.00  0.00     0.381 N 
ATOM     19  H   LIG d   1      -6.292  72.969 115.792  0.00  0.00    -0.090 HD
ATOM     20  H   LIG d   1      -6.629  73.957 114.546  0.00  0.00    -0.090 HD
ATOM     21  H   LIG d   1      -7.525  74.036 115.916  0.00  0.00    -0.090 HD
ENDBRANCH   5  18
BRANCH   3  22
ATOM     22  C   LIG d   1      -2.177  75.674 115.280  0.00  0.00     0.382 C 
ATOM     23  O   LIG d   1      -1.669  74.569 115.588  0.00  0.00    -0.241 OA
ATOM     24  O   LIG d   1      -1.454  76.570 114.805  0.00  0.00    -0.241 OA
ENDBRANCH   3  22
TORSDOF 7
ENDMDL
MODEL 7
REMARK VINA RESULT:      -4.8      2.496      6.456
REMARK  7 active torsions:
REMARK  status: ('A' for Active; 'I' for Inactive)
REMARK    1  A    between atoms: C_2  and  C_3 
REMARK    2  A    between atoms: C_3  and  O_6 
REMARK    3  A    between atoms: C_3  and  C_4 
REMARK    4  A    between atoms: C_7  and  O_6 
REMARK    5  A    between atoms: C_9  and  C_10 
REMARK    6  A    between atoms: N_15  and  C_14 
REMARK    7  A    between atoms: N_20  and  C_19 
REMARK       I    between atoms: C_22  and  N_20 
ROOT
ATOM      1  C   LIG d   1      -5.907  78.407 117.034  0.00  0.00     0.161 C 
ATOM      2  C   LIG d   1      -4.659  78.996 116.772  0.00  0.00     0.016 C 
ATOM      3  C   LIG d   1      -3.602  78.324 116.117  0.00  0.00     0.038 C 
ATOM      4  C   LIG d   1      -3.775  77.057 115.540  0.00  0.00     0.028 C 
ATOM      5  C   LIG d   1      -4.857  76.224 116.219  0.00  0.00    -0.047 C 
ATOM      6  C   LIG d   1      -6.151  77.064 116.314  0.00  0.00     0.091 C 
ENDROOT
BRANCH   1   7
ATOM      7  O   LIG d   1      -6.962  79.339 116.727  0.00  0.00    -0.368 OA
BRANCH   7   8
ATOM      8  C   LIG d   1      -7.435  80.152 117.829  0.00  0.00     0.119 C 
BRANCH   8   9
ATOM      9  C   LIG d   1      -8.944  79.885 117.987  0.00  0.00     0.028 C 
ATOM     10  C   LIG d   1      -9.237  78.726 118.954  0.00  0.00     0.006 C 
ENDBRANCH   8   9
BRANCH   8  11
ATOM     11  C   LIG d   1      -7.318  81.646 117.510  0.00  0.00     0.028 C 
ATOM     12  C   LIG d   1      -8.021  82.533 118.549  0.00  0.00     0.006 C 
ENDBRANCH   8  11
ENDBRANCH   7   8
ENDBRANCH   1   7
BRANCH   6  13
ATOM     13  N   LIG d   1      -7.236  76.354 117.041  0.00  0.00    -0.311 N 
ATOM     14  C   LIG d   1      -8.366  75.953 116.462  0.00  0.00     0.210 C 
ATOM     15  C   LIG d   1      -9.360  75.258 117.397  0.00  0.00     0.109 C 
ATOM     16  O   LIG d   1      -8.626  76.078 115.256  0.00  0.00    -0.276 OA
ATOM     17  H   LIG d   1      -7.095  76.184 118.017  0.00  0.00     0.149 HD
ENDBRANCH   6  13
BRANCH   5  18
ATOM     18  N   LIG d   1      -5.027  74.987 115.434  0.00  0.00     0.381 N 
ATOM     19  H   LIG d   1      -4.625  75.105 114.525  0.00  0.00    -0.090 HD
ATOM     20  H   LIG d   1      -6.008  74.804 115.324  0.00  0.00    -0.090 HD
ATOM     21  H   LIG d   1      -4.589  74.224 115.901  0.00  0.00    -0.090 HD
ENDBRANCH   5  18
BRANCH   3  22
ATOM     22  C   LIG d   1      -2.344  78.903 116.068  0.00  0.00     0.382 C 
ATOM     23  O   LIG d   1      -1.731  78.981 114.976  0.00  0.00    -0.241 OA
ATOM     24  O   LIG d   1      -1.795  79.309 117.110  0.00  0.00    -0.241 OA
ENDBRANCH   3  22
TORSDOF 7
ENDMDL
MODEL 8
REMARK VINA RESULT:      -4.7      1.597      2.246
REMARK  7 active torsions:
REMARK  status: ('A' for Active; 'I' for Inactive)
REMARK    1  A    between atoms: C_2  and  C_3 
REMARK    2  A    between atoms: C_3  and  O_6 
REMARK    3  A    between atoms: C_3  and  C_4 
REMARK    4  A    between atoms: C_7  and  O_6 
REMARK    5  A    between atoms: C_9  and  C_10 
REMARK    6  A    between atoms: N_15  and  C_14 
REMARK    7  A    between atoms: N_20  and  C_19 
REMARK       I    between atoms: C_22  and  N_20 
ROOT
ATOM      1  C   LIG d   1      -7.449  77.199 118.096  0.00  0.00     0.161 C 
ATOM      2  C   LIG d   1      -8.768  77.419 118.526  0.00  0.00     0.016 C 
ATOM      3  C   LIG d   1      -9.376  78.696 118.552  0.00  0.00     0.038 C 
ATOM      4  C   LIG d   1      -8.751  79.825 118.004  0.00  0.00     0.028 C 
ATOM      5  C   LIG d   1      -7.228  79.744 118.022  0.00  0.00    -0.047 C 
ATOM      6  C   LIG d   1      -6.790  78.403 117.390  0.00  0.00     0.091 C 
ENDROOT
BRANCH   1   7
ATOM      7  O   LIG d   1      -7.398  76.033 117.251  0.00  0.00    -0.368 OA
BRANCH   7   8
ATOM      8  C   LIG d   1      -8.078  76.141 115.976  0.00  0.00     0.119 C 
BRANCH   8   9
ATOM      9  C   LIG d   1      -8.981  74.901 115.827  0.00  0.00     0.028 C 
ATOM     10  C   LIG d   1      -8.982  74.021 117.088  0.00  0.00     0.006 C 
ENDBRANCH   8   9
BRANCH   8  11
ATOM     11  C   LIG d   1      -7.089  76.064 114.809  0.00  0.00     0.028 C 
ATOM     12  C   LIG d   1      -6.104  74.891 114.939  0.00  0.00     0.006 C 
ENDBRANCH   8  11
ENDBRANCH   7   8
ENDBRANCH   1   7
BRANCH   6  13
ATOM     13  N   LIG d   1      -5.318  78.205 117.445  0.00  0.00    -0.311 N 
ATOM     14  C   LIG d   1      -4.570  78.550 118.491  0.00  0.00     0.210 C 
ATOM     15  C   LIG d   1      -3.071  78.278 118.333  0.00  0.00     0.109 C 
ATOM     16  O   LIG d   1      -5.010  79.026 119.549  0.00  0.00    -0.276 OA
ATOM     17  H   LIG d   1      -4.883  77.796 116.641  0.00  0.00     0.149 HD
ENDBRANCH   6  13
BRANCH   5  18
ATOM     18  N   LIG d   1      -6.710  80.920 117.298  0.00  0.00     0.381 N 
ATOM     19  H   LIG d   1      -7.472  81.450 116.923  0.00  0.00    -0.090 HD
ATOM     20  H   LIG d   1      -6.139  80.606 116.534  0.00  0.00    -0.090 HD
ATOM     21  H   LIG d   1      -6.172  81.490 117.913  0.00  0.00    -0.090 HD
ENDBRANCH   5  18
BRANCH   3  22
ATOM     22  C   LIG d   1     -10.608  78.858 119.168  0.00  0.00     0.382 C 
ATOM     23  O   LIG d   1     -10.800  79.830 119.938  0.00  0.00    -0.241 OA
ATOM     24  O   LIG d   1     -11.514  78.021 118.998  0.00  0.00    -0.241 OA
ENDBRANCH   3  22
TORSDOF 7
ENDMDL
MODEL 9
REMARK VINA RESULT:      -4.6      2.464      6.384
REMARK  7 active torsions:
REMARK  status: ('A' for Active; 'I' for Inactive)
REMARK    1  A    between atoms: C_2  and  C_3 
REMARK    2  A    between atoms: C_3  and  O_6 
REMARK    3  A    between atoms: C_3  and  C_4 
REMARK    4  A    between atoms: C_7  and  O_6 
REMARK    5  A    between atoms: C_9  and  C_10 
REMARK    6  A    between atoms: N_15  and  C_14 
REMARK    7  A    between atoms: N_20  and  C_19 
REMARK       I    between atoms: C_22  and  N_20 
ROOT
ATOM      1  C   LIG d   1      -7.150  78.438 117.734  0.00  0.00     0.161 C 
ATOM      2  C   LIG d   1      -6.284  77.759 116.861  0.00  0.00     0.016 C 
ATOM      3  C   LIG d   1      -6.682  76.653 116.074  0.00  0.00     0.038 C 
ATOM      4  C   LIG d   1      -8.021  76.245 115.994  0.00  0.00     0.028 C 
ATOM      5  C   LIG d   1      -8.833  76.580 117.241  0.00  0.00    -0.047 C 
ATOM      6  C   LIG d   1      -8.642  78.077 117.576  0.00  0.00     0.091 C 
ENDROOT
BRANCH   1   7
ATOM      7  O   LIG d   1      -6.962  79.861 117.598  0.00  0.00    -0.368 OA
BRANCH   7   8
ATOM      8  C   LIG d   1      -6.122  80.491 118.597  0.00  0.00     0.119 C 
BRANCH   8   9
ATOM      9  C   LIG d   1      -6.132  79.589 119.846  0.00  0.00     0.028 C 
ATOM     10  C   LIG d   1      -4.715  79.271 120.352  0.00  0.00     0.006 C 
ENDBRANCH   8   9
BRANCH   8  11
ATOM     11  C   LIG d   1      -6.709  81.828 119.057  0.00  0.00     0.028 C 
ATOM     12  C   LIG d   1      -7.526  81.705 120.353  0.00  0.00     0.006 C 
ENDBRANCH   8  11
ENDBRANCH   7   8
ENDBRANCH   1   7
BRANCH   6  13
ATOM     13  N   LIG d   1      -9.335  78.470 118.830  0.00  0.00    -0.311 N 
ATOM     14  C   LIG d   1     -10.144  79.524 118.922  0.00  0.00     0.210 C 
ATOM     15  C   LIG d   1     -10.741  79.763 120.312  0.00  0.00     0.109 C 
ATOM     16  O   LIG d   1     -10.451  80.264 117.975  0.00  0.00    -0.276 OA
ATOM     17  H   LIG d   1      -9.167  77.906 119.640  0.00  0.00     0.149 HD
ENDBRANCH   6  13
BRANCH   5  18
ATOM     18  N   LIG d   1     -10.238  76.224 116.967  0.00  0.00     0.381 N 
ATOM     19  H   LIG d   1     -10.656  75.839 117.790  0.00  0.00    -0.090 HD
ATOM     20  H   LIG d   1     -10.262  75.527 116.244  0.00  0.00    -0.090 HD
ATOM     21  H   LIG d   1     -10.744  77.032 116.676  0.00  0.00    -0.090 HD
ENDBRANCH   5  18
BRANCH   3  22
ATOM     22  C   LIG d   1      -5.727  75.919 115.388  0.00  0.00     0.382 C 
ATOM     23  O   LIG d   1      -5.783  74.665 115.385  0.00  0.00    -0.241 OA
ATOM     24  O   LIG d   1      -4.785  76.492 114.809  0.00  0.00    -0.241 OA
ENDBRANCH   3  22
TORSDOF 7
ENDMDL
