MODEL 1
REMARK VINA RESULT:      -5.5      0.000      0.000
REMARK  7 active torsions:
REMARK  status: ('A' for Active; 'I' for Inactive)
REMARK    1  A    between atoms: C_2  and  C_3 
REMARK    2  A    between atoms: C_3  and  O_6 
REMARK    3  A    between atoms: C_3  and  C_4 
REMARK    4  A    between atoms: C_7  and  O_6 
REMARK    5  A    between atoms: C_9  and  C_10 
REMARK    6  A    between atoms: N_15  and  C_14 
REMARK    7  A    between atoms: N_20  and  C_19 
REMARK       I    between atoms: C_22  and  N_20 
ROOT
ATOM      1  C   LIG d   1      -4.233  91.589 117.980  0.00  0.00     0.161 C 
ATOM      2  C   LIG d   1      -5.023  90.740 117.187  0.00  0.00     0.016 C 
ATOM      3  C   LIG d   1      -6.265  91.127 116.633  0.00  0.00     0.038 C 
ATOM      4  C   LIG d   1      -6.732  92.448 116.710  0.00  0.00     0.028 C 
ATOM      5  C   LIG d   1      -6.211  93.205 117.927  0.00  0.00    -0.047 C 
ATOM      6  C   LIG d   1      -4.672  93.068 117.982  0.00  0.00     0.091 C 
ENDROOT
BRANCH   1   7
ATOM      7  O   LIG d   1      -2.850  91.478 117.586  0.00  0.00    -0.368 OA
BRANCH   7   8
ATOM      8  C   LIG d   1      -1.940  90.968 118.592  0.00  0.00     0.119 C 
BRANCH   8   9
ATOM      9  C   LIG d   1      -0.571  91.635 118.358  0.00  0.00     0.028 C 
ATOM     10  C   LIG d   1       0.241  90.938 117.254  0.00  0.00     0.006 C 
ENDBRANCH   8   9
BRANCH   8  11
ATOM     11  C   LIG d   1      -1.695  89.467 118.412  0.00  0.00     0.028 C 
ATOM     12  C   LIG d   1      -2.478  88.610 119.420  0.00  0.00     0.006 C 
ENDBRANCH   8  11
ENDBRANCH   7   8
ENDBRANCH   1   7
BRANCH   6  13
ATOM     13  N   LIG d   1      -4.089  93.708 119.190  0.00  0.00    -0.311 N 
ATOM     14  C   LIG d   1      -3.046  94.535 119.150  0.00  0.00     0.210 C 
ATOM     15  C   LIG d   1      -2.591  95.069 120.511  0.00  0.00     0.109 C 
ATOM     16  O   LIG d   1      -2.473  94.901 118.112  0.00  0.00    -0.276 OA
ATOM     17  H   LIG d   1      -4.512  93.491 120.071  0.00  0.00     0.149 HD
ENDBRANCH   6  13
BRANCH   5  18
ATOM     18  N   LIG d   1      -6.663  94.604 117.809  0.00  0.00     0.381 N 
ATOM     19  H   LIG d   1      -6.425  95.108 118.640  0.00  0.00    -0.090 HD
ATOM     20  H   LIG d   1      -7.663  94.615 117.708  0.00  0.00    -0.090 HD
ATOM     21  H   LIG d   1      -6.238  95.034 117.017  0.00  0.00    -0.090 HD
ENDBRANCH   5  18
BRANCH   3  22
ATOM     22  C   LIG d   1      -7.073  90.177 116.027  0.00  0.00     0.382 C 
ATOM     23  O   LIG d   1      -7.980  89.613 116.686  0.00  0.00    -0.241 OA
ATOM     24  O   LIG d   1      -6.878  89.845 114.842  0.00  0.00    -0.241 OA
ENDBRANCH   3  22
TORSDOF 7
ENDMDL
MODEL 2
REMARK VINA RESULT:      -5.4      2.448      4.310
REMARK  7 active torsions:
REMARK  status: ('A' for Active; 'I' for Inactive)
REMARK    1  A    between atoms: C_2  and  C_3 
REMARK    2  A    between atoms: C_3  and  O_6 
REMARK    3  A    between atoms: C_3  and  C_4 
REMARK    4  A    between atoms: C_7  and  O_6 
REMARK    5  A    between atoms: C_9  and  C_10 
REMARK    6  A    between atoms: N_15  and  C_14 
REMARK    7  A    between atoms: N_20  and  C_19 
REMARK       I    between atoms: C_22  and  N_20 
ROOT
ATOM      1  C   LIG d   1      -4.790  92.734 117.741  0.00  0.00     0.161 C 
ATOM      2  C   LIG d   1      -5.964  93.376 117.314  0.00  0.00     0.016 C 
ATOM      3  C   LIG d   1      -6.856  92.818 116.369  0.00  0.00     0.038 C 
ATOM      4  C   LIG d   1      -6.712  91.505 115.898  0.00  0.00     0.028 C 
ATOM      5  C   LIG d   1      -5.269  91.010 115.917  0.00  0.00    -0.047 C 
ATOM      6  C   LIG d   1      -4.674  91.253 117.322  0.00  0.00     0.091 C 
ENDROOT
BRANCH   1   7
ATOM      7  O   LIG d   1      -4.656  92.862 119.170  0.00  0.00    -0.368 OA
BRANCH   7   8
ATOM      8  C   LIG d   1      -3.516  93.625 119.638  0.00  0.00     0.119 C 
BRANCH   8   9
ATOM      9  C   LIG d   1      -4.049  94.730 120.570  0.00  0.00     0.028 C 
ATOM     10  C   LIG d   1      -4.711  95.882 119.795  0.00  0.00     0.006 C 
ENDBRANCH   8   9
BRANCH   8  11
ATOM     11  C   LIG d   1      -2.829  94.363 118.485  0.00  0.00     0.028 C 
ATOM     12  C   LIG d   1      -1.381  93.901 118.261  0.00  0.00     0.006 C 
ENDBRANCH   8  11
ENDBRANCH   7   8
ENDBRANCH   1   7
BRANCH   6  13
ATOM     13  N   LIG d   1      -3.239  90.875 117.403  0.00  0.00    -0.311 N 
ATOM     14  C   LIG d   1      -2.773  89.937 118.226  0.00  0.00     0.210 C 
ATOM     15  C   LIG d   1      -1.258  89.717 118.165  0.00  0.00     0.109 C 
ATOM     16  O   LIG d   1      -3.475  89.244 118.978  0.00  0.00    -0.276 OA
ATOM     17  H   LIG d   1      -2.603  91.366 116.805  0.00  0.00     0.149 HD
ENDBRANCH   6  13
BRANCH   5  18
ATOM     18  N   LIG d   1      -5.282  89.586 115.532  0.00  0.00     0.381 N 
ATOM     19  H   LIG d   1      -5.850  89.460 114.719  0.00  0.00    -0.090 HD
ATOM     20  H   LIG d   1      -5.681  89.050 116.283  0.00  0.00    -0.090 HD
ATOM     21  H   LIG d   1      -4.353  89.274 115.350  0.00  0.00    -0.090 HD
ENDBRANCH   5  18
BRANCH   3  22
ATOM     22  C   LIG d   1      -7.886  93.592 115.856  0.00  0.00     0.382 C 
ATOM     23  O   LIG d   1      -8.270  94.614 116.474  0.00  0.00    -0.241 OA
ATOM     24  O   LIG d   1      -8.465  93.257 114.805  0.00  0.00    -0.241 OA
ENDBRANCH   3  22
TORSDOF 7
ENDMDL
MODEL 3
REMARK VINA RESULT:      -5.3      2.488      5.265
REMARK  7 active torsions:
REMARK  status: ('A' for Active; 'I' for Inactive)
REMARK    1  A    between atoms: C_2  and  C_3 
REMARK    2  A    between atoms: C_3  and  O_6 
REMARK    3  A    between atoms: C_3  and  C_4 
REMARK    4  A    between atoms: C_7  and  O_6 
REMARK    5  A    between atoms: C_9  and  C_10 
REMARK    6  A    between atoms: N_15  and  C_14 
REMARK    7  A    between atoms: N_20  and  C_19 
REMARK       I    between atoms: C_22  and  N_20 
ROOT
ATOM      1  C   LIG d   1      -6.478  93.546 118.084  0.00  0.00     0.161 C 
ATOM      2  C   LIG d   1      -6.922  92.328 117.541  0.00  0.00     0.016 C 
ATOM      3  C   LIG d   1      -6.049  91.288 117.146  0.00  0.00     0.038 C 
ATOM      4  C   LIG d   1      -4.672  91.337 117.408  0.00  0.00     0.028 C 
ATOM      5  C   LIG d   1      -4.121  92.756 117.493  0.00  0.00    -0.047 C 
ATOM      6  C   LIG d   1      -4.987  93.572 118.480  0.00  0.00     0.091 C 
ENDROOT
BRANCH   1   7
ATOM      7  O   LIG d   1      -7.302  93.908 119.209  0.00  0.00    -0.368 OA
BRANCH   7   8
ATOM      8  C   LIG d   1      -8.074  95.126 119.068  0.00  0.00     0.119 C 
BRANCH   8   9
ATOM      9  C   LIG d   1      -9.531  94.796 119.446  0.00  0.00     0.028 C 
ATOM     10  C   LIG d   1      -9.636  94.050 120.786  0.00  0.00     0.006 C 
ENDBRANCH   8   9
BRANCH   8  11
ATOM     11  C   LIG d   1      -8.127  95.586 117.609  0.00  0.00     0.028 C 
ATOM     12  C   LIG d   1      -8.257  97.111 117.469  0.00  0.00     0.006 C 
ENDBRANCH   8  11
ENDBRANCH   7   8
ENDBRANCH   1   7
BRANCH   6  13
ATOM     13  N   LIG d   1      -4.568  94.996 118.559  0.00  0.00    -0.311 N 
ATOM     14  C   LIG d   1      -3.710  95.458 119.466  0.00  0.00     0.210 C 
ATOM     15  C   LIG d   1      -3.429  96.962 119.384  0.00  0.00     0.109 C 
ATOM     16  O   LIG d   1      -3.130  94.760 120.311  0.00  0.00    -0.276 OA
ATOM     17  H   LIG d   1      -4.966  95.626 117.891  0.00  0.00     0.149 HD
ENDBRANCH   6  13
BRANCH   5  18
ATOM     18  N   LIG d   1      -2.708  92.662 117.906  0.00  0.00     0.381 N 
ATOM     19  H   LIG d   1      -2.400  91.711 117.846  0.00  0.00    -0.090 HD
ATOM     20  H   LIG d   1      -2.628  92.959 118.862  0.00  0.00    -0.090 HD
ATOM     21  H   LIG d   1      -2.143  93.239 117.323  0.00  0.00    -0.090 HD
ENDBRANCH   5  18
BRANCH   3  22
ATOM     22  C   LIG d   1      -6.548  90.202 116.444  0.00  0.00     0.382 C 
ATOM     23  O   LIG d   1      -5.835  89.628 115.586  0.00  0.00    -0.241 OA
ATOM     24  O   LIG d   1      -7.718  89.815 116.626  0.00  0.00    -0.241 OA
ENDBRANCH   3  22
TORSDOF 7
ENDMDL
MODEL 4
REMARK VINA RESULT:      -5.2      1.718      2.451
REMARK  7 active torsions:
REMARK  status: ('A' for Active; 'I' for Inactive)
REMARK    1  A    between atoms: C_2  and  C_3 
REMARK    2  A    between atoms: C_3  and  O_6 
REMARK    3  A    between atoms: C_3  and  C_4 
REMARK    4  A    between atoms: C_7  and  O_6 
REMARK    5  A    between atoms: C_9  and  C_10 
REMARK    6  A    between atoms: N_15  and  C_14 
REMARK    7  A    between atoms: N_20  and  C_19 
REMARK       I    between atoms: C_22  and  N_20 
ROOT
ATOM      1  C   LIG d   1      -5.592  92.097 118.598  0.00  0.00     0.161 C 
ATOM      2  C   LIG d   1      -5.610  91.134 117.576  0.00  0.00     0.016 C 
ATOM      3  C   LIG d   1      -6.284  91.316 116.346  0.00  0.00     0.038 C 
ATOM      4  C   LIG d   1      -6.864  92.544 115.994  0.00  0.00     0.028 C 
ATOM      5  C   LIG d   1      -7.306  93.372 117.196  0.00  0.00    -0.047 C 
ATOM      6  C   LIG d   1      -6.126  93.486 118.188  0.00  0.00     0.091 C 
ENDROOT
BRANCH   1   7
ATOM      7  O   LIG d   1      -4.261  92.212 119.139  0.00  0.00    -0.368 OA
BRANCH   7   8
ATOM      8  C   LIG d   1      -3.176  92.137 118.182  0.00  0.00     0.119 C 
BRANCH   8   9
ATOM      9  C   LIG d   1      -2.067  91.268 118.805  0.00  0.00     0.028 C 
ATOM     10  C   LIG d   1      -2.246  89.773 118.490  0.00  0.00     0.006 C 
ENDBRANCH   8   9
BRANCH   8  11
ATOM     11  C   LIG d   1      -2.536  93.511 117.957  0.00  0.00     0.028 C 
ATOM     12  C   LIG d   1      -1.000  93.465 117.988  0.00  0.00     0.006 C 
ENDBRANCH   8  11
ENDBRANCH   7   8
ENDBRANCH   1   7
BRANCH   6  13
ATOM     13  N   LIG d   1      -6.498  94.210 119.431  0.00  0.00    -0.311 N 
ATOM     14  C   LIG d   1      -5.852  95.287 119.874  0.00  0.00     0.210 C 
ATOM     15  C   LIG d   1      -6.386  95.867 121.187  0.00  0.00     0.109 C 
ATOM     16  O   LIG d   1      -4.907  95.835 119.288  0.00  0.00    -0.276 OA
ATOM     17  H   LIG d   1      -7.273  93.851 119.953  0.00  0.00     0.149 HD
ENDBRANCH   6  13
BRANCH   5  18
ATOM     18  N   LIG d   1      -7.764  94.680 116.691  0.00  0.00     0.381 N 
ATOM     19  H   LIG d   1      -8.708  94.843 116.981  0.00  0.00    -0.090 HD
ATOM     20  H   LIG d   1      -7.740  94.668 115.687  0.00  0.00    -0.090 HD
ATOM     21  H   LIG d   1      -7.174  95.405 117.036  0.00  0.00    -0.090 HD
ENDBRANCH   5  18
BRANCH   3  22
ATOM     22  C   LIG d   1      -6.417  90.250 115.471  0.00  0.00     0.382 C 
ATOM     23  O   LIG d   1      -7.536  89.988 114.967  0.00  0.00    -0.241 OA
ATOM     24  O   LIG d   1      -5.442  89.519 115.212  0.00  0.00    -0.241 OA
ENDBRANCH   3  22
TORSDOF 7
ENDMDL
MODEL 5
REMARK VINA RESULT:      -5.1      1.589      4.448
REMARK  7 active torsions:
REMARK  status: ('A' for Active; 'I' for Inactive)
REMARK    1  A    between atoms: C_2  and  C_3 
REMARK    2  A    between atoms: C_3  and  O_6 
REMARK    3  A    between atoms: C_3  and  C_4 
REMARK    4  A    between atoms: C_7  and  O_6 
REMARK    5  A    between atoms: C_9  and  C_10 
REMARK    6  A    between atoms: N_15  and  C_14 
REMARK    7  A    between atoms: N_20  and  C_19 
REMARK       I    between atoms: C_22  and  N_20 
ROOT
ATOM      1  C   LIG d   1      -4.487  91.586 117.497  0.00  0.00     0.161 C 
ATOM      2  C   LIG d   1      -3.593  92.601 117.877  0.00  0.00     0.016 C 
ATOM      3  C   LIG d   1      -4.000  93.806 118.493  0.00  0.00     0.038 C 
ATOM      4  C   LIG d   1      -5.322  94.015 118.912  0.00  0.00     0.028 C 
ATOM      5  C   LIG d   1      -6.347  93.233 118.096  0.00  0.00    -0.047 C 
ATOM      6  C   LIG d   1      -5.920  91.748 118.046  0.00  0.00     0.091 C 
ENDROOT
BRANCH   1   7
ATOM      7  O   LIG d   1      -3.952  90.300 117.866  0.00  0.00    -0.368 OA
BRANCH   7   8
ATOM      8  C   LIG d   1      -2.851  90.314 118.807  0.00  0.00     0.119 C 
BRANCH   8   9
ATOM      9  C   LIG d   1      -1.678  89.554 118.159  0.00  0.00     0.028 C 
ATOM     10  C   LIG d   1      -0.504  90.481 117.800  0.00  0.00     0.006 C 
ENDBRANCH   8   9
BRANCH   8  11
ATOM     11  C   LIG d   1      -3.192  89.528 120.076  0.00  0.00     0.028 C 
ATOM     12  C   LIG d   1      -2.639  88.094 120.056  0.00  0.00     0.006 C 
ENDBRANCH   8  11
ENDBRANCH   7   8
ENDBRANCH   1   7
BRANCH   6  13
ATOM     13  N   LIG d   1      -6.823  90.927 117.198  0.00  0.00    -0.311 N 
ATOM     14  C   LIG d   1      -6.944  91.094 115.882  0.00  0.00     0.210 C 
ATOM     15  C   LIG d   1      -7.945  90.155 115.201  0.00  0.00     0.109 C 
ATOM     16  O   LIG d   1      -6.295  91.909 115.209  0.00  0.00    -0.276 OA
ATOM     17  H   LIG d   1      -7.364  90.222 117.657  0.00  0.00     0.149 HD
ENDBRANCH   6  13
BRANCH   5  18
ATOM     18  N   LIG d   1      -7.665  93.435 118.726  0.00  0.00     0.381 N 
ATOM     19  H   LIG d   1      -7.561  93.962 119.570  0.00  0.00    -0.090 HD
ATOM     20  H   LIG d   1      -8.055  92.539 118.960  0.00  0.00    -0.090 HD
ATOM     21  H   LIG d   1      -8.273  93.915 118.099  0.00  0.00    -0.090 HD
ENDBRANCH   5  18
BRANCH   3  22
ATOM     22  C   LIG d   1      -3.086  94.836 118.660  0.00  0.00     0.382 C 
ATOM     23  O   LIG d   1      -3.481  95.975 119.005  0.00  0.00    -0.241 OA
ATOM     24  O   LIG d   1      -1.876  94.650 118.427  0.00  0.00    -0.241 OA
ENDBRANCH   3  22
TORSDOF 7
ENDMDL
MODEL 6
REMARK VINA RESULT:      -4.8      2.263      4.403
REMARK  7 active torsions:
REMARK  status: ('A' for Active; 'I' for Inactive)
REMARK    1  A    between atoms: C_2  and  C_3 
REMARK    2  A    between atoms: C_3  and  O_6 
REMARK    3  A    between atoms: C_3  and  C_4 
REMARK    4  A    between atoms: C_7  and  O_6 
REMARK    5  A    between atoms: C_9  and  C_10 
REMARK    6  A    between atoms: N_15  and  C_14 
REMARK    7  A    between atoms: N_20  and  C_19 
REMARK       I    between atoms: C_22  and  N_20 
ROOT
ATOM      1  C   LIG d   1      -5.063  93.294 117.790  0.00  0.00     0.161 C 
ATOM      2  C   LIG d   1      -6.110  92.760 117.020  0.00  0.00     0.016 C 
ATOM      3  C   LIG d   1      -6.127  91.428 116.548  0.00  0.00     0.038 C 
ATOM      4  C   LIG d   1      -5.164  90.488 116.943  0.00  0.00     0.028 C 
ATOM      5  C   LIG d   1      -3.822  91.113 117.307  0.00  0.00    -0.047 C 
ATOM      6  C   LIG d   1      -4.058  92.252 118.325  0.00  0.00     0.091 C 
ENDROOT
BRANCH   1   7
ATOM      7  O   LIG d   1      -5.603  94.072 118.876  0.00  0.00    -0.368 OA
BRANCH   7   8
ATOM      8  C   LIG d   1      -7.047  94.169 118.935  0.00  0.00     0.119 C 
BRANCH   8   9
ATOM      9  C   LIG d   1      -7.418  95.658 118.788  0.00  0.00     0.028 C 
ATOM     10  C   LIG d   1      -6.318  96.591 119.320  0.00  0.00     0.006 C 
ENDBRANCH   8   9
BRANCH   8  11
ATOM     11  C   LIG d   1      -7.579  93.752 120.309  0.00  0.00     0.028 C 
ATOM     12  C   LIG d   1      -6.657  92.753 121.026  0.00  0.00     0.006 C 
ENDBRANCH   8  11
ENDBRANCH   7   8
ENDBRANCH   1   7
BRANCH   6  13
ATOM     13  N   LIG d   1      -2.805  92.972 118.671  0.00  0.00    -0.311 N 
ATOM     14  C   LIG d   1      -2.048  92.664 119.722  0.00  0.00     0.210 C 
ATOM     15  C   LIG d   1      -0.809  93.545 119.908  0.00  0.00     0.109 C 
ATOM     16  O   LIG d   1      -2.268  91.723 120.500  0.00  0.00    -0.276 OA
ATOM     17  H   LIG d   1      -2.535  93.730 118.074  0.00  0.00     0.149 HD
ENDBRANCH   6  13
BRANCH   5  18
ATOM     18  N   LIG d   1      -2.957  90.039 117.832  0.00  0.00     0.381 N 
ATOM     19  H   LIG d   1      -3.187  89.172 117.387  0.00  0.00    -0.090 HD
ATOM     20  H   LIG d   1      -3.123  89.941 118.818  0.00  0.00    -0.090 HD
ATOM     21  H   LIG d   1      -2.000  90.261 117.669  0.00  0.00    -0.090 HD
ENDBRANCH   5  18
BRANCH   3  22
ATOM     22  C   LIG d   1      -7.096  91.035 115.636  0.00  0.00     0.382 C 
ATOM     23  O   LIG d   1      -7.209  89.825 115.325  0.00  0.00    -0.241 OA
ATOM     24  O   LIG d   1      -7.828  91.880 115.088  0.00  0.00    -0.241 OA
ENDBRANCH   3  22
TORSDOF 7
ENDMDL
MODEL 7
REMARK VINA RESULT:      -4.8      1.357      1.562
REMARK  7 active torsions:
REMARK  status: ('A' for Active; 'I' for Inactive)
REMARK    1  A    between atoms: C_2  and  C_3 
REMARK    2  A    between atoms: C_3  and  O_6 
REMARK    3  A    between atoms: C_3  and  C_4 
REMARK    4  A    between atoms: C_7  and  O_6 
REMARK    5  A    between atoms: C_9  and  C_10 
REMARK    6  A    between atoms: N_15  and  C_14 
REMARK    7  A    between atoms: N_20  and  C_19 
REMARK       I    between atoms: C_22  and  N_20 
ROOT
ATOM      1  C   LIG d   1      -3.379  90.961 118.424  0.00  0.00     0.161 C 
ATOM      2  C   LIG d   1      -4.457  90.518 117.639  0.00  0.00     0.016 C 
ATOM      3  C   LIG d   1      -5.452  91.381 117.126  0.00  0.00     0.038 C 
ATOM      4  C   LIG d   1      -5.354  92.776 117.238  0.00  0.00     0.028 C 
ATOM      5  C   LIG d   1      -4.552  93.231 118.453  0.00  0.00    -0.047 C 
ATOM      6  C   LIG d   1      -3.194  92.492 118.464  0.00  0.00     0.091 C 
ENDROOT
BRANCH   1   7
ATOM      7  O   LIG d   1      -2.163  90.320 117.991  0.00  0.00    -0.368 OA
BRANCH   7   8
ATOM      8  C   LIG d   1      -1.260  89.890 119.039  0.00  0.00     0.119 C 
BRANCH   8   9
ATOM      9  C   LIG d   1       0.160  90.331 118.636  0.00  0.00     0.028 C 
ATOM     10  C   LIG d   1       0.174  91.150 117.335  0.00  0.00     0.006 C 
ENDBRANCH   8   9
BRANCH   8  11
ATOM     11  C   LIG d   1      -1.200  88.363 119.131  0.00  0.00     0.028 C 
ATOM     12  C   LIG d   1      -2.296  87.776 120.035  0.00  0.00     0.006 C 
ENDBRANCH   8  11
ENDBRANCH   7   8
ENDBRANCH   1   7
BRANCH   6  13
ATOM     13  N   LIG d   1      -2.382  92.816 119.666  0.00  0.00    -0.311 N 
ATOM     14  C   LIG d   1      -1.444  93.761 119.683  0.00  0.00     0.210 C 
ATOM     15  C   LIG d   1      -0.710  93.919 121.019  0.00  0.00     0.109 C 
ATOM     16  O   LIG d   1      -1.172  94.506 118.729  0.00  0.00    -0.276 OA
ATOM     17  H   LIG d   1      -2.559  92.281 120.493  0.00  0.00     0.149 HD
ENDBRANCH   6  13
BRANCH   5  18
ATOM     18  N   LIG d   1      -4.412  94.697 118.372  0.00  0.00     0.381 N 
ATOM     19  H   LIG d   1      -5.313  95.127 118.437  0.00  0.00    -0.090 HD
ATOM     20  H   LIG d   1      -4.012  94.936 117.482  0.00  0.00    -0.090 HD
ATOM     21  H   LIG d   1      -3.825  95.025 119.107  0.00  0.00    -0.090 HD
ENDBRANCH   5  18
BRANCH   3  22
ATOM     22  C   LIG d   1      -6.583  90.847 116.526  0.00  0.00     0.382 C 
ATOM     23  O   LIG d   1      -6.612  89.632 116.215  0.00  0.00    -0.241 OA
ATOM     24  O   LIG d   1      -7.556  91.574 116.253  0.00  0.00    -0.241 OA
ENDBRANCH   3  22
TORSDOF 7
ENDMDL
MODEL 8
REMARK VINA RESULT:      -4.7      2.909      4.267
REMARK  7 active torsions:
REMARK  status: ('A' for Active; 'I' for Inactive)
REMARK    1  A    between atoms: C_2  and  C_3 
REMARK    2  A    between atoms: C_3  and  O_6 
REMARK    3  A    between atoms: C_3  and  C_4 
REMARK    4  A    between atoms: C_7  and  O_6 
REMARK    5  A    between atoms: C_9  and  C_10 
REMARK    6  A    between atoms: N_15  and  C_14 
REMARK    7  A    between atoms: N_20  and  C_19 
REMARK       I    between atoms: C_22  and  N_20 
ROOT
ATOM      1  C   LIG d   1      -6.088  93.147 119.614  0.00  0.00     0.161 C 
ATOM      2  C   LIG d   1      -7.451  93.484 119.574  0.00  0.00     0.016 C 
ATOM      3  C   LIG d   1      -7.921  94.799 119.353  0.00  0.00     0.038 C 
ATOM      4  C   LIG d   1      -7.055  95.847 119.004  0.00  0.00     0.028 C 
ATOM      5  C   LIG d   1      -5.636  95.660 119.528  0.00  0.00    -0.047 C 
ATOM      6  C   LIG d   1      -5.132  94.255 119.125  0.00  0.00     0.091 C 
ENDROOT
BRANCH   1   7
ATOM      7  O   LIG d   1      -5.864  91.930 118.874  0.00  0.00    -0.368 OA
BRANCH   7   8
ATOM      8  C   LIG d   1      -5.332  92.087 117.536  0.00  0.00     0.119 C 
BRANCH   8   9
ATOM      9  C   LIG d   1      -6.450  91.704 116.546  0.00  0.00     0.028 C 
ATOM     10  C   LIG d   1      -6.187  90.355 115.858  0.00  0.00     0.006 C 
ENDBRANCH   8   9
BRANCH   8  11
ATOM     11  C   LIG d   1      -4.196  91.095 117.268  0.00  0.00     0.028 C 
ATOM     12  C   LIG d   1      -3.598  90.512 118.557  0.00  0.00     0.006 C 
ENDBRANCH   8  11
ENDBRANCH   7   8
ENDBRANCH   1   7
BRANCH   6  13
ATOM     13  N   LIG d   1      -3.782  93.959 119.671  0.00  0.00    -0.311 N 
ATOM     14  C   LIG d   1      -2.656  94.148 118.986  0.00  0.00     0.210 C 
ATOM     15  C   LIG d   1      -1.374  93.759 119.728  0.00  0.00     0.109 C 
ATOM     16  O   LIG d   1      -2.595  94.632 117.845  0.00  0.00    -0.276 OA
ATOM     17  H   LIG d   1      -3.737  93.592 120.602  0.00  0.00     0.149 HD
ENDBRANCH   6  13
BRANCH   5  18
ATOM     18  N   LIG d   1      -4.810  96.751 118.977  0.00  0.00     0.381 N 
ATOM     19  H   LIG d   1      -4.460  96.489 118.077  0.00  0.00    -0.090 HD
ATOM     20  H   LIG d   1      -4.026  96.905 119.586  0.00  0.00    -0.090 HD
ATOM     21  H   LIG d   1      -5.351  97.584 118.901  0.00  0.00    -0.090 HD
ENDBRANCH   5  18
BRANCH   3  22
ATOM     22  C   LIG d   1      -9.267  95.085 119.519  0.00  0.00     0.382 C 
ATOM     23  O   LIG d   1     -10.135  94.294 119.077  0.00  0.00    -0.241 OA
ATOM     24  O   LIG d   1      -9.625  96.144 120.067  0.00  0.00    -0.241 OA
ENDBRANCH   3  22
TORSDOF 7
ENDMDL
MODEL 9
REMARK VINA RESULT:      -4.7      3.957      5.954
REMARK  7 active torsions:
REMARK  status: ('A' for Active; 'I' for Inactive)
REMARK    1  A    between atoms: C_2  and  C_3 
REMARK    2  A    between atoms: C_3  and  O_6 
REMARK    3  A    between atoms: C_3  and  C_4 
REMARK    4  A    between atoms: C_7  and  O_6 
REMARK    5  A    between atoms: C_9  and  C_10 
REMARK    6  A    between atoms: N_15  and  C_14 
REMARK    7  A    between atoms: N_20  and  C_19 
REMARK       I    between atoms: C_22  and  N_20 
ROOT
ATOM      1  C   LIG d   1       0.850  89.726 117.892  0.00  0.00     0.161 C 
ATOM      2  C   LIG d   1      -0.489  89.302 117.870  0.00  0.00     0.016 C 
ATOM      3  C   LIG d   1      -1.537  90.000 118.515  0.00  0.00     0.038 C 
ATOM      4  C   LIG d   1      -1.338  91.258 119.102  0.00  0.00     0.028 C 
ATOM      5  C   LIG d   1       0.091  91.482 119.585  0.00  0.00    -0.047 C 
ATOM      6  C   LIG d   1       1.068  91.154 118.433  0.00  0.00     0.091 C 
ENDROOT
BRANCH   1   7
ATOM      7  O   LIG d   1       1.425  89.595 116.577  0.00  0.00    -0.368 OA
BRANCH   7   8
ATOM      8  C   LIG d   1       2.576  88.722 116.468  0.00  0.00     0.119 C 
BRANCH   8   9
ATOM      9  C   LIG d   1       3.459  89.260 115.326  0.00  0.00     0.028 C 
ATOM     10  C   LIG d   1       4.939  89.372 115.731  0.00  0.00     0.006 C 
ENDBRANCH   8   9
BRANCH   8  11
ATOM     11  C   LIG d   1       2.167  87.311 116.034  0.00  0.00     0.028 C 
ATOM     12  C   LIG d   1       2.267  86.285 117.173  0.00  0.00     0.006 C 
ENDBRANCH   8  11
ENDBRANCH   7   8
ENDBRANCH   1   7
BRANCH   6  13
ATOM     13  N   LIG d   1       2.491  91.266 118.847  0.00  0.00    -0.311 N 
ATOM     14  C   LIG d   1       3.429  91.841 118.097  0.00  0.00     0.210 C 
ATOM     15  C   LIG d   1       4.836  91.832 118.703  0.00  0.00     0.109 C 
ATOM     16  O   LIG d   1       3.224  92.386 117.002  0.00  0.00    -0.276 OA
ATOM     17  H   LIG d   1       2.739  90.878 119.736  0.00  0.00     0.149 HD
ENDBRANCH   6  13
BRANCH   5  18
ATOM     18  N   LIG d   1       0.191  92.879 120.048  0.00  0.00     0.381 N 
ATOM     19  H   LIG d   1       0.855  93.375 119.488  0.00  0.00    -0.090 HD
ATOM     20  H   LIG d   1       0.515  92.884 121.000  0.00  0.00    -0.090 HD
ATOM     21  H   LIG d   1      -0.699  93.322 119.991  0.00  0.00    -0.090 HD
ENDBRANCH   5  18
BRANCH   3  22
ATOM     22  C   LIG d   1      -2.792  89.419 118.611  0.00  0.00     0.382 C 
ATOM     23  O   LIG d   1      -2.982  88.463 119.402  0.00  0.00    -0.241 OA
ATOM     24  O   LIG d   1      -3.726  89.809 117.885  0.00  0.00    -0.241 OA
ENDBRANCH   3  22
TORSDOF 7
ENDMDL
