MODEL 1
REMARK VINA RESULT:      -5.6      0.000      0.000
REMARK  7 active torsions:
REMARK  status: ('A' for Active; 'I' for Inactive)
REMARK    1  A    between atoms: C_2  and  C_3 
REMARK    2  A    between atoms: C_3  and  O_6 
REMARK    3  A    between atoms: C_3  and  C_4 
REMARK    4  A    between atoms: C_7  and  O_6 
REMARK    5  A    between atoms: C_9  and  C_10 
REMARK    6  A    between atoms: N_15  and  C_14 
REMARK    7  A    between atoms: N_20  and  C_19 
REMARK       I    between atoms: C_22  and  N_20 
ROOT
ATOM      1  C   LIG d   1      -5.102  92.116 118.724  0.00  0.00     0.161 C 
ATOM      2  C   LIG d   1      -5.028  91.219 117.645  0.00  0.00     0.016 C 
ATOM      3  C   LIG d   1      -5.936  91.229 116.561  0.00  0.00     0.038 C 
ATOM      4  C   LIG d   1      -6.896  92.240 116.407  0.00  0.00     0.028 C 
ATOM      5  C   LIG d   1      -7.331  92.868 117.727  0.00  0.00    -0.047 C 
ATOM      6  C   LIG d   1      -6.074  93.296 118.518  0.00  0.00     0.091 C 
ENDROOT
BRANCH   1   7
ATOM      7  O   LIG d   1      -3.784  92.602 119.046  0.00  0.00    -0.368 OA
BRANCH   7   8
ATOM      8  C   LIG d   1      -2.679  91.742 118.675  0.00  0.00     0.119 C 
BRANCH   8   9
ATOM      9  C   LIG d   1      -2.239  90.981 119.940  0.00  0.00     0.028 C 
ATOM     10  C   LIG d   1      -2.237  91.875 121.192  0.00  0.00     0.006 C 
ENDBRANCH   8   9
BRANCH   8  11
ATOM     11  C   LIG d   1      -1.456  92.559 118.247  0.00  0.00     0.028 C 
ATOM     12  C   LIG d   1      -1.760  94.059 118.110  0.00  0.00     0.006 C 
ENDBRANCH   8  11
ENDBRANCH   7   8
ENDBRANCH   1   7
BRANCH   6  13
ATOM     13  N   LIG d   1      -6.407  93.844 119.859  0.00  0.00    -0.311 N 
ATOM     14  C   LIG d   1      -6.583  95.142 120.098  0.00  0.00     0.210 C 
ATOM     15  C   LIG d   1      -6.900  95.495 121.554  0.00  0.00     0.109 C 
ATOM     16  O   LIG d   1      -6.537  96.032 119.235  0.00  0.00    -0.276 OA
ATOM     17  H   LIG d   1      -6.494  93.188 120.611  0.00  0.00     0.149 HD
ENDBRANCH   6  13
BRANCH   5  18
ATOM     18  N   LIG d   1      -8.227  93.997 117.410  0.00  0.00     0.381 N 
ATOM     19  H   LIG d   1      -8.146  94.231 116.440  0.00  0.00    -0.090 HD
ATOM     20  H   LIG d   1      -7.948  94.795 117.952  0.00  0.00    -0.090 HD
ATOM     21  H   LIG d   1      -9.169  93.754 117.623  0.00  0.00    -0.090 HD
ENDBRANCH   5  18
BRANCH   3  22
ATOM     22  C   LIG d   1      -5.915  90.195 115.638  0.00  0.00     0.382 C 
ATOM     23  O   LIG d   1      -6.866  90.055 114.831  0.00  0.00    -0.241 OA
ATOM     24  O   LIG d   1      -4.979  89.374 115.630  0.00  0.00    -0.241 OA
ENDBRANCH   3  22
TORSDOF 7
ENDMDL
MODEL 2
REMARK VINA RESULT:      -5.2      2.281      5.734
REMARK  7 active torsions:
REMARK  status: ('A' for Active; 'I' for Inactive)
REMARK    1  A    between atoms: C_2  and  C_3 
REMARK    2  A    between atoms: C_3  and  O_6 
REMARK    3  A    between atoms: C_3  and  C_4 
REMARK    4  A    between atoms: C_7  and  O_6 
REMARK    5  A    between atoms: C_9  and  C_10 
REMARK    6  A    between atoms: N_15  and  C_14 
REMARK    7  A    between atoms: N_20  and  C_19 
REMARK       I    between atoms: C_22  and  N_20 
ROOT
ATOM      1  C   LIG d   1      -6.394  92.207 117.184  0.00  0.00     0.161 C 
ATOM      2  C   LIG d   1      -7.360  93.180 117.490  0.00  0.00     0.016 C 
ATOM      3  C   LIG d   1      -7.329  93.965 118.665  0.00  0.00     0.038 C 
ATOM      4  C   LIG d   1      -6.239  93.936 119.548  0.00  0.00     0.028 C 
ATOM      5  C   LIG d   1      -5.489  92.608 119.539  0.00  0.00    -0.047 C 
ATOM      6  C   LIG d   1      -5.139  92.239 118.080  0.00  0.00     0.091 C 
ENDROOT
BRANCH   1   7
ATOM      7  O   LIG d   1      -6.022  92.308 115.795  0.00  0.00    -0.368 OA
BRANCH   7   8
ATOM      8  C   LIG d   1      -6.641  91.354 114.898  0.00  0.00     0.119 C 
BRANCH   8   9
ATOM      9  C   LIG d   1      -8.157  91.629 114.904  0.00  0.00     0.028 C 
ATOM     10  C   LIG d   1      -8.987  90.339 115.016  0.00  0.00     0.006 C 
ENDBRANCH   8   9
BRANCH   8  11
ATOM     11  C   LIG d   1      -6.486  89.921 115.416  0.00  0.00     0.028 C 
ATOM     12  C   LIG d   1      -5.142  89.287 115.026  0.00  0.00     0.006 C 
ENDBRANCH   8  11
ENDBRANCH   7   8
ENDBRANCH   1   7
BRANCH   6  13
ATOM     13  N   LIG d   1      -4.477  90.912 117.974  0.00  0.00    -0.311 N 
ATOM     14  C   LIG d   1      -3.169  90.729 118.144  0.00  0.00     0.210 C 
ATOM     15  C   LIG d   1      -2.690  89.284 117.971  0.00  0.00     0.109 C 
ATOM     16  O   LIG d   1      -2.364  91.621 118.452  0.00  0.00    -0.276 OA
ATOM     17  H   LIG d   1      -5.061  90.127 117.757  0.00  0.00     0.149 HD
ENDBRANCH   6  13
BRANCH   5  18
ATOM     18  N   LIG d   1      -4.300  92.763 120.398  0.00  0.00     0.381 N 
ATOM     19  H   LIG d   1      -3.946  91.862 120.652  0.00  0.00    -0.090 HD
ATOM     20  H   LIG d   1      -4.566  93.245 121.238  0.00  0.00    -0.090 HD
ATOM     21  H   LIG d   1      -3.597  93.280 119.918  0.00  0.00    -0.090 HD
ENDBRANCH   5  18
BRANCH   3  22
ATOM     22  C   LIG d   1      -8.416  94.763 118.987  0.00  0.00     0.382 C 
ATOM     23  O   LIG d   1      -9.565  94.264 119.046  0.00  0.00    -0.241 OA
ATOM     24  O   LIG d   1      -8.268  95.986 119.178  0.00  0.00    -0.241 OA
ENDBRANCH   3  22
TORSDOF 7
ENDMDL
MODEL 3
REMARK VINA RESULT:      -5.2      1.033      1.575
REMARK  7 active torsions:
REMARK  status: ('A' for Active; 'I' for Inactive)
REMARK    1  A    between atoms: C_2  and  C_3 
REMARK    2  A    between atoms: C_3  and  O_6 
REMARK    3  A    between atoms: C_3  and  C_4 
REMARK    4  A    between atoms: C_7  and  O_6 
REMARK    5  A    between atoms: C_9  and  C_10 
REMARK    6  A    between atoms: N_15  and  C_14 
REMARK    7  A    between atoms: N_20  and  C_19 
REMARK       I    between atoms: C_22  and  N_20 
ROOT
ATOM      1  C   LIG d   1      -4.927  92.294 119.150  0.00  0.00     0.161 C 
ATOM      2  C   LIG d   1      -4.730  91.320 118.157  0.00  0.00     0.016 C 
ATOM      3  C   LIG d   1      -5.542  91.210 117.004  0.00  0.00     0.038 C 
ATOM      4  C   LIG d   1      -6.518  92.167 116.690  0.00  0.00     0.028 C 
ATOM      5  C   LIG d   1      -7.086  92.877 117.914  0.00  0.00    -0.047 C 
ATOM      6  C   LIG d   1      -5.916  93.416 118.769  0.00  0.00     0.091 C 
ENDROOT
BRANCH   1   7
ATOM      7  O   LIG d   1      -3.658  92.857 119.540  0.00  0.00    -0.368 OA
BRANCH   7   8
ATOM      8  C   LIG d   1      -3.206  94.002 118.776  0.00  0.00     0.119 C 
BRANCH   8   9
ATOM      9  C   LIG d   1      -1.940  93.575 118.009  0.00  0.00     0.028 C 
ATOM     10  C   LIG d   1      -1.163  92.461 118.731  0.00  0.00     0.006 C 
ENDBRANCH   8   9
BRANCH   8  11
ATOM     11  C   LIG d   1      -2.760  95.143 119.694  0.00  0.00     0.028 C 
ATOM     12  C   LIG d   1      -3.036  94.857 121.178  0.00  0.00     0.006 C 
ENDBRANCH   8  11
ENDBRANCH   7   8
ENDBRANCH   1   7
BRANCH   6  13
ATOM     13  N   LIG d   1      -6.381  94.052 120.029  0.00  0.00    -0.311 N 
ATOM     14  C   LIG d   1      -6.576  95.363 120.160  0.00  0.00     0.210 C 
ATOM     15  C   LIG d   1      -7.038  95.812 121.550  0.00  0.00     0.109 C 
ATOM     16  O   LIG d   1      -6.440  96.192 119.249  0.00  0.00    -0.276 OA
ATOM     17  H   LIG d   1      -6.546  93.448 120.811  0.00  0.00     0.149 HD
ENDBRANCH   6  13
BRANCH   5  18
ATOM     18  N   LIG d   1      -7.988  93.941 117.433  0.00  0.00     0.381 N 
ATOM     19  H   LIG d   1      -8.854  93.902 117.932  0.00  0.00    -0.090 HD
ATOM     20  H   LIG d   1      -8.179  93.789 116.458  0.00  0.00    -0.090 HD
ATOM     21  H   LIG d   1      -7.562  94.833 117.561  0.00  0.00    -0.090 HD
ENDBRANCH   5  18
BRANCH   3  22
ATOM     22  C   LIG d   1      -5.407  90.109 116.172  0.00  0.00     0.382 C 
ATOM     23  O   LIG d   1      -6.351  89.775 115.416  0.00  0.00    -0.241 OA
ATOM     24  O   LIG d   1      -4.370  89.419 116.199  0.00  0.00    -0.241 OA
ENDBRANCH   3  22
TORSDOF 7
ENDMDL
MODEL 4
REMARK VINA RESULT:      -4.9      2.120      4.445
REMARK  7 active torsions:
REMARK  status: ('A' for Active; 'I' for Inactive)
REMARK    1  A    between atoms: C_2  and  C_3 
REMARK    2  A    between atoms: C_3  and  O_6 
REMARK    3  A    between atoms: C_3  and  C_4 
REMARK    4  A    between atoms: C_7  and  O_6 
REMARK    5  A    between atoms: C_9  and  C_10 
REMARK    6  A    between atoms: N_15  and  C_14 
REMARK    7  A    between atoms: N_20  and  C_19 
REMARK       I    between atoms: C_22  and  N_20 
ROOT
ATOM      1  C   LIG d   1      -6.139  93.718 118.708  0.00  0.00     0.161 C 
ATOM      2  C   LIG d   1      -6.959  92.866 117.949  0.00  0.00     0.016 C 
ATOM      3  C   LIG d   1      -6.484  91.702 117.302  0.00  0.00     0.038 C 
ATOM      4  C   LIG d   1      -5.179  91.226 117.496  0.00  0.00     0.028 C 
ATOM      5  C   LIG d   1      -4.179  92.323 117.844  0.00  0.00    -0.047 C 
ATOM      6  C   LIG d   1      -4.737  93.155 119.022  0.00  0.00     0.091 C 
ENDROOT
BRANCH   1   7
ATOM      7  O   LIG d   1      -6.814  94.089 119.926  0.00  0.00    -0.368 OA
BRANCH   7   8
ATOM      8  C   LIG d   1      -6.877  95.508 120.213  0.00  0.00     0.119 C 
BRANCH   8   9
ATOM      9  C   LIG d   1      -8.076  95.738 121.153  0.00  0.00     0.028 C 
ATOM     10  C   LIG d   1      -9.177  94.680 120.969  0.00  0.00     0.006 C 
ENDBRANCH   8   9
BRANCH   8  11
ATOM     11  C   LIG d   1      -7.189  96.318 118.951  0.00  0.00     0.028 C 
ATOM     12  C   LIG d   1      -6.231  97.504 118.753  0.00  0.00     0.006 C 
ENDBRANCH   8  11
ENDBRANCH   7   8
ENDBRANCH   1   7
BRANCH   6  13
ATOM     13  N   LIG d   1      -3.860  94.302 119.372  0.00  0.00    -0.311 N 
ATOM     14  C   LIG d   1      -2.923  94.247 120.317  0.00  0.00     0.210 C 
ATOM     15  C   LIG d   1      -2.143  95.549 120.531  0.00  0.00     0.109 C 
ATOM     16  O   LIG d   1      -2.641  93.235 120.976  0.00  0.00    -0.276 OA
ATOM     17  H   LIG d   1      -3.999  95.154 118.865  0.00  0.00     0.149 HD
ENDBRANCH   6  13
BRANCH   5  18
ATOM     18  N   LIG d   1      -2.893  91.672 118.154  0.00  0.00     0.381 N 
ATOM     19  H   LIG d   1      -2.150  92.339 118.083  0.00  0.00    -0.090 HD
ATOM     20  H   LIG d   1      -2.727  90.943 117.483  0.00  0.00    -0.090 HD
ATOM     21  H   LIG d   1      -2.917  91.288 119.073  0.00  0.00    -0.090 HD
ENDBRANCH   5  18
BRANCH   3  22
ATOM     22  C   LIG d   1      -7.308  91.023 116.418  0.00  0.00     0.382 C 
ATOM     23  O   LIG d   1      -7.113  89.805 116.189  0.00  0.00    -0.241 OA
ATOM     24  O   LIG d   1      -8.217  91.623 115.813  0.00  0.00    -0.241 OA
ENDBRANCH   3  22
TORSDOF 7
ENDMDL
MODEL 5
REMARK VINA RESULT:      -4.9      1.781      2.384
REMARK  7 active torsions:
REMARK  status: ('A' for Active; 'I' for Inactive)
REMARK    1  A    between atoms: C_2  and  C_3 
REMARK    2  A    between atoms: C_3  and  O_6 
REMARK    3  A    between atoms: C_3  and  C_4 
REMARK    4  A    between atoms: C_7  and  O_6 
REMARK    5  A    between atoms: C_9  and  C_10 
REMARK    6  A    between atoms: N_15  and  C_14 
REMARK    7  A    between atoms: N_20  and  C_19 
REMARK       I    between atoms: C_22  and  N_20 
ROOT
ATOM      1  C   LIG d   1      -4.028  91.605 118.339  0.00  0.00     0.161 C 
ATOM      2  C   LIG d   1      -4.635  90.824 117.342  0.00  0.00     0.016 C 
ATOM      3  C   LIG d   1      -5.867  91.159 116.733  0.00  0.00     0.038 C 
ATOM      4  C   LIG d   1      -6.505  92.384 116.976  0.00  0.00     0.028 C 
ATOM      5  C   LIG d   1      -6.187  92.972 118.347  0.00  0.00    -0.047 C 
ATOM      6  C   LIG d   1      -4.654  93.002 118.537  0.00  0.00     0.091 C 
ENDROOT
BRANCH   1   7
ATOM      7  O   LIG d   1      -2.616  91.721 118.077  0.00  0.00    -0.368 OA
BRANCH   7   8
ATOM      8  C   LIG d   1      -1.749  90.872 118.869  0.00  0.00     0.119 C 
BRANCH   8   9
ATOM      9  C   LIG d   1      -1.464  89.603 118.042  0.00  0.00     0.028 C 
ATOM     10  C   LIG d   1      -2.090  88.344 118.666  0.00  0.00     0.006 C 
ENDBRANCH   8   9
BRANCH   8  11
ATOM     11  C   LIG d   1      -2.455  90.381 120.136  0.00  0.00     0.028 C 
ATOM     12  C   LIG d   1      -2.000  91.129 121.399  0.00  0.00     0.006 C 
ENDBRANCH   8  11
ENDBRANCH   7   8
ENDBRANCH   1   7
BRANCH   6  13
ATOM     13  N   LIG d   1      -4.259  93.485 119.886  0.00  0.00    -0.311 N 
ATOM     14  C   LIG d   1      -3.472  94.540 120.086  0.00  0.00     0.210 C 
ATOM     15  C   LIG d   1      -3.173  94.855 121.555  0.00  0.00     0.109 C 
ATOM     16  O   LIG d   1      -3.018  95.264 119.187  0.00  0.00    -0.276 OA
ATOM     17  H   LIG d   1      -4.608  92.974 120.673  0.00  0.00     0.149 HD
ENDBRANCH   6  13
BRANCH   5  18
ATOM     18  N   LIG d   1      -6.805  94.310 118.412  0.00  0.00     0.381 N 
ATOM     19  H   LIG d   1      -7.751  94.232 118.727  0.00  0.00    -0.090 HD
ATOM     20  H   LIG d   1      -6.811  94.710 117.490  0.00  0.00    -0.090 HD
ATOM     21  H   LIG d   1      -6.288  94.894 119.032  0.00  0.00    -0.090 HD
ENDBRANCH   5  18
BRANCH   3  22
ATOM     22  C   LIG d   1      -6.493  90.243 115.901  0.00  0.00     0.382 C 
ATOM     23  O   LIG d   1      -7.722  90.023 116.024  0.00  0.00    -0.241 OA
ATOM     24  O   LIG d   1      -5.836  89.603 115.059  0.00  0.00    -0.241 OA
ENDBRANCH   3  22
TORSDOF 7
ENDMDL
MODEL 6
REMARK VINA RESULT:      -4.7      2.703      6.192
REMARK  7 active torsions:
REMARK  status: ('A' for Active; 'I' for Inactive)
REMARK    1  A    between atoms: C_2  and  C_3 
REMARK    2  A    between atoms: C_3  and  O_6 
REMARK    3  A    between atoms: C_3  and  C_4 
REMARK    4  A    between atoms: C_7  and  O_6 
REMARK    5  A    between atoms: C_9  and  C_10 
REMARK    6  A    between atoms: N_15  and  C_14 
REMARK    7  A    between atoms: N_20  and  C_19 
REMARK       I    between atoms: C_22  and  N_20 
ROOT
ATOM      1  C   LIG d   1      -3.649  92.496 119.522  0.00  0.00     0.161 C 
ATOM      2  C   LIG d   1      -3.604  93.898 119.464  0.00  0.00     0.016 C 
ATOM      3  C   LIG d   1      -2.553  94.618 118.850  0.00  0.00     0.038 C 
ATOM      4  C   LIG d   1      -1.546  93.976 118.114  0.00  0.00     0.028 C 
ATOM      5  C   LIG d   1      -1.277  92.547 118.574  0.00  0.00    -0.047 C 
ATOM      6  C   LIG d   1      -2.616  91.778 118.628  0.00  0.00     0.091 C 
ENDROOT
BRANCH   1   7
ATOM      7  O   LIG d   1      -4.981  92.037 119.216  0.00  0.00    -0.368 OA
BRANCH   7   8
ATOM      8  C   LIG d   1      -5.633  92.676 118.090  0.00  0.00     0.119 C 
BRANCH   8   9
ATOM      9  C   LIG d   1      -7.042  93.097 118.549  0.00  0.00     0.028 C 
ATOM     10  C   LIG d   1      -7.174  94.620 118.720  0.00  0.00     0.006 C 
ENDBRANCH   8   9
BRANCH   8  11
ATOM     11  C   LIG d   1      -5.858  91.688 116.942  0.00  0.00     0.028 C 
ATOM     12  C   LIG d   1      -7.080  92.044 116.081  0.00  0.00     0.006 C 
ENDBRANCH   8  11
ENDBRANCH   7   8
ENDBRANCH   1   7
BRANCH   6  13
ATOM     13  N   LIG d   1      -2.455  90.395 119.149  0.00  0.00    -0.311 N 
ATOM     14  C   LIG d   1      -2.845  89.310 118.483  0.00  0.00     0.210 C 
ATOM     15  C   LIG d   1      -2.604  87.983 119.209  0.00  0.00     0.109 C 
ATOM     16  O   LIG d   1      -3.339  89.318 117.345  0.00  0.00    -0.276 OA
ATOM     17  H   LIG d   1      -2.035  90.294 120.052  0.00  0.00     0.149 HD
ENDBRANCH   6  13
BRANCH   5  18
ATOM     18  N   LIG d   1      -0.306  91.953 117.636  0.00  0.00     0.381 N 
ATOM     19  H   LIG d   1      -0.785  91.377 116.972  0.00  0.00    -0.090 HD
ATOM     20  H   LIG d   1       0.332  91.373 118.153  0.00  0.00    -0.090 HD
ATOM     21  H   LIG d   1       0.195  92.672 117.163  0.00  0.00    -0.090 HD
ENDBRANCH   5  18
BRANCH   3  22
ATOM     22  C   LIG d   1      -2.482  95.994 119.002  0.00  0.00     0.382 C 
ATOM     23  O   LIG d   1      -1.368  96.571 118.977  0.00  0.00    -0.241 OA
ATOM     24  O   LIG d   1      -3.514  96.661 119.208  0.00  0.00    -0.241 OA
ENDBRANCH   3  22
TORSDOF 7
ENDMDL
MODEL 7
REMARK VINA RESULT:      -4.7     27.063     29.621
REMARK  7 active torsions:
REMARK  status: ('A' for Active; 'I' for Inactive)
REMARK    1  A    between atoms: C_2  and  C_3 
REMARK    2  A    between atoms: C_3  and  O_6 
REMARK    3  A    between atoms: C_3  and  C_4 
REMARK    4  A    between atoms: C_7  and  O_6 
REMARK    5  A    between atoms: C_9  and  C_10 
REMARK    6  A    between atoms: N_15  and  C_14 
REMARK    7  A    between atoms: N_20  and  C_19 
REMARK       I    between atoms: C_22  and  N_20 
ROOT
ATOM      1  C   LIG d   1     -15.957  65.566 117.152  0.00  0.00     0.161 C 
ATOM      2  C   LIG d   1     -15.981  66.881 116.657  0.00  0.00     0.016 C 
ATOM      3  C   LIG d   1     -15.267  67.948 117.250  0.00  0.00     0.038 C 
ATOM      4  C   LIG d   1     -14.356  67.740 118.295  0.00  0.00     0.028 C 
ATOM      5  C   LIG d   1     -14.682  66.520 119.150  0.00  0.00    -0.047 C 
ATOM      6  C   LIG d   1     -14.881  65.298 118.225  0.00  0.00     0.091 C 
ENDROOT
BRANCH   1   7
ATOM      7  O   LIG d   1     -15.819  64.636 116.060  0.00  0.00    -0.368 OA
BRANCH   7   8
ATOM      8  C   LIG d   1     -17.013  63.903 115.692  0.00  0.00     0.119 C 
BRANCH   8   9
ATOM      9  C   LIG d   1     -18.195  64.527 116.460  0.00  0.00     0.028 C 
ATOM     10  C   LIG d   1     -19.201  65.220 115.527  0.00  0.00     0.006 C 
ENDBRANCH   8   9
BRANCH   8  11
ATOM     11  C   LIG d   1     -16.943  62.449 116.168  0.00  0.00     0.028 C 
ATOM     12  C   LIG d   1     -17.972  62.130 117.264  0.00  0.00     0.006 C 
ENDBRANCH   8  11
ENDBRANCH   7   8
ENDBRANCH   1   7
BRANCH   6  13
ATOM     13  N   LIG d   1     -15.287  64.080 118.974  0.00  0.00    -0.311 N 
ATOM     14  C   LIG d   1     -14.614  62.932 118.926  0.00  0.00     0.210 C 
ATOM     15  C   LIG d   1     -15.214  61.795 119.758  0.00  0.00     0.109 C 
ATOM     16  O   LIG d   1     -13.558  62.757 118.298  0.00  0.00    -0.276 OA
ATOM     17  H   LIG d   1     -16.115  64.143 119.533  0.00  0.00     0.149 HD
ENDBRANCH   6  13
BRANCH   5  18
ATOM     18  N   LIG d   1     -13.579  66.343 120.113  0.00  0.00     0.381 N 
ATOM     19  H   LIG d   1     -12.718  66.210 119.621  0.00  0.00    -0.090 HD
ATOM     20  H   LIG d   1     -13.757  65.522 120.664  0.00  0.00    -0.090 HD
ATOM     21  H   LIG d   1     -13.511  67.141 120.705  0.00  0.00    -0.090 HD
ENDBRANCH   5  18
BRANCH   3  22
ATOM     22  C   LIG d   1     -15.493  69.248 116.821  0.00  0.00     0.382 C 
ATOM     23  O   LIG d   1     -16.216  70.015 117.502  0.00  0.00    -0.241 OA
ATOM     24  O   LIG d   1     -15.020  69.648 115.741  0.00  0.00    -0.241 OA
ENDBRANCH   3  22
TORSDOF 7
ENDMDL
MODEL 8
REMARK VINA RESULT:      -4.6     13.060     15.328
REMARK  7 active torsions:
REMARK  status: ('A' for Active; 'I' for Inactive)
REMARK    1  A    between atoms: C_2  and  C_3 
REMARK    2  A    between atoms: C_3  and  O_6 
REMARK    3  A    between atoms: C_3  and  C_4 
REMARK    4  A    between atoms: C_7  and  O_6 
REMARK    5  A    between atoms: C_9  and  C_10 
REMARK    6  A    between atoms: N_15  and  C_14 
REMARK    7  A    between atoms: N_20  and  C_19 
REMARK       I    between atoms: C_22  and  N_20 
ROOT
ATOM      1  C   LIG d   1      -6.022  77.784 117.374  0.00  0.00     0.161 C 
ATOM      2  C   LIG d   1      -7.413  77.777 117.571  0.00  0.00     0.016 C 
ATOM      3  C   LIG d   1      -8.109  78.804 118.249  0.00  0.00     0.038 C 
ATOM      4  C   LIG d   1      -7.475  79.992 118.645  0.00  0.00     0.028 C 
ATOM      5  C   LIG d   1      -5.984  79.822 118.916  0.00  0.00    -0.047 C 
ATOM      6  C   LIG d   1      -5.330  79.124 117.701  0.00  0.00     0.091 C 
ENDROOT
BRANCH   1   7
ATOM      7  O   LIG d   1      -5.718  77.380 116.025  0.00  0.00    -0.368 OA
BRANCH   7   8
ATOM      8  C   LIG d   1      -5.238  76.023 115.859  0.00  0.00     0.119 C 
BRANCH   8   9
ATOM      9  C   LIG d   1      -3.840  76.101 115.217  0.00  0.00     0.028 C 
ATOM     10  C   LIG d   1      -2.782  75.322 116.017  0.00  0.00     0.006 C 
ENDBRANCH   8   9
BRANCH   8  11
ATOM     11  C   LIG d   1      -6.100  75.246 114.859  0.00  0.00     0.028 C 
ATOM     12  C   LIG d   1      -6.394  73.808 115.317  0.00  0.00     0.006 C 
ENDBRANCH   8  11
ENDBRANCH   7   8
ENDBRANCH   1   7
BRANCH   6  13
ATOM     13  N   LIG d   1      -3.887  78.844 117.919  0.00  0.00    -0.311 N 
ATOM     14  C   LIG d   1      -2.955  79.027 116.985  0.00  0.00     0.210 C 
ATOM     15  C   LIG d   1      -1.531  78.657 117.410  0.00  0.00     0.109 C 
ATOM     16  O   LIG d   1      -3.169  79.492 115.855  0.00  0.00    -0.276 OA
ATOM     17  H   LIG d   1      -3.621  78.493 118.818  0.00  0.00     0.149 HD
ENDBRANCH   6  13
BRANCH   5  18
ATOM     18  N   LIG d   1      -5.425  81.160 119.185  0.00  0.00     0.381 N 
ATOM     19  H   LIG d   1      -5.894  81.573 119.966  0.00  0.00    -0.090 HD
ATOM     20  H   LIG d   1      -5.578  81.744 118.381  0.00  0.00    -0.090 HD
ATOM     21  H   LIG d   1      -4.449  81.090 119.373  0.00  0.00    -0.090 HD
ENDBRANCH   5  18
BRANCH   3  22
ATOM     22  C   LIG d   1      -9.446  78.632 118.571  0.00  0.00     0.382 C 
ATOM     23  O   LIG d   1     -10.075  77.641 118.127  0.00  0.00    -0.241 OA
ATOM     24  O   LIG d   1     -10.043  79.478 119.264  0.00  0.00    -0.241 OA
ENDBRANCH   3  22
TORSDOF 7
ENDMDL
MODEL 9
REMARK VINA RESULT:      -4.5      2.737      4.261
REMARK  7 active torsions:
REMARK  status: ('A' for Active; 'I' for Inactive)
REMARK    1  A    between atoms: C_2  and  C_3 
REMARK    2  A    between atoms: C_3  and  O_6 
REMARK    3  A    between atoms: C_3  and  C_4 
REMARK    4  A    between atoms: C_7  and  O_6 
REMARK    5  A    between atoms: C_9  and  C_10 
REMARK    6  A    between atoms: N_15  and  C_14 
REMARK    7  A    between atoms: N_20  and  C_19 
REMARK       I    between atoms: C_22  and  N_20 
ROOT
ATOM      1  C   LIG d   1      -3.247  90.361 118.231  0.00  0.00     0.161 C 
ATOM      2  C   LIG d   1      -4.415  90.185 117.471  0.00  0.00     0.016 C 
ATOM      3  C   LIG d   1      -5.380  91.200 117.281  0.00  0.00     0.038 C 
ATOM      4  C   LIG d   1      -5.167  92.517 117.715  0.00  0.00     0.028 C 
ATOM      5  C   LIG d   1      -4.237  92.614 118.920  0.00  0.00    -0.047 C 
ATOM      6  C   LIG d   1      -2.943  91.823 118.620  0.00  0.00     0.091 C 
ENDROOT
BRANCH   1   7
ATOM      7  O   LIG d   1      -2.122  89.782 117.540  0.00  0.00    -0.368 OA
BRANCH   7   8
ATOM      8  C   LIG d   1      -1.867  88.380 117.800  0.00  0.00     0.119 C 
BRANCH   8   9
ATOM      9  C   LIG d   1      -2.134  88.132 119.297  0.00  0.00     0.028 C 
ATOM     10  C   LIG d   1      -1.792  86.694 119.724  0.00  0.00     0.006 C 
ENDBRANCH   8   9
BRANCH   8  11
ATOM     11  C   LIG d   1      -0.390  88.034 117.589  0.00  0.00     0.028 C 
ATOM     12  C   LIG d   1       0.529  89.263 117.683  0.00  0.00     0.006 C 
ENDBRANCH   8  11
ENDBRANCH   7   8
ENDBRANCH   1   7
BRANCH   6  13
ATOM     13  N   LIG d   1      -2.013  91.797 119.779  0.00  0.00    -0.311 N 
ATOM     14  C   LIG d   1      -0.742  92.187 119.708  0.00  0.00     0.210 C 
ATOM     15  C   LIG d   1       0.048  92.059 121.015  0.00  0.00     0.109 C 
ATOM     16  O   LIG d   1      -0.201  92.656 118.695  0.00  0.00    -0.276 OA
ATOM     17  H   LIG d   1      -2.378  91.459 120.648  0.00  0.00     0.149 HD
ENDBRANCH   6  13
BRANCH   5  18
ATOM     18  N   LIG d   1      -3.992  94.046 119.180  0.00  0.00     0.381 N 
ATOM     19  H   LIG d   1      -4.853  94.499 119.413  0.00  0.00    -0.090 HD
ATOM     20  H   LIG d   1      -3.628  94.470 118.345  0.00  0.00    -0.090 HD
ATOM     21  H   LIG d   1      -3.340  94.150 119.926  0.00  0.00    -0.090 HD
ENDBRANCH   5  18
BRANCH   3  22
ATOM     22  C   LIG d   1      -6.593  90.893 116.683  0.00  0.00     0.382 C 
ATOM     23  O   LIG d   1      -7.589  91.634 116.867  0.00  0.00    -0.241 OA
ATOM     24  O   LIG d   1      -6.716  89.859 115.999  0.00  0.00    -0.241 OA
ENDBRANCH   3  22
TORSDOF 7
ENDMDL
