MODEL 1
REMARK VINA RESULT:      -5.7      0.000      0.000
REMARK  7 active torsions:
REMARK  status: ('A' for Active; 'I' for Inactive)
REMARK    1  A    between atoms: C_2  and  C_3 
REMARK    2  A    between atoms: C_3  and  O_6 
REMARK    3  A    between atoms: C_3  and  C_4 
REMARK    4  A    between atoms: C_7  and  O_6 
REMARK    5  A    between atoms: C_9  and  C_10 
REMARK    6  A    between atoms: N_15  and  C_14 
REMARK    7  A    between atoms: N_20  and  C_19 
REMARK       I    between atoms: C_22  and  N_20 
ROOT
ATOM      1  C   LIG d   1      -7.556  76.369 117.574  0.00  0.00     0.161 C 
ATOM      2  C   LIG d   1      -8.616  77.200 117.973  0.00  0.00     0.016 C 
ATOM      3  C   LIG d   1      -8.512  78.608 118.057  0.00  0.00     0.038 C 
ATOM      4  C   LIG d   1      -7.378  79.296 117.599  0.00  0.00     0.028 C 
ATOM      5  C   LIG d   1      -6.100  78.467 117.662  0.00  0.00    -0.047 C 
ATOM      6  C   LIG d   1      -6.347  77.110 116.964  0.00  0.00     0.091 C 
ENDROOT
BRANCH   1   7
ATOM      7  O   LIG d   1      -8.040  75.365 116.661  0.00  0.00    -0.368 OA
BRANCH   7   8
ATOM      8  C   LIG d   1      -8.232  74.040 117.214  0.00  0.00     0.119 C 
BRANCH   8   9
ATOM      9  C   LIG d   1      -7.087  73.150 116.694  0.00  0.00     0.028 C 
ATOM     10  C   LIG d   1      -6.115  72.732 117.810  0.00  0.00     0.006 C 
ENDBRANCH   8   9
BRANCH   8  11
ATOM     11  C   LIG d   1      -9.518  73.396 116.686  0.00  0.00     0.028 C 
ATOM     12  C   LIG d   1      -9.328  71.924 116.289  0.00  0.00     0.006 C 
ENDBRANCH   8  11
ENDBRANCH   7   8
ENDBRANCH   1   7
BRANCH   6  13
ATOM     13  N   LIG d   1      -5.173  76.204 117.055  0.00  0.00    -0.311 N 
ATOM     14  C   LIG d   1      -4.519  75.742 115.990  0.00  0.00     0.210 C 
ATOM     15  C   LIG d   1      -3.349  74.806 116.305  0.00  0.00     0.109 C 
ATOM     16  O   LIG d   1      -4.778  76.046 114.815  0.00  0.00    -0.276 OA
ATOM     17  H   LIG d   1      -4.875  75.932 117.971  0.00  0.00     0.149 HD
ENDBRANCH   6  13
BRANCH   5  18
ATOM     18  N   LIG d   1      -5.026  79.255 117.029  0.00  0.00     0.381 N 
ATOM     19  H   LIG d   1      -4.324  78.642 116.666  0.00  0.00    -0.090 HD
ATOM     20  H   LIG d   1      -4.602  79.844 117.723  0.00  0.00    -0.090 HD
ATOM     21  H   LIG d   1      -5.401  79.814 116.293  0.00  0.00    -0.090 HD
ENDBRANCH   5  18
BRANCH   3  22
ATOM     22  C   LIG d   1      -9.535  79.339 118.641  0.00  0.00     0.382 C 
ATOM     23  O   LIG d   1      -9.911  80.417 118.121  0.00  0.00    -0.241 OA
ATOM     24  O   LIG d   1     -10.056  78.957 119.705  0.00  0.00    -0.241 OA
ENDBRANCH   3  22
TORSDOF 7
ENDMDL
MODEL 2
REMARK VINA RESULT:      -5.4      1.654      2.127
REMARK  7 active torsions:
REMARK  status: ('A' for Active; 'I' for Inactive)
REMARK    1  A    between atoms: C_2  and  C_3 
REMARK    2  A    between atoms: C_3  and  O_6 
REMARK    3  A    between atoms: C_3  and  C_4 
REMARK    4  A    between atoms: C_7  and  O_6 
REMARK    5  A    between atoms: C_9  and  C_10 
REMARK    6  A    between atoms: N_15  and  C_14 
REMARK    7  A    between atoms: N_20  and  C_19 
REMARK       I    between atoms: C_22  and  N_20 
ROOT
ATOM      1  C   LIG d   1      -6.540  76.902 117.647  0.00  0.00     0.161 C 
ATOM      2  C   LIG d   1      -7.244  78.115 117.718  0.00  0.00     0.016 C 
ATOM      3  C   LIG d   1      -6.626  79.382 117.608  0.00  0.00     0.038 C 
ATOM      4  C   LIG d   1      -5.272  79.519 117.267  0.00  0.00     0.028 C 
ATOM      5  C   LIG d   1      -4.419  78.327 117.685  0.00  0.00    -0.047 C 
ATOM      6  C   LIG d   1      -5.080  77.030 117.165  0.00  0.00     0.091 C 
ENDROOT
BRANCH   1   7
ATOM      7  O   LIG d   1      -7.260  75.966 116.822  0.00  0.00    -0.368 OA
BRANCH   7   8
ATOM      8  C   LIG d   1      -7.892  74.861 117.514  0.00  0.00     0.119 C 
BRANCH   8   9
ATOM      9  C   LIG d   1      -7.172  73.570 117.080  0.00  0.00     0.028 C 
ATOM     10  C   LIG d   1      -6.596  73.669 115.658  0.00  0.00     0.006 C 
ENDBRANCH   8   9
BRANCH   8  11
ATOM     11  C   LIG d   1      -9.347  74.684 117.068  0.00  0.00     0.028 C 
ATOM     12  C   LIG d   1     -10.216  75.916 117.365  0.00  0.00     0.006 C 
ENDBRANCH   8  11
ENDBRANCH   7   8
ENDBRANCH   1   7
BRANCH   6  13
ATOM     13  N   LIG d   1      -4.353  75.809 117.601  0.00  0.00    -0.311 N 
ATOM     14  C   LIG d   1      -3.460  75.176 116.842  0.00  0.00     0.210 C 
ATOM     15  C   LIG d   1      -2.843  73.926 117.476  0.00  0.00     0.109 C 
ATOM     16  O   LIG d   1      -3.098  75.550 115.716  0.00  0.00    -0.276 OA
ATOM     17  H   LIG d   1      -4.563  75.455 118.514  0.00  0.00     0.149 HD
ENDBRANCH   6  13
BRANCH   5  18
ATOM     18  N   LIG d   1      -3.062  78.540 117.147  0.00  0.00     0.381 N 
ATOM     19  H   LIG d   1      -3.101  79.167 116.368  0.00  0.00    -0.090 HD
ATOM     20  H   LIG d   1      -2.697  77.661 116.826  0.00  0.00    -0.090 HD
ATOM     21  H   LIG d   1      -2.469  78.915 117.855  0.00  0.00    -0.090 HD
ENDBRANCH   5  18
BRANCH   3  22
ATOM     22  C   LIG d   1      -7.356  80.529 117.880  0.00  0.00     0.382 C 
ATOM     23  O   LIG d   1      -7.871  80.691 119.013  0.00  0.00    -0.241 OA
ATOM     24  O   LIG d   1      -7.544  81.384 116.994  0.00  0.00    -0.241 OA
ENDBRANCH   3  22
TORSDOF 7
ENDMDL
MODEL 3
REMARK VINA RESULT:      -5.4      1.462      2.014
REMARK  7 active torsions:
REMARK  status: ('A' for Active; 'I' for Inactive)
REMARK    1  A    between atoms: C_2  and  C_3 
REMARK    2  A    between atoms: C_3  and  O_6 
REMARK    3  A    between atoms: C_3  and  C_4 
REMARK    4  A    between atoms: C_7  and  O_6 
REMARK    5  A    between atoms: C_9  and  C_10 
REMARK    6  A    between atoms: N_15  and  C_14 
REMARK    7  A    between atoms: N_20  and  C_19 
REMARK       I    between atoms: C_22  and  N_20 
ROOT
ATOM      1  C   LIG d   1      -6.617  76.091 118.482  0.00  0.00     0.161 C 
ATOM      2  C   LIG d   1      -7.541  77.148 118.435  0.00  0.00     0.016 C 
ATOM      3  C   LIG d   1      -7.321  78.342 117.711  0.00  0.00     0.038 C 
ATOM      4  C   LIG d   1      -6.220  78.499 116.856  0.00  0.00     0.028 C 
ATOM      5  C   LIG d   1      -5.012  77.663 117.264  0.00  0.00    -0.047 C 
ATOM      6  C   LIG d   1      -5.461  76.197 117.466  0.00  0.00     0.091 C 
ENDROOT
BRANCH   1   7
ATOM      7  O   LIG d   1      -7.305  74.834 118.328  0.00  0.00    -0.368 OA
BRANCH   7   8
ATOM      8  C   LIG d   1      -7.841  74.558 117.011  0.00  0.00     0.119 C 
BRANCH   8   9
ATOM      9  C   LIG d   1      -9.337  74.225 117.180  0.00  0.00     0.028 C 
ATOM     10  C   LIG d   1     -10.232  75.470 117.066  0.00  0.00     0.006 C 
ENDBRANCH   8   9
BRANCH   8  11
ATOM     11  C   LIG d   1      -7.212  73.299 116.405  0.00  0.00     0.028 C 
ATOM     12  C   LIG d   1      -8.171  72.098 116.397  0.00  0.00     0.006 C 
ENDBRANCH   8  11
ENDBRANCH   7   8
ENDBRANCH   1   7
BRANCH   6  13
ATOM     13  N   LIG d   1      -4.357  75.328 117.949  0.00  0.00    -0.311 N 
ATOM     14  C   LIG d   1      -3.569  74.624 117.137  0.00  0.00     0.210 C 
ATOM     15  C   LIG d   1      -2.505  73.777 117.843  0.00  0.00     0.109 C 
ATOM     16  O   LIG d   1      -3.631  74.645 115.899  0.00  0.00    -0.276 OA
ATOM     17  H   LIG d   1      -4.216  75.276 118.939  0.00  0.00     0.149 HD
ENDBRANCH   6  13
BRANCH   5  18
ATOM     18  N   LIG d   1      -3.989  77.815 116.213  0.00  0.00     0.381 N 
ATOM     19  H   LIG d   1      -4.212  78.600 115.634  0.00  0.00    -0.090 HD
ATOM     20  H   LIG d   1      -3.987  76.990 115.639  0.00  0.00    -0.090 HD
ATOM     21  H   LIG d   1      -3.091  77.942 116.627  0.00  0.00    -0.090 HD
ENDBRANCH   5  18
BRANCH   3  22
ATOM     22  C   LIG d   1      -8.189  79.412 117.870  0.00  0.00     0.382 C 
ATOM     23  O   LIG d   1      -7.819  80.571 117.562  0.00  0.00    -0.241 OA
ATOM     24  O   LIG d   1      -9.321  79.240 118.359  0.00  0.00    -0.241 OA
ENDBRANCH   3  22
TORSDOF 7
ENDMDL
MODEL 4
REMARK VINA RESULT:      -5.3      1.799      2.614
REMARK  7 active torsions:
REMARK  status: ('A' for Active; 'I' for Inactive)
REMARK    1  A    between atoms: C_2  and  C_3 
REMARK    2  A    between atoms: C_3  and  O_6 
REMARK    3  A    between atoms: C_3  and  C_4 
REMARK    4  A    between atoms: C_7  and  O_6 
REMARK    5  A    between atoms: C_9  and  C_10 
REMARK    6  A    between atoms: N_15  and  C_14 
REMARK    7  A    between atoms: N_20  and  C_19 
REMARK       I    between atoms: C_22  and  N_20 
ROOT
ATOM      1  C   LIG d   1      -6.562  76.388 117.093  0.00  0.00     0.161 C 
ATOM      2  C   LIG d   1      -7.922  76.375 117.442  0.00  0.00     0.016 C 
ATOM      3  C   LIG d   1      -8.625  77.522 117.878  0.00  0.00     0.038 C 
ATOM      4  C   LIG d   1      -8.048  78.800 117.849  0.00  0.00     0.028 C 
ATOM      5  C   LIG d   1      -6.530  78.783 117.985  0.00  0.00    -0.047 C 
ATOM      6  C   LIG d   1      -5.944  77.795 116.950  0.00  0.00     0.091 C 
ENDROOT
BRANCH   1   7
ATOM      7  O   LIG d   1      -6.359  75.627 115.887  0.00  0.00    -0.368 OA
BRANCH   7   8
ATOM      8  C   LIG d   1      -5.743  74.326 116.050  0.00  0.00     0.119 C 
BRANCH   8   9
ATOM      9  C   LIG d   1      -6.849  73.265 115.887  0.00  0.00     0.028 C 
ATOM     10  C   LIG d   1      -7.281  72.656 117.231  0.00  0.00     0.006 C 
ENDBRANCH   8   9
BRANCH   8  11
ATOM     11  C   LIG d   1      -5.207  74.137 117.472  0.00  0.00     0.028 C 
ATOM     12  C   LIG d   1      -3.672  74.106 117.532  0.00  0.00     0.006 C 
ENDBRANCH   8  11
ENDBRANCH   7   8
ENDBRANCH   1   7
BRANCH   6  13
ATOM     13  N   LIG d   1      -4.470  77.654 117.071  0.00  0.00    -0.311 N 
ATOM     14  C   LIG d   1      -3.603  78.418 116.409  0.00  0.00     0.210 C 
ATOM     15  C   LIG d   1      -2.128  78.093 116.663  0.00  0.00     0.109 C 
ATOM     16  O   LIG d   1      -3.916  79.356 115.660  0.00  0.00    -0.276 OA
ATOM     17  H   LIG d   1      -4.129  76.938 117.682  0.00  0.00     0.149 HD
ENDBRANCH   6  13
BRANCH   5  18
ATOM     18  N   LIG d   1      -6.050  80.165 117.801  0.00  0.00     0.381 N 
ATOM     19  H   LIG d   1      -5.714  80.286 116.866  0.00  0.00    -0.090 HD
ATOM     20  H   LIG d   1      -5.287  80.332 118.433  0.00  0.00    -0.090 HD
ATOM     21  H   LIG d   1      -6.788  80.809 117.982  0.00  0.00    -0.090 HD
ENDBRANCH   5  18
BRANCH   3  22
ATOM     22  C   LIG d   1      -9.908  77.390 118.386  0.00  0.00     0.382 C 
ATOM     23  O   LIG d   1     -10.217  77.953 119.464  0.00  0.00    -0.241 OA
ATOM     24  O   LIG d   1     -10.749  76.678 117.803  0.00  0.00    -0.241 OA
ENDBRANCH   3  22
TORSDOF 7
ENDMDL
MODEL 5
REMARK VINA RESULT:      -5.2      1.936      5.119
REMARK  7 active torsions:
REMARK  status: ('A' for Active; 'I' for Inactive)
REMARK    1  A    between atoms: C_2  and  C_3 
REMARK    2  A    between atoms: C_3  and  O_6 
REMARK    3  A    between atoms: C_3  and  C_4 
REMARK    4  A    between atoms: C_7  and  O_6 
REMARK    5  A    between atoms: C_9  and  C_10 
REMARK    6  A    between atoms: N_15  and  C_14 
REMARK    7  A    between atoms: N_20  and  C_19 
REMARK       I    between atoms: C_22  and  N_20 
ROOT
ATOM      1  C   LIG d   1      -6.032  75.874 116.307  0.00  0.00     0.161 C 
ATOM      2  C   LIG d   1      -4.942  75.004 116.136  0.00  0.00     0.016 C 
ATOM      3  C   LIG d   1      -3.851  74.940 117.033  0.00  0.00     0.038 C 
ATOM      4  C   LIG d   1      -3.848  75.639 118.249  0.00  0.00     0.028 C 
ATOM      5  C   LIG d   1      -4.692  76.909 118.220  0.00  0.00    -0.047 C 
ATOM      6  C   LIG d   1      -6.100  76.563 117.685  0.00  0.00     0.091 C 
ENDROOT
BRANCH   1   7
ATOM      7  O   LIG d   1      -7.263  75.174 116.035  0.00  0.00    -0.368 OA
BRANCH   7   8
ATOM      8  C   LIG d   1      -7.771  74.340 117.106  0.00  0.00     0.119 C 
BRANCH   8   9
ATOM      9  C   LIG d   1      -7.368  72.886 116.792  0.00  0.00     0.028 C 
ATOM     10  C   LIG d   1      -8.560  72.034 116.325  0.00  0.00     0.006 C 
ENDBRANCH   8   9
BRANCH   8  11
ATOM     11  C   LIG d   1      -9.303  74.340 117.132  0.00  0.00     0.028 C 
ATOM     12  C   LIG d   1      -9.899  75.756 117.162  0.00  0.00     0.006 C 
ENDBRANCH   8  11
ENDBRANCH   7   8
ENDBRANCH   1   7
BRANCH   6  13
ATOM     13  N   LIG d   1      -6.964  77.765 117.545  0.00  0.00    -0.311 N 
ATOM     14  C   LIG d   1      -7.785  78.194 118.502  0.00  0.00     0.210 C 
ATOM     15  C   LIG d   1      -8.600  79.440 118.144  0.00  0.00     0.109 C 
ATOM     16  O   LIG d   1      -7.891  77.679 119.625  0.00  0.00    -0.276 OA
ATOM     17  H   LIG d   1      -6.917  78.261 116.676  0.00  0.00     0.149 HD
ENDBRANCH   6  13
BRANCH   5  18
ATOM     18  N   LIG d   1      -4.712  77.462 119.587  0.00  0.00     0.381 N 
ATOM     19  H   LIG d   1      -5.224  78.322 119.597  0.00  0.00    -0.090 HD
ATOM     20  H   LIG d   1      -3.768  77.654 119.874  0.00  0.00    -0.090 HD
ATOM     21  H   LIG d   1      -5.131  76.810 120.213  0.00  0.00    -0.090 HD
ENDBRANCH   5  18
BRANCH   3  22
ATOM     22  C   LIG d   1      -2.727  74.200 116.696  0.00  0.00     0.382 C 
ATOM     23  O   LIG d   1      -2.221  74.313 115.554  0.00  0.00    -0.241 OA
ATOM     24  O   LIG d   1      -2.241  73.387 117.505  0.00  0.00    -0.241 OA
ENDBRANCH   3  22
TORSDOF 7
ENDMDL
MODEL 6
REMARK VINA RESULT:      -5.2      2.277      5.428
REMARK  7 active torsions:
REMARK  status: ('A' for Active; 'I' for Inactive)
REMARK    1  A    between atoms: C_2  and  C_3 
REMARK    2  A    between atoms: C_3  and  O_6 
REMARK    3  A    between atoms: C_3  and  C_4 
REMARK    4  A    between atoms: C_7  and  O_6 
REMARK    5  A    between atoms: C_9  and  C_10 
REMARK    6  A    between atoms: N_15  and  C_14 
REMARK    7  A    between atoms: N_20  and  C_19 
REMARK       I    between atoms: C_22  and  N_20 
ROOT
ATOM      1  C   LIG d   1      -7.293  75.599 117.583  0.00  0.00     0.161 C 
ATOM      2  C   LIG d   1      -8.069  74.502 117.174  0.00  0.00     0.016 C 
ATOM      3  C   LIG d   1      -7.546  73.199 117.006  0.00  0.00     0.038 C 
ATOM      4  C   LIG d   1      -6.236  72.871 117.385  0.00  0.00     0.028 C 
ATOM      5  C   LIG d   1      -5.275  74.054 117.326  0.00  0.00    -0.047 C 
ATOM      6  C   LIG d   1      -5.888  75.238 118.107  0.00  0.00     0.091 C 
ENDROOT
BRANCH   1   7
ATOM      7  O   LIG d   1      -8.014  76.366 118.568  0.00  0.00    -0.368 OA
BRANCH   7   8
ATOM      8  C   LIG d   1      -8.544  77.639 118.122  0.00  0.00     0.119 C 
BRANCH   8   9
ATOM      9  C   LIG d   1      -7.661  78.747 118.728  0.00  0.00     0.028 C 
ATOM     10  C   LIG d   1      -6.982  79.611 117.652  0.00  0.00     0.006 C 
ENDBRANCH   8   9
BRANCH   8  11
ATOM     11  C   LIG d   1      -9.947  77.886 118.683  0.00  0.00     0.028 C 
ATOM     12  C   LIG d   1      -9.934  78.720 119.974  0.00  0.00     0.006 C 
ENDBRANCH   8  11
ENDBRANCH   7   8
ENDBRANCH   1   7
BRANCH   6  13
ATOM     13  N   LIG d   1      -5.050  76.463 118.029  0.00  0.00    -0.311 N 
ATOM     14  C   LIG d   1      -4.158  76.802 118.958  0.00  0.00     0.210 C 
ATOM     15  C   LIG d   1      -3.415  78.115 118.692  0.00  0.00     0.109 C 
ATOM     16  O   LIG d   1      -3.888  76.123 119.960  0.00  0.00    -0.276 OA
ATOM     17  H   LIG d   1      -5.182  77.056 117.232  0.00  0.00     0.149 HD
ENDBRANCH   6  13
BRANCH   5  18
ATOM     18  N   LIG d   1      -3.982  73.605 117.876  0.00  0.00     0.381 N 
ATOM     19  H   LIG d   1      -3.571  74.339 118.417  0.00  0.00    -0.090 HD
ATOM     20  H   LIG d   1      -3.362  73.389 117.115  0.00  0.00    -0.090 HD
ATOM     21  H   LIG d   1      -4.115  72.798 118.445  0.00  0.00    -0.090 HD
ENDBRANCH   5  18
BRANCH   3  22
ATOM     22  C   LIG d   1      -8.327  72.216 116.417  0.00  0.00     0.382 C 
ATOM     23  O   LIG d   1      -7.790  71.331 115.708  0.00  0.00    -0.241 OA
ATOM     24  O   LIG d   1      -9.565  72.229 116.549  0.00  0.00    -0.241 OA
ENDBRANCH   3  22
TORSDOF 7
ENDMDL
MODEL 7
REMARK VINA RESULT:      -5.0      2.400      5.653
REMARK  7 active torsions:
REMARK  status: ('A' for Active; 'I' for Inactive)
REMARK    1  A    between atoms: C_2  and  C_3 
REMARK    2  A    between atoms: C_3  and  O_6 
REMARK    3  A    between atoms: C_3  and  C_4 
REMARK    4  A    between atoms: C_7  and  O_6 
REMARK    5  A    between atoms: C_9  and  C_10 
REMARK    6  A    between atoms: N_15  and  C_14 
REMARK    7  A    between atoms: N_20  and  C_19 
REMARK       I    between atoms: C_22  and  N_20 
ROOT
ATOM      1  C   LIG d   1      -6.398  74.689 117.422  0.00  0.00     0.161 C 
ATOM      2  C   LIG d   1      -6.717  73.375 117.040  0.00  0.00     0.016 C 
ATOM      3  C   LIG d   1      -8.030  72.952 116.730  0.00  0.00     0.038 C 
ATOM      4  C   LIG d   1      -9.098  73.857 116.635  0.00  0.00     0.028 C 
ATOM      5  C   LIG d   1      -8.919  75.098 117.504  0.00  0.00    -0.047 C 
ATOM      6  C   LIG d   1      -7.532  75.716 117.217  0.00  0.00     0.091 C 
ENDROOT
BRANCH   1   7
ATOM      7  O   LIG d   1      -5.203  75.120 116.742  0.00  0.00    -0.368 OA
BRANCH   7   8
ATOM      8  C   LIG d   1      -4.028  75.300 117.570  0.00  0.00     0.119 C 
BRANCH   8   9
ATOM      9  C   LIG d   1      -3.174  76.410 116.927  0.00  0.00     0.028 C 
ATOM     10  C   LIG d   1      -2.978  77.615 117.862  0.00  0.00     0.006 C 
ENDBRANCH   8   9
BRANCH   8  11
ATOM     11  C   LIG d   1      -3.142  74.050 117.560  0.00  0.00     0.028 C 
ATOM     12  C   LIG d   1      -1.981  74.151 116.559  0.00  0.00     0.006 C 
ENDBRANCH   8  11
ENDBRANCH   7   8
ENDBRANCH   1   7
BRANCH   6  13
ATOM     13  N   LIG d   1      -7.242  76.886 118.086  0.00  0.00    -0.311 N 
ATOM     14  C   LIG d   1      -6.688  78.012 117.639  0.00  0.00     0.210 C 
ATOM     15  C   LIG d   1      -6.456  79.086 118.706  0.00  0.00     0.109 C 
ATOM     16  O   LIG d   1      -6.396  78.235 116.455  0.00  0.00    -0.276 OA
ATOM     17  H   LIG d   1      -7.475  76.802 119.056  0.00  0.00     0.149 HD
ENDBRANCH   6  13
BRANCH   5  18
ATOM     18  N   LIG d   1     -10.034  76.016 117.205  0.00  0.00     0.381 N 
ATOM     19  H   LIG d   1      -9.718  76.746 116.598  0.00  0.00    -0.090 HD
ATOM     20  H   LIG d   1     -10.351  76.434 118.062  0.00  0.00    -0.090 HD
ATOM     21  H   LIG d   1     -10.781  75.517 116.774  0.00  0.00    -0.090 HD
ENDBRANCH   5  18
BRANCH   3  22
ATOM     22  C   LIG d   1      -8.293  71.603 116.550  0.00  0.00     0.382 C 
ATOM     23  O   LIG d   1      -7.360  70.767 116.623  0.00  0.00    -0.241 OA
ATOM     24  O   LIG d   1      -9.443  71.215 116.272  0.00  0.00    -0.241 OA
ENDBRANCH   3  22
TORSDOF 7
ENDMDL
MODEL 8
REMARK VINA RESULT:      -5.0      2.192      5.204
REMARK  7 active torsions:
REMARK  status: ('A' for Active; 'I' for Inactive)
REMARK    1  A    between atoms: C_2  and  C_3 
REMARK    2  A    between atoms: C_3  and  O_6 
REMARK    3  A    between atoms: C_3  and  C_4 
REMARK    4  A    between atoms: C_7  and  O_6 
REMARK    5  A    between atoms: C_9  and  C_10 
REMARK    6  A    between atoms: N_15  and  C_14 
REMARK    7  A    between atoms: N_20  and  C_19 
REMARK       I    between atoms: C_22  and  N_20 
ROOT
ATOM      1  C   LIG d   1      -6.678  75.508 116.059  0.00  0.00     0.161 C 
ATOM      2  C   LIG d   1      -7.336  74.274 116.187  0.00  0.00     0.016 C 
ATOM      3  C   LIG d   1      -6.800  73.176 116.900  0.00  0.00     0.038 C 
ATOM      4  C   LIG d   1      -5.629  73.290 117.665  0.00  0.00     0.028 C 
ATOM      5  C   LIG d   1      -4.674  74.363 117.155  0.00  0.00    -0.047 C 
ATOM      6  C   LIG d   1      -5.453  75.687 116.980  0.00  0.00     0.091 C 
ENDROOT
BRANCH   1   7
ATOM      7  O   LIG d   1      -7.616  76.584 116.259  0.00  0.00    -0.368 OA
BRANCH   7   8
ATOM      8  C   LIG d   1      -7.983  76.863 117.633  0.00  0.00     0.119 C 
BRANCH   8   9
ATOM      9  C   LIG d   1      -9.521  76.932 117.696  0.00  0.00     0.028 C 
ATOM     10  C   LIG d   1     -10.187  75.629 117.223  0.00  0.00     0.006 C 
ENDBRANCH   8   9
BRANCH   8  11
ATOM     11  C   LIG d   1      -7.496  78.249 118.069  0.00  0.00     0.028 C 
ATOM     12  C   LIG d   1      -8.627  79.288 118.120  0.00  0.00     0.006 C 
ENDBRANCH   8  11
ENDBRANCH   7   8
ENDBRANCH   1   7
BRANCH   6  13
ATOM     13  N   LIG d   1      -4.611  76.768 116.405  0.00  0.00    -0.311 N 
ATOM     14  C   LIG d   1      -3.967  77.668 117.145  0.00  0.00     0.210 C 
ATOM     15  C   LIG d   1      -3.172  78.709 116.350  0.00  0.00     0.109 C 
ATOM     16  O   LIG d   1      -3.952  77.685 118.385  0.00  0.00    -0.276 OA
ATOM     17  H   LIG d   1      -4.542  76.810 115.407  0.00  0.00     0.149 HD
ENDBRANCH   6  13
BRANCH   5  18
ATOM     18  N   LIG d   1      -3.565  74.469 118.122  0.00  0.00     0.381 N 
ATOM     19  H   LIG d   1      -3.613  73.713 118.776  0.00  0.00    -0.090 HD
ATOM     20  H   LIG d   1      -3.657  75.331 118.630  0.00  0.00    -0.090 HD
ATOM     21  H   LIG d   1      -2.692  74.448 117.643  0.00  0.00    -0.090 HD
ENDBRANCH   5  18
BRANCH   3  22
ATOM     22  C   LIG d   1      -7.415  71.937 116.818  0.00  0.00     0.382 C 
ATOM     23  O   LIG d   1      -7.488  71.344 115.715  0.00  0.00    -0.241 OA
ATOM     24  O   LIG d   1      -7.938  71.424 117.826  0.00  0.00    -0.241 OA
ENDBRANCH   3  22
TORSDOF 7
ENDMDL
MODEL 9
REMARK VINA RESULT:      -4.9     14.339     16.874
REMARK  7 active torsions:
REMARK  status: ('A' for Active; 'I' for Inactive)
REMARK    1  A    between atoms: C_2  and  C_3 
REMARK    2  A    between atoms: C_3  and  O_6 
REMARK    3  A    between atoms: C_3  and  C_4 
REMARK    4  A    between atoms: C_7  and  O_6 
REMARK    5  A    between atoms: C_9  and  C_10 
REMARK    6  A    between atoms: N_15  and  C_14 
REMARK    7  A    between atoms: N_20  and  C_19 
REMARK       I    between atoms: C_22  and  N_20 
ROOT
ATOM      1  C   LIG d   1      -5.765  92.007 118.768  0.00  0.00     0.161 C 
ATOM      2  C   LIG d   1      -5.727  91.097 117.698  0.00  0.00     0.016 C 
ATOM      3  C   LIG d   1      -6.626  91.140 116.608  0.00  0.00     0.038 C 
ATOM      4  C   LIG d   1      -7.535  92.195 116.437  0.00  0.00     0.028 C 
ATOM      5  C   LIG d   1      -7.948  92.856 117.748  0.00  0.00    -0.047 C 
ATOM      6  C   LIG d   1      -6.677  93.231 118.544  0.00  0.00     0.091 C 
ENDROOT
BRANCH   1   7
ATOM      7  O   LIG d   1      -4.427  92.432 119.096  0.00  0.00    -0.368 OA
BRANCH   7   8
ATOM      8  C   LIG d   1      -3.354  91.757 118.395  0.00  0.00     0.119 C 
BRANCH   8   9
ATOM      9  C   LIG d   1      -2.693  90.783 119.390  0.00  0.00     0.028 C 
ATOM     10  C   LIG d   1      -2.730  89.327 118.898  0.00  0.00     0.006 C 
ENDBRANCH   8   9
BRANCH   8  11
ATOM     11  C   LIG d   1      -2.249  92.737 117.991  0.00  0.00     0.028 C 
ATOM     12  C   LIG d   1      -1.057  92.724 118.961  0.00  0.00     0.006 C 
ENDBRANCH   8  11
ENDBRANCH   7   8
ENDBRANCH   1   7
BRANCH   6  13
ATOM     13  N   LIG d   1      -6.993  93.807 119.878  0.00  0.00    -0.311 N 
ATOM     14  C   LIG d   1      -7.106  95.114 120.103  0.00  0.00     0.210 C 
ATOM     15  C   LIG d   1      -7.416  95.495 121.554  0.00  0.00     0.109 C 
ATOM     16  O   LIG d   1      -7.010  95.993 119.234  0.00  0.00    -0.276 OA
ATOM     17  H   LIG d   1      -7.118  93.163 120.634  0.00  0.00     0.149 HD
ENDBRANCH   6  13
BRANCH   5  18
ATOM     18  N   LIG d   1      -8.786  94.023 117.414  0.00  0.00     0.381 N 
ATOM     19  H   LIG d   1      -9.345  93.819 116.609  0.00  0.00    -0.090 HD
ATOM     20  H   LIG d   1      -8.188  94.800 117.193  0.00  0.00    -0.090 HD
ATOM     21  H   LIG d   1      -9.373  94.254 118.185  0.00  0.00    -0.090 HD
ENDBRANCH   5  18
BRANCH   3  22
ATOM     22  C   LIG d   1      -6.648  90.098 115.694  0.00  0.00     0.382 C 
ATOM     23  O   LIG d   1      -7.731  89.754 115.162  0.00  0.00    -0.241 OA
ATOM     24  O   LIG d   1      -5.607  89.468 115.428  0.00  0.00    -0.241 OA
ENDBRANCH   3  22
TORSDOF 7
ENDMDL
