MODEL 1
REMARK VINA RESULT:      -5.1      0.000      0.000
REMARK  7 active torsions:
REMARK  status: ('A' for Active; 'I' for Inactive)
REMARK    1  A    between atoms: C_2  and  C_3 
REMARK    2  A    between atoms: C_3  and  O_6 
REMARK    3  A    between atoms: C_3  and  C_4 
REMARK    4  A    between atoms: C_7  and  O_6 
REMARK    5  A    between atoms: C_9  and  C_10 
REMARK    6  A    between atoms: N_15  and  C_14 
REMARK    7  A    between atoms: N_20  and  C_19 
REMARK       I    between atoms: C_22  and  N_20 
ROOT
ATOM      1  C   LIG d   1      -8.424  75.792 118.270  0.00  0.00     0.161 C 
ATOM      2  C   LIG d   1      -9.813  75.637 118.418  0.00  0.00     0.016 C 
ATOM      3  C   LIG d   1     -10.690  76.710 118.695  0.00  0.00     0.038 C 
ATOM      4  C   LIG d   1     -10.255  78.044 118.692  0.00  0.00     0.028 C 
ATOM      5  C   LIG d   1      -8.780  78.200 119.047  0.00  0.00    -0.047 C 
ATOM      6  C   LIG d   1      -7.946  77.254 118.153  0.00  0.00     0.091 C 
ENDROOT
BRANCH   1   7
ATOM      7  O   LIG d   1      -7.965  75.023 117.141  0.00  0.00    -0.368 OA
BRANCH   7   8
ATOM      8  C   LIG d   1      -7.065  73.927 117.440  0.00  0.00     0.119 C 
BRANCH   8   9
ATOM      9  C   LIG d   1      -5.741  74.200 116.700  0.00  0.00     0.028 C 
ATOM     10  C   LIG d   1      -5.958  74.911 115.353  0.00  0.00     0.006 C 
ENDBRANCH   8   9
BRANCH   8  11
ATOM     11  C   LIG d   1      -7.586  72.606 116.865  0.00  0.00     0.028 C 
ATOM     12  C   LIG d   1      -8.818  72.075 117.615  0.00  0.00     0.006 C 
ENDBRANCH   8  11
ENDBRANCH   7   8
ENDBRANCH   1   7
BRANCH   6  13
ATOM     13  N   LIG d   1      -6.499  77.283 118.492  0.00  0.00    -0.311 N 
ATOM     14  C   LIG d   1      -5.562  77.746 117.667  0.00  0.00     0.210 C 
ATOM     15  C   LIG d   1      -4.130  77.665 118.206  0.00  0.00     0.109 C 
ATOM     16  O   LIG d   1      -5.783  78.245 116.554  0.00  0.00    -0.276 OA
ATOM     17  H   LIG d   1      -6.234  76.925 119.389  0.00  0.00     0.149 HD
ENDBRANCH   6  13
BRANCH   5  18
ATOM     18  N   LIG d   1      -8.428  79.622 118.871  0.00  0.00     0.381 N 
ATOM     19  H   LIG d   1      -7.441  79.743 118.987  0.00  0.00    -0.090 HD
ATOM     20  H   LIG d   1      -8.897  80.162 119.576  0.00  0.00    -0.090 HD
ATOM     21  H   LIG d   1      -8.704  79.932 117.966  0.00  0.00    -0.090 HD
ENDBRANCH   5  18
BRANCH   3  22
ATOM     22  C   LIG d   1     -12.013  76.450 119.018  0.00  0.00     0.382 C 
ATOM     23  O   LIG d   1     -12.401  76.557 120.206  0.00  0.00    -0.241 OA
ATOM     24  O   LIG d   1     -12.814  76.067 118.144  0.00  0.00    -0.241 OA
ENDBRANCH   3  22
TORSDOF 7
ENDMDL
MODEL 2
REMARK VINA RESULT:      -5.0      2.330      4.355
REMARK  7 active torsions:
REMARK  status: ('A' for Active; 'I' for Inactive)
REMARK    1  A    between atoms: C_2  and  C_3 
REMARK    2  A    between atoms: C_3  and  O_6 
REMARK    3  A    between atoms: C_3  and  C_4 
REMARK    4  A    between atoms: C_7  and  O_6 
REMARK    5  A    between atoms: C_9  and  C_10 
REMARK    6  A    between atoms: N_15  and  C_14 
REMARK    7  A    between atoms: N_20  and  C_19 
REMARK       I    between atoms: C_22  and  N_20 
ROOT
ATOM      1  C   LIG d   1      -7.510  76.396 117.138  0.00  0.00     0.161 C 
ATOM      2  C   LIG d   1      -8.839  76.289 117.583  0.00  0.00     0.016 C 
ATOM      3  C   LIG d   1      -9.475  75.054 117.845  0.00  0.00     0.038 C 
ATOM      4  C   LIG d   1      -8.774  73.840 117.824  0.00  0.00     0.028 C 
ATOM      5  C   LIG d   1      -7.567  73.853 116.892  0.00  0.00    -0.047 C 
ATOM      6  C   LIG d   1      -6.695  75.088 117.217  0.00  0.00     0.091 C 
ENDROOT
BRANCH   1   7
ATOM      7  O   LIG d   1      -6.837  77.449 117.856  0.00  0.00    -0.368 OA
BRANCH   7   8
ATOM      8  C   LIG d   1      -7.649  78.204 118.789  0.00  0.00     0.119 C 
BRANCH   8   9
ATOM      9  C   LIG d   1      -7.657  79.670 118.316  0.00  0.00     0.028 C 
ATOM     10  C   LIG d   1      -9.081  80.206 118.089  0.00  0.00     0.006 C 
ENDBRANCH   8   9
BRANCH   8  11
ATOM     11  C   LIG d   1      -7.016  78.231 120.184  0.00  0.00     0.028 C 
ATOM     12  C   LIG d   1      -6.595  76.837 120.675  0.00  0.00     0.006 C 
ENDBRANCH   8  11
ENDBRANCH   7   8
ENDBRANCH   1   7
BRANCH   6  13
ATOM     13  N   LIG d   1      -5.538  75.223 116.295  0.00  0.00    -0.311 N 
ATOM     14  C   LIG d   1      -4.336  74.707 116.546  0.00  0.00     0.210 C 
ATOM     15  C   LIG d   1      -3.278  74.980 115.473  0.00  0.00     0.109 C 
ATOM     16  O   LIG d   1      -4.055  74.021 117.541  0.00  0.00    -0.276 OA
ATOM     17  H   LIG d   1      -5.686  75.738 115.449  0.00  0.00     0.149 HD
ENDBRANCH   6  13
BRANCH   5  18
ATOM     18  N   LIG d   1      -6.850  72.576 117.072  0.00  0.00     0.381 N 
ATOM     19  H   LIG d   1      -7.394  71.960 117.643  0.00  0.00    -0.090 HD
ATOM     20  H   LIG d   1      -5.980  72.755 117.541  0.00  0.00    -0.090 HD
ATOM     21  H   LIG d   1      -6.678  72.154 116.186  0.00  0.00    -0.090 HD
ENDBRANCH   5  18
BRANCH   3  22
ATOM     22  C   LIG d   1     -10.839  75.023 118.092  0.00  0.00     0.382 C 
ATOM     23  O   LIG d   1     -11.338  75.792 118.949  0.00  0.00    -0.241 OA
ATOM     24  O   LIG d   1     -11.570  74.205 117.502  0.00  0.00    -0.241 OA
ENDBRANCH   3  22
TORSDOF 7
ENDMDL
MODEL 3
REMARK VINA RESULT:      -4.9      2.886      4.228
REMARK  7 active torsions:
REMARK  status: ('A' for Active; 'I' for Inactive)
REMARK    1  A    between atoms: C_2  and  C_3 
REMARK    2  A    between atoms: C_3  and  O_6 
REMARK    3  A    between atoms: C_3  and  C_4 
REMARK    4  A    between atoms: C_7  and  O_6 
REMARK    5  A    between atoms: C_9  and  C_10 
REMARK    6  A    between atoms: N_15  and  C_14 
REMARK    7  A    between atoms: N_20  and  C_19 
REMARK       I    between atoms: C_22  and  N_20 
ROOT
ATOM      1  C   LIG d   1      -6.369  74.679 117.232  0.00  0.00     0.161 C 
ATOM      2  C   LIG d   1      -6.883  73.444 116.804  0.00  0.00     0.016 C 
ATOM      3  C   LIG d   1      -8.120  72.920 117.246  0.00  0.00     0.038 C 
ATOM      4  C   LIG d   1      -9.003  73.671 118.035  0.00  0.00     0.028 C 
ATOM      5  C   LIG d   1      -8.305  74.716 118.899  0.00  0.00    -0.047 C 
ATOM      6  C   LIG d   1      -7.370  75.562 118.006  0.00  0.00     0.091 C 
ENDROOT
BRANCH   1   7
ATOM      7  O   LIG d   1      -5.831  75.401 116.106  0.00  0.00    -0.368 OA
BRANCH   7   8
ATOM      8  C   LIG d   1      -4.402  75.639 116.126  0.00  0.00     0.119 C 
BRANCH   8   9
ATOM      9  C   LIG d   1      -3.815  75.046 114.831  0.00  0.00     0.028 C 
ATOM     10  C   LIG d   1      -2.278  75.097 114.805  0.00  0.00     0.006 C 
ENDBRANCH   8   9
BRANCH   8  11
ATOM     11  C   LIG d   1      -3.725  74.872 117.266  0.00  0.00     0.028 C 
ATOM     12  C   LIG d   1      -3.072  75.799 118.303  0.00  0.00     0.006 C 
ENDBRANCH   8  11
ENDBRANCH   7   8
ENDBRANCH   1   7
BRANCH   6  13
ATOM     13  N   LIG d   1      -6.584  76.554 118.787  0.00  0.00    -0.311 N 
ATOM     14  C   LIG d   1      -6.449  77.829 118.427  0.00  0.00     0.210 C 
ATOM     15  C   LIG d   1      -5.580  78.676 119.362  0.00  0.00     0.109 C 
ATOM     16  O   LIG d   1      -6.991  78.347 117.439  0.00  0.00    -0.276 OA
ATOM     17  H   LIG d   1      -6.136  76.226 119.620  0.00  0.00     0.149 HD
ENDBRANCH   6  13
BRANCH   5  18
ATOM     18  N   LIG d   1      -9.351  75.516 119.564  0.00  0.00     0.381 N 
ATOM     19  H   LIG d   1      -9.220  76.486 119.353  0.00  0.00    -0.090 HD
ATOM     20  H   LIG d   1      -9.270  75.396 120.558  0.00  0.00    -0.090 HD
ATOM     21  H   LIG d   1     -10.252  75.221 119.258  0.00  0.00    -0.090 HD
ENDBRANCH   5  18
BRANCH   3  22
ATOM     22  C   LIG d   1      -8.466  71.615 116.930  0.00  0.00     0.382 C 
ATOM     23  O   LIG d   1      -9.289  70.994 117.645  0.00  0.00    -0.241 OA
ATOM     24  O   LIG d   1      -7.933  71.036 115.965  0.00  0.00    -0.241 OA
ENDBRANCH   3  22
TORSDOF 7
ENDMDL
MODEL 4
REMARK VINA RESULT:      -4.9      2.228      4.362
REMARK  7 active torsions:
REMARK  status: ('A' for Active; 'I' for Inactive)
REMARK    1  A    between atoms: C_2  and  C_3 
REMARK    2  A    between atoms: C_3  and  O_6 
REMARK    3  A    between atoms: C_3  and  C_4 
REMARK    4  A    between atoms: C_7  and  O_6 
REMARK    5  A    between atoms: C_9  and  C_10 
REMARK    6  A    between atoms: N_15  and  C_14 
REMARK    7  A    between atoms: N_20  and  C_19 
REMARK       I    between atoms: C_22  and  N_20 
ROOT
ATOM      1  C   LIG d   1      -7.411  76.396 117.391  0.00  0.00     0.161 C 
ATOM      2  C   LIG d   1      -8.753  76.295 117.797  0.00  0.00     0.016 C 
ATOM      3  C   LIG d   1      -9.436  75.064 117.927  0.00  0.00     0.038 C 
ATOM      4  C   LIG d   1      -8.775  73.833 117.806  0.00  0.00     0.028 C 
ATOM      5  C   LIG d   1      -7.546  73.892 116.904  0.00  0.00    -0.047 C 
ATOM      6  C   LIG d   1      -6.642  75.059 117.362  0.00  0.00     0.091 C 
ENDROOT
BRANCH   1   7
ATOM      7  O   LIG d   1      -6.721  77.353 118.220  0.00  0.00    -0.368 OA
BRANCH   7   8
ATOM      8  C   LIG d   1      -6.710  78.720 117.740  0.00  0.00     0.119 C 
BRANCH   8   9
ATOM      9  C   LIG d   1      -5.253  79.219 117.797  0.00  0.00     0.028 C 
ATOM     10  C   LIG d   1      -4.380  78.609 116.687  0.00  0.00     0.006 C 
ENDBRANCH   8   9
BRANCH   8  11
ATOM     11  C   LIG d   1      -7.492  79.645 118.677  0.00  0.00     0.028 C 
ATOM     12  C   LIG d   1      -8.879  80.016 118.128  0.00  0.00     0.006 C 
ENDBRANCH   8  11
ENDBRANCH   7   8
ENDBRANCH   1   7
BRANCH   6  13
ATOM     13  N   LIG d   1      -5.460  75.239 116.480  0.00  0.00    -0.311 N 
ATOM     14  C   LIG d   1      -4.278  74.670 116.713  0.00  0.00     0.210 C 
ATOM     15  C   LIG d   1      -3.187  75.003 115.691  0.00  0.00     0.109 C 
ATOM     16  O   LIG d   1      -4.039  73.895 117.651  0.00  0.00    -0.276 OA
ATOM     17  H   LIG d   1      -5.574  75.828 115.679  0.00  0.00     0.149 HD
ENDBRANCH   6  13
BRANCH   5  18
ATOM     18  N   LIG d   1      -6.877  72.579 116.976  0.00  0.00     0.381 N 
ATOM     19  H   LIG d   1      -6.832  72.274 117.928  0.00  0.00    -0.090 HD
ATOM     20  H   LIG d   1      -5.939  72.673 116.630  0.00  0.00    -0.090 HD
ATOM     21  H   LIG d   1      -7.375  71.912 116.429  0.00  0.00    -0.090 HD
ENDBRANCH   5  18
BRANCH   3  22
ATOM     22  C   LIG d   1     -10.805  75.058 118.143  0.00  0.00     0.382 C 
ATOM     23  O   LIG d   1     -11.308  75.819 119.005  0.00  0.00    -0.241 OA
ATOM     24  O   LIG d   1     -11.540  74.270 117.519  0.00  0.00    -0.241 OA
ENDBRANCH   3  22
TORSDOF 7
ENDMDL
MODEL 5
REMARK VINA RESULT:      -4.9      1.976      2.666
REMARK  7 active torsions:
REMARK  status: ('A' for Active; 'I' for Inactive)
REMARK    1  A    between atoms: C_2  and  C_3 
REMARK    2  A    between atoms: C_3  and  O_6 
REMARK    3  A    between atoms: C_3  and  C_4 
REMARK    4  A    between atoms: C_7  and  O_6 
REMARK    5  A    between atoms: C_9  and  C_10 
REMARK    6  A    between atoms: N_15  and  C_14 
REMARK    7  A    between atoms: N_20  and  C_19 
REMARK       I    between atoms: C_22  and  N_20 
ROOT
ATOM      1  C   LIG d   1      -8.077  76.024 118.125  0.00  0.00     0.161 C 
ATOM      2  C   LIG d   1      -9.168  76.902 118.242  0.00  0.00     0.016 C 
ATOM      3  C   LIG d   1      -9.034  78.309 118.271  0.00  0.00     0.038 C 
ATOM      4  C   LIG d   1      -7.806  78.942 118.031  0.00  0.00     0.028 C 
ATOM      5  C   LIG d   1      -6.600  78.089 118.410  0.00  0.00    -0.047 C 
ATOM      6  C   LIG d   1      -6.741  76.699 117.750  0.00  0.00     0.091 C 
ENDROOT
BRANCH   1   7
ATOM      7  O   LIG d   1      -8.391  74.977 117.185  0.00  0.00    -0.368 OA
BRANCH   7   8
ATOM      8  C   LIG d   1      -8.494  73.639 117.731  0.00  0.00     0.119 C 
BRANCH   8   9
ATOM      9  C   LIG d   1      -7.438  72.768 117.023  0.00  0.00     0.028 C 
ATOM     10  C   LIG d   1      -8.044  71.497 116.405  0.00  0.00     0.006 C 
ENDBRANCH   8   9
BRANCH   8  11
ATOM     11  C   LIG d   1      -9.843  73.000 117.389  0.00  0.00     0.028 C 
ATOM     12  C   LIG d   1     -11.000  74.010 117.396  0.00  0.00     0.006 C 
ENDBRANCH   8  11
ENDBRANCH   7   8
ENDBRANCH   1   7
BRANCH   6  13
ATOM     13  N   LIG d   1      -5.645  75.773 118.139  0.00  0.00    -0.311 N 
ATOM     14  C   LIG d   1      -4.546  75.591 117.409  0.00  0.00     0.210 C 
ATOM     15  C   LIG d   1      -3.551  74.576 117.980  0.00  0.00     0.109 C 
ATOM     16  O   LIG d   1      -4.286  76.197 116.358  0.00  0.00    -0.276 OA
ATOM     17  H   LIG d   1      -5.760  75.264 118.993  0.00  0.00     0.149 HD
ENDBRANCH   6  13
BRANCH   5  18
ATOM     18  N   LIG d   1      -5.389  78.813 117.981  0.00  0.00     0.381 N 
ATOM     19  H   LIG d   1      -5.183  78.592 117.027  0.00  0.00    -0.090 HD
ATOM     20  H   LIG d   1      -4.614  78.516 118.547  0.00  0.00    -0.090 HD
ATOM     21  H   LIG d   1      -5.525  79.795 118.080  0.00  0.00    -0.090 HD
ENDBRANCH   5  18
BRANCH   3  22
ATOM     22  C   LIG d   1     -10.132  79.097 118.582  0.00  0.00     0.382 C 
ATOM     23  O   LIG d   1     -10.271  80.220 118.040  0.00  0.00    -0.241 OA
ATOM     24  O   LIG d   1     -10.961  78.719 119.431  0.00  0.00    -0.241 OA
ENDBRANCH   3  22
TORSDOF 7
ENDMDL
MODEL 6
REMARK VINA RESULT:      -4.8      2.580      4.527
REMARK  7 active torsions:
REMARK  status: ('A' for Active; 'I' for Inactive)
REMARK    1  A    between atoms: C_2  and  C_3 
REMARK    2  A    between atoms: C_3  and  O_6 
REMARK    3  A    between atoms: C_3  and  C_4 
REMARK    4  A    between atoms: C_7  and  O_6 
REMARK    5  A    between atoms: C_9  and  C_10 
REMARK    6  A    between atoms: N_15  and  C_14 
REMARK    7  A    between atoms: N_20  and  C_19 
REMARK       I    between atoms: C_22  and  N_20 
ROOT
ATOM      1  C   LIG d   1      -6.928  75.815 117.381  0.00  0.00     0.161 C 
ATOM      2  C   LIG d   1      -7.153  77.164 117.703  0.00  0.00     0.016 C 
ATOM      3  C   LIG d   1      -8.418  77.674 118.076  0.00  0.00     0.038 C 
ATOM      4  C   LIG d   1      -9.519  76.835 118.300  0.00  0.00     0.028 C 
ATOM      5  C   LIG d   1      -9.465  75.538 117.500  0.00  0.00    -0.047 C 
ATOM      6  C   LIG d   1      -8.092  74.865 117.728  0.00  0.00     0.091 C 
ENDROOT
BRANCH   1   7
ATOM      7  O   LIG d   1      -5.709  75.362 118.003  0.00  0.00    -0.368 OA
BRANCH   7   8
ATOM      8  C   LIG d   1      -4.821  74.579 117.168  0.00  0.00     0.119 C 
BRANCH   8   9
ATOM      9  C   LIG d   1      -3.411  74.664 117.785  0.00  0.00     0.028 C 
ATOM     10  C   LIG d   1      -3.414  75.344 119.164  0.00  0.00     0.006 C 
ENDBRANCH   8   9
BRANCH   8  11
ATOM     11  C   LIG d   1      -4.688  75.190 115.769  0.00  0.00     0.028 C 
ATOM     12  C   LIG d   1      -3.253  75.125 115.224  0.00  0.00     0.006 C 
ENDBRANCH   8  11
ENDBRANCH   7   8
ENDBRANCH   1   7
BRANCH   6  13
ATOM     13  N   LIG d   1      -7.924  73.632 116.916  0.00  0.00    -0.311 N 
ATOM     14  C   LIG d   1      -8.171  72.408 117.380  0.00  0.00     0.210 C 
ATOM     15  C   LIG d   1      -7.913  71.274 116.384  0.00  0.00     0.109 C 
ATOM     16  O   LIG d   1      -8.609  72.157 118.513  0.00  0.00    -0.276 OA
ATOM     17  H   LIG d   1      -7.601  73.746 115.975  0.00  0.00     0.149 HD
ENDBRANCH   6  13
BRANCH   5  18
ATOM     18  N   LIG d   1     -10.599  74.700 117.933  0.00  0.00     0.381 N 
ATOM     19  H   LIG d   1     -10.333  74.154 118.729  0.00  0.00    -0.090 HD
ATOM     20  H   LIG d   1     -10.843  74.072 117.187  0.00  0.00    -0.090 HD
ATOM     21  H   LIG d   1     -11.380  75.274 118.162  0.00  0.00    -0.090 HD
ENDBRANCH   5  18
BRANCH   3  22
ATOM     22  C   LIG d   1      -8.600  79.044 118.189  0.00  0.00     0.382 C 
ATOM     23  O   LIG d   1      -7.738  79.832 117.730  0.00  0.00    -0.241 OA
ATOM     24  O   LIG d   1      -9.594  79.502 118.784  0.00  0.00    -0.241 OA
ENDBRANCH   3  22
TORSDOF 7
ENDMDL
MODEL 7
REMARK VINA RESULT:      -4.7     17.795     20.759
REMARK  7 active torsions:
REMARK  status: ('A' for Active; 'I' for Inactive)
REMARK    1  A    between atoms: C_2  and  C_3 
REMARK    2  A    between atoms: C_3  and  O_6 
REMARK    3  A    between atoms: C_3  and  C_4 
REMARK    4  A    between atoms: C_7  and  O_6 
REMARK    5  A    between atoms: C_9  and  C_10 
REMARK    6  A    between atoms: N_15  and  C_14 
REMARK    7  A    between atoms: N_20  and  C_19 
REMARK       I    between atoms: C_22  and  N_20 
ROOT
ATOM      1  C   LIG d   1      -0.462  58.184 119.491  0.00  0.00     0.161 C 
ATOM      2  C   LIG d   1       0.569  57.350 119.957  0.00  0.00     0.016 C 
ATOM      3  C   LIG d   1       0.884  56.102 119.372  0.00  0.00     0.038 C 
ATOM      4  C   LIG d   1       0.285  55.669 118.180  0.00  0.00     0.028 C 
ATOM      5  C   LIG d   1      -1.110  56.244 117.960  0.00  0.00    -0.047 C 
ATOM      6  C   LIG d   1      -1.052  57.780 118.124  0.00  0.00     0.091 C 
ENDROOT
BRANCH   1   7
ATOM      7  O   LIG d   1      -0.006  59.551 119.456  0.00  0.00    -0.368 OA
BRANCH   7   8
ATOM      8  C   LIG d   1       1.336  59.788 119.949  0.00  0.00     0.119 C 
BRANCH   8   9
ATOM      9  C   LIG d   1       1.300  61.083 120.783  0.00  0.00     0.028 C 
ATOM     10  C   LIG d   1      -0.098  61.374 121.355  0.00  0.00     0.006 C 
ENDBRANCH   8   9
BRANCH   8  11
ATOM     11  C   LIG d   1       2.309  60.073 118.801  0.00  0.00     0.028 C 
ATOM     12  C   LIG d   1       3.781  60.015 119.239  0.00  0.00     0.006 C 
ENDBRANCH   8  11
ENDBRANCH   7   8
ENDBRANCH   1   7
BRANCH   6  13
ATOM     13  N   LIG d   1      -2.392  58.413 118.008  0.00  0.00    -0.311 N 
ATOM     14  C   LIG d   1      -2.679  59.363 117.119  0.00  0.00     0.210 C 
ATOM     15  C   LIG d   1      -4.115  59.894 117.182  0.00  0.00     0.109 C 
ATOM     16  O   LIG d   1      -1.891  59.793 116.264  0.00  0.00    -0.276 OA
ATOM     17  H   LIG d   1      -3.100  58.101 118.643  0.00  0.00     0.149 HD
ENDBRANCH   6  13
BRANCH   5  18
ATOM     18  N   LIG d   1      -1.560  55.822 116.620  0.00  0.00     0.381 N 
ATOM     19  H   LIG d   1      -2.429  55.332 116.692  0.00  0.00    -0.090 HD
ATOM     20  H   LIG d   1      -0.877  55.197 116.230  0.00  0.00    -0.090 HD
ATOM     21  H   LIG d   1      -1.667  56.618 116.030  0.00  0.00    -0.090 HD
ENDBRANCH   5  18
BRANCH   3  22
ATOM     22  C   LIG d   1       1.781  55.254 120.004  0.00  0.00     0.382 C 
ATOM     23  O   LIG d   1       1.468  54.059 120.220  0.00  0.00    -0.241 OA
ATOM     24  O   LIG d   1       2.882  55.681 120.401  0.00  0.00    -0.241 OA
ENDBRANCH   3  22
TORSDOF 7
ENDMDL
MODEL 8
REMARK VINA RESULT:      -4.7      2.030      3.217
REMARK  7 active torsions:
REMARK  status: ('A' for Active; 'I' for Inactive)
REMARK    1  A    between atoms: C_2  and  C_3 
REMARK    2  A    between atoms: C_3  and  O_6 
REMARK    3  A    between atoms: C_3  and  C_4 
REMARK    4  A    between atoms: C_7  and  O_6 
REMARK    5  A    between atoms: C_9  and  C_10 
REMARK    6  A    between atoms: N_15  and  C_14 
REMARK    7  A    between atoms: N_20  and  C_19 
REMARK       I    between atoms: C_22  and  N_20 
ROOT
ATOM      1  C   LIG d   1      -7.494  78.057 118.139  0.00  0.00     0.161 C 
ATOM      2  C   LIG d   1      -8.290  76.902 118.077  0.00  0.00     0.016 C 
ATOM      3  C   LIG d   1      -9.675  76.895 118.359  0.00  0.00     0.038 C 
ATOM      4  C   LIG d   1     -10.393  78.081 118.577  0.00  0.00     0.028 C 
ATOM      5  C   LIG d   1      -9.540  79.210 119.146  0.00  0.00    -0.047 C 
ATOM      6  C   LIG d   1      -8.280  79.379 118.266  0.00  0.00     0.091 C 
ENDROOT
BRANCH   1   7
ATOM      7  O   LIG d   1      -6.614  78.106 116.998  0.00  0.00    -0.368 OA
BRANCH   7   8
ATOM      8  C   LIG d   1      -5.662  77.020 116.881  0.00  0.00     0.119 C 
BRANCH   8   9
ATOM      9  C   LIG d   1      -4.252  77.642 116.851  0.00  0.00     0.028 C 
ATOM     10  C   LIG d   1      -4.287  79.179 116.885  0.00  0.00     0.006 C 
ENDBRANCH   8   9
BRANCH   8  11
ATOM     11  C   LIG d   1      -5.811  76.290 115.543  0.00  0.00     0.028 C 
ATOM     12  C   LIG d   1      -6.051  74.782 115.710  0.00  0.00     0.006 C 
ENDBRANCH   8  11
ENDBRANCH   7   8
ENDBRANCH   1   7
BRANCH   6  13
ATOM     13  N   LIG d   1      -7.349  80.407 118.801  0.00  0.00    -0.311 N 
ATOM     14  C   LIG d   1      -6.948  81.467 118.102  0.00  0.00     0.210 C 
ATOM     15  C   LIG d   1      -5.972  82.393 118.834  0.00  0.00     0.109 C 
ATOM     16  O   LIG d   1      -7.334  81.746 116.957  0.00  0.00    -0.276 OA
ATOM     17  H   LIG d   1      -7.012  80.275 119.734  0.00  0.00     0.149 HD
ENDBRANCH   6  13
BRANCH   5  18
ATOM     18  N   LIG d   1     -10.379  80.422 119.193  0.00  0.00     0.381 N 
ATOM     19  H   LIG d   1     -10.857  80.469 120.071  0.00  0.00    -0.090 HD
ATOM     20  H   LIG d   1     -11.067  80.370 118.463  0.00  0.00    -0.090 HD
ATOM     21  H   LIG d   1      -9.814  81.233 119.071  0.00  0.00    -0.090 HD
ENDBRANCH   5  18
BRANCH   3  22
ATOM     22  C   LIG d   1     -10.350  75.688 118.465  0.00  0.00     0.382 C 
ATOM     23  O   LIG d   1      -9.712  74.608 118.423  0.00  0.00    -0.241 OA
ATOM     24  O   LIG d   1     -11.592  75.664 118.556  0.00  0.00    -0.241 OA
ENDBRANCH   3  22
TORSDOF 7
ENDMDL
MODEL 9
REMARK VINA RESULT:      -4.5      2.575      3.873
REMARK  7 active torsions:
REMARK  status: ('A' for Active; 'I' for Inactive)
REMARK    1  A    between atoms: C_2  and  C_3 
REMARK    2  A    between atoms: C_3  and  O_6 
REMARK    3  A    between atoms: C_3  and  C_4 
REMARK    4  A    between atoms: C_7  and  O_6 
REMARK    5  A    between atoms: C_9  and  C_10 
REMARK    6  A    between atoms: N_15  and  C_14 
REMARK    7  A    between atoms: N_20  and  C_19 
REMARK       I    between atoms: C_22  and  N_20 
ROOT
ATOM      1  C   LIG d   1      -6.500  76.243 119.139  0.00  0.00     0.161 C 
ATOM      2  C   LIG d   1      -7.436  77.278 118.975  0.00  0.00     0.016 C 
ATOM      3  C   LIG d   1      -7.188  78.437 118.204  0.00  0.00     0.038 C 
ATOM      4  C   LIG d   1      -6.036  78.570 117.415  0.00  0.00     0.028 C 
ATOM      5  C   LIG d   1      -4.844  77.782 117.947  0.00  0.00    -0.047 C 
ATOM      6  C   LIG d   1      -5.280  76.320 118.197  0.00  0.00     0.091 C 
ENDROOT
BRANCH   1   7
ATOM      7  O   LIG d   1      -7.155  74.966 119.008  0.00  0.00    -0.368 OA
BRANCH   7   8
ATOM      8  C   LIG d   1      -7.842  74.728 117.754  0.00  0.00     0.119 C 
BRANCH   8   9
ATOM      9  C   LIG d   1      -9.257  74.220 118.092  0.00  0.00     0.028 C 
ATOM     10  C   LIG d   1     -10.350  75.232 117.709  0.00  0.00     0.006 C 
ENDBRANCH   8   9
BRANCH   8  11
ATOM     11  C   LIG d   1      -7.182  73.594 116.964  0.00  0.00     0.028 C 
ATOM     12  C   LIG d   1      -7.934  72.260 117.094  0.00  0.00     0.006 C 
ENDBRANCH   8  11
ENDBRANCH   7   8
ENDBRANCH   1   7
BRANCH   6  13
ATOM     13  N   LIG d   1      -4.196  75.499 118.797  0.00  0.00    -0.311 N 
ATOM     14  C   LIG d   1      -3.536  74.555 118.129  0.00  0.00     0.210 C 
ATOM     15  C   LIG d   1      -2.470  73.814 118.941  0.00  0.00     0.109 C 
ATOM     16  O   LIG d   1      -3.710  74.283 116.931  0.00  0.00    -0.276 OA
ATOM     17  H   LIG d   1      -3.968  75.675 119.756  0.00  0.00     0.149 HD
ENDBRANCH   6  13
BRANCH   5  18
ATOM     18  N   LIG d   1      -3.755  77.899 116.959  0.00  0.00     0.381 N 
ATOM     19  H   LIG d   1      -3.041  78.505 117.312  0.00  0.00    -0.090 HD
ATOM     20  H   LIG d   1      -4.123  78.304 116.116  0.00  0.00    -0.090 HD
ATOM     21  H   LIG d   1      -3.372  77.000 116.764  0.00  0.00    -0.090 HD
ENDBRANCH   5  18
BRANCH   3  22
ATOM     22  C   LIG d   1      -8.083  79.496 118.248  0.00  0.00     0.382 C 
ATOM     23  O   LIG d   1      -9.069  79.451 119.022  0.00  0.00    -0.241 OA
ATOM     24  O   LIG d   1      -7.940  80.475 117.491  0.00  0.00    -0.241 OA
ENDBRANCH   3  22
TORSDOF 7
ENDMDL
