MODEL 1
REMARK VINA RESULT:      -5.9      0.000      0.000
REMARK  7 active torsions:
REMARK  status: ('A' for Active; 'I' for Inactive)
REMARK    1  A    between atoms: C_2  and  C_3 
REMARK    2  A    between atoms: C_3  and  O_6 
REMARK    3  A    between atoms: C_3  and  C_4 
REMARK    4  A    between atoms: C_7  and  O_6 
REMARK    5  A    between atoms: C_9  and  C_10 
REMARK    6  A    between atoms: N_15  and  C_14 
REMARK    7  A    between atoms: N_20  and  C_19 
REMARK       I    between atoms: C_22  and  N_20 
ROOT
ATOM      1  C   LIG d   1      -7.600  75.632 117.901  0.00  0.00     0.161 C 
ATOM      2  C   LIG d   1      -8.834  76.275 118.095  0.00  0.00     0.016 C 
ATOM      3  C   LIG d   1      -8.971  77.678 118.205  0.00  0.00     0.038 C 
ATOM      4  C   LIG d   1      -7.894  78.548 117.976  0.00  0.00     0.028 C 
ATOM      5  C   LIG d   1      -6.536  77.924 118.278  0.00  0.00    -0.047 C 
ATOM      6  C   LIG d   1      -6.431  76.571 117.539  0.00  0.00     0.091 C 
ENDROOT
BRANCH   1   7
ATOM      7  O   LIG d   1      -7.739  74.597 116.907  0.00  0.00    -0.368 OA
BRANCH   7   8
ATOM      8  C   LIG d   1      -7.832  73.241 117.407  0.00  0.00     0.119 C 
BRANCH   8   9
ATOM      9  C   LIG d   1      -6.827  72.385 116.612  0.00  0.00     0.028 C 
ATOM     10  C   LIG d   1      -6.451  73.022 115.264  0.00  0.00     0.006 C 
ENDBRANCH   8   9
BRANCH   8  11
ATOM     11  C   LIG d   1      -9.206  72.631 117.113  0.00  0.00     0.028 C 
ATOM     12  C   LIG d   1      -9.184  71.095 117.094  0.00  0.00     0.006 C 
ENDBRANCH   8  11
ENDBRANCH   7   8
ENDBRANCH   1   7
BRANCH   6  13
ATOM     13  N   LIG d   1      -5.166  75.854 117.847  0.00  0.00    -0.311 N 
ATOM     14  C   LIG d   1      -4.261  75.533 116.924  0.00  0.00     0.210 C 
ATOM     15  C   LIG d   1      -3.038  74.777 117.452  0.00  0.00     0.109 C 
ATOM     16  O   LIG d   1      -4.340  75.831 115.722  0.00  0.00    -0.276 OA
ATOM     17  H   LIG d   1      -5.006  75.601 118.803  0.00  0.00     0.149 HD
ENDBRANCH   6  13
BRANCH   5  18
ATOM     18  N   LIG d   1      -5.500  78.890 117.866  0.00  0.00     0.381 N 
ATOM     19  H   LIG d   1      -4.769  78.914 118.548  0.00  0.00    -0.090 HD
ATOM     20  H   LIG d   1      -5.912  79.805 117.813  0.00  0.00    -0.090 HD
ATOM     21  H   LIG d   1      -5.128  78.633 116.978  0.00  0.00    -0.090 HD
ENDBRANCH   5  18
BRANCH   3  22
ATOM     22  C   LIG d   1     -10.188  78.222 118.586  0.00  0.00     0.382 C 
ATOM     23  O   LIG d   1     -11.130  77.469 118.932  0.00  0.00    -0.241 OA
ATOM     24  O   LIG d   1     -10.370  79.454 118.546  0.00  0.00    -0.241 OA
ENDBRANCH   3  22
TORSDOF 7
ENDMDL
MODEL 2
REMARK VINA RESULT:      -5.4     14.489     16.292
REMARK  7 active torsions:
REMARK  status: ('A' for Active; 'I' for Inactive)
REMARK    1  A    between atoms: C_2  and  C_3 
REMARK    2  A    between atoms: C_3  and  O_6 
REMARK    3  A    between atoms: C_3  and  C_4 
REMARK    4  A    between atoms: C_7  and  O_6 
REMARK    5  A    between atoms: C_9  and  C_10 
REMARK    6  A    between atoms: N_15  and  C_14 
REMARK    7  A    between atoms: N_20  and  C_19 
REMARK       I    between atoms: C_22  and  N_20 
ROOT
ATOM      1  C   LIG d   1      -4.512  91.085 119.118  0.00  0.00     0.161 C 
ATOM      2  C   LIG d   1      -5.519  90.832 118.171  0.00  0.00     0.016 C 
ATOM      3  C   LIG d   1      -5.282  90.189 116.935  0.00  0.00     0.038 C 
ATOM      4  C   LIG d   1      -4.040  89.615 116.625  0.00  0.00     0.028 C 
ATOM      5  C   LIG d   1      -2.868  90.287 117.332  0.00  0.00    -0.047 C 
ATOM      6  C   LIG d   1      -3.174  90.367 118.845  0.00  0.00     0.091 C 
ENDROOT
BRANCH   1   7
ATOM      7  O   LIG d   1      -4.992  90.765 120.439  0.00  0.00    -0.368 OA
BRANCH   7   8
ATOM      8  C   LIG d   1      -5.261  91.891 121.309  0.00  0.00     0.119 C 
BRANCH   8   9
ATOM      9  C   LIG d   1      -6.788  92.101 121.337  0.00  0.00     0.028 C 
ATOM     10  C   LIG d   1      -7.205  93.458 120.747  0.00  0.00     0.006 C 
ENDBRANCH   8   9
BRANCH   8  11
ATOM     11  C   LIG d   1      -4.684  93.189 120.736  0.00  0.00     0.028 C 
ATOM     12  C   LIG d   1      -3.500  93.728 121.554  0.00  0.00     0.006 C 
ENDBRANCH   8  11
ENDBRANCH   7   8
ENDBRANCH   1   7
BRANCH   6  13
ATOM     13  N   LIG d   1      -2.116  91.087 119.600  0.00  0.00    -0.311 N 
ATOM     14  C   LIG d   1      -1.098  90.474 120.202  0.00  0.00     0.210 C 
ATOM     15  C   LIG d   1      -0.130  91.402 120.943  0.00  0.00     0.109 C 
ATOM     16  O   LIG d   1      -0.888  89.252 120.167  0.00  0.00    -0.276 OA
ATOM     17  H   LIG d   1      -2.191  92.084 119.653  0.00  0.00     0.149 HD
ENDBRANCH   6  13
BRANCH   5  18
ATOM     18  N   LIG d   1      -1.655  89.505 117.027  0.00  0.00     0.381 N 
ATOM     19  H   LIG d   1      -1.902  88.684 116.512  0.00  0.00    -0.090 HD
ATOM     20  H   LIG d   1      -1.228  89.219 117.891  0.00  0.00    -0.090 HD
ATOM     21  H   LIG d   1      -1.016  90.058 116.499  0.00  0.00    -0.090 HD
ENDBRANCH   5  18
BRANCH   3  22
ATOM     22  C   LIG d   1      -6.283  90.150 115.977  0.00  0.00     0.382 C 
ATOM     23  O   LIG d   1      -6.260  90.951 115.012  0.00  0.00    -0.241 OA
ATOM     24  O   LIG d   1      -7.234  89.353 116.089  0.00  0.00    -0.241 OA
ENDBRANCH   3  22
TORSDOF 7
ENDMDL
MODEL 3
REMARK VINA RESULT:      -5.3      1.973      5.151
REMARK  7 active torsions:
REMARK  status: ('A' for Active; 'I' for Inactive)
REMARK    1  A    between atoms: C_2  and  C_3 
REMARK    2  A    between atoms: C_3  and  O_6 
REMARK    3  A    between atoms: C_3  and  C_4 
REMARK    4  A    between atoms: C_7  and  O_6 
REMARK    5  A    between atoms: C_9  and  C_10 
REMARK    6  A    between atoms: N_15  and  C_14 
REMARK    7  A    between atoms: N_20  and  C_19 
REMARK       I    between atoms: C_22  and  N_20 
ROOT
ATOM      1  C   LIG d   1      -7.943  76.015 117.586  0.00  0.00     0.161 C 
ATOM      2  C   LIG d   1      -8.501  74.735 117.430  0.00  0.00     0.016 C 
ATOM      3  C   LIG d   1      -7.739  73.587 117.113  0.00  0.00     0.038 C 
ATOM      4  C   LIG d   1      -6.337  73.614 117.080  0.00  0.00     0.028 C 
ATOM      5  C   LIG d   1      -5.765  74.985 116.734  0.00  0.00    -0.047 C 
ATOM      6  C   LIG d   1      -6.402  76.044 117.663  0.00  0.00     0.091 C 
ENDROOT
BRANCH   1   7
ATOM      7  O   LIG d   1      -8.515  76.659 118.742  0.00  0.00    -0.368 OA
BRANCH   7   8
ATOM      8  C   LIG d   1      -9.459  77.726 118.475  0.00  0.00     0.119 C 
BRANCH   8   9
ATOM      9  C   LIG d   1      -8.948  78.988 119.198  0.00  0.00     0.028 C 
ATOM     10  C   LIG d   1      -8.704  80.159 118.232  0.00  0.00     0.006 C 
ENDBRANCH   8   9
BRANCH   8  11
ATOM     11  C   LIG d   1     -10.826  77.428 119.097  0.00  0.00     0.028 C 
ATOM     12  C   LIG d   1     -10.862  77.687 120.611  0.00  0.00     0.006 C 
ENDBRANCH   8  11
ENDBRANCH   7   8
ENDBRANCH   1   7
BRANCH   6  13
ATOM     13  N   LIG d   1      -5.961  77.425 117.336  0.00  0.00    -0.311 N 
ATOM     14  C   LIG d   1      -5.411  78.249 118.226  0.00  0.00     0.210 C 
ATOM     15  C   LIG d   1      -5.047  79.635 117.685  0.00  0.00     0.109 C 
ATOM     16  O   LIG d   1      -5.160  77.953 119.404  0.00  0.00    -0.276 OA
ATOM     17  H   LIG d   1      -6.099  77.736 116.394  0.00  0.00     0.149 HD
ENDBRANCH   6  13
BRANCH   5  18
ATOM     18  N   LIG d   1      -4.299  74.904 116.870  0.00  0.00     0.381 N 
ATOM     19  H   LIG d   1      -3.978  74.013 116.549  0.00  0.00    -0.090 HD
ATOM     20  H   LIG d   1      -4.057  74.995 117.841  0.00  0.00    -0.090 HD
ATOM     21  H   LIG d   1      -3.867  75.631 116.343  0.00  0.00    -0.090 HD
ENDBRANCH   5  18
BRANCH   3  22
ATOM     22  C   LIG d   1      -8.383  72.404 116.787  0.00  0.00     0.382 C 
ATOM     23  O   LIG d   1      -7.834  71.586 116.009  0.00  0.00    -0.241 OA
ATOM     24  O   LIG d   1      -9.524  72.163 117.224  0.00  0.00    -0.241 OA
ENDBRANCH   3  22
TORSDOF 7
ENDMDL
MODEL 4
REMARK VINA RESULT:      -5.3      1.714      4.707
REMARK  7 active torsions:
REMARK  status: ('A' for Active; 'I' for Inactive)
REMARK    1  A    between atoms: C_2  and  C_3 
REMARK    2  A    between atoms: C_3  and  O_6 
REMARK    3  A    between atoms: C_3  and  C_4 
REMARK    4  A    between atoms: C_7  and  O_6 
REMARK    5  A    between atoms: C_9  and  C_10 
REMARK    6  A    between atoms: N_15  and  C_14 
REMARK    7  A    between atoms: N_20  and  C_19 
REMARK       I    between atoms: C_22  and  N_20 
ROOT
ATOM      1  C   LIG d   1      -7.366  75.569 117.055  0.00  0.00     0.161 C 
ATOM      2  C   LIG d   1      -6.128  75.493 116.397  0.00  0.00     0.016 C 
ATOM      3  C   LIG d   1      -5.132  76.493 116.492  0.00  0.00     0.038 C 
ATOM      4  C   LIG d   1      -5.249  77.573 117.379  0.00  0.00     0.028 C 
ATOM      5  C   LIG d   1      -6.694  77.954 117.683  0.00  0.00    -0.047 C 
ATOM      6  C   LIG d   1      -7.467  76.686 118.115  0.00  0.00     0.091 C 
ENDROOT
BRANCH   1   7
ATOM      7  O   LIG d   1      -7.688  74.292 117.641  0.00  0.00    -0.368 OA
BRANCH   7   8
ATOM      8  C   LIG d   1      -8.094  73.252 116.718  0.00  0.00     0.119 C 
BRANCH   8   9
ATOM      9  C   LIG d   1      -9.377  72.610 117.280  0.00  0.00     0.028 C 
ATOM     10  C   LIG d   1      -9.301  71.074 117.306  0.00  0.00     0.006 C 
ENDBRANCH   8   9
BRANCH   8  11
ATOM     11  C   LIG d   1      -7.063  72.120 116.666  0.00  0.00     0.028 C 
ATOM     12  C   LIG d   1      -6.381  71.998 115.294  0.00  0.00     0.006 C 
ENDBRANCH   8  11
ENDBRANCH   7   8
ENDBRANCH   1   7
BRANCH   6  13
ATOM     13  N   LIG d   1      -8.909  76.955 118.350  0.00  0.00    -0.311 N 
ATOM     14  C   LIG d   1      -9.425  77.187 119.556  0.00  0.00     0.210 C 
ATOM     15  C   LIG d   1     -10.939  77.420 119.578  0.00  0.00     0.109 C 
ATOM     16  O   LIG d   1      -8.767  77.254 120.606  0.00  0.00    -0.276 OA
ATOM     17  H   LIG d   1      -9.511  76.950 117.550  0.00  0.00     0.149 HD
ENDBRANCH   6  13
BRANCH   5  18
ATOM     18  N   LIG d   1      -6.670  78.999 118.724  0.00  0.00     0.381 N 
ATOM     19  H   LIG d   1      -6.845  79.893 118.309  0.00  0.00    -0.090 HD
ATOM     20  H   LIG d   1      -5.758  79.019 119.144  0.00  0.00    -0.090 HD
ATOM     21  H   LIG d   1      -7.359  78.806 119.417  0.00  0.00    -0.090 HD
ENDBRANCH   5  18
BRANCH   3  22
ATOM     22  C   LIG d   1      -4.022  76.438 115.663  0.00  0.00     0.382 C 
ATOM     23  O   LIG d   1      -3.194  75.503 115.786  0.00  0.00    -0.241 OA
ATOM     24  O   LIG d   1      -3.814  77.335 114.825  0.00  0.00    -0.241 OA
ENDBRANCH   3  22
TORSDOF 7
ENDMDL
MODEL 5
REMARK VINA RESULT:      -5.0     14.702     17.282
REMARK  7 active torsions:
REMARK  status: ('A' for Active; 'I' for Inactive)
REMARK    1  A    between atoms: C_2  and  C_3 
REMARK    2  A    between atoms: C_3  and  O_6 
REMARK    3  A    between atoms: C_3  and  C_4 
REMARK    4  A    between atoms: C_7  and  O_6 
REMARK    5  A    between atoms: C_9  and  C_10 
REMARK    6  A    between atoms: N_15  and  C_14 
REMARK    7  A    between atoms: N_20  and  C_19 
REMARK       I    between atoms: C_22  and  N_20 
ROOT
ATOM      1  C   LIG d   1      -0.842  91.291 117.964  0.00  0.00     0.161 C 
ATOM      2  C   LIG d   1       0.091  92.033 118.707  0.00  0.00     0.016 C 
ATOM      3  C   LIG d   1      -0.266  92.878 119.783  0.00  0.00     0.038 C 
ATOM      4  C   LIG d   1      -1.574  92.922 120.289  0.00  0.00     0.028 C 
ATOM      5  C   LIG d   1      -2.637  92.576 119.251  0.00  0.00    -0.047 C 
ATOM      6  C   LIG d   1      -2.259  91.240 118.572  0.00  0.00     0.091 C 
ENDROOT
BRANCH   1   7
ATOM      7  O   LIG d   1      -0.342  89.957 117.745  0.00  0.00    -0.368 OA
BRANCH   7   8
ATOM      8  C   LIG d   1       0.977  89.676 118.274  0.00  0.00     0.119 C 
BRANCH   8   9
ATOM      9  C   LIG d   1       1.850  89.185 117.102  0.00  0.00     0.028 C 
ATOM     10  C   LIG d   1       2.892  90.230 116.669  0.00  0.00     0.006 C 
ENDBRANCH   8   9
BRANCH   8  11
ATOM     11  C   LIG d   1       0.943  88.512 119.269  0.00  0.00     0.028 C 
ATOM     12  C   LIG d   1      -0.480  88.173 119.740  0.00  0.00     0.006 C 
ENDBRANCH   8  11
ENDBRANCH   7   8
ENDBRANCH   1   7
BRANCH   6  13
ATOM     13  N   LIG d   1      -3.202  90.871 117.485  0.00  0.00    -0.311 N 
ATOM     14  C   LIG d   1      -4.262  90.084 117.668  0.00  0.00     0.210 C 
ATOM     15  C   LIG d   1      -5.092  89.813 116.410  0.00  0.00     0.109 C 
ATOM     16  O   LIG d   1      -4.610  89.611 118.760  0.00  0.00    -0.276 OA
ATOM     17  H   LIG d   1      -3.012  91.236 116.572  0.00  0.00     0.149 HD
ENDBRANCH   6  13
BRANCH   5  18
ATOM     18  N   LIG d   1      -3.937  92.525 119.945  0.00  0.00     0.381 N 
ATOM     19  H   LIG d   1      -4.139  93.416 120.353  0.00  0.00    -0.090 HD
ATOM     20  H   LIG d   1      -3.885  91.845 120.683  0.00  0.00    -0.090 HD
ATOM     21  H   LIG d   1      -4.657  92.275 119.303  0.00  0.00    -0.090 HD
ENDBRANCH   5  18
BRANCH   3  22
ATOM     22  C   LIG d   1       0.683  93.722 120.339  0.00  0.00     0.382 C 
ATOM     23  O   LIG d   1       0.359  94.879 120.700  0.00  0.00    -0.241 OA
ATOM     24  O   LIG d   1       1.870  93.357 120.442  0.00  0.00    -0.241 OA
ENDBRANCH   3  22
TORSDOF 7
ENDMDL
MODEL 6
REMARK VINA RESULT:      -5.0      1.923      3.163
REMARK  7 active torsions:
REMARK  status: ('A' for Active; 'I' for Inactive)
REMARK    1  A    between atoms: C_2  and  C_3 
REMARK    2  A    between atoms: C_3  and  O_6 
REMARK    3  A    between atoms: C_3  and  C_4 
REMARK    4  A    between atoms: C_7  and  O_6 
REMARK    5  A    between atoms: C_9  and  C_10 
REMARK    6  A    between atoms: N_15  and  C_14 
REMARK    7  A    between atoms: N_20  and  C_19 
REMARK       I    between atoms: C_22  and  N_20 
ROOT
ATOM      1  C   LIG d   1      -6.445  77.094 117.189  0.00  0.00     0.161 C 
ATOM      2  C   LIG d   1      -7.813  76.807 117.327  0.00  0.00     0.016 C 
ATOM      3  C   LIG d   1      -8.712  77.629 118.046  0.00  0.00     0.038 C 
ATOM      4  C   LIG d   1      -8.330  78.880 118.552  0.00  0.00     0.028 C 
ATOM      5  C   LIG d   1      -6.842  78.975 118.872  0.00  0.00    -0.047 C 
ATOM      6  C   LIG d   1      -6.032  78.511 117.640  0.00  0.00     0.091 C 
ENDROOT
BRANCH   1   7
ATOM      7  O   LIG d   1      -6.031  76.861 115.828  0.00  0.00    -0.368 OA
BRANCH   7   8
ATOM      8  C   LIG d   1      -5.181  75.709 115.609  0.00  0.00     0.119 C 
BRANCH   8   9
ATOM      9  C   LIG d   1      -6.003  74.670 114.821  0.00  0.00     0.028 C 
ATOM     10  C   LIG d   1      -6.523  73.532 115.715  0.00  0.00     0.006 C 
ENDBRANCH   8   9
BRANCH   8  11
ATOM     11  C   LIG d   1      -4.821  75.022 116.929  0.00  0.00     0.028 C 
ATOM     12  C   LIG d   1      -3.315  75.071 117.235  0.00  0.00     0.006 C 
ENDBRANCH   8  11
ENDBRANCH   7   8
ENDBRANCH   1   7
BRANCH   6  13
ATOM     13  N   LIG d   1      -4.569  78.493 117.897  0.00  0.00    -0.311 N 
ATOM     14  C   LIG d   1      -3.696  79.234 117.217  0.00  0.00     0.210 C 
ATOM     15  C   LIG d   1      -2.232  79.049 117.628  0.00  0.00     0.109 C 
ATOM     16  O   LIG d   1      -3.998  80.051 116.334  0.00  0.00    -0.276 OA
ATOM     17  H   LIG d   1      -4.240  77.882 118.618  0.00  0.00     0.149 HD
ENDBRANCH   6  13
BRANCH   5  18
ATOM     18  N   LIG d   1      -6.558  80.370 119.259  0.00  0.00     0.381 N 
ATOM     19  H   LIG d   1      -5.953  80.792 118.583  0.00  0.00    -0.090 HD
ATOM     20  H   LIG d   1      -6.088  80.372 120.147  0.00  0.00    -0.090 HD
ATOM     21  H   LIG d   1      -7.407  80.886 119.323  0.00  0.00    -0.090 HD
ENDBRANCH   5  18
BRANCH   3  22
ATOM     22  C   LIG d   1      -9.999  77.181 118.299  0.00  0.00     0.382 C 
ATOM     23  O   LIG d   1     -10.840  77.953 118.820  0.00  0.00    -0.241 OA
ATOM     24  O   LIG d   1     -10.318  76.002 118.053  0.00  0.00    -0.241 OA
ENDBRANCH   3  22
TORSDOF 7
ENDMDL
MODEL 7
REMARK VINA RESULT:      -4.9      1.634      2.305
REMARK  7 active torsions:
REMARK  status: ('A' for Active; 'I' for Inactive)
REMARK    1  A    between atoms: C_2  and  C_3 
REMARK    2  A    between atoms: C_3  and  O_6 
REMARK    3  A    between atoms: C_3  and  C_4 
REMARK    4  A    between atoms: C_7  and  O_6 
REMARK    5  A    between atoms: C_9  and  C_10 
REMARK    6  A    between atoms: N_15  and  C_14 
REMARK    7  A    between atoms: N_20  and  C_19 
REMARK       I    between atoms: C_22  and  N_20 
ROOT
ATOM      1  C   LIG d   1      -6.300  75.955 118.465  0.00  0.00     0.161 C 
ATOM      2  C   LIG d   1      -7.698  76.060 118.367  0.00  0.00     0.016 C 
ATOM      3  C   LIG d   1      -8.372  77.278 118.124  0.00  0.00     0.038 C 
ATOM      4  C   LIG d   1      -7.681  78.458 117.809  0.00  0.00     0.028 C 
ATOM      5  C   LIG d   1      -6.273  78.509 118.393  0.00  0.00    -0.047 C 
ATOM      6  C   LIG d   1      -5.525  77.211 118.014  0.00  0.00     0.091 C 
ENDROOT
BRANCH   1   7
ATOM      7  O   LIG d   1      -5.845  74.797 117.737  0.00  0.00    -0.368 OA
BRANCH   7   8
ATOM      8  C   LIG d   1      -6.820  74.163 116.873  0.00  0.00     0.119 C 
BRANCH   8   9
ATOM      9  C   LIG d   1      -6.908  72.681 117.283  0.00  0.00     0.028 C 
ATOM     10  C   LIG d   1      -7.909  71.892 116.423  0.00  0.00     0.006 C 
ENDBRANCH   8   9
BRANCH   8  11
ATOM     11  C   LIG d   1      -6.350  74.154 115.415  0.00  0.00     0.028 C 
ATOM     12  C   LIG d   1      -6.268  75.562 114.806  0.00  0.00     0.006 C 
ENDBRANCH   8  11
ENDBRANCH   7   8
ENDBRANCH   1   7
BRANCH   6  13
ATOM     13  N   LIG d   1      -4.168  77.142 118.617  0.00  0.00    -0.311 N 
ATOM     14  C   LIG d   1      -3.064  77.537 117.985  0.00  0.00     0.210 C 
ATOM     15  C   LIG d   1      -1.766  77.361 118.780  0.00  0.00     0.109 C 
ATOM     16  O   LIG d   1      -3.040  78.046 116.854  0.00  0.00    -0.276 OA
ATOM     17  H   LIG d   1      -4.099  76.771 119.544  0.00  0.00     0.149 HD
ENDBRANCH   6  13
BRANCH   5  18
ATOM     18  N   LIG d   1      -5.620  79.726 117.875  0.00  0.00     0.381 N 
ATOM     19  H   LIG d   1      -5.803  80.496 118.486  0.00  0.00    -0.090 HD
ATOM     20  H   LIG d   1      -6.004  79.941 116.972  0.00  0.00    -0.090 HD
ATOM     21  H   LIG d   1      -4.637  79.579 117.800  0.00  0.00    -0.090 HD
ENDBRANCH   5  18
BRANCH   3  22
ATOM     22  C   LIG d   1      -9.753  77.334 118.233  0.00  0.00     0.382 C 
ATOM     23  O   LIG d   1     -10.317  78.420 118.507  0.00  0.00    -0.241 OA
ATOM     24  O   LIG d   1     -10.439  76.302 118.105  0.00  0.00    -0.241 OA
ENDBRANCH   3  22
TORSDOF 7
ENDMDL
MODEL 8
REMARK VINA RESULT:      -4.8      2.549      3.687
REMARK  7 active torsions:
REMARK  status: ('A' for Active; 'I' for Inactive)
REMARK    1  A    between atoms: C_2  and  C_3 
REMARK    2  A    between atoms: C_3  and  O_6 
REMARK    3  A    between atoms: C_3  and  C_4 
REMARK    4  A    between atoms: C_7  and  O_6 
REMARK    5  A    between atoms: C_9  and  C_10 
REMARK    6  A    between atoms: N_15  and  C_14 
REMARK    7  A    between atoms: N_20  and  C_19 
REMARK       I    between atoms: C_22  and  N_20 
ROOT
ATOM      1  C   LIG d   1      -6.557  78.550 117.982  0.00  0.00     0.161 C 
ATOM      2  C   LIG d   1      -7.936  78.436 118.226  0.00  0.00     0.016 C 
ATOM      3  C   LIG d   1      -8.783  79.548 118.436  0.00  0.00     0.038 C 
ATOM      4  C   LIG d   1      -8.333  80.866 118.265  0.00  0.00     0.028 C 
ATOM      5  C   LIG d   1      -6.838  81.033 118.516  0.00  0.00    -0.047 C 
ATOM      6  C   LIG d   1      -6.069  79.983 117.682  0.00  0.00     0.091 C 
ENDROOT
BRANCH   1   7
ATOM      7  O   LIG d   1      -6.174  77.657 116.917  0.00  0.00    -0.368 OA
BRANCH   7   8
ATOM      8  C   LIG d   1      -6.141  76.247 117.248  0.00  0.00     0.119 C 
BRANCH   8   9
ATOM      9  C   LIG d   1      -4.661  75.839 117.389  0.00  0.00     0.028 C 
ATOM     10  C   LIG d   1      -3.736  76.665 116.479  0.00  0.00     0.006 C 
ENDBRANCH   8   9
BRANCH   8  11
ATOM     11  C   LIG d   1      -6.690  75.392 116.102  0.00  0.00     0.028 C 
ATOM     12  C   LIG d   1      -6.781  73.901 116.461  0.00  0.00     0.006 C 
ENDBRANCH   8  11
ENDBRANCH   7   8
ENDBRANCH   1   7
BRANCH   6  13
ATOM     13  N   LIG d   1      -4.605  80.021 117.933  0.00  0.00    -0.311 N 
ATOM     14  C   LIG d   1      -3.745  80.677 117.155  0.00  0.00     0.210 C 
ATOM     15  C   LIG d   1      -2.277  80.571 117.582  0.00  0.00     0.109 C 
ATOM     16  O   LIG d   1      -4.062  81.363 116.172  0.00  0.00    -0.276 OA
ATOM     17  H   LIG d   1      -4.265  79.517 118.728  0.00  0.00     0.149 HD
ENDBRANCH   6  13
BRANCH   5  18
ATOM     18  N   LIG d   1      -6.481  82.421 118.170  0.00  0.00     0.381 N 
ATOM     19  H   LIG d   1      -5.513  82.581 118.368  0.00  0.00    -0.090 HD
ATOM     20  H   LIG d   1      -7.027  83.048 118.734  0.00  0.00    -0.090 HD
ATOM     21  H   LIG d   1      -6.661  82.589 117.204  0.00  0.00    -0.090 HD
ENDBRANCH   5  18
BRANCH   3  22
ATOM     22  C   LIG d   1     -10.088  79.347 118.860  0.00  0.00     0.382 C 
ATOM     23  O   LIG d   1     -10.636  80.183 119.618  0.00  0.00    -0.241 OA
ATOM     24  O   LIG d   1     -10.708  78.318 118.531  0.00  0.00    -0.241 OA
ENDBRANCH   3  22
TORSDOF 7
ENDMDL
MODEL 9
REMARK VINA RESULT:      -4.8      2.198      5.354
REMARK  7 active torsions:
REMARK  status: ('A' for Active; 'I' for Inactive)
REMARK    1  A    between atoms: C_2  and  C_3 
REMARK    2  A    between atoms: C_3  and  O_6 
REMARK    3  A    between atoms: C_3  and  C_4 
REMARK    4  A    between atoms: C_7  and  O_6 
REMARK    5  A    between atoms: C_9  and  C_10 
REMARK    6  A    between atoms: N_15  and  C_14 
REMARK    7  A    between atoms: N_20  and  C_19 
REMARK       I    between atoms: C_22  and  N_20 
ROOT
ATOM      1  C   LIG d   1      -5.259  75.260 116.788  0.00  0.00     0.161 C 
ATOM      2  C   LIG d   1      -5.837  74.020 116.469  0.00  0.00     0.016 C 
ATOM      3  C   LIG d   1      -7.156  73.661 116.829  0.00  0.00     0.038 C 
ATOM      4  C   LIG d   1      -8.045  74.582 117.405  0.00  0.00     0.028 C 
ATOM      5  C   LIG d   1      -7.347  75.680 118.200  0.00  0.00    -0.047 C 
ATOM      6  C   LIG d   1      -6.250  76.318 117.318  0.00  0.00     0.091 C 
ENDROOT
BRANCH   1   7
ATOM      7  O   LIG d   1      -4.542  75.773 115.648  0.00  0.00    -0.368 OA
BRANCH   7   8
ATOM      8  C   LIG d   1      -3.116  75.514 115.623  0.00  0.00     0.119 C 
BRANCH   8   9
ATOM      9  C   LIG d   1      -2.649  75.357 117.083  0.00  0.00     0.028 C 
ATOM     10  C   LIG d   1      -1.272  74.678 117.188  0.00  0.00     0.006 C 
ENDBRANCH   8   9
BRANCH   8  11
ATOM     11  C   LIG d   1      -2.341  76.716 115.076  0.00  0.00     0.028 C 
ATOM     12  C   LIG d   1      -2.777  78.045 115.712  0.00  0.00     0.006 C 
ENDBRANCH   8  11
ENDBRANCH   7   8
ENDBRANCH   1   7
BRANCH   6  13
ATOM     13  N   LIG d   1      -5.462  77.346 118.048  0.00  0.00    -0.311 N 
ATOM     14  C   LIG d   1      -5.733  78.649 117.998  0.00  0.00     0.210 C 
ATOM     15  C   LIG d   1      -4.784  79.538 118.808  0.00  0.00     0.109 C 
ATOM     16  O   LIG d   1      -6.687  79.150 117.385  0.00  0.00    -0.276 OA
ATOM     17  H   LIG d   1      -4.688  77.024 118.595  0.00  0.00     0.149 HD
ENDBRANCH   6  13
BRANCH   5  18
ATOM     18  N   LIG d   1      -8.379  76.644 118.627  0.00  0.00     0.381 N 
ATOM     19  H   LIG d   1      -8.682  76.427 119.556  0.00  0.00    -0.090 HD
ATOM     20  H   LIG d   1      -9.169  76.569 118.012  0.00  0.00    -0.090 HD
ATOM     21  H   LIG d   1      -8.012  77.570 118.599  0.00  0.00    -0.090 HD
ENDBRANCH   5  18
BRANCH   3  22
ATOM     22  C   LIG d   1      -7.586  72.355 116.649  0.00  0.00     0.382 C 
ATOM     23  O   LIG d   1      -7.216  71.706 115.642  0.00  0.00    -0.241 OA
ATOM     24  O   LIG d   1      -8.375  71.833 117.459  0.00  0.00    -0.241 OA
ENDBRANCH   3  22
TORSDOF 7
ENDMDL
