MODEL 1
REMARK VINA RESULT:      -5.7      0.000      0.000
REMARK  7 active torsions:
REMARK  status: ('A' for Active; 'I' for Inactive)
REMARK    1  A    between atoms: C_2  and  C_3 
REMARK    2  A    between atoms: C_3  and  O_6 
REMARK    3  A    between atoms: C_3  and  C_4 
REMARK    4  A    between atoms: C_7  and  O_6 
REMARK    5  A    between atoms: C_9  and  C_10 
REMARK    6  A    between atoms: N_15  and  C_14 
REMARK    7  A    between atoms: N_20  and  C_19 
REMARK       I    between atoms: C_22  and  N_20 
ROOT
ATOM      1  C   LIG d   1      -8.283  75.227 118.121  0.00  0.00     0.161 C 
ATOM      2  C   LIG d   1      -9.379  75.939 118.634  0.00  0.00     0.016 C 
ATOM      3  C   LIG d   1      -9.442  77.352 118.670  0.00  0.00     0.038 C 
ATOM      4  C   LIG d   1      -8.469  78.153 118.054  0.00  0.00     0.028 C 
ATOM      5  C   LIG d   1      -7.100  77.487 117.970  0.00  0.00    -0.047 C 
ATOM      6  C   LIG d   1      -7.262  76.083 117.343  0.00  0.00     0.091 C 
ENDROOT
BRANCH   1   7
ATOM      7  O   LIG d   1      -8.749  74.136 117.303  0.00  0.00    -0.368 OA
BRANCH   7   8
ATOM      8  C   LIG d   1      -9.075  72.909 118.001  0.00  0.00     0.119 C 
BRANCH   8   9
ATOM      9  C   LIG d   1      -8.099  71.823 117.509  0.00  0.00     0.028 C 
ATOM     10  C   LIG d   1      -7.461  72.176 116.155  0.00  0.00     0.006 C 
ENDBRANCH   8   9
BRANCH   8  11
ATOM     11  C   LIG d   1     -10.469  72.404 117.618  0.00  0.00     0.028 C 
ATOM     12  C   LIG d   1     -10.570  70.870 117.623  0.00  0.00     0.006 C 
ENDBRANCH   8  11
ENDBRANCH   7   8
ENDBRANCH   1   7
BRANCH   6  13
ATOM     13  N   LIG d   1      -5.981  75.329 117.302  0.00  0.00    -0.311 N 
ATOM     14  C   LIG d   1      -5.161  75.335 116.253  0.00  0.00     0.210 C 
ATOM     15  C   LIG d   1      -3.903  74.474 116.411  0.00  0.00     0.109 C 
ATOM     16  O   LIG d   1      -5.339  75.997 115.220  0.00  0.00    -0.276 OA
ATOM     17  H   LIG d   1      -5.743  74.790 118.111  0.00  0.00     0.149 HD
ENDBRANCH   6  13
BRANCH   5  18
ATOM     18  N   LIG d   1      -6.220  78.373 117.185  0.00  0.00     0.381 N 
ATOM     19  H   LIG d   1      -6.654  79.267 117.073  0.00  0.00    -0.090 HD
ATOM     20  H   LIG d   1      -6.085  77.972 116.274  0.00  0.00    -0.090 HD
ATOM     21  H   LIG d   1      -5.342  78.476 117.644  0.00  0.00    -0.090 HD
ENDBRANCH   5  18
BRANCH   3  22
ATOM     22  C   LIG d   1     -10.466  77.977 119.364  0.00  0.00     0.382 C 
ATOM     23  O   LIG d   1     -11.624  77.492 119.344  0.00  0.00    -0.241 OA
ATOM     24  O   LIG d   1     -10.258  79.043 119.974  0.00  0.00    -0.241 OA
ENDBRANCH   3  22
TORSDOF 7
ENDMDL
MODEL 2
REMARK VINA RESULT:      -5.1      1.588      2.118
REMARK  7 active torsions:
REMARK  status: ('A' for Active; 'I' for Inactive)
REMARK    1  A    between atoms: C_2  and  C_3 
REMARK    2  A    between atoms: C_3  and  O_6 
REMARK    3  A    between atoms: C_3  and  C_4 
REMARK    4  A    between atoms: C_7  and  O_6 
REMARK    5  A    between atoms: C_9  and  C_10 
REMARK    6  A    between atoms: N_15  and  C_14 
REMARK    7  A    between atoms: N_20  and  C_19 
REMARK       I    between atoms: C_22  and  N_20 
ROOT
ATOM      1  C   LIG d   1      -7.493  76.751 117.802  0.00  0.00     0.161 C 
ATOM      2  C   LIG d   1      -8.738  77.264 118.201  0.00  0.00     0.016 C 
ATOM      3  C   LIG d   1      -8.994  78.645 118.365  0.00  0.00     0.038 C 
ATOM      4  C   LIG d   1      -8.058  79.622 117.993  0.00  0.00     0.028 C 
ATOM      5  C   LIG d   1      -6.615  79.136 118.065  0.00  0.00    -0.047 C 
ATOM      6  C   LIG d   1      -6.494  77.807 117.285  0.00  0.00     0.091 C 
ENDROOT
BRANCH   1   7
ATOM      7  O   LIG d   1      -7.684  75.717 116.817  0.00  0.00    -0.368 OA
BRANCH   7   8
ATOM      8  C   LIG d   1      -7.356  74.369 117.235  0.00  0.00     0.119 C 
BRANCH   8   9
ATOM      9  C   LIG d   1      -6.769  73.635 116.014  0.00  0.00     0.028 C 
ATOM     10  C   LIG d   1      -6.181  74.603 114.974  0.00  0.00     0.006 C 
ENDBRANCH   8   9
BRANCH   8  11
ATOM     11  C   LIG d   1      -8.614  73.582 117.615  0.00  0.00     0.028 C 
ATOM     12  C   LIG d   1      -8.475  72.074 117.354  0.00  0.00     0.006 C 
ENDBRANCH   8  11
ENDBRANCH   7   8
ENDBRANCH   1   7
BRANCH   6  13
ATOM     13  N   LIG d   1      -5.131  77.219 117.375  0.00  0.00    -0.311 N 
ATOM     14  C   LIG d   1      -4.196  77.390 116.443  0.00  0.00     0.210 C 
ATOM     15  C   LIG d   1      -2.867  76.681 116.722  0.00  0.00     0.109 C 
ATOM     16  O   LIG d   1      -4.330  78.089 115.427  0.00  0.00    -0.276 OA
ATOM     17  H   LIG d   1      -4.927  76.663 118.182  0.00  0.00     0.149 HD
ENDBRANCH   6  13
BRANCH   5  18
ATOM     18  N   LIG d   1      -5.757  80.206 117.521  0.00  0.00     0.381 N 
ATOM     19  H   LIG d   1      -5.392  79.928 116.631  0.00  0.00    -0.090 HD
ATOM     20  H   LIG d   1      -4.984  80.353 118.146  0.00  0.00    -0.090 HD
ATOM     21  H   LIG d   1      -6.281  81.047 117.425  0.00  0.00    -0.090 HD
ENDBRANCH   5  18
BRANCH   3  22
ATOM     22  C   LIG d   1     -10.184  79.059 118.945  0.00  0.00     0.382 C 
ATOM     23  O   LIG d   1     -10.411  80.283 119.102  0.00  0.00    -0.241 OA
ATOM     24  O   LIG d   1     -11.012  78.224 119.352  0.00  0.00    -0.241 OA
ENDBRANCH   3  22
TORSDOF 7
ENDMDL
MODEL 3
REMARK VINA RESULT:      -5.1      2.095      5.445
REMARK  7 active torsions:
REMARK  status: ('A' for Active; 'I' for Inactive)
REMARK    1  A    between atoms: C_2  and  C_3 
REMARK    2  A    between atoms: C_3  and  O_6 
REMARK    3  A    between atoms: C_3  and  C_4 
REMARK    4  A    between atoms: C_7  and  O_6 
REMARK    5  A    between atoms: C_9  and  C_10 
REMARK    6  A    between atoms: N_15  and  C_14 
REMARK    7  A    between atoms: N_20  and  C_19 
REMARK       I    between atoms: C_22  and  N_20 
ROOT
ATOM      1  C   LIG d   1      -6.337  74.923 116.708  0.00  0.00     0.161 C 
ATOM      2  C   LIG d   1      -6.896  73.639 116.604  0.00  0.00     0.016 C 
ATOM      3  C   LIG d   1      -8.082  73.250 117.270  0.00  0.00     0.038 C 
ATOM      4  C   LIG d   1      -8.875  74.171 117.969  0.00  0.00     0.028 C 
ATOM      5  C   LIG d   1      -8.087  75.355 118.519  0.00  0.00    -0.047 C 
ATOM      6  C   LIG d   1      -7.248  75.973 117.377  0.00  0.00     0.091 C 
ENDROOT
BRANCH   1   7
ATOM      7  O   LIG d   1      -5.917  75.380 115.408  0.00  0.00    -0.368 OA
BRANCH   7   8
ATOM      8  C   LIG d   1      -4.487  75.440 115.184  0.00  0.00     0.119 C 
BRANCH   8   9
ATOM      9  C   LIG d   1      -3.795  75.141 116.528  0.00  0.00     0.028 C 
ATOM     10  C   LIG d   1      -2.684  74.086 116.395  0.00  0.00     0.006 C 
ENDBRANCH   8   9
BRANCH   8  11
ATOM     11  C   LIG d   1      -4.041  76.855 114.805  0.00  0.00     0.028 C 
ATOM     12  C   LIG d   1      -3.361  77.597 115.967  0.00  0.00     0.006 C 
ENDBRANCH   8  11
ENDBRANCH   7   8
ENDBRANCH   1   7
BRANCH   6  13
ATOM     13  N   LIG d   1      -6.382  77.086 117.848  0.00  0.00    -0.311 N 
ATOM     14  C   LIG d   1      -6.764  78.362 117.850  0.00  0.00     0.210 C 
ATOM     15  C   LIG d   1      -5.710  79.351 118.357  0.00  0.00     0.109 C 
ATOM     16  O   LIG d   1      -7.886  78.765 117.509  0.00  0.00    -0.276 OA
ATOM     17  H   LIG d   1      -5.466  76.845 118.171  0.00  0.00     0.149 HD
ENDBRANCH   6  13
BRANCH   5  18
ATOM     18  N   LIG d   1      -9.055  76.303 119.103  0.00  0.00     0.381 N 
ATOM     19  H   LIG d   1      -9.764  75.800 119.599  0.00  0.00    -0.090 HD
ATOM     20  H   LIG d   1      -9.495  76.817 118.361  0.00  0.00    -0.090 HD
ATOM     21  H   LIG d   1      -8.589  76.930 119.721  0.00  0.00    -0.090 HD
ENDBRANCH   5  18
BRANCH   3  22
ATOM     22  C   LIG d   1      -8.463  71.917 117.273  0.00  0.00     0.382 C 
ATOM     23  O   LIG d   1      -8.562  71.295 118.358  0.00  0.00    -0.241 OA
ATOM     24  O   LIG d   1      -8.665  71.316 116.201  0.00  0.00    -0.241 OA
ENDBRANCH   3  22
TORSDOF 7
ENDMDL
MODEL 4
REMARK VINA RESULT:      -4.9      1.993      5.275
REMARK  7 active torsions:
REMARK  status: ('A' for Active; 'I' for Inactive)
REMARK    1  A    between atoms: C_2  and  C_3 
REMARK    2  A    between atoms: C_3  and  O_6 
REMARK    3  A    between atoms: C_3  and  C_4 
REMARK    4  A    between atoms: C_7  and  O_6 
REMARK    5  A    between atoms: C_9  and  C_10 
REMARK    6  A    between atoms: N_15  and  C_14 
REMARK    7  A    between atoms: N_20  and  C_19 
REMARK       I    between atoms: C_22  and  N_20 
ROOT
ATOM      1  C   LIG d   1      -6.159  75.606 116.436  0.00  0.00     0.161 C 
ATOM      2  C   LIG d   1      -5.062  74.761 116.202  0.00  0.00     0.016 C 
ATOM      3  C   LIG d   1      -3.869  74.806 116.961  0.00  0.00     0.038 C 
ATOM      4  C   LIG d   1      -3.752  75.602 118.110  0.00  0.00     0.028 C 
ATOM      5  C   LIG d   1      -4.645  76.838 118.085  0.00  0.00    -0.047 C 
ATOM      6  C   LIG d   1      -6.092  76.404 117.755  0.00  0.00     0.091 C 
ENDROOT
BRANCH   1   7
ATOM      7  O   LIG d   1      -7.383  74.846 116.372  0.00  0.00    -0.368 OA
BRANCH   7   8
ATOM      8  C   LIG d   1      -7.452  73.676 117.223  0.00  0.00     0.119 C 
BRANCH   8   9
ATOM      9  C   LIG d   1      -7.498  72.438 116.306  0.00  0.00     0.028 C 
ATOM     10  C   LIG d   1      -8.505  71.383 116.795  0.00  0.00     0.006 C 
ENDBRANCH   8   9
BRANCH   8  11
ATOM     11  C   LIG d   1      -8.760  73.641 118.018  0.00  0.00     0.028 C 
ATOM     12  C   LIG d   1      -9.558  74.950 117.909  0.00  0.00     0.006 C 
ENDBRANCH   8  11
ENDBRANCH   7   8
ENDBRANCH   1   7
BRANCH   6  13
ATOM     13  N   LIG d   1      -7.016  77.561 117.628  0.00  0.00    -0.311 N 
ATOM     14  C   LIG d   1      -7.740  78.035 118.641  0.00  0.00     0.210 C 
ATOM     15  C   LIG d   1      -8.643  79.222 118.290  0.00  0.00     0.109 C 
ATOM     16  O   LIG d   1      -7.695  77.607 119.804  0.00  0.00    -0.276 OA
ATOM     17  H   LIG d   1      -7.090  77.989 116.726  0.00  0.00     0.149 HD
ENDBRANCH   6  13
BRANCH   5  18
ATOM     18  N   LIG d   1      -4.526  77.500 119.398  0.00  0.00     0.381 N 
ATOM     19  H   LIG d   1      -4.757  76.854 120.126  0.00  0.00    -0.090 HD
ATOM     20  H   LIG d   1      -5.177  78.265 119.436  0.00  0.00    -0.090 HD
ATOM     21  H   LIG d   1      -3.597  77.838 119.526  0.00  0.00    -0.090 HD
ENDBRANCH   5  18
BRANCH   3  22
ATOM     22  C   LIG d   1      -2.764  74.078 116.547  0.00  0.00     0.382 C 
ATOM     23  O   LIG d   1      -2.375  74.150 115.357  0.00  0.00    -0.241 OA
ATOM     24  O   LIG d   1      -2.178  73.316 117.339  0.00  0.00    -0.241 OA
ENDBRANCH   3  22
TORSDOF 7
ENDMDL
MODEL 5
REMARK VINA RESULT:      -4.9      2.055      5.113
REMARK  7 active torsions:
REMARK  status: ('A' for Active; 'I' for Inactive)
REMARK    1  A    between atoms: C_2  and  C_3 
REMARK    2  A    between atoms: C_3  and  O_6 
REMARK    3  A    between atoms: C_3  and  C_4 
REMARK    4  A    between atoms: C_7  and  O_6 
REMARK    5  A    between atoms: C_9  and  C_10 
REMARK    6  A    between atoms: N_15  and  C_14 
REMARK    7  A    between atoms: N_20  and  C_19 
REMARK       I    between atoms: C_22  and  N_20 
ROOT
ATOM      1  C   LIG d   1      -8.383  75.130 118.250  0.00  0.00     0.161 C 
ATOM      2  C   LIG d   1      -9.030  73.884 118.292  0.00  0.00     0.016 C 
ATOM      3  C   LIG d   1      -8.641  72.778 117.501  0.00  0.00     0.038 C 
ATOM      4  C   LIG d   1      -7.476  72.798 116.721  0.00  0.00     0.028 C 
ATOM      5  C   LIG d   1      -7.078  74.197 116.261  0.00  0.00    -0.047 C 
ATOM      6  C   LIG d   1      -7.041  75.136 117.488  0.00  0.00     0.091 C 
ENDROOT
BRANCH   1   7
ATOM      7  O   LIG d   1      -8.200  75.630 119.590  0.00  0.00    -0.368 OA
BRANCH   7   8
ATOM      8  C   LIG d   1      -9.087  76.701 119.996  0.00  0.00     0.119 C 
BRANCH   8   9
ATOM      9  C   LIG d   1      -9.657  77.341 118.716  0.00  0.00     0.028 C 
ATOM     10  C   LIG d   1      -9.214  78.804 118.543  0.00  0.00     0.006 C 
ENDBRANCH   8   9
BRANCH   8  11
ATOM     11  C   LIG d   1      -8.319  77.822 120.703  0.00  0.00     0.028 C 
ATOM     12  C   LIG d   1      -6.932  77.378 121.192  0.00  0.00     0.006 C 
ENDBRANCH   8  11
ENDBRANCH   7   8
ENDBRANCH   1   7
BRANCH   6  13
ATOM     13  N   LIG d   1      -6.743  76.544 117.115  0.00  0.00    -0.311 N 
ATOM     14  C   LIG d   1      -5.721  77.234 117.618  0.00  0.00     0.210 C 
ATOM     15  C   LIG d   1      -5.605  78.677 117.115  0.00  0.00     0.109 C 
ATOM     16  O   LIG d   1      -4.881  76.780 118.409  0.00  0.00    -0.276 OA
ATOM     17  H   LIG d   1      -7.356  76.981 116.455  0.00  0.00     0.149 HD
ENDBRANCH   6  13
BRANCH   5  18
ATOM     18  N   LIG d   1      -5.776  74.088 115.576  0.00  0.00     0.381 N 
ATOM     19  H   LIG d   1      -5.212  73.396 116.029  0.00  0.00    -0.090 HD
ATOM     20  H   LIG d   1      -5.302  74.971 115.638  0.00  0.00    -0.090 HD
ATOM     21  H   LIG d   1      -5.913  73.841 114.621  0.00  0.00    -0.090 HD
ENDBRANCH   5  18
BRANCH   3  22
ATOM     22  C   LIG d   1      -9.445  71.649 117.455  0.00  0.00     0.382 C 
ATOM     23  O   LIG d   1     -10.656  71.729 117.774  0.00  0.00    -0.241 OA
ATOM     24  O   LIG d   1      -8.965  70.544 117.142  0.00  0.00    -0.241 OA
ENDBRANCH   3  22
TORSDOF 7
ENDMDL
MODEL 6
REMARK VINA RESULT:      -4.9      2.122      4.867
REMARK  7 active torsions:
REMARK  status: ('A' for Active; 'I' for Inactive)
REMARK    1  A    between atoms: C_2  and  C_3 
REMARK    2  A    between atoms: C_3  and  O_6 
REMARK    3  A    between atoms: C_3  and  C_4 
REMARK    4  A    between atoms: C_7  and  O_6 
REMARK    5  A    between atoms: C_9  and  C_10 
REMARK    6  A    between atoms: N_15  and  C_14 
REMARK    7  A    between atoms: N_20  and  C_19 
REMARK       I    between atoms: C_22  and  N_20 
ROOT
ATOM      1  C   LIG d   1      -6.982  76.216 117.799  0.00  0.00     0.161 C 
ATOM      2  C   LIG d   1      -7.713  75.023 117.672  0.00  0.00     0.016 C 
ATOM      3  C   LIG d   1      -9.101  74.929 117.927  0.00  0.00     0.038 C 
ATOM      4  C   LIG d   1      -9.886  76.064 118.182  0.00  0.00     0.028 C 
ATOM      5  C   LIG d   1      -9.105  77.211 118.816  0.00  0.00    -0.047 C 
ATOM      6  C   LIG d   1      -7.842  77.486 117.968  0.00  0.00     0.091 C 
ENDROOT
BRANCH   1   7
ATOM      7  O   LIG d   1      -6.088  76.362 116.678  0.00  0.00    -0.368 OA
BRANCH   7   8
ATOM      8  C   LIG d   1      -4.790  75.731 116.812  0.00  0.00     0.119 C 
BRANCH   8   9
ATOM      9  C   LIG d   1      -3.745  76.852 116.973  0.00  0.00     0.028 C 
ATOM     10  C   LIG d   1      -4.130  78.128 116.205  0.00  0.00     0.006 C 
ENDBRANCH   8   9
BRANCH   8  11
ATOM     11  C   LIG d   1      -4.396  74.990 115.532  0.00  0.00     0.028 C 
ATOM     12  C   LIG d   1      -5.602  74.373 114.805  0.00  0.00     0.006 C 
ENDBRANCH   8  11
ENDBRANCH   7   8
ENDBRANCH   1   7
BRANCH   6  13
ATOM     13  N   LIG d   1      -6.978  78.538 118.564  0.00  0.00    -0.311 N 
ATOM     14  C   LIG d   1      -7.049  79.824 118.226  0.00  0.00     0.210 C 
ATOM     15  C   LIG d   1      -6.054  80.739 118.946  0.00  0.00     0.109 C 
ATOM     16  O   LIG d   1      -7.864  80.299 117.421  0.00  0.00    -0.276 OA
ATOM     17  H   LIG d   1      -6.309  78.245 119.249  0.00  0.00     0.149 HD
ENDBRANCH   6  13
BRANCH   5  18
ATOM     18  N   LIG d   1     -10.010  78.373 118.899  0.00  0.00     0.381 N 
ATOM     19  H   LIG d   1     -10.960  78.067 118.838  0.00  0.00    -0.090 HD
ATOM     20  H   LIG d   1      -9.825  78.985 118.124  0.00  0.00    -0.090 HD
ATOM     21  H   LIG d   1      -9.864  78.857 119.757  0.00  0.00    -0.090 HD
ENDBRANCH   5  18
BRANCH   3  22
ATOM     22  C   LIG d   1      -9.710  73.684 117.968  0.00  0.00     0.382 C 
ATOM     23  O   LIG d   1     -10.924  73.570 117.673  0.00  0.00    -0.241 OA
ATOM     24  O   LIG d   1      -9.072  72.681 118.339  0.00  0.00    -0.241 OA
ENDBRANCH   3  22
TORSDOF 7
ENDMDL
MODEL 7
REMARK VINA RESULT:      -4.8     14.686     16.843
REMARK  7 active torsions:
REMARK  status: ('A' for Active; 'I' for Inactive)
REMARK    1  A    between atoms: C_2  and  C_3 
REMARK    2  A    between atoms: C_3  and  O_6 
REMARK    3  A    between atoms: C_3  and  C_4 
REMARK    4  A    between atoms: C_7  and  O_6 
REMARK    5  A    between atoms: C_9  and  C_10 
REMARK    6  A    between atoms: N_15  and  C_14 
REMARK    7  A    between atoms: N_20  and  C_19 
REMARK       I    between atoms: C_22  and  N_20 
ROOT
ATOM      1  C   LIG d   1      -4.090  90.991 117.144  0.00  0.00     0.161 C 
ATOM      2  C   LIG d   1      -3.095  91.886 117.572  0.00  0.00     0.016 C 
ATOM      3  C   LIG d   1      -3.335  92.937 118.487  0.00  0.00     0.038 C 
ATOM      4  C   LIG d   1      -4.561  93.071 119.156  0.00  0.00     0.028 C 
ATOM      5  C   LIG d   1      -5.742  92.499 118.379  0.00  0.00    -0.047 C 
ATOM      6  C   LIG d   1      -5.405  91.053 117.948  0.00  0.00     0.091 C 
ENDROOT
BRANCH   1   7
ATOM      7  O   LIG d   1      -3.568  89.647 117.140  0.00  0.00    -0.368 OA
BRANCH   7   8
ATOM      8  C   LIG d   1      -2.370  89.426 117.923  0.00  0.00     0.119 C 
BRANCH   8   9
ATOM      9  C   LIG d   1      -1.547  88.335 117.212  0.00  0.00     0.028 C 
ATOM     10  C   LIG d   1      -0.829  87.402 118.203  0.00  0.00     0.006 C 
ENDBRANCH   8   9
BRANCH   8  11
ATOM     11  C   LIG d   1      -2.705  88.848 119.302  0.00  0.00     0.028 C 
ATOM     12  C   LIG d   1      -2.389  89.822 120.448  0.00  0.00     0.006 C 
ENDBRANCH   8  11
ENDBRANCH   7   8
ENDBRANCH   1   7
BRANCH   6  13
ATOM     13  N   LIG d   1      -6.473  90.449 117.110  0.00  0.00    -0.311 N 
ATOM     14  C   LIG d   1      -6.725  90.826 115.858  0.00  0.00     0.210 C 
ATOM     15  C   LIG d   1      -7.883  90.087 115.180  0.00  0.00     0.109 C 
ATOM     16  O   LIG d   1      -6.078  91.680 115.233  0.00  0.00    -0.276 OA
ATOM     17  H   LIG d   1      -7.027  89.726 117.528  0.00  0.00     0.149 HD
ENDBRANCH   6  13
BRANCH   5  18
ATOM     18  N   LIG d   1      -6.930  92.581 119.249  0.00  0.00     0.381 N 
ATOM     19  H   LIG d   1      -7.627  91.937 118.933  0.00  0.00    -0.090 HD
ATOM     20  H   LIG d   1      -7.310  93.510 119.194  0.00  0.00    -0.090 HD
ATOM     21  H   LIG d   1      -6.678  92.373 120.191  0.00  0.00    -0.090 HD
ENDBRANCH   5  18
BRANCH   3  22
ATOM     22  C   LIG d   1      -2.355  93.892 118.710  0.00  0.00     0.382 C 
ATOM     23  O   LIG d   1      -1.580  94.223 117.781  0.00  0.00    -0.241 OA
ATOM     24  O   LIG d   1      -2.207  94.393 119.841  0.00  0.00    -0.241 OA
ENDBRANCH   3  22
TORSDOF 7
ENDMDL
MODEL 8
REMARK VINA RESULT:      -4.8      3.834      6.380
REMARK  7 active torsions:
REMARK  status: ('A' for Active; 'I' for Inactive)
REMARK    1  A    between atoms: C_2  and  C_3 
REMARK    2  A    between atoms: C_3  and  O_6 
REMARK    3  A    between atoms: C_3  and  C_4 
REMARK    4  A    between atoms: C_7  and  O_6 
REMARK    5  A    between atoms: C_9  and  C_10 
REMARK    6  A    between atoms: N_15  and  C_14 
REMARK    7  A    between atoms: N_20  and  C_19 
REMARK       I    between atoms: C_22  and  N_20 
ROOT
ATOM      1  C   LIG d   1      -3.686  75.860 117.009  0.00  0.00     0.161 C 
ATOM      2  C   LIG d   1      -3.596  77.129 116.415  0.00  0.00     0.016 C 
ATOM      3  C   LIG d   1      -2.597  77.481 115.478  0.00  0.00     0.038 C 
ATOM      4  C   LIG d   1      -1.706  76.532 114.954  0.00  0.00     0.028 C 
ATOM      5  C   LIG d   1      -1.439  75.365 115.898  0.00  0.00    -0.047 C 
ATOM      6  C   LIG d   1      -2.791  74.780 116.367  0.00  0.00     0.091 C 
ENDROOT
BRANCH   1   7
ATOM      7  O   LIG d   1      -5.061  75.426 117.027  0.00  0.00    -0.368 OA
BRANCH   7   8
ATOM      8  C   LIG d   1      -5.980  76.185 116.205  0.00  0.00     0.119 C 
BRANCH   8   9
ATOM      9  C   LIG d   1      -7.248  76.441 117.043  0.00  0.00     0.028 C 
ATOM     10  C   LIG d   1      -7.206  77.795 117.771  0.00  0.00     0.006 C 
ENDBRANCH   8   9
BRANCH   8  11
ATOM     11  C   LIG d   1      -6.450  75.371 114.996  0.00  0.00     0.028 C 
ATOM     12  C   LIG d   1      -6.383  73.854 115.237  0.00  0.00     0.006 C 
ENDBRANCH   8  11
ENDBRANCH   7   8
ENDBRANCH   1   7
BRANCH   6  13
ATOM     13  N   LIG d   1      -2.621  73.687 117.360  0.00  0.00    -0.311 N 
ATOM     14  C   LIG d   1      -1.948  73.830 118.500  0.00  0.00     0.210 C 
ATOM     15  C   LIG d   1      -1.877  72.573 119.372  0.00  0.00     0.109 C 
ATOM     16  O   LIG d   1      -1.430  74.889 118.887  0.00  0.00    -0.276 OA
ATOM     17  H   LIG d   1      -3.036  72.803 117.140  0.00  0.00     0.149 HD
ENDBRANCH   6  13
BRANCH   5  18
ATOM     18  N   LIG d   1      -0.606  74.387 115.173  0.00  0.00     0.381 N 
ATOM     19  H   LIG d   1       0.362  74.611 115.295  0.00  0.00    -0.090 HD
ATOM     20  H   LIG d   1      -0.821  74.440 114.193  0.00  0.00    -0.090 HD
ATOM     21  H   LIG d   1      -0.787  73.468 115.512  0.00  0.00    -0.090 HD
ENDBRANCH   5  18
BRANCH   3  22
ATOM     22  C   LIG d   1      -2.458  78.803 115.085  0.00  0.00     0.382 C 
ATOM     23  O   LIG d   1      -1.320  79.328 115.044  0.00  0.00    -0.241 OA
ATOM     24  O   LIG d   1      -3.461  79.490 114.813  0.00  0.00    -0.241 OA
ENDBRANCH   3  22
TORSDOF 7
ENDMDL
MODEL 9
REMARK VINA RESULT:      -4.7     15.245     17.561
REMARK  7 active torsions:
REMARK  status: ('A' for Active; 'I' for Inactive)
REMARK    1  A    between atoms: C_2  and  C_3 
REMARK    2  A    between atoms: C_3  and  O_6 
REMARK    3  A    between atoms: C_3  and  C_4 
REMARK    4  A    between atoms: C_7  and  O_6 
REMARK    5  A    between atoms: C_9  and  C_10 
REMARK    6  A    between atoms: N_15  and  C_14 
REMARK    7  A    between atoms: N_20  and  C_19 
REMARK       I    between atoms: C_22  and  N_20 
ROOT
ATOM      1  C   LIG d   1      -4.012  91.385 118.093  0.00  0.00     0.161 C 
ATOM      2  C   LIG d   1      -4.452  90.585 117.025  0.00  0.00     0.016 C 
ATOM      3  C   LIG d   1      -5.693  90.770 116.374  0.00  0.00     0.038 C 
ATOM      4  C   LIG d   1      -6.518  91.871 116.649  0.00  0.00     0.028 C 
ATOM      5  C   LIG d   1      -6.350  92.415 118.064  0.00  0.00    -0.047 C 
ATOM      6  C   LIG d   1      -4.848  92.659 118.333  0.00  0.00     0.091 C 
ENDROOT
BRANCH   1   7
ATOM      7  O   LIG d   1      -2.623  91.723 117.909  0.00  0.00    -0.368 OA
BRANCH   7   8
ATOM      8  C   LIG d   1      -1.672  90.960 118.691  0.00  0.00     0.119 C 
BRANCH   8   9
ATOM      9  C   LIG d   1      -0.813  91.963 119.484  0.00  0.00     0.028 C 
ATOM     10  C   LIG d   1      -0.054  92.938 118.567  0.00  0.00     0.006 C 
ENDBRANCH   8   9
BRANCH   8  11
ATOM     11  C   LIG d   1      -0.689  90.206 117.791  0.00  0.00     0.028 C 
ATOM     12  C   LIG d   1      -1.042  88.718 117.639  0.00  0.00     0.006 C 
ENDBRANCH   8  11
ENDBRANCH   7   8
ENDBRANCH   1   7
BRANCH   6  13
ATOM     13  N   LIG d   1      -4.588  93.112 119.725  0.00  0.00    -0.311 N 
ATOM     14  C   LIG d   1      -3.868  94.192 120.022  0.00  0.00     0.210 C 
ATOM     15  C   LIG d   1      -3.706  94.469 121.520  0.00  0.00     0.109 C 
ATOM     16  O   LIG d   1      -3.376  94.966 119.186  0.00  0.00    -0.276 OA
ATOM     17  H   LIG d   1      -4.976  92.560 120.464  0.00  0.00     0.149 HD
ENDBRANCH   6  13
BRANCH   5  18
ATOM     18  N   LIG d   1      -7.164  93.641 118.170  0.00  0.00     0.381 N 
ATOM     19  H   LIG d   1      -6.572  94.424 118.365  0.00  0.00    -0.090 HD
ATOM     20  H   LIG d   1      -7.812  93.537 118.931  0.00  0.00    -0.090 HD
ATOM     21  H   LIG d   1      -7.660  93.795 117.320  0.00  0.00    -0.090 HD
ENDBRANCH   5  18
BRANCH   3  22
ATOM     22  C   LIG d   1      -6.139  89.825 115.463  0.00  0.00     0.382 C 
ATOM     23  O   LIG d   1      -7.369  89.616 115.327  0.00  0.00    -0.241 OA
ATOM     24  O   LIG d   1      -5.326  89.147 114.806  0.00  0.00    -0.241 OA
ENDBRANCH   3  22
TORSDOF 7
ENDMDL
