MODEL 1
REMARK VINA RESULT:      -5.7      0.000      0.000
REMARK  7 active torsions:
REMARK  status: ('A' for Active; 'I' for Inactive)
REMARK    1  A    between atoms: C_2  and  C_3 
REMARK    2  A    between atoms: C_3  and  O_6 
REMARK    3  A    between atoms: C_3  and  C_4 
REMARK    4  A    between atoms: C_7  and  O_6 
REMARK    5  A    between atoms: C_9  and  C_10 
REMARK    6  A    between atoms: N_15  and  C_14 
REMARK    7  A    between atoms: N_20  and  C_19 
REMARK       I    between atoms: C_22  and  N_20 
ROOT
ATOM      1  C   LIG d   1       0.372  59.137 119.224  0.00  0.00     0.161 C 
ATOM      2  C   LIG d   1      -0.981  58.777 119.111  0.00  0.00     0.016 C 
ATOM      3  C   LIG d   1      -1.683  58.765 117.883  0.00  0.00     0.038 C 
ATOM      4  C   LIG d   1      -1.033  58.967 116.656  0.00  0.00     0.028 C 
ATOM      5  C   LIG d   1       0.220  59.828 116.769  0.00  0.00    -0.047 C 
ATOM      6  C   LIG d   1       1.125  59.253 117.883  0.00  0.00     0.091 C 
ENDROOT
BRANCH   1   7
ATOM      7  O   LIG d   1       1.050  58.216 120.101  0.00  0.00    -0.368 OA
BRANCH   7   8
ATOM      8  C   LIG d   1       0.594  56.842 120.058  0.00  0.00     0.119 C 
BRANCH   8   9
ATOM      9  C   LIG d   1       0.824  56.234 121.456  0.00  0.00     0.028 C 
ATOM     10  C   LIG d   1       0.321  54.784 121.555  0.00  0.00     0.006 C 
ENDBRANCH   8   9
BRANCH   8  11
ATOM     11  C   LIG d   1       1.448  56.001 119.105  0.00  0.00     0.028 C 
ATOM     12  C   LIG d   1       0.699  55.612 117.820  0.00  0.00     0.006 C 
ENDBRANCH   8  11
ENDBRANCH   7   8
ENDBRANCH   1   7
BRANCH   6  13
ATOM     13  N   LIG d   1       2.334  60.085 118.116  0.00  0.00    -0.311 N 
ATOM     14  C   LIG d   1       3.559  59.577 118.251  0.00  0.00     0.210 C 
ATOM     15  C   LIG d   1       4.662  60.609 118.505  0.00  0.00     0.109 C 
ATOM     16  O   LIG d   1       3.840  58.374 118.151  0.00  0.00    -0.276 OA
ATOM     17  H   LIG d   1       2.202  61.075 118.179  0.00  0.00     0.149 HD
ENDBRANCH   6  13
BRANCH   5  18
ATOM     18  N   LIG d   1       0.871  59.843 115.445  0.00  0.00     0.381 N 
ATOM     19  H   LIG d   1       1.865  59.806 115.556  0.00  0.00    -0.090 HD
ATOM     20  H   LIG d   1       0.638  60.702 114.978  0.00  0.00    -0.090 HD
ATOM     21  H   LIG d   1       0.560  59.067 114.904  0.00  0.00    -0.090 HD
ENDBRANCH   5  18
BRANCH   3  22
ATOM     22  C   LIG d   1      -3.058  58.587 117.879  0.00  0.00     0.382 C 
ATOM     23  O   LIG d   1      -3.808  59.506 117.470  0.00  0.00    -0.241 OA
ATOM     24  O   LIG d   1      -3.560  57.537 118.321  0.00  0.00    -0.241 OA
ENDBRANCH   3  22
TORSDOF 7
ENDMDL
MODEL 2
REMARK VINA RESULT:      -5.4     33.369     34.981
REMARK  7 active torsions:
REMARK  status: ('A' for Active; 'I' for Inactive)
REMARK    1  A    between atoms: C_2  and  C_3 
REMARK    2  A    between atoms: C_3  and  O_6 
REMARK    3  A    between atoms: C_3  and  C_4 
REMARK    4  A    between atoms: C_7  and  O_6 
REMARK    5  A    between atoms: C_9  and  C_10 
REMARK    6  A    between atoms: N_15  and  C_14 
REMARK    7  A    between atoms: N_20  and  C_19 
REMARK       I    between atoms: C_22  and  N_20 
ROOT
ATOM      1  C   LIG d   1      -5.790  91.805 118.671  0.00  0.00     0.161 C 
ATOM      2  C   LIG d   1      -5.672  90.864 117.635  0.00  0.00     0.016 C 
ATOM      3  C   LIG d   1      -6.181  91.072 116.332  0.00  0.00     0.038 C 
ATOM      4  C   LIG d   1      -6.714  92.306 115.933  0.00  0.00     0.028 C 
ATOM      5  C   LIG d   1      -7.310  93.109 117.084  0.00  0.00    -0.047 C 
ATOM      6  C   LIG d   1      -6.270  93.202 118.223  0.00  0.00     0.091 C 
ENDROOT
BRANCH   1   7
ATOM      7  O   LIG d   1      -4.541  91.909 119.382  0.00  0.00    -0.368 OA
BRANCH   7   8
ATOM      8  C   LIG d   1      -3.588  92.866 118.860  0.00  0.00     0.119 C 
BRANCH   8   9
ATOM      9  C   LIG d   1      -2.359  92.076 118.368  0.00  0.00     0.028 C 
ATOM     10  C   LIG d   1      -2.158  90.763 119.143  0.00  0.00     0.006 C 
ENDBRANCH   8   9
BRANCH   8  11
ATOM     11  C   LIG d   1      -3.061  93.788 119.965  0.00  0.00     0.028 C 
ATOM     12  C   LIG d   1      -3.685  93.489 121.337  0.00  0.00     0.006 C 
ENDBRANCH   8  11
ENDBRANCH   7   8
ENDBRANCH   1   7
BRANCH   6  13
ATOM     13  N   LIG d   1      -6.803  93.900 119.423  0.00  0.00    -0.311 N 
ATOM     14  C   LIG d   1      -6.596  95.191 119.672  0.00  0.00     0.210 C 
ATOM     15  C   LIG d   1      -7.217  95.707 120.973  0.00  0.00     0.109 C 
ATOM     16  O   LIG d   1      -5.984  95.967 118.922  0.00  0.00    -0.276 OA
ATOM     17  H   LIG d   1      -7.338  93.352 120.068  0.00  0.00     0.149 HD
ENDBRANCH   6  13
BRANCH   5  18
ATOM     18  N   LIG d   1      -7.703  94.427 116.551  0.00  0.00     0.381 N 
ATOM     19  H   LIG d   1      -7.698  94.404 115.551  0.00  0.00    -0.090 HD
ATOM     20  H   LIG d   1      -7.034  95.113 116.854  0.00  0.00    -0.090 HD
ATOM     21  H   LIG d   1      -8.612  94.671 116.880  0.00  0.00    -0.090 HD
ENDBRANCH   5  18
BRANCH   3  22
ATOM     22  C   LIG d   1      -6.196  90.023 115.425  0.00  0.00     0.382 C 
ATOM     23  O   LIG d   1      -7.251  89.745 114.805  0.00  0.00    -0.241 OA
ATOM     24  O   LIG d   1      -5.179  89.324 115.251  0.00  0.00    -0.241 OA
ENDBRANCH   3  22
TORSDOF 7
ENDMDL
MODEL 3
REMARK VINA RESULT:      -5.3      2.542      4.657
REMARK  7 active torsions:
REMARK  status: ('A' for Active; 'I' for Inactive)
REMARK    1  A    between atoms: C_2  and  C_3 
REMARK    2  A    between atoms: C_3  and  O_6 
REMARK    3  A    between atoms: C_3  and  C_4 
REMARK    4  A    between atoms: C_7  and  O_6 
REMARK    5  A    between atoms: C_9  and  C_10 
REMARK    6  A    between atoms: N_15  and  C_14 
REMARK    7  A    between atoms: N_20  and  C_19 
REMARK       I    between atoms: C_22  and  N_20 
ROOT
ATOM      1  C   LIG d   1       1.636  58.603 118.861  0.00  0.00     0.161 C 
ATOM      2  C   LIG d   1       1.175  59.399 117.800  0.00  0.00     0.016 C 
ATOM      3  C   LIG d   1       0.168  58.985 116.897  0.00  0.00     0.038 C 
ATOM      4  C   LIG d   1      -0.556  57.799 117.088  0.00  0.00     0.028 C 
ATOM      5  C   LIG d   1       0.219  56.731 117.852  0.00  0.00    -0.047 C 
ATOM      6  C   LIG d   1       0.780  57.352 119.152  0.00  0.00     0.091 C 
ENDROOT
BRANCH   1   7
ATOM      7  O   LIG d   1       1.771  59.405 120.051  0.00  0.00    -0.368 OA
BRANCH   7   8
ATOM      8  C   LIG d   1       1.833  60.839 119.849  0.00  0.00     0.119 C 
BRANCH   8   9
ATOM      9  C   LIG d   1       3.212  61.316 120.343  0.00  0.00     0.028 C 
ATOM     10  C   LIG d   1       4.308  61.147 119.277  0.00  0.00     0.006 C 
ENDBRANCH   8   9
BRANCH   8  11
ATOM     11  C   LIG d   1       0.813  61.569 120.728  0.00  0.00     0.028 C 
ATOM     12  C   LIG d   1      -0.518  60.810 120.853  0.00  0.00     0.006 C 
ENDBRANCH   8  11
ENDBRANCH   7   8
ENDBRANCH   1   7
BRANCH   6  13
ATOM     13  N   LIG d   1       1.623  56.398 119.918  0.00  0.00    -0.311 N 
ATOM     14  C   LIG d   1       1.147  55.606 120.877  0.00  0.00     0.210 C 
ATOM     15  C   LIG d   1       2.191  54.712 121.555  0.00  0.00     0.109 C 
ATOM     16  O   LIG d   1      -0.046  55.536 121.209  0.00  0.00    -0.276 OA
ATOM     17  H   LIG d   1       2.598  56.367 119.691  0.00  0.00     0.149 HD
ENDBRANCH   6  13
BRANCH   5  18
ATOM     18  N   LIG d   1      -0.700  55.604 118.099  0.00  0.00     0.381 N 
ATOM     19  H   LIG d   1      -0.413  55.107 118.919  0.00  0.00    -0.090 HD
ATOM     20  H   LIG d   1      -0.659  54.974 117.318  0.00  0.00    -0.090 HD
ATOM     21  H   LIG d   1      -1.630  55.942 118.215  0.00  0.00    -0.090 HD
ENDBRANCH   5  18
BRANCH   3  22
ATOM     22  C   LIG d   1      -0.095  59.743 115.766  0.00  0.00     0.382 C 
ATOM     23  O   LIG d   1      -1.183  60.358 115.663  0.00  0.00    -0.241 OA
ATOM     24  O   LIG d   1       0.725  59.784 114.829  0.00  0.00    -0.241 OA
ENDBRANCH   3  22
TORSDOF 7
ENDMDL
MODEL 4
REMARK VINA RESULT:      -5.2     20.792     22.823
REMARK  7 active torsions:
REMARK  status: ('A' for Active; 'I' for Inactive)
REMARK    1  A    between atoms: C_2  and  C_3 
REMARK    2  A    between atoms: C_3  and  O_6 
REMARK    3  A    between atoms: C_3  and  C_4 
REMARK    4  A    between atoms: C_7  and  O_6 
REMARK    5  A    between atoms: C_9  and  C_10 
REMARK    6  A    between atoms: N_15  and  C_14 
REMARK    7  A    between atoms: N_20  and  C_19 
REMARK       I    between atoms: C_22  and  N_20 
ROOT
ATOM      1  C   LIG d   1      -7.046  79.412 117.686  0.00  0.00     0.161 C 
ATOM      2  C   LIG d   1      -5.914  79.042 116.941  0.00  0.00     0.016 C 
ATOM      3  C   LIG d   1      -5.582  77.701 116.643  0.00  0.00     0.038 C 
ATOM      4  C   LIG d   1      -6.447  76.639 116.944  0.00  0.00     0.028 C 
ATOM      5  C   LIG d   1      -7.354  76.916 118.138  0.00  0.00    -0.047 C 
ATOM      6  C   LIG d   1      -8.061  78.274 117.927  0.00  0.00     0.091 C 
ENDROOT
BRANCH   1   7
ATOM      7  O   LIG d   1      -7.695  80.538 117.063  0.00  0.00    -0.368 OA
BRANCH   7   8
ATOM      8  C   LIG d   1      -7.643  81.788 117.794  0.00  0.00     0.119 C 
BRANCH   8   9
ATOM      9  C   LIG d   1      -6.817  81.543 119.072  0.00  0.00     0.028 C 
ATOM     10  C   LIG d   1      -7.579  81.937 120.348  0.00  0.00     0.006 C 
ENDBRANCH   8   9
BRANCH   8  11
ATOM     11  C   LIG d   1      -9.033  82.206 118.284  0.00  0.00     0.028 C 
ATOM     12  C   LIG d   1     -10.163  81.693 117.377  0.00  0.00     0.006 C 
ENDBRANCH   8  11
ENDBRANCH   7   8
ENDBRANCH   1   7
BRANCH   6  13
ATOM     13  N   LIG d   1      -8.903  78.661 119.088  0.00  0.00    -0.311 N 
ATOM     14  C   LIG d   1     -10.217  78.448 119.145  0.00  0.00     0.210 C 
ATOM     15  C   LIG d   1     -10.898  78.943 120.425  0.00  0.00     0.109 C 
ATOM     16  O   LIG d   1     -10.877  77.867 118.271  0.00  0.00    -0.276 OA
ATOM     17  H   LIG d   1      -8.443  79.111 119.856  0.00  0.00     0.149 HD
ENDBRANCH   6  13
BRANCH   5  18
ATOM     18  N   LIG d   1      -8.296  75.786 118.254  0.00  0.00     0.381 N 
ATOM     19  H   LIG d   1      -8.486  75.409 117.347  0.00  0.00    -0.090 HD
ATOM     20  H   LIG d   1      -9.159  76.121 118.643  0.00  0.00    -0.090 HD
ATOM     21  H   LIG d   1      -7.910  75.080 118.841  0.00  0.00    -0.090 HD
ENDBRANCH   5  18
BRANCH   3  22
ATOM     22  C   LIG d   1      -4.352  77.408 116.073  0.00  0.00     0.382 C 
ATOM     23  O   LIG d   1      -3.823  78.217 115.273  0.00  0.00    -0.241 OA
ATOM     24  O   LIG d   1      -3.787  76.324 116.313  0.00  0.00    -0.241 OA
ENDBRANCH   3  22
TORSDOF 7
ENDMDL
MODEL 5
REMARK VINA RESULT:      -5.0     33.587     35.359
REMARK  7 active torsions:
REMARK  status: ('A' for Active; 'I' for Inactive)
REMARK    1  A    between atoms: C_2  and  C_3 
REMARK    2  A    between atoms: C_3  and  O_6 
REMARK    3  A    between atoms: C_3  and  C_4 
REMARK    4  A    between atoms: C_7  and  O_6 
REMARK    5  A    between atoms: C_9  and  C_10 
REMARK    6  A    between atoms: N_15  and  C_14 
REMARK    7  A    between atoms: N_20  and  C_19 
REMARK       I    between atoms: C_22  and  N_20 
ROOT
ATOM      1  C   LIG d   1      -6.286  92.720 118.295  0.00  0.00     0.161 C 
ATOM      2  C   LIG d   1      -5.194  93.341 118.924  0.00  0.00     0.016 C 
ATOM      3  C   LIG d   1      -3.872  92.847 118.854  0.00  0.00     0.038 C 
ATOM      4  C   LIG d   1      -3.524  91.774 118.019  0.00  0.00     0.028 C 
ATOM      5  C   LIG d   1      -4.676  90.809 117.763  0.00  0.00    -0.047 C 
ATOM      6  C   LIG d   1      -5.909  91.612 117.290  0.00  0.00     0.091 C 
ENDROOT
BRANCH   1   7
ATOM      7  O   LIG d   1      -7.114  93.714 117.659  0.00  0.00    -0.368 OA
BRANCH   7   8
ATOM      8  C   LIG d   1      -7.877  94.570 118.544  0.00  0.00     0.119 C 
BRANCH   8   9
ATOM      9  C   LIG d   1      -8.957  93.697 119.214  0.00  0.00     0.028 C 
ATOM     10  C   LIG d   1      -8.885  93.750 120.749  0.00  0.00     0.006 C 
ENDBRANCH   8   9
BRANCH   8  11
ATOM     11  C   LIG d   1      -8.647  95.637 117.761  0.00  0.00     0.028 C 
ATOM     12  C   LIG d   1      -8.013  97.032 117.874  0.00  0.00     0.006 C 
ENDBRANCH   8  11
ENDBRANCH   7   8
ENDBRANCH   1   7
BRANCH   6  13
ATOM     13  N   LIG d   1      -7.106  90.753 117.097  0.00  0.00    -0.311 N 
ATOM     14  C   LIG d   1      -7.447  90.223 115.923  0.00  0.00     0.210 C 
ATOM     15  C   LIG d   1      -8.729  89.385 115.941  0.00  0.00     0.109 C 
ATOM     16  O   LIG d   1      -6.792  90.341 114.877  0.00  0.00    -0.276 OA
ATOM     17  H   LIG d   1      -7.677  90.580 117.901  0.00  0.00     0.149 HD
ENDBRANCH   6  13
BRANCH   5  18
ATOM     18  N   LIG d   1      -4.216  89.819 116.771  0.00  0.00     0.381 N 
ATOM     19  H   LIG d   1      -4.977  89.552 116.180  0.00  0.00    -0.090 HD
ATOM     20  H   LIG d   1      -3.891  89.000 117.255  0.00  0.00    -0.090 HD
ATOM     21  H   LIG d   1      -3.478  90.203 116.223  0.00  0.00    -0.090 HD
ENDBRANCH   5  18
BRANCH   3  22
ATOM     22  C   LIG d   1      -2.887  93.403 119.656  0.00  0.00     0.382 C 
ATOM     23  O   LIG d   1      -3.037  94.558 120.124  0.00  0.00    -0.241 OA
ATOM     24  O   LIG d   1      -1.830  92.783 119.881  0.00  0.00    -0.241 OA
ENDBRANCH   3  22
TORSDOF 7
ENDMDL
MODEL 6
REMARK VINA RESULT:      -5.0     34.166     35.816
REMARK  7 active torsions:
REMARK  status: ('A' for Active; 'I' for Inactive)
REMARK    1  A    between atoms: C_2  and  C_3 
REMARK    2  A    between atoms: C_3  and  O_6 
REMARK    3  A    between atoms: C_3  and  C_4 
REMARK    4  A    between atoms: C_7  and  O_6 
REMARK    5  A    between atoms: C_9  and  C_10 
REMARK    6  A    between atoms: N_15  and  C_14 
REMARK    7  A    between atoms: N_20  and  C_19 
REMARK       I    between atoms: C_22  and  N_20 
ROOT
ATOM      1  C   LIG d   1      -6.736  93.411 116.818  0.00  0.00     0.161 C 
ATOM      2  C   LIG d   1      -6.864  92.158 116.197  0.00  0.00     0.016 C 
ATOM      3  C   LIG d   1      -6.000  91.069 116.455  0.00  0.00     0.038 C 
ATOM      4  C   LIG d   1      -5.034  91.114 117.472  0.00  0.00     0.028 C 
ATOM      5  C   LIG d   1      -4.539  92.524 117.775  0.00  0.00    -0.047 C 
ATOM      6  C   LIG d   1      -5.758  93.444 118.012  0.00  0.00     0.091 C 
ENDROOT
BRANCH   1   7
ATOM      7  O   LIG d   1      -8.033  93.892 117.221  0.00  0.00    -0.368 OA
BRANCH   7   8
ATOM      8  C   LIG d   1      -8.114  94.479 118.543  0.00  0.00     0.119 C 
BRANCH   8   9
ATOM      9  C   LIG d   1      -8.954  93.531 119.420  0.00  0.00     0.028 C 
ATOM     10  C   LIG d   1      -8.296  93.254 120.782  0.00  0.00     0.006 C 
ENDBRANCH   8   9
BRANCH   8  11
ATOM     11  C   LIG d   1      -8.887  95.801 118.519  0.00  0.00     0.028 C 
ATOM     12  C   LIG d   1      -8.152  96.907 117.745  0.00  0.00     0.006 C 
ENDBRANCH   8  11
ENDBRANCH   7   8
ENDBRANCH   1   7
BRANCH   6  13
ATOM     13  N   LIG d   1      -5.365  94.860 118.232  0.00  0.00    -0.311 N 
ATOM     14  C   LIG d   1      -5.069  95.361 119.430  0.00  0.00     0.210 C 
ATOM     15  C   LIG d   1      -4.708  96.850 119.438  0.00  0.00     0.109 C 
ATOM     16  O   LIG d   1      -5.040  94.706 120.483  0.00  0.00    -0.276 OA
ATOM     17  H   LIG d   1      -5.332  95.455 117.427  0.00  0.00     0.149 HD
ENDBRANCH   6  13
BRANCH   5  18
ATOM     18  N   LIG d   1      -3.643  92.439 118.944  0.00  0.00     0.381 N 
ATOM     19  H   LIG d   1      -3.969  91.730 119.570  0.00  0.00    -0.090 HD
ATOM     20  H   LIG d   1      -3.657  93.319 119.429  0.00  0.00    -0.090 HD
ATOM     21  H   LIG d   1      -2.715  92.230 118.648  0.00  0.00    -0.090 HD
ENDBRANCH   5  18
BRANCH   3  22
ATOM     22  C   LIG d   1      -6.071  89.933 115.664  0.00  0.00     0.382 C 
ATOM     23  O   LIG d   1      -5.111  89.125 115.640  0.00  0.00    -0.241 OA
ATOM     24  O   LIG d   1      -7.063  89.728 114.940  0.00  0.00    -0.241 OA
ENDBRANCH   3  22
TORSDOF 7
ENDMDL
MODEL 7
REMARK VINA RESULT:      -5.0      2.382      4.147
REMARK  7 active torsions:
REMARK  status: ('A' for Active; 'I' for Inactive)
REMARK    1  A    between atoms: C_2  and  C_3 
REMARK    2  A    between atoms: C_3  and  O_6 
REMARK    3  A    between atoms: C_3  and  C_4 
REMARK    4  A    between atoms: C_7  and  O_6 
REMARK    5  A    between atoms: C_9  and  C_10 
REMARK    6  A    between atoms: N_15  and  C_14 
REMARK    7  A    between atoms: N_20  and  C_19 
REMARK       I    between atoms: C_22  and  N_20 
ROOT
ATOM      1  C   LIG d   1       1.879  58.963 117.974  0.00  0.00     0.161 C 
ATOM      2  C   LIG d   1       0.809  59.788 117.588  0.00  0.00     0.016 C 
ATOM      3  C   LIG d   1      -0.477  59.295 117.269  0.00  0.00     0.038 C 
ATOM      4  C   LIG d   1      -0.824  57.949 117.462  0.00  0.00     0.028 C 
ATOM      5  C   LIG d   1       0.363  56.998 117.368  0.00  0.00    -0.047 C 
ATOM      6  C   LIG d   1       1.489  57.506 118.298  0.00  0.00     0.091 C 
ENDROOT
BRANCH   1   7
ATOM      7  O   LIG d   1       2.574  59.556 119.089  0.00  0.00    -0.368 OA
BRANCH   7   8
ATOM      8  C   LIG d   1       3.916  60.032 118.824  0.00  0.00     0.119 C 
BRANCH   8   9
ATOM      9  C   LIG d   1       4.897  59.040 119.480  0.00  0.00     0.028 C 
ATOM     10  C   LIG d   1       4.421  58.574 120.866  0.00  0.00     0.006 C 
ENDBRANCH   8   9
BRANCH   8  11
ATOM     11  C   LIG d   1       4.177  61.375 119.512  0.00  0.00     0.028 C 
ATOM     12  C   LIG d   1       5.362  62.138 118.898  0.00  0.00     0.006 C 
ENDBRANCH   8  11
ENDBRANCH   7   8
ENDBRANCH   1   7
BRANCH   6  13
ATOM     13  N   LIG d   1       2.720  56.679 118.202  0.00  0.00    -0.311 N 
ATOM     14  C   LIG d   1       3.011  55.697 119.054  0.00  0.00     0.210 C 
ATOM     15  C   LIG d   1       4.340  54.983 118.787  0.00  0.00     0.109 C 
ATOM     16  O   LIG d   1       2.280  55.328 119.985  0.00  0.00    -0.276 OA
ATOM     17  H   LIG d   1       3.354  56.890 117.457  0.00  0.00     0.149 HD
ENDBRANCH   6  13
BRANCH   5  18
ATOM     18  N   LIG d   1      -0.116  55.649 117.725  0.00  0.00     0.381 N 
ATOM     19  H   LIG d   1       0.646  55.002 117.705  0.00  0.00    -0.090 HD
ATOM     20  H   LIG d   1      -0.797  55.356 117.047  0.00  0.00    -0.090 HD
ATOM     21  H   LIG d   1      -0.526  55.662 118.633  0.00  0.00    -0.090 HD
ENDBRANCH   5  18
BRANCH   3  22
ATOM     22  C   LIG d   1      -1.421  60.145 116.712  0.00  0.00     0.382 C 
ATOM     23  O   LIG d   1      -2.067  60.930 117.447  0.00  0.00    -0.241 OA
ATOM     24  O   LIG d   1      -1.665  60.105 115.492  0.00  0.00    -0.241 OA
ENDBRANCH   3  22
TORSDOF 7
ENDMDL
MODEL 8
REMARK VINA RESULT:      -4.8     32.523     34.322
REMARK  7 active torsions:
REMARK  status: ('A' for Active; 'I' for Inactive)
REMARK    1  A    between atoms: C_2  and  C_3 
REMARK    2  A    between atoms: C_3  and  O_6 
REMARK    3  A    between atoms: C_3  and  C_4 
REMARK    4  A    between atoms: C_7  and  O_6 
REMARK    5  A    between atoms: C_9  and  C_10 
REMARK    6  A    between atoms: N_15  and  C_14 
REMARK    7  A    between atoms: N_20  and  C_19 
REMARK       I    between atoms: C_22  and  N_20 
ROOT
ATOM      1  C   LIG d   1      -5.106  91.693 118.660  0.00  0.00     0.161 C 
ATOM      2  C   LIG d   1      -3.966  91.869 119.463  0.00  0.00     0.016 C 
ATOM      3  C   LIG d   1      -2.753  91.174 119.256  0.00  0.00     0.038 C 
ATOM      4  C   LIG d   1      -2.547  90.362 118.131  0.00  0.00     0.028 C 
ATOM      5  C   LIG d   1      -3.833  89.762 117.573  0.00  0.00    -0.047 C 
ATOM      6  C   LIG d   1      -4.864  90.894 117.362  0.00  0.00     0.091 C 
ENDROOT
BRANCH   1   7
ATOM      7  O   LIG d   1      -5.694  92.973 118.359  0.00  0.00    -0.368 OA
BRANCH   7   8
ATOM      8  C   LIG d   1      -6.798  93.382 119.203  0.00  0.00     0.119 C 
BRANCH   8   9
ATOM      9  C   LIG d   1      -7.996  93.685 118.282  0.00  0.00     0.028 C 
ATOM     10  C   LIG d   1      -7.564  94.007 116.842  0.00  0.00     0.006 C 
ENDBRANCH   8   9
BRANCH   8  11
ATOM     11  C   LIG d   1      -6.494  94.701 119.919  0.00  0.00     0.028 C 
ATOM     12  C   LIG d   1      -5.217  95.381 119.399  0.00  0.00     0.006 C 
ENDBRANCH   8  11
ENDBRANCH   7   8
ENDBRANCH   1   7
BRANCH   6  13
ATOM     13  N   LIG d   1      -6.180  90.383 116.898  0.00  0.00    -0.311 N 
ATOM     14  C   LIG d   1      -6.694  90.660 115.701  0.00  0.00     0.210 C 
ATOM     15  C   LIG d   1      -8.072  90.049 115.430  0.00  0.00     0.109 C 
ATOM     16  O   LIG d   1      -6.124  91.329 114.825  0.00  0.00    -0.276 OA
ATOM     17  H   LIG d   1      -6.696  89.806 117.534  0.00  0.00     0.149 HD
ENDBRANCH   6  13
BRANCH   5  18
ATOM     18  N   LIG d   1      -3.490  89.053 116.326  0.00  0.00     0.381 N 
ATOM     19  H   LIG d   1      -2.609  89.379 115.982  0.00  0.00    -0.090 HD
ATOM     20  H   LIG d   1      -4.192  89.253 115.635  0.00  0.00    -0.090 HD
ATOM     21  H   LIG d   1      -3.447  88.072 116.492  0.00  0.00    -0.090 HD
ENDBRANCH   5  18
BRANCH   3  22
ATOM     22  C   LIG d   1      -1.742  91.258 120.202  0.00  0.00     0.382 C 
ATOM     23  O   LIG d   1      -0.715  90.548 120.086  0.00  0.00    -0.241 OA
ATOM     24  O   LIG d   1      -1.865  92.002 121.193  0.00  0.00    -0.241 OA
ENDBRANCH   3  22
TORSDOF 7
ENDMDL
MODEL 9
REMARK VINA RESULT:      -4.8     32.928     34.447
REMARK  7 active torsions:
REMARK  status: ('A' for Active; 'I' for Inactive)
REMARK    1  A    between atoms: C_2  and  C_3 
REMARK    2  A    between atoms: C_3  and  O_6 
REMARK    3  A    between atoms: C_3  and  C_4 
REMARK    4  A    between atoms: C_7  and  O_6 
REMARK    5  A    between atoms: C_9  and  C_10 
REMARK    6  A    between atoms: N_15  and  C_14 
REMARK    7  A    between atoms: N_20  and  C_19 
REMARK       I    between atoms: C_22  and  N_20 
ROOT
ATOM      1  C   LIG d   1      -4.300  93.132 118.308  0.00  0.00     0.161 C 
ATOM      2  C   LIG d   1      -5.378  94.032 118.290  0.00  0.00     0.016 C 
ATOM      3  C   LIG d   1      -6.629  93.737 117.701  0.00  0.00     0.038 C 
ATOM      4  C   LIG d   1      -6.937  92.456 117.219  0.00  0.00     0.028 C 
ATOM      5  C   LIG d   1      -5.713  91.670 116.761  0.00  0.00    -0.047 C 
ATOM      6  C   LIG d   1      -4.654  91.690 117.886  0.00  0.00     0.091 C 
ENDROOT
BRANCH   1   7
ATOM      7  O   LIG d   1      -3.683  93.135 119.611  0.00  0.00    -0.368 OA
BRANCH   7   8
ATOM      8  C   LIG d   1      -4.036  92.037 120.487  0.00  0.00     0.119 C 
BRANCH   8   9
ATOM      9  C   LIG d   1      -5.001  92.588 121.554  0.00  0.00     0.028 C 
ATOM     10  C   LIG d   1      -6.447  92.109 121.341  0.00  0.00     0.006 C 
ENDBRANCH   8   9
BRANCH   8  11
ATOM     11  C   LIG d   1      -2.818  91.530 121.264  0.00  0.00     0.028 C 
ATOM     12  C   LIG d   1      -1.490  91.824 120.549  0.00  0.00     0.006 C 
ENDBRANCH   8  11
ENDBRANCH   7   8
ENDBRANCH   1   7
BRANCH   6  13
ATOM     13  N   LIG d   1      -3.391  91.015 117.488  0.00  0.00    -0.311 N 
ATOM     14  C   LIG d   1      -3.090  89.763 117.828  0.00  0.00     0.210 C 
ATOM     15  C   LIG d   1      -1.729  89.267 117.331  0.00  0.00     0.109 C 
ATOM     16  O   LIG d   1      -3.836  89.005 118.467  0.00  0.00    -0.276 OA
ATOM     17  H   LIG d   1      -2.742  91.547 116.942  0.00  0.00     0.149 HD
ENDBRANCH   6  13
BRANCH   5  18
ATOM     18  N   LIG d   1      -6.162  90.308 116.414  0.00  0.00     0.381 N 
ATOM     19  H   LIG d   1      -5.379  89.757 116.125  0.00  0.00    -0.090 HD
ATOM     20  H   LIG d   1      -6.809  90.365 115.647  0.00  0.00    -0.090 HD
ATOM     21  H   LIG d   1      -6.604  89.884 117.200  0.00  0.00    -0.090 HD
ENDBRANCH   5  18
BRANCH   3  22
ATOM     22  C   LIG d   1      -7.573  94.741 117.553  0.00  0.00     0.382 C 
ATOM     23  O   LIG d   1      -8.667  94.495 116.989  0.00  0.00    -0.241 OA
ATOM     24  O   LIG d   1      -7.328  95.900 117.936  0.00  0.00    -0.241 OA
ENDBRANCH   3  22
TORSDOF 7
ENDMDL
