MODEL 1
REMARK VINA RESULT:      -5.4      0.000      0.000
REMARK  7 active torsions:
REMARK  status: ('A' for Active; 'I' for Inactive)
REMARK    1  A    between atoms: C_2  and  C_3 
REMARK    2  A    between atoms: C_3  and  O_6 
REMARK    3  A    between atoms: C_3  and  C_4 
REMARK    4  A    between atoms: C_7  and  O_6 
REMARK    5  A    between atoms: C_9  and  C_10 
REMARK    6  A    between atoms: N_15  and  C_14 
REMARK    7  A    between atoms: N_20  and  C_19 
REMARK       I    between atoms: C_22  and  N_20 
ROOT
ATOM      1  C   LIG d   1      -4.616  92.861 117.668  0.00  0.00     0.161 C 
ATOM      2  C   LIG d   1      -5.968  93.237 117.604  0.00  0.00     0.016 C 
ATOM      3  C   LIG d   1      -6.926  92.565 116.811  0.00  0.00     0.038 C 
ATOM      4  C   LIG d   1      -6.626  91.370 116.139  0.00  0.00     0.028 C 
ATOM      5  C   LIG d   1      -5.152  91.237 115.769  0.00  0.00    -0.047 C 
ATOM      6  C   LIG d   1      -4.294  91.494 117.028  0.00  0.00     0.091 C 
ENDROOT
BRANCH   1   7
ATOM      7  O   LIG d   1      -4.163  92.893 119.036  0.00  0.00    -0.368 OA
BRANCH   7   8
ATOM      8  C   LIG d   1      -3.240  93.956 119.377  0.00  0.00     0.119 C 
BRANCH   8   9
ATOM      9  C   LIG d   1      -3.993  94.954 120.278  0.00  0.00     0.028 C 
ATOM     10  C   LIG d   1      -4.165  96.330 119.614  0.00  0.00     0.006 C 
ENDBRANCH   8   9
BRANCH   8  11
ATOM     11  C   LIG d   1      -2.831  94.758 118.137  0.00  0.00     0.028 C 
ATOM     12  C   LIG d   1      -1.339  94.613 117.798  0.00  0.00     0.006 C 
ENDBRANCH   8  11
ENDBRANCH   7   8
ENDBRANCH   1   7
BRANCH   6  13
ATOM     13  N   LIG d   1      -2.837  91.466 116.737  0.00  0.00    -0.311 N 
ATOM     14  C   LIG d   1      -1.946  90.849 117.511  0.00  0.00     0.210 C 
ATOM     15  C   LIG d   1      -0.492  90.960 117.039  0.00  0.00     0.109 C 
ATOM     16  O   LIG d   1      -2.224  90.193 118.526  0.00  0.00    -0.276 OA
ATOM     17  H   LIG d   1      -2.527  91.947 115.915  0.00  0.00     0.149 HD
ENDBRANCH   6  13
BRANCH   5  18
ATOM     18  N   LIG d   1      -4.955  89.891 115.199  0.00  0.00     0.381 N 
ATOM     19  H   LIG d   1      -5.634  89.723 114.484  0.00  0.00    -0.090 HD
ATOM     20  H   LIG d   1      -5.086  89.209 115.925  0.00  0.00    -0.090 HD
ATOM     21  H   LIG d   1      -4.037  89.812 114.821  0.00  0.00    -0.090 HD
ENDBRANCH   5  18
BRANCH   3  22
ATOM     22  C   LIG d   1      -8.191  93.110 116.651  0.00  0.00     0.382 C 
ATOM     23  O   LIG d   1      -8.689  93.814 117.562  0.00  0.00    -0.241 OA
ATOM     24  O   LIG d   1      -8.858  92.870 115.627  0.00  0.00    -0.241 OA
ENDBRANCH   3  22
TORSDOF 7
ENDMDL
MODEL 2
REMARK VINA RESULT:      -5.4     16.043     18.541
REMARK  7 active torsions:
REMARK  status: ('A' for Active; 'I' for Inactive)
REMARK    1  A    between atoms: C_2  and  C_3 
REMARK    2  A    between atoms: C_3  and  O_6 
REMARK    3  A    between atoms: C_3  and  C_4 
REMARK    4  A    between atoms: C_7  and  O_6 
REMARK    5  A    between atoms: C_9  and  C_10 
REMARK    6  A    between atoms: N_15  and  C_14 
REMARK    7  A    between atoms: N_20  and  C_19 
REMARK       I    between atoms: C_22  and  N_20 
ROOT
ATOM      1  C   LIG d   1      -6.320  75.118 117.115  0.00  0.00     0.161 C 
ATOM      2  C   LIG d   1      -5.129  74.456 116.773  0.00  0.00     0.016 C 
ATOM      3  C   LIG d   1      -3.844  74.947 117.101  0.00  0.00     0.038 C 
ATOM      4  C   LIG d   1      -3.667  76.064 117.930  0.00  0.00     0.028 C 
ATOM      5  C   LIG d   1      -4.830  77.049 117.876  0.00  0.00    -0.047 C 
ATOM      6  C   LIG d   1      -6.149  76.281 118.115  0.00  0.00     0.091 C 
ENDROOT
BRANCH   1   7
ATOM      7  O   LIG d   1      -7.283  74.168 117.611  0.00  0.00    -0.368 OA
BRANCH   7   8
ATOM      8  C   LIG d   1      -7.990  73.395 116.610  0.00  0.00     0.119 C 
BRANCH   8   9
ATOM      9  C   LIG d   1      -9.492  73.700 116.764  0.00  0.00     0.028 C 
ATOM     10  C   LIG d   1      -9.852  75.122 116.301  0.00  0.00     0.006 C 
ENDBRANCH   8   9
BRANCH   8  11
ATOM     11  C   LIG d   1      -7.853  71.891 116.867  0.00  0.00     0.028 C 
ATOM     12  C   LIG d   1      -9.164  71.125 116.631  0.00  0.00     0.006 C 
ENDBRANCH   8  11
ENDBRANCH   7   8
ENDBRANCH   1   7
BRANCH   6  13
ATOM     13  N   LIG d   1      -7.344  77.156 117.995  0.00  0.00    -0.311 N 
ATOM     14  C   LIG d   1      -7.930  77.743 119.037  0.00  0.00     0.210 C 
ATOM     15  C   LIG d   1      -9.162  78.588 118.695  0.00  0.00     0.109 C 
ATOM     16  O   LIG d   1      -7.528  77.671 120.208  0.00  0.00    -0.276 OA
ATOM     17  H   LIG d   1      -7.718  77.295 117.077  0.00  0.00     0.149 HD
ENDBRANCH   6  13
BRANCH   5  18
ATOM     18  N   LIG d   1      -4.577  78.093 118.888  0.00  0.00     0.381 N 
ATOM     19  H   LIG d   1      -4.647  78.997 118.466  0.00  0.00    -0.090 HD
ATOM     20  H   LIG d   1      -3.643  77.982 119.243  0.00  0.00    -0.090 HD
ATOM     21  H   LIG d   1      -5.235  78.013 119.632  0.00  0.00    -0.090 HD
ENDBRANCH   5  18
BRANCH   3  22
ATOM     22  C   LIG d   1      -2.719  74.340 116.564  0.00  0.00     0.382 C 
ATOM     23  O   LIG d   1      -2.390  74.569 115.375  0.00  0.00    -0.241 OA
ATOM     24  O   LIG d   1      -2.054  73.531 117.239  0.00  0.00    -0.241 OA
ENDBRANCH   3  22
TORSDOF 7
ENDMDL
MODEL 3
REMARK VINA RESULT:      -5.3      1.733      2.378
REMARK  7 active torsions:
REMARK  status: ('A' for Active; 'I' for Inactive)
REMARK    1  A    between atoms: C_2  and  C_3 
REMARK    2  A    between atoms: C_3  and  O_6 
REMARK    3  A    between atoms: C_3  and  C_4 
REMARK    4  A    between atoms: C_7  and  O_6 
REMARK    5  A    between atoms: C_9  and  C_10 
REMARK    6  A    between atoms: N_15  and  C_14 
REMARK    7  A    between atoms: N_20  and  C_19 
REMARK       I    between atoms: C_22  and  N_20 
ROOT
ATOM      1  C   LIG d   1      -5.143  93.918 117.082  0.00  0.00     0.161 C 
ATOM      2  C   LIG d   1      -6.468  93.668 116.687  0.00  0.00     0.016 C 
ATOM      3  C   LIG d   1      -6.922  92.405 116.242  0.00  0.00     0.038 C 
ATOM      4  C   LIG d   1      -6.112  91.261 116.307  0.00  0.00     0.028 C 
ATOM      5  C   LIG d   1      -4.621  91.569 116.222  0.00  0.00    -0.047 C 
ATOM      6  C   LIG d   1      -4.273  92.657 117.264  0.00  0.00     0.091 C 
ENDROOT
BRANCH   1   7
ATOM      7  O   LIG d   1      -5.134  94.711 118.285  0.00  0.00    -0.368 OA
BRANCH   7   8
ATOM      8  C   LIG d   1      -6.417  94.912 118.927  0.00  0.00     0.119 C 
BRANCH   8   9
ATOM      9  C   LIG d   1      -6.561  96.418 119.215  0.00  0.00     0.028 C 
ATOM     10  C   LIG d   1      -6.734  97.248 117.931  0.00  0.00     0.006 C 
ENDBRANCH   8   9
BRANCH   8  11
ATOM     11  C   LIG d   1      -6.468  94.230 120.297  0.00  0.00     0.028 C 
ATOM     12  C   LIG d   1      -5.110  93.652 120.726  0.00  0.00     0.006 C 
ENDBRANCH   8  11
ENDBRANCH   7   8
ENDBRANCH   1   7
BRANCH   6  13
ATOM     13  N   LIG d   1      -2.850  93.078 117.191  0.00  0.00    -0.311 N 
ATOM     14  C   LIG d   1      -1.966  92.846 118.161  0.00  0.00     0.210 C 
ATOM     15  C   LIG d   1      -0.556  93.382 117.892  0.00  0.00     0.109 C 
ATOM     16  O   LIG d   1      -2.208  92.220 119.204  0.00  0.00    -0.276 OA
ATOM     17  H   LIG d   1      -2.560  93.564 116.366  0.00  0.00     0.149 HD
ENDBRANCH   6  13
BRANCH   5  18
ATOM     18  N   LIG d   1      -3.891  90.306 116.440  0.00  0.00     0.381 N 
ATOM     19  H   LIG d   1      -4.372  89.750 117.119  0.00  0.00    -0.090 HD
ATOM     20  H   LIG d   1      -2.975  90.516 116.795  0.00  0.00    -0.090 HD
ATOM     21  H   LIG d   1      -3.816  89.804 115.583  0.00  0.00    -0.090 HD
ENDBRANCH   5  18
BRANCH   3  22
ATOM     22  C   LIG d   1      -8.187  92.285 115.689  0.00  0.00     0.382 C 
ATOM     23  O   LIG d   1      -9.024  93.209 115.833  0.00  0.00    -0.241 OA
ATOM     24  O   LIG d   1      -8.518  91.247 115.086  0.00  0.00    -0.241 OA
ENDBRANCH   3  22
TORSDOF 7
ENDMDL
MODEL 4
REMARK VINA RESULT:      -5.3      2.154      3.846
REMARK  7 active torsions:
REMARK  status: ('A' for Active; 'I' for Inactive)
REMARK    1  A    between atoms: C_2  and  C_3 
REMARK    2  A    between atoms: C_3  and  O_6 
REMARK    3  A    between atoms: C_3  and  C_4 
REMARK    4  A    between atoms: C_7  and  O_6 
REMARK    5  A    between atoms: C_9  and  C_10 
REMARK    6  A    between atoms: N_15  and  C_14 
REMARK    7  A    between atoms: N_20  and  C_19 
REMARK       I    between atoms: C_22  and  N_20 
ROOT
ATOM      1  C   LIG d   1      -4.498  91.925 117.319  0.00  0.00     0.161 C 
ATOM      2  C   LIG d   1      -5.423  91.214 116.536  0.00  0.00     0.016 C 
ATOM      3  C   LIG d   1      -6.584  91.799 115.979  0.00  0.00     0.038 C 
ATOM      4  C   LIG d   1      -6.821  93.181 116.042  0.00  0.00     0.028 C 
ATOM      5  C   LIG d   1      -6.176  93.851 117.251  0.00  0.00    -0.047 C 
ATOM      6  C   LIG d   1      -4.682  93.457 117.305  0.00  0.00     0.091 C 
ENDROOT
BRANCH   1   7
ATOM      7  O   LIG d   1      -3.156  91.578 116.924  0.00  0.00    -0.368 OA
BRANCH   7   8
ATOM      8  C   LIG d   1      -2.554  90.463 117.627  0.00  0.00     0.119 C 
BRANCH   8   9
ATOM      9  C   LIG d   1      -2.936  90.591 119.114  0.00  0.00     0.028 C 
ATOM     10  C   LIG d   1      -3.470  89.272 119.698  0.00  0.00     0.006 C 
ENDBRANCH   8   9
BRANCH   8  11
ATOM     11  C   LIG d   1      -1.025  90.543 117.593  0.00  0.00     0.028 C 
ATOM     12  C   LIG d   1      -0.463  91.609 118.547  0.00  0.00     0.006 C 
ENDBRANCH   8  11
ENDBRANCH   7   8
ENDBRANCH   1   7
BRANCH   6  13
ATOM     13  N   LIG d   1      -3.995  94.002 118.505  0.00  0.00    -0.311 N 
ATOM     14  C   LIG d   1      -2.784  94.553 118.469  0.00  0.00     0.210 C 
ATOM     15  C   LIG d   1      -2.251  95.034 119.823  0.00  0.00     0.109 C 
ATOM     16  O   LIG d   1      -2.112  94.719 117.440  0.00  0.00    -0.276 OA
ATOM     17  H   LIG d   1      -4.482  93.937 119.378  0.00  0.00     0.149 HD
ENDBRANCH   6  13
BRANCH   5  18
ATOM     18  N   LIG d   1      -6.385  95.305 117.118  0.00  0.00     0.381 N 
ATOM     19  H   LIG d   1      -7.065  95.486 116.407  0.00  0.00    -0.090 HD
ATOM     20  H   LIG d   1      -5.519  95.735 116.843  0.00  0.00    -0.090 HD
ATOM     21  H   LIG d   1      -6.692  95.686 117.986  0.00  0.00    -0.090 HD
ENDBRANCH   5  18
BRANCH   3  22
ATOM     22  C   LIG d   1      -7.542  90.993 115.384  0.00  0.00     0.382 C 
ATOM     23  O   LIG d   1      -7.217  89.879 114.908  0.00  0.00    -0.241 OA
ATOM     24  O   LIG d   1      -8.720  91.385 115.278  0.00  0.00    -0.241 OA
ENDBRANCH   3  22
TORSDOF 7
ENDMDL
MODEL 5
REMARK VINA RESULT:      -5.1     13.407     15.326
REMARK  7 active torsions:
REMARK  status: ('A' for Active; 'I' for Inactive)
REMARK    1  A    between atoms: C_2  and  C_3 
REMARK    2  A    between atoms: C_3  and  O_6 
REMARK    3  A    between atoms: C_3  and  C_4 
REMARK    4  A    between atoms: C_7  and  O_6 
REMARK    5  A    between atoms: C_9  and  C_10 
REMARK    6  A    between atoms: N_15  and  C_14 
REMARK    7  A    between atoms: N_20  and  C_19 
REMARK       I    between atoms: C_22  and  N_20 
ROOT
ATOM      1  C   LIG d   1      -6.995  78.029 118.190  0.00  0.00     0.161 C 
ATOM      2  C   LIG d   1      -8.364  78.123 118.491  0.00  0.00     0.016 C 
ATOM      3  C   LIG d   1      -9.026  79.350 118.729  0.00  0.00     0.038 C 
ATOM      4  C   LIG d   1      -8.391  80.585 118.530  0.00  0.00     0.028 C 
ATOM      5  C   LIG d   1      -6.879  80.526 118.718  0.00  0.00    -0.047 C 
ATOM      6  C   LIG d   1      -6.311  79.373 117.860  0.00  0.00     0.091 C 
ENDROOT
BRANCH   1   7
ATOM      7  O   LIG d   1      -6.795  77.088 117.116  0.00  0.00    -0.368 OA
BRANCH   7   8
ATOM      8  C   LIG d   1      -7.526  75.842 117.217  0.00  0.00     0.119 C 
BRANCH   8   9
ATOM      9  C   LIG d   1      -6.493  74.699 117.238  0.00  0.00     0.028 C 
ATOM     10  C   LIG d   1      -7.150  73.315 117.369  0.00  0.00     0.006 C 
ENDBRANCH   8   9
BRANCH   8  11
ATOM     11  C   LIG d   1      -8.379  75.594 115.969  0.00  0.00     0.028 C 
ATOM     12  C   LIG d   1      -9.862  75.356 116.298  0.00  0.00     0.006 C 
ENDBRANCH   8  11
ENDBRANCH   7   8
ENDBRANCH   1   7
BRANCH   6  13
ATOM     13  N   LIG d   1      -4.849  79.191 118.050  0.00  0.00    -0.311 N 
ATOM     14  C   LIG d   1      -3.931  79.797 117.298  0.00  0.00     0.210 C 
ATOM     15  C   LIG d   1      -2.480  79.456 117.649  0.00  0.00     0.109 C 
ATOM     16  O   LIG d   1      -4.181  80.609 116.394  0.00  0.00    -0.276 OA
ATOM     17  H   LIG d   1      -4.557  78.574 118.782  0.00  0.00     0.149 HD
ENDBRANCH   6  13
BRANCH   5  18
ATOM     18  N   LIG d   1      -6.332  81.845 118.347  0.00  0.00     0.381 N 
ATOM     19  H   LIG d   1      -7.036  82.548 118.460  0.00  0.00    -0.090 HD
ATOM     20  H   LIG d   1      -6.060  81.824 117.380  0.00  0.00    -0.090 HD
ATOM     21  H   LIG d   1      -5.544  82.060 118.917  0.00  0.00    -0.090 HD
ENDBRANCH   5  18
BRANCH   3  22
ATOM     22  C   LIG d   1     -10.327  79.348 119.208  0.00  0.00     0.382 C 
ATOM     23  O   LIG d   1     -11.112  78.424 118.885  0.00  0.00    -0.241 OA
ATOM     24  O   LIG d   1     -10.738  80.281 119.923  0.00  0.00    -0.241 OA
ENDBRANCH   3  22
TORSDOF 7
ENDMDL
MODEL 6
REMARK VINA RESULT:      -4.9     15.828     18.379
REMARK  7 active torsions:
REMARK  status: ('A' for Active; 'I' for Inactive)
REMARK    1  A    between atoms: C_2  and  C_3 
REMARK    2  A    between atoms: C_3  and  O_6 
REMARK    3  A    between atoms: C_3  and  C_4 
REMARK    4  A    between atoms: C_7  and  O_6 
REMARK    5  A    between atoms: C_9  and  C_10 
REMARK    6  A    between atoms: N_15  and  C_14 
REMARK    7  A    between atoms: N_20  and  C_19 
REMARK       I    between atoms: C_22  and  N_20 
ROOT
ATOM      1  C   LIG d   1      -4.749  75.697 116.158  0.00  0.00     0.161 C 
ATOM      2  C   LIG d   1      -3.643  74.875 115.883  0.00  0.00     0.016 C 
ATOM      3  C   LIG d   1      -2.567  74.692 116.782  0.00  0.00     0.038 C 
ATOM      4  C   LIG d   1      -2.598  75.202 118.088  0.00  0.00     0.028 C 
ATOM      5  C   LIG d   1      -3.460  76.452 118.230  0.00  0.00    -0.047 C 
ATOM      6  C   LIG d   1      -4.853  76.173 117.622  0.00  0.00     0.091 C 
ENDROOT
BRANCH   1   7
ATOM      7  O   LIG d   1      -5.963  75.030 115.760  0.00  0.00    -0.368 OA
BRANCH   7   8
ATOM      8  C   LIG d   1      -6.591  74.196 116.765  0.00  0.00     0.119 C 
BRANCH   8   9
ATOM      9  C   LIG d   1      -6.481  72.735 116.288  0.00  0.00     0.028 C 
ATOM     10  C   LIG d   1      -7.449  71.800 117.033  0.00  0.00     0.006 C 
ENDBRANCH   8   9
BRANCH   8  11
ATOM     11  C   LIG d   1      -8.093  74.478 116.865  0.00  0.00     0.028 C 
ATOM     12  C   LIG d   1      -8.527  75.693 116.030  0.00  0.00     0.006 C 
ENDBRANCH   8  11
ENDBRANCH   7   8
ENDBRANCH   1   7
BRANCH   6  13
ATOM     13  N   LIG d   1      -5.732  77.371 117.643  0.00  0.00    -0.311 N 
ATOM     14  C   LIG d   1      -6.642  77.595 118.589  0.00  0.00     0.210 C 
ATOM     15  C   LIG d   1      -7.456  78.881 118.411  0.00  0.00     0.109 C 
ATOM     16  O   LIG d   1      -6.832  76.868 119.575  0.00  0.00    -0.276 OA
ATOM     17  H   LIG d   1      -5.623  78.030 116.897  0.00  0.00     0.149 HD
ENDBRANCH   6  13
BRANCH   5  18
ATOM     18  N   LIG d   1      -3.514  76.796 119.664  0.00  0.00     0.381 N 
ATOM     19  H   LIG d   1      -2.962  77.612 119.837  0.00  0.00    -0.090 HD
ATOM     20  H   LIG d   1      -3.127  76.035 120.195  0.00  0.00    -0.090 HD
ATOM     21  H   LIG d   1      -4.457  76.958 119.940  0.00  0.00    -0.090 HD
ENDBRANCH   5  18
BRANCH   3  22
ATOM     22  C   LIG d   1      -1.427  74.024 116.362  0.00  0.00     0.382 C 
ATOM     23  O   LIG d   1      -0.615  73.577 117.208  0.00  0.00    -0.241 OA
ATOM     24  O   LIG d   1      -1.178  73.901 115.148  0.00  0.00    -0.241 OA
ENDBRANCH   3  22
TORSDOF 7
ENDMDL
MODEL 7
REMARK VINA RESULT:      -4.7     13.690     15.778
REMARK  7 active torsions:
REMARK  status: ('A' for Active; 'I' for Inactive)
REMARK    1  A    between atoms: C_2  and  C_3 
REMARK    2  A    between atoms: C_3  and  O_6 
REMARK    3  A    between atoms: C_3  and  C_4 
REMARK    4  A    between atoms: C_7  and  O_6 
REMARK    5  A    between atoms: C_9  and  C_10 
REMARK    6  A    between atoms: N_15  and  C_14 
REMARK    7  A    between atoms: N_20  and  C_19 
REMARK       I    between atoms: C_22  and  N_20 
ROOT
ATOM      1  C   LIG d   1      -5.582  77.715 117.300  0.00  0.00     0.161 C 
ATOM      2  C   LIG d   1      -6.180  78.970 117.503  0.00  0.00     0.016 C 
ATOM      3  C   LIG d   1      -5.448  80.177 117.582  0.00  0.00     0.038 C 
ATOM      4  C   LIG d   1      -4.073  80.229 117.312  0.00  0.00     0.028 C 
ATOM      5  C   LIG d   1      -3.348  78.918 117.601  0.00  0.00    -0.047 C 
ATOM      6  C   LIG d   1      -4.095  77.765 116.892  0.00  0.00     0.091 C 
ENDROOT
BRANCH   1   7
ATOM      7  O   LIG d   1      -6.342  76.962 116.334  0.00  0.00    -0.368 OA
BRANCH   7   8
ATOM      8  C   LIG d   1      -7.421  76.152 116.862  0.00  0.00     0.119 C 
BRANCH   8   9
ATOM      9  C   LIG d   1      -6.827  74.783 117.244  0.00  0.00     0.028 C 
ATOM     10  C   LIG d   1      -6.340  73.992 116.018  0.00  0.00     0.006 C 
ENDBRANCH   8   9
BRANCH   8  11
ATOM     11  C   LIG d   1      -8.471  75.853 115.788  0.00  0.00     0.028 C 
ATOM     12  C   LIG d   1      -9.770  75.275 116.369  0.00  0.00     0.006 C 
ENDBRANCH   8  11
ENDBRANCH   7   8
ENDBRANCH   1   7
BRANCH   6  13
ATOM     13  N   LIG d   1      -3.501  76.436 117.191  0.00  0.00    -0.311 N 
ATOM     14  C   LIG d   1      -3.084  75.591 116.250  0.00  0.00     0.210 C 
ATOM     15  C   LIG d   1      -2.522  74.266 116.775  0.00  0.00     0.109 C 
ATOM     16  O   LIG d   1      -3.096  75.826 115.033  0.00  0.00    -0.276 OA
ATOM     17  H   LIG d   1      -3.425  76.178 118.156  0.00  0.00     0.149 HD
ENDBRANCH   6  13
BRANCH   5  18
ATOM     18  N   LIG d   1      -1.954  79.070 117.145  0.00  0.00     0.381 N 
ATOM     19  H   LIG d   1      -1.556  78.170 116.966  0.00  0.00    -0.090 HD
ATOM     20  H   LIG d   1      -1.420  79.511 117.873  0.00  0.00    -0.090 HD
ATOM     21  H   LIG d   1      -1.923  79.625 116.318  0.00  0.00    -0.090 HD
ENDBRANCH   5  18
BRANCH   3  22
ATOM     22  C   LIG d   1      -6.087  81.343 117.975  0.00  0.00     0.382 C 
ATOM     23  O   LIG d   1      -5.505  82.148 118.742  0.00  0.00    -0.241 OA
ATOM     24  O   LIG d   1      -7.253  81.579 117.609  0.00  0.00    -0.241 OA
ENDBRANCH   3  22
TORSDOF 7
ENDMDL
MODEL 8
REMARK VINA RESULT:      -4.6      1.818      4.978
REMARK  7 active torsions:
REMARK  status: ('A' for Active; 'I' for Inactive)
REMARK    1  A    between atoms: C_2  and  C_3 
REMARK    2  A    between atoms: C_3  and  O_6 
REMARK    3  A    between atoms: C_3  and  C_4 
REMARK    4  A    between atoms: C_7  and  O_6 
REMARK    5  A    between atoms: C_9  and  C_10 
REMARK    6  A    between atoms: N_15  and  C_14 
REMARK    7  A    between atoms: N_20  and  C_19 
REMARK       I    between atoms: C_22  and  N_20 
ROOT
ATOM      1  C   LIG d   1      -4.236  93.319 118.203  0.00  0.00     0.161 C 
ATOM      2  C   LIG d   1      -2.966  93.025 118.726  0.00  0.00     0.016 C 
ATOM      3  C   LIG d   1      -2.207  91.897 118.339  0.00  0.00     0.038 C 
ATOM      4  C   LIG d   1      -2.605  91.062 117.284  0.00  0.00     0.028 C 
ATOM      5  C   LIG d   1      -4.115  91.030 117.074  0.00  0.00    -0.047 C 
ATOM      6  C   LIG d   1      -4.638  92.481 116.971  0.00  0.00     0.091 C 
ENDROOT
BRANCH   1   7
ATOM      7  O   LIG d   1      -4.328  94.725 117.903  0.00  0.00    -0.368 OA
BRANCH   7   8
ATOM      8  C   LIG d   1      -5.202  95.503 118.758  0.00  0.00     0.119 C 
BRANCH   8   9
ATOM      9  C   LIG d   1      -4.310  96.353 119.683  0.00  0.00     0.028 C 
ATOM     10  C   LIG d   1      -3.094  96.940 118.947  0.00  0.00     0.006 C 
ENDBRANCH   8   9
BRANCH   8  11
ATOM     11  C   LIG d   1      -6.014  94.602 119.693  0.00  0.00     0.028 C 
ATOM     12  C   LIG d   1      -7.528  94.706 119.455  0.00  0.00     0.006 C 
ENDBRANCH   8  11
ENDBRANCH   7   8
ENDBRANCH   1   7
BRANCH   6  13
ATOM     13  N   LIG d   1      -6.118  92.542 116.849  0.00  0.00    -0.311 N 
ATOM     14  C   LIG d   1      -6.746  93.083 115.806  0.00  0.00     0.210 C 
ATOM     15  C   LIG d   1      -8.275  93.061 115.889  0.00  0.00     0.109 C 
ATOM     16  O   LIG d   1      -6.181  93.550 114.805  0.00  0.00    -0.276 OA
ATOM     17  H   LIG d   1      -6.655  92.158 117.602  0.00  0.00     0.149 HD
ENDBRANCH   6  13
BRANCH   5  18
ATOM     18  N   LIG d   1      -4.379  90.233 115.861  0.00  0.00     0.381 N 
ATOM     19  H   LIG d   1      -4.006  89.311 115.973  0.00  0.00    -0.090 HD
ATOM     20  H   LIG d   1      -3.919  90.667 115.080  0.00  0.00    -0.090 HD
ATOM     21  H   LIG d   1      -5.360  90.183 115.692  0.00  0.00    -0.090 HD
ENDBRANCH   5  18
BRANCH   3  22
ATOM     22  C   LIG d   1      -1.054  91.572 119.037  0.00  0.00     0.382 C 
ATOM     23  O   LIG d   1      -0.749  92.208 120.075  0.00  0.00    -0.241 OA
ATOM     24  O   LIG d   1      -0.292  90.680 118.618  0.00  0.00    -0.241 OA
ENDBRANCH   3  22
TORSDOF 7
ENDMDL
MODEL 9
REMARK VINA RESULT:      -4.5     33.805     36.272
REMARK  7 active torsions:
REMARK  status: ('A' for Active; 'I' for Inactive)
REMARK    1  A    between atoms: C_2  and  C_3 
REMARK    2  A    between atoms: C_3  and  O_6 
REMARK    3  A    between atoms: C_3  and  C_4 
REMARK    4  A    between atoms: C_7  and  O_6 
REMARK    5  A    between atoms: C_9  and  C_10 
REMARK    6  A    between atoms: N_15  and  C_14 
REMARK    7  A    between atoms: N_20  and  C_19 
REMARK       I    between atoms: C_22  and  N_20 
ROOT
ATOM      1  C   LIG d   1       0.704  56.650 118.762  0.00  0.00     0.161 C 
ATOM      2  C   LIG d   1       1.184  55.627 117.927  0.00  0.00     0.016 C 
ATOM      3  C   LIG d   1       0.636  55.340 116.656  0.00  0.00     0.038 C 
ATOM      4  C   LIG d   1      -0.338  56.160 116.065  0.00  0.00     0.028 C 
ATOM      5  C   LIG d   1      -1.203  56.900 117.080  0.00  0.00    -0.047 C 
ATOM      6  C   LIG d   1      -0.284  57.625 118.089  0.00  0.00     0.091 C 
ENDROOT
BRANCH   1   7
ATOM      7  O   LIG d   1       1.812  57.374 119.334  0.00  0.00    -0.368 OA
BRANCH   7   8
ATOM      8  C   LIG d   1       3.014  57.438 118.529  0.00  0.00     0.119 C 
BRANCH   8   9
ATOM      9  C   LIG d   1       4.193  57.002 119.421  0.00  0.00     0.028 C 
ATOM     10  C   LIG d   1       4.915  55.760 118.873  0.00  0.00     0.006 C 
ENDBRANCH   8   9
BRANCH   8  11
ATOM     11  C   LIG d   1       3.331  58.878 118.114  0.00  0.00     0.028 C 
ATOM     12  C   LIG d   1       3.929  59.710 119.260  0.00  0.00     0.006 C 
ENDBRANCH   8  11
ENDBRANCH   7   8
ENDBRANCH   1   7
BRANCH   6  13
ATOM     13  N   LIG d   1      -1.050  58.305 119.166  0.00  0.00    -0.311 N 
ATOM     14  C   LIG d   1      -1.434  59.579 119.101  0.00  0.00     0.210 C 
ATOM     15  C   LIG d   1      -2.196  60.088 120.329  0.00  0.00     0.109 C 
ATOM     16  O   LIG d   1      -1.244  60.326 118.130  0.00  0.00    -0.276 OA
ATOM     17  H   LIG d   1      -1.274  57.763 119.978  0.00  0.00     0.149 HD
ENDBRANCH   6  13
BRANCH   5  18
ATOM     18  N   LIG d   1      -2.080  57.820 116.332  0.00  0.00     0.381 N 
ATOM     19  H   LIG d   1      -1.586  58.664 116.122  0.00  0.00    -0.090 HD
ATOM     20  H   LIG d   1      -2.872  58.052 116.905  0.00  0.00    -0.090 HD
ATOM     21  H   LIG d   1      -2.386  57.388 115.488  0.00  0.00    -0.090 HD
ENDBRANCH   5  18
BRANCH   3  22
ATOM     22  C   LIG d   1       1.034  54.198 115.977  0.00  0.00     0.382 C 
ATOM     23  O   LIG d   1       0.182  53.487 115.393  0.00  0.00    -0.241 OA
ATOM     24  O   LIG d   1       2.229  53.847 115.980  0.00  0.00    -0.241 OA
ENDBRANCH   3  22
TORSDOF 7
ENDMDL
