MODEL 1
REMARK VINA RESULT:      -5.4      0.000      0.000
REMARK  7 active torsions:
REMARK  status: ('A' for Active; 'I' for Inactive)
REMARK    1  A    between atoms: C_2  and  C_3 
REMARK    2  A    between atoms: C_3  and  O_6 
REMARK    3  A    between atoms: C_3  and  C_4 
REMARK    4  A    between atoms: C_7  and  O_6 
REMARK    5  A    between atoms: C_9  and  C_10 
REMARK    6  A    between atoms: N_15  and  C_14 
REMARK    7  A    between atoms: N_20  and  C_19 
REMARK       I    between atoms: C_22  and  N_20 
ROOT
ATOM      1  C   LIG d   1      -6.016  92.869 117.340  0.00  0.00     0.161 C 
ATOM      2  C   LIG d   1      -7.048  91.999 116.949  0.00  0.00     0.016 C 
ATOM      3  C   LIG d   1      -6.828  90.661 116.548  0.00  0.00     0.038 C 
ATOM      4  C   LIG d   1      -5.568  90.053 116.656  0.00  0.00     0.028 C 
ATOM      5  C   LIG d   1      -4.409  91.039 116.566  0.00  0.00    -0.047 C 
ATOM      6  C   LIG d   1      -4.650  92.189 117.570  0.00  0.00     0.091 C 
ENDROOT
BRANCH   1   7
ATOM      7  O   LIG d   1      -6.415  93.603 118.515  0.00  0.00    -0.368 OA
BRANCH   7   8
ATOM      8  C   LIG d   1      -7.124  94.844 118.280  0.00  0.00     0.119 C 
BRANCH   8   9
ATOM      9  C   LIG d   1      -6.604  95.874 119.302  0.00  0.00     0.028 C 
ATOM     10  C   LIG d   1      -5.147  95.607 119.715  0.00  0.00     0.006 C 
ENDBRANCH   8   9
BRANCH   8  11
ATOM     11  C   LIG d   1      -8.619  94.697 118.578  0.00  0.00     0.028 C 
ATOM     12  C   LIG d   1      -8.894  93.924 119.878  0.00  0.00     0.006 C 
ENDBRANCH   8  11
ENDBRANCH   7   8
ENDBRANCH   1   7
BRANCH   6  13
ATOM     13  N   LIG d   1      -3.605  93.242 117.488  0.00  0.00    -0.311 N 
ATOM     14  C   LIG d   1      -2.521  93.262 118.262  0.00  0.00     0.210 C 
ATOM     15  C   LIG d   1      -1.580  94.448 118.027  0.00  0.00     0.109 C 
ATOM     16  O   LIG d   1      -2.234  92.393 119.099  0.00  0.00    -0.276 OA
ATOM     17  H   LIG d   1      -3.742  93.970 116.814  0.00  0.00     0.149 HD
ENDBRANCH   6  13
BRANCH   5  18
ATOM     18  N   LIG d   1      -3.166  90.291 116.831  0.00  0.00     0.381 N 
ATOM     19  H   LIG d   1      -2.583  90.813 117.455  0.00  0.00    -0.090 HD
ATOM     20  H   LIG d   1      -2.670  90.168 115.966  0.00  0.00    -0.090 HD
ATOM     21  H   LIG d   1      -3.380  89.403 117.229  0.00  0.00    -0.090 HD
ENDBRANCH   5  18
BRANCH   3  22
ATOM     22  C   LIG d   1      -7.867  89.930 115.995  0.00  0.00     0.382 C 
ATOM     23  O   LIG d   1      -8.409  89.011 116.656  0.00  0.00    -0.241 OA
ATOM     24  O   LIG d   1      -8.241  90.147 114.826  0.00  0.00    -0.241 OA
ENDBRANCH   3  22
TORSDOF 7
ENDMDL
MODEL 2
REMARK VINA RESULT:      -5.3      2.019      4.242
REMARK  7 active torsions:
REMARK  status: ('A' for Active; 'I' for Inactive)
REMARK    1  A    between atoms: C_2  and  C_3 
REMARK    2  A    between atoms: C_3  and  O_6 
REMARK    3  A    between atoms: C_3  and  C_4 
REMARK    4  A    between atoms: C_7  and  O_6 
REMARK    5  A    between atoms: C_9  and  C_10 
REMARK    6  A    between atoms: N_15  and  C_14 
REMARK    7  A    between atoms: N_20  and  C_19 
REMARK       I    between atoms: C_22  and  N_20 
ROOT
ATOM      1  C   LIG d   1      -4.973  92.570 117.757  0.00  0.00     0.161 C 
ATOM      2  C   LIG d   1      -5.148  91.524 116.835  0.00  0.00     0.016 C 
ATOM      3  C   LIG d   1      -6.378  91.249 116.195  0.00  0.00     0.038 C 
ATOM      4  C   LIG d   1      -7.486  92.100 116.321  0.00  0.00     0.028 C 
ATOM      5  C   LIG d   1      -7.507  92.878 117.632  0.00  0.00    -0.047 C 
ATOM      6  C   LIG d   1      -6.141  93.577 117.822  0.00  0.00     0.091 C 
ENDROOT
BRANCH   1   7
ATOM      7  O   LIG d   1      -3.735  93.256 117.488  0.00  0.00    -0.368 OA
BRANCH   7   8
ATOM      8  C   LIG d   1      -2.752  93.237 118.553  0.00  0.00     0.119 C 
BRANCH   8   9
ATOM      9  C   LIG d   1      -1.954  94.553 118.470  0.00  0.00     0.028 C 
ATOM     10  C   LIG d   1      -2.545  95.655 119.366  0.00  0.00     0.006 C 
ENDBRANCH   8   9
BRANCH   8  11
ATOM     11  C   LIG d   1      -1.721  92.124 118.340  0.00  0.00     0.028 C 
ATOM     12  C   LIG d   1      -1.921  90.937 119.295  0.00  0.00     0.006 C 
ENDBRANCH   8  11
ENDBRANCH   7   8
ENDBRANCH   1   7
BRANCH   6  13
ATOM     13  N   LIG d   1      -6.046  94.292 119.121  0.00  0.00    -0.311 N 
ATOM     14  C   LIG d   1      -6.365  95.576 119.276  0.00  0.00     0.210 C 
ATOM     15  C   LIG d   1      -6.176  96.123 120.694  0.00  0.00     0.109 C 
ATOM     16  O   LIG d   1      -6.818  96.305 118.381  0.00  0.00    -0.276 OA
ATOM     17  H   LIG d   1      -5.718  93.767 119.908  0.00  0.00     0.149 HD
ENDBRANCH   6  13
BRANCH   5  18
ATOM     18  N   LIG d   1      -8.637  93.825 117.570  0.00  0.00     0.381 N 
ATOM     19  H   LIG d   1      -9.303  93.603 118.283  0.00  0.00    -0.090 HD
ATOM     20  H   LIG d   1      -9.088  93.735 116.677  0.00  0.00    -0.090 HD
ATOM     21  H   LIG d   1      -8.307  94.757 117.692  0.00  0.00    -0.090 HD
ENDBRANCH   5  18
BRANCH   3  22
ATOM     22  C   LIG d   1      -6.520  90.088 115.450  0.00  0.00     0.382 C 
ATOM     23  O   LIG d   1      -7.656  89.577 115.297  0.00  0.00    -0.241 OA
ATOM     24  O   LIG d   1      -5.522  89.521 114.967  0.00  0.00    -0.241 OA
ENDBRANCH   3  22
TORSDOF 7
ENDMDL
MODEL 3
REMARK VINA RESULT:      -5.1      2.173      4.509
REMARK  7 active torsions:
REMARK  status: ('A' for Active; 'I' for Inactive)
REMARK    1  A    between atoms: C_2  and  C_3 
REMARK    2  A    between atoms: C_3  and  O_6 
REMARK    3  A    between atoms: C_3  and  C_4 
REMARK    4  A    between atoms: C_7  and  O_6 
REMARK    5  A    between atoms: C_9  and  C_10 
REMARK    6  A    between atoms: N_15  and  C_14 
REMARK    7  A    between atoms: N_20  and  C_19 
REMARK       I    between atoms: C_22  and  N_20 
ROOT
ATOM      1  C   LIG d   1      -4.581  91.298 117.910  0.00  0.00     0.161 C 
ATOM      2  C   LIG d   1      -5.473  90.501 117.173  0.00  0.00     0.016 C 
ATOM      3  C   LIG d   1      -6.655  91.001 116.580  0.00  0.00     0.038 C 
ATOM      4  C   LIG d   1      -6.950  92.372 116.556  0.00  0.00     0.028 C 
ATOM      5  C   LIG d   1      -6.338  93.144 117.719  0.00  0.00    -0.047 C 
ATOM      6  C   LIG d   1      -4.829  92.817 117.800  0.00  0.00     0.091 C 
ENDROOT
BRANCH   1   7
ATOM      7  O   LIG d   1      -3.224  90.984 117.539  0.00  0.00    -0.368 OA
BRANCH   7   8
ATOM      8  C   LIG d   1      -2.487  90.151 118.467  0.00  0.00     0.119 C 
BRANCH   8   9
ATOM      9  C   LIG d   1      -1.163  90.873 118.785  0.00  0.00     0.028 C 
ATOM     10  C   LIG d   1      -0.392  91.272 117.516  0.00  0.00     0.006 C 
ENDBRANCH   8   9
BRANCH   8  11
ATOM     11  C   LIG d   1      -2.079  88.823 117.821  0.00  0.00     0.028 C 
ATOM     12  C   LIG d   1      -1.414  87.857 118.814  0.00  0.00     0.006 C 
ENDBRANCH   8  11
ENDBRANCH   7   8
ENDBRANCH   1   7
BRANCH   6  13
ATOM     13  N   LIG d   1      -4.169  93.466 118.963  0.00  0.00    -0.311 N 
ATOM     14  C   LIG d   1      -2.977  94.056 118.894  0.00  0.00     0.210 C 
ATOM     15  C   LIG d   1      -2.471  94.645 120.214  0.00  0.00     0.109 C 
ATOM     16  O   LIG d   1      -2.305  94.175 117.859  0.00  0.00    -0.276 OA
ATOM     17  H   LIG d   1      -4.659  93.443 119.836  0.00  0.00     0.149 HD
ENDBRANCH   6  13
BRANCH   5  18
ATOM     18  N   LIG d   1      -6.608  94.577 117.495  0.00  0.00     0.381 N 
ATOM     19  H   LIG d   1      -7.465  94.834 117.942  0.00  0.00    -0.090 HD
ATOM     20  H   LIG d   1      -6.706  94.738 116.508  0.00  0.00    -0.090 HD
ATOM     21  H   LIG d   1      -5.859  95.126 117.856  0.00  0.00    -0.090 HD
ENDBRANCH   5  18
BRANCH   3  22
ATOM     22  C   LIG d   1      -7.578  90.119 116.038  0.00  0.00     0.382 C 
ATOM     23  O   LIG d   1      -8.111  89.245 116.762  0.00  0.00    -0.241 OA
ATOM     24  O   LIG d   1      -7.850  90.158 114.823  0.00  0.00    -0.241 OA
ENDBRANCH   3  22
TORSDOF 7
ENDMDL
MODEL 4
REMARK VINA RESULT:      -5.0      2.127      4.773
REMARK  7 active torsions:
REMARK  status: ('A' for Active; 'I' for Inactive)
REMARK    1  A    between atoms: C_2  and  C_3 
REMARK    2  A    between atoms: C_3  and  O_6 
REMARK    3  A    between atoms: C_3  and  C_4 
REMARK    4  A    between atoms: C_7  and  O_6 
REMARK    5  A    between atoms: C_9  and  C_10 
REMARK    6  A    between atoms: N_15  and  C_14 
REMARK    7  A    between atoms: N_20  and  C_19 
REMARK       I    between atoms: C_22  and  N_20 
ROOT
ATOM      1  C   LIG d   1      -6.402  93.106 117.999  0.00  0.00     0.161 C 
ATOM      2  C   LIG d   1      -7.752  93.355 118.299  0.00  0.00     0.016 C 
ATOM      3  C   LIG d   1      -8.173  94.129 119.405  0.00  0.00     0.038 C 
ATOM      4  C   LIG d   1      -7.263  94.836 120.205  0.00  0.00     0.028 C 
ATOM      5  C   LIG d   1      -5.875  94.207 120.244  0.00  0.00    -0.047 C 
ATOM      6  C   LIG d   1      -5.394  93.961 118.796  0.00  0.00     0.091 C 
ENDROOT
BRANCH   1   7
ATOM      7  O   LIG d   1      -6.179  93.258 116.583  0.00  0.00    -0.368 OA
BRANCH   7   8
ATOM      8  C   LIG d   1      -5.616  92.112 115.900  0.00  0.00     0.119 C 
BRANCH   8   9
ATOM      9  C   LIG d   1      -6.616  91.689 114.805  0.00  0.00     0.028 C 
ATOM     10  C   LIG d   1      -7.517  90.526 115.251  0.00  0.00     0.006 C 
ENDBRANCH   8   9
BRANCH   8  11
ATOM     11  C   LIG d   1      -5.505  90.904 116.835  0.00  0.00     0.028 C 
ATOM     12  C   LIG d   1      -4.128  90.226 116.771  0.00  0.00     0.006 C 
ENDBRANCH   8  11
ENDBRANCH   7   8
ENDBRANCH   1   7
BRANCH   6  13
ATOM     13  N   LIG d   1      -4.079  93.270 118.745  0.00  0.00    -0.311 N 
ATOM     14  C   LIG d   1      -2.913  93.913 118.717  0.00  0.00     0.210 C 
ATOM     15  C   LIG d   1      -1.678  93.010 118.645  0.00  0.00     0.109 C 
ATOM     16  O   LIG d   1      -2.784  95.145 118.776  0.00  0.00    -0.276 OA
ATOM     17  H   LIG d   1      -4.090  92.269 118.725  0.00  0.00     0.149 HD
ENDBRANCH   6  13
BRANCH   5  18
ATOM     18  N   LIG d   1      -4.994  95.118 120.999  0.00  0.00     0.381 N 
ATOM     19  H   LIG d   1      -4.574  94.627 121.763  0.00  0.00    -0.090 HD
ATOM     20  H   LIG d   1      -5.547  95.870 121.372  0.00  0.00    -0.090 HD
ATOM     21  H   LIG d   1      -4.286  95.482 120.400  0.00  0.00    -0.090 HD
ENDBRANCH   5  18
BRANCH   3  22
ATOM     22  C   LIG d   1      -9.517  94.169 119.743  0.00  0.00     0.382 C 
ATOM     23  O   LIG d   1     -10.220  93.134 119.641  0.00  0.00    -0.241 OA
ATOM     24  O   LIG d   1     -10.046  95.236 120.107  0.00  0.00    -0.241 OA
ENDBRANCH   3  22
TORSDOF 7
ENDMDL
MODEL 5
REMARK VINA RESULT:      -5.0      2.504      4.396
REMARK  7 active torsions:
REMARK  status: ('A' for Active; 'I' for Inactive)
REMARK    1  A    between atoms: C_2  and  C_3 
REMARK    2  A    between atoms: C_3  and  O_6 
REMARK    3  A    between atoms: C_3  and  C_4 
REMARK    4  A    between atoms: C_7  and  O_6 
REMARK    5  A    between atoms: C_9  and  C_10 
REMARK    6  A    between atoms: N_15  and  C_14 
REMARK    7  A    between atoms: N_20  and  C_19 
REMARK       I    between atoms: C_22  and  N_20 
ROOT
ATOM      1  C   LIG d   1      -6.163  91.876 119.194  0.00  0.00     0.161 C 
ATOM      2  C   LIG d   1      -5.237  91.149 118.428  0.00  0.00     0.016 C 
ATOM      3  C   LIG d   1      -5.352  90.973 117.029  0.00  0.00     0.038 C 
ATOM      4  C   LIG d   1      -6.326  91.644 116.275  0.00  0.00     0.028 C 
ATOM      5  C   LIG d   1      -7.582  91.982 117.072  0.00  0.00    -0.047 C 
ATOM      6  C   LIG d   1      -7.171  92.708 118.373  0.00  0.00     0.091 C 
ENDROOT
BRANCH   1   7
ATOM      7  O   LIG d   1      -5.465  92.718 120.133  0.00  0.00    -0.368 OA
BRANCH   7   8
ATOM      8  C   LIG d   1      -4.872  93.923 119.590  0.00  0.00     0.119 C 
BRANCH   8   9
ATOM      9  C   LIG d   1      -3.342  93.767 119.680  0.00  0.00     0.028 C 
ATOM     10  C   LIG d   1      -2.661  93.845 118.303  0.00  0.00     0.006 C 
ENDBRANCH   8   9
BRANCH   8  11
ATOM     11  C   LIG d   1      -5.207  95.146 120.450  0.00  0.00     0.028 C 
ATOM     12  C   LIG d   1      -5.926  96.251 119.660  0.00  0.00     0.006 C 
ENDBRANCH   8  11
ENDBRANCH   7   8
ENDBRANCH   1   7
BRANCH   6  13
ATOM     13  N   LIG d   1      -8.334  92.999 119.252  0.00  0.00    -0.311 N 
ATOM     14  C   LIG d   1      -9.030  94.133 119.193  0.00  0.00     0.210 C 
ATOM     15  C   LIG d   1     -10.178  94.239 120.202  0.00  0.00     0.109 C 
ATOM     16  O   LIG d   1      -8.826  95.047 118.380  0.00  0.00    -0.276 OA
ATOM     17  H   LIG d   1      -8.588  92.298 119.920  0.00  0.00     0.149 HD
ENDBRANCH   6  13
BRANCH   5  18
ATOM     18  N   LIG d   1      -8.453  92.798 116.206  0.00  0.00     0.381 N 
ATOM     19  H   LIG d   1      -9.191  93.199 116.749  0.00  0.00    -0.090 HD
ATOM     20  H   LIG d   1      -8.863  92.205 115.506  0.00  0.00    -0.090 HD
ATOM     21  H   LIG d   1      -7.922  93.520 115.770  0.00  0.00    -0.090 HD
ENDBRANCH   5  18
BRANCH   3  22
ATOM     22  C   LIG d   1      -4.509  90.086 116.377  0.00  0.00     0.382 C 
ATOM     23  O   LIG d   1      -3.355  89.876 116.820  0.00  0.00    -0.241 OA
ATOM     24  O   LIG d   1      -4.873  89.527 115.325  0.00  0.00    -0.241 OA
ENDBRANCH   3  22
TORSDOF 7
ENDMDL
MODEL 6
REMARK VINA RESULT:      -4.9     12.886     15.310
REMARK  7 active torsions:
REMARK  status: ('A' for Active; 'I' for Inactive)
REMARK    1  A    between atoms: C_2  and  C_3 
REMARK    2  A    between atoms: C_3  and  O_6 
REMARK    3  A    between atoms: C_3  and  C_4 
REMARK    4  A    between atoms: C_7  and  O_6 
REMARK    5  A    between atoms: C_9  and  C_10 
REMARK    6  A    between atoms: N_15  and  C_14 
REMARK    7  A    between atoms: N_20  and  C_19 
REMARK       I    between atoms: C_22  and  N_20 
ROOT
ATOM      1  C   LIG d   1      -6.960  77.747 117.629  0.00  0.00     0.161 C 
ATOM      2  C   LIG d   1      -8.337  77.866 117.877  0.00  0.00     0.016 C 
ATOM      3  C   LIG d   1      -8.932  79.029 118.419  0.00  0.00     0.038 C 
ATOM      4  C   LIG d   1      -8.206  80.214 118.610  0.00  0.00     0.028 C 
ATOM      5  C   LIG d   1      -6.718  79.980 118.847  0.00  0.00    -0.047 C 
ATOM      6  C   LIG d   1      -6.168  79.068 117.727  0.00  0.00     0.091 C 
ENDROOT
BRANCH   1   7
ATOM      7  O   LIG d   1      -6.746  77.129 116.345  0.00  0.00    -0.368 OA
BRANCH   7   8
ATOM      8  C   LIG d   1      -6.116  75.825 116.362  0.00  0.00     0.119 C 
BRANCH   8   9
ATOM      9  C   LIG d   1      -5.319  75.678 115.051  0.00  0.00     0.028 C 
ATOM     10  C   LIG d   1      -3.811  75.507 115.296  0.00  0.00     0.006 C 
ENDBRANCH   8   9
BRANCH   8  11
ATOM     11  C   LIG d   1      -7.157  74.702 116.331  0.00  0.00     0.028 C 
ATOM     12  C   LIG d   1      -6.576  73.339 116.738  0.00  0.00     0.006 C 
ENDBRANCH   8  11
ENDBRANCH   7   8
ENDBRANCH   1   7
BRANCH   6  13
ATOM     13  N   LIG d   1      -4.737  78.721 117.930  0.00  0.00    -0.311 N 
ATOM     14  C   LIG d   1      -3.814  78.832 116.977  0.00  0.00     0.210 C 
ATOM     15  C   LIG d   1      -2.403  78.402 117.390  0.00  0.00     0.109 C 
ATOM     16  O   LIG d   1      -4.022  79.277 115.838  0.00  0.00    -0.276 OA
ATOM     17  H   LIG d   1      -4.474  78.381 118.834  0.00  0.00     0.149 HD
ENDBRANCH   6  13
BRANCH   5  18
ATOM     18  N   LIG d   1      -6.061  81.300 118.892  0.00  0.00     0.381 N 
ATOM     19  H   LIG d   1      -5.944  81.652 117.963  0.00  0.00    -0.090 HD
ATOM     20  H   LIG d   1      -5.152  81.197 119.308  0.00  0.00    -0.090 HD
ATOM     21  H   LIG d   1      -6.610  81.936 119.429  0.00  0.00    -0.090 HD
ENDBRANCH   5  18
BRANCH   3  22
ATOM     22  C   LIG d   1     -10.262  79.000 118.813  0.00  0.00     0.382 C 
ATOM     23  O   LIG d   1     -10.946  77.964 118.636  0.00  0.00    -0.241 OA
ATOM     24  O   LIG d   1     -10.797  80.013 119.303  0.00  0.00    -0.241 OA
ENDBRANCH   3  22
TORSDOF 7
ENDMDL
MODEL 7
REMARK VINA RESULT:      -4.9     15.162     18.021
REMARK  7 active torsions:
REMARK  status: ('A' for Active; 'I' for Inactive)
REMARK    1  A    between atoms: C_2  and  C_3 
REMARK    2  A    between atoms: C_3  and  O_6 
REMARK    3  A    between atoms: C_3  and  C_4 
REMARK    4  A    between atoms: C_7  and  O_6 
REMARK    5  A    between atoms: C_9  and  C_10 
REMARK    6  A    between atoms: N_15  and  C_14 
REMARK    7  A    between atoms: N_20  and  C_19 
REMARK       I    between atoms: C_22  and  N_20 
ROOT
ATOM      1  C   LIG d   1      -3.753  75.536 115.781  0.00  0.00     0.161 C 
ATOM      2  C   LIG d   1      -2.720  74.601 115.604  0.00  0.00     0.016 C 
ATOM      3  C   LIG d   1      -1.682  74.401 116.543  0.00  0.00     0.038 C 
ATOM      4  C   LIG d   1      -1.691  75.021 117.802  0.00  0.00     0.028 C 
ATOM      5  C   LIG d   1      -2.441  76.349 117.818  0.00  0.00    -0.047 C 
ATOM      6  C   LIG d   1      -3.842  76.141 117.198  0.00  0.00     0.091 C 
ENDROOT
BRANCH   1   7
ATOM      7  O   LIG d   1      -5.014  74.946 115.409  0.00  0.00    -0.368 OA
BRANCH   7   8
ATOM      8  C   LIG d   1      -5.714  74.224 116.453  0.00  0.00     0.119 C 
BRANCH   8   9
ATOM      9  C   LIG d   1      -5.754  72.740 116.041  0.00  0.00     0.028 C 
ATOM     10  C   LIG d   1      -6.809  71.942 116.827  0.00  0.00     0.006 C 
ENDBRANCH   8   9
BRANCH   8  11
ATOM     11  C   LIG d   1      -7.179  74.660 116.545  0.00  0.00     0.028 C 
ATOM     12  C   LIG d   1      -7.525  75.799 115.573  0.00  0.00     0.006 C 
ENDBRANCH   8  11
ENDBRANCH   7   8
ENDBRANCH   1   7
BRANCH   6  13
ATOM     13  N   LIG d   1      -4.610  77.409 117.098  0.00  0.00    -0.311 N 
ATOM     14  C   LIG d   1      -5.512  77.793 118.000  0.00  0.00     0.210 C 
ATOM     15  C   LIG d   1      -6.205  79.125 117.695  0.00  0.00     0.109 C 
ATOM     16  O   LIG d   1      -5.780  77.174 119.040  0.00  0.00    -0.276 OA
ATOM     17  H   LIG d   1      -4.433  77.989 116.301  0.00  0.00     0.149 HD
ENDBRANCH   6  13
BRANCH   5  18
ATOM     18  N   LIG d   1      -2.491  76.816 119.216  0.00  0.00     0.381 N 
ATOM     19  H   LIG d   1      -1.566  76.848 119.595  0.00  0.00    -0.090 HD
ATOM     20  H   LIG d   1      -3.031  76.164 119.757  0.00  0.00    -0.090 HD
ATOM     21  H   LIG d   1      -2.907  77.720 119.259  0.00  0.00    -0.090 HD
ENDBRANCH   5  18
BRANCH   3  22
ATOM     22  C   LIG d   1      -0.598  73.603 116.210  0.00  0.00     0.382 C 
ATOM     23  O   LIG d   1      -0.158  73.601 115.035  0.00  0.00    -0.241 OA
ATOM     24  O   LIG d   1      -0.082  72.852 117.059  0.00  0.00    -0.241 OA
ENDBRANCH   3  22
TORSDOF 7
ENDMDL
MODEL 8
REMARK VINA RESULT:      -4.8      2.902      6.604
REMARK  7 active torsions:
REMARK  status: ('A' for Active; 'I' for Inactive)
REMARK    1  A    between atoms: C_2  and  C_3 
REMARK    2  A    between atoms: C_3  and  O_6 
REMARK    3  A    between atoms: C_3  and  C_4 
REMARK    4  A    between atoms: C_7  and  O_6 
REMARK    5  A    between atoms: C_9  and  C_10 
REMARK    6  A    between atoms: N_15  and  C_14 
REMARK    7  A    between atoms: N_20  and  C_19 
REMARK       I    between atoms: C_22  and  N_20 
ROOT
ATOM      1  C   LIG d   1      -3.446  90.673 117.576  0.00  0.00     0.161 C 
ATOM      2  C   LIG d   1      -2.336  91.401 118.037  0.00  0.00     0.016 C 
ATOM      3  C   LIG d   1      -2.378  92.783 118.328  0.00  0.00     0.038 C 
ATOM      4  C   LIG d   1      -3.580  93.506 118.324  0.00  0.00     0.028 C 
ATOM      5  C   LIG d   1      -4.629  92.930 117.379  0.00  0.00    -0.047 C 
ATOM      6  C   LIG d   1      -4.793  91.421 117.672  0.00  0.00     0.091 C 
ENDROOT
BRANCH   1   7
ATOM      7  O   LIG d   1      -3.524  89.411 118.267  0.00  0.00    -0.368 OA
BRANCH   7   8
ATOM      8  C   LIG d   1      -2.538  89.191 119.305  0.00  0.00     0.119 C 
BRANCH   8   9
ATOM      9  C   LIG d   1      -1.770  87.903 118.949  0.00  0.00     0.028 C 
ATOM     10  C   LIG d   1      -0.680  88.143 117.890  0.00  0.00     0.006 C 
ENDBRANCH   8   9
BRANCH   8  11
ATOM     11  C   LIG d   1      -3.203  88.905 120.655  0.00  0.00     0.028 C 
ATOM     12  C   LIG d   1      -2.935  87.479 121.162  0.00  0.00     0.006 C 
ENDBRANCH   8  11
ENDBRANCH   7   8
ENDBRANCH   1   7
BRANCH   6  13
ATOM     13  N   LIG d   1      -5.740  90.761 116.735  0.00  0.00    -0.311 N 
ATOM     14  C   LIG d   1      -7.037  90.601 116.996  0.00  0.00     0.210 C 
ATOM     15  C   LIG d   1      -7.831  89.878 115.904  0.00  0.00     0.109 C 
ATOM     16  O   LIG d   1      -7.610  91.018 118.014  0.00  0.00    -0.276 OA
ATOM     17  H   LIG d   1      -5.365  90.421 115.872  0.00  0.00     0.149 HD
ENDBRANCH   6  13
BRANCH   5  18
ATOM     18  N   LIG d   1      -5.875  93.695 117.577  0.00  0.00     0.381 N 
ATOM     19  H   LIG d   1      -5.765  94.621 117.213  0.00  0.00    -0.090 HD
ATOM     20  H   LIG d   1      -6.062  93.764 118.562  0.00  0.00    -0.090 HD
ATOM     21  H   LIG d   1      -6.632  93.238 117.118  0.00  0.00    -0.090 HD
ENDBRANCH   5  18
BRANCH   3  22
ATOM     22  C   LIG d   1      -1.200  93.466 118.590  0.00  0.00     0.382 C 
ATOM     23  O   LIG d   1      -0.097  92.879 118.480  0.00  0.00    -0.241 OA
ATOM     24  O   LIG d   1      -1.228  94.649 118.979  0.00  0.00    -0.241 OA
ENDBRANCH   3  22
TORSDOF 7
ENDMDL
MODEL 9
REMARK VINA RESULT:      -4.8      2.273      5.565
REMARK  7 active torsions:
REMARK  status: ('A' for Active; 'I' for Inactive)
REMARK    1  A    between atoms: C_2  and  C_3 
REMARK    2  A    between atoms: C_3  and  O_6 
REMARK    3  A    between atoms: C_3  and  C_4 
REMARK    4  A    between atoms: C_7  and  O_6 
REMARK    5  A    between atoms: C_9  and  C_10 
REMARK    6  A    between atoms: N_15  and  C_14 
REMARK    7  A    between atoms: N_20  and  C_19 
REMARK       I    between atoms: C_22  and  N_20 
ROOT
ATOM      1  C   LIG d   1      -5.144  92.528 118.617  0.00  0.00     0.161 C 
ATOM      2  C   LIG d   1      -5.534  93.599 119.438  0.00  0.00     0.016 C 
ATOM      3  C   LIG d   1      -6.721  94.340 119.239  0.00  0.00     0.038 C 
ATOM      4  C   LIG d   1      -7.681  93.962 118.289  0.00  0.00     0.028 C 
ATOM      5  C   LIG d   1      -7.095  93.196 117.108  0.00  0.00    -0.047 C 
ATOM      6  C   LIG d   1      -6.233  92.030 117.644  0.00  0.00     0.091 C 
ENDROOT
BRANCH   1   7
ATOM      7  O   LIG d   1      -4.662  91.439 119.429  0.00  0.00    -0.368 OA
BRANCH   7   8
ATOM      8  C   LIG d   1      -3.224  91.277 119.489  0.00  0.00     0.119 C 
BRANCH   8   9
ATOM      9  C   LIG d   1      -2.626  91.985 118.258  0.00  0.00     0.028 C 
ATOM     10  C   LIG d   1      -1.398  92.840 118.612  0.00  0.00     0.006 C 
ENDBRANCH   8   9
BRANCH   8  11
ATOM     11  C   LIG d   1      -2.823  89.806 119.345  0.00  0.00     0.028 C 
ATOM     12  C   LIG d   1      -2.764  89.345 117.880  0.00  0.00     0.006 C 
ENDBRANCH   8  11
ENDBRANCH   7   8
ENDBRANCH   1   7
BRANCH   6  13
ATOM     13  N   LIG d   1      -5.555  91.280 116.555  0.00  0.00    -0.311 N 
ATOM     14  C   LIG d   1      -6.033  90.152 116.033  0.00  0.00     0.210 C 
ATOM     15  C   LIG d   1      -5.166  89.530 114.934  0.00  0.00     0.109 C 
ATOM     16  O   LIG d   1      -7.109  89.625 116.353  0.00  0.00    -0.276 OA
ATOM     17  H   LIG d   1      -4.691  91.654 116.213  0.00  0.00     0.149 HD
ENDBRANCH   6  13
BRANCH   5  18
ATOM     18  N   LIG d   1      -8.220  92.745 116.267  0.00  0.00     0.381 N 
ATOM     19  H   LIG d   1      -8.330  93.362 115.488  0.00  0.00    -0.090 HD
ATOM     20  H   LIG d   1      -9.064  92.771 116.812  0.00  0.00    -0.090 HD
ATOM     21  H   LIG d   1      -8.054  91.817 115.944  0.00  0.00    -0.090 HD
ENDBRANCH   5  18
BRANCH   3  22
ATOM     22  C   LIG d   1      -6.939  95.498 119.970  0.00  0.00     0.382 C 
ATOM     23  O   LIG d   1      -5.967  96.212 120.319  0.00  0.00    -0.241 OA
ATOM     24  O   LIG d   1      -8.090  95.816 120.323  0.00  0.00    -0.241 OA
ENDBRANCH   3  22
TORSDOF 7
ENDMDL
