MODEL 1
REMARK VINA RESULT:      -5.7      0.000      0.000
REMARK  7 active torsions:
REMARK  status: ('A' for Active; 'I' for Inactive)
REMARK    1  A    between atoms: C_2  and  C_3 
REMARK    2  A    between atoms: C_3  and  O_6 
REMARK    3  A    between atoms: C_3  and  C_4 
REMARK    4  A    between atoms: C_7  and  O_6 
REMARK    5  A    between atoms: C_9  and  C_10 
REMARK    6  A    between atoms: N_15  and  C_14 
REMARK    7  A    between atoms: N_20  and  C_19 
REMARK       I    between atoms: C_22  and  N_20 
ROOT
ATOM      1  C   LIG d   1      -6.245  77.483 117.507  0.00  0.00     0.161 C 
ATOM      2  C   LIG d   1      -7.605  77.837 117.519  0.00  0.00     0.016 C 
ATOM      3  C   LIG d   1      -8.098  79.010 118.134  0.00  0.00     0.038 C 
ATOM      4  C   LIG d   1      -7.241  79.992 118.652  0.00  0.00     0.028 C 
ATOM      5  C   LIG d   1      -5.896  79.441 119.112  0.00  0.00    -0.047 C 
ATOM      6  C   LIG d   1      -5.283  78.597 117.971  0.00  0.00     0.091 C 
ENDROOT
BRANCH   1   7
ATOM      7  O   LIG d   1      -5.874  77.013 116.196  0.00  0.00    -0.368 OA
BRANCH   7   8
ATOM      8  C   LIG d   1      -5.412  75.642 116.118  0.00  0.00     0.119 C 
BRANCH   8   9
ATOM      9  C   LIG d   1      -4.618  75.495 114.805  0.00  0.00     0.028 C 
ATOM     10  C   LIG d   1      -3.135  75.171 115.050  0.00  0.00     0.006 C 
ENDBRANCH   8   9
BRANCH   8  11
ATOM     11  C   LIG d   1      -6.586  74.666 115.993  0.00  0.00     0.028 C 
ATOM     12  C   LIG d   1      -6.157  73.197 116.143  0.00  0.00     0.006 C 
ENDBRANCH   8  11
ENDBRANCH   7   8
ENDBRANCH   1   7
BRANCH   6  13
ATOM     13  N   LIG d   1      -4.005  77.951 118.367  0.00  0.00    -0.311 N 
ATOM     14  C   LIG d   1      -2.943  77.875 117.566  0.00  0.00     0.210 C 
ATOM     15  C   LIG d   1      -1.733  77.150 118.164  0.00  0.00     0.109 C 
ATOM     16  O   LIG d   1      -2.877  78.368 116.430  0.00  0.00    -0.276 OA
ATOM     17  H   LIG d   1      -3.960  77.553 119.284  0.00  0.00     0.149 HD
ENDBRANCH   6  13
BRANCH   5  18
ATOM     18  N   LIG d   1      -5.053  80.588 119.499  0.00  0.00     0.381 N 
ATOM     19  H   LIG d   1      -5.455  81.436 119.153  0.00  0.00    -0.090 HD
ATOM     20  H   LIG d   1      -4.144  80.478 119.086  0.00  0.00    -0.090 HD
ATOM     21  H   LIG d   1      -4.971  80.631 120.491  0.00  0.00    -0.090 HD
ENDBRANCH   5  18
BRANCH   3  22
ATOM     22  C   LIG d   1      -9.466  79.191 118.271  0.00  0.00     0.382 C 
ATOM     23  O   LIG d   1      -9.988  80.288 117.955  0.00  0.00    -0.241 OA
ATOM     24  O   LIG d   1     -10.179  78.287 118.747  0.00  0.00    -0.241 OA
ENDBRANCH   3  22
TORSDOF 7
ENDMDL
MODEL 2
REMARK VINA RESULT:      -5.4     13.139     15.750
REMARK  7 active torsions:
REMARK  status: ('A' for Active; 'I' for Inactive)
REMARK    1  A    between atoms: C_2  and  C_3 
REMARK    2  A    between atoms: C_3  and  O_6 
REMARK    3  A    between atoms: C_3  and  C_4 
REMARK    4  A    between atoms: C_7  and  O_6 
REMARK    5  A    between atoms: C_9  and  C_10 
REMARK    6  A    between atoms: N_15  and  C_14 
REMARK    7  A    between atoms: N_20  and  C_19 
REMARK       I    between atoms: C_22  and  N_20 
ROOT
ATOM      1  C   LIG d   1      -5.832  92.875 117.480  0.00  0.00     0.161 C 
ATOM      2  C   LIG d   1      -6.708  91.900 116.975  0.00  0.00     0.016 C 
ATOM      3  C   LIG d   1      -6.292  90.606 116.586  0.00  0.00     0.038 C 
ATOM      4  C   LIG d   1      -4.987  90.146 116.819  0.00  0.00     0.028 C 
ATOM      5  C   LIG d   1      -3.949  91.262 116.860  0.00  0.00    -0.047 C 
ATOM      6  C   LIG d   1      -4.426  92.354 117.845  0.00  0.00     0.091 C 
ENDROOT
BRANCH   1   7
ATOM      7  O   LIG d   1      -6.432  93.532 118.613  0.00  0.00    -0.368 OA
BRANCH   7   8
ATOM      8  C   LIG d   1      -6.814  94.916 118.419  0.00  0.00     0.119 C 
BRANCH   8   9
ATOM      9  C   LIG d   1      -6.570  95.655 119.750  0.00  0.00     0.028 C 
ATOM     10  C   LIG d   1      -5.545  94.934 120.642  0.00  0.00     0.006 C 
ENDBRANCH   8   9
BRANCH   8  11
ATOM     11  C   LIG d   1      -8.316  95.048 118.151  0.00  0.00     0.028 C 
ATOM     12  C   LIG d   1      -9.158  94.986 119.436  0.00  0.00     0.006 C 
ENDBRANCH   8  11
ENDBRANCH   7   8
ENDBRANCH   1   7
BRANCH   6  13
ATOM     13  N   LIG d   1      -3.509  93.523 117.881  0.00  0.00    -0.311 N 
ATOM     14  C   LIG d   1      -2.527  93.657 118.771  0.00  0.00     0.210 C 
ATOM     15  C   LIG d   1      -1.712  94.948 118.645  0.00  0.00     0.109 C 
ATOM     16  O   LIG d   1      -2.233  92.814 119.632  0.00  0.00    -0.276 OA
ATOM     17  H   LIG d   1      -3.656  94.240 117.198  0.00  0.00     0.149 HD
ENDBRANCH   6  13
BRANCH   5  18
ATOM     18  N   LIG d   1      -2.660  90.658 117.246  0.00  0.00     0.381 N 
ATOM     19  H   LIG d   1      -2.341  91.060 118.105  0.00  0.00    -0.090 HD
ATOM     20  H   LIG d   1      -1.981  90.858 116.533  0.00  0.00    -0.090 HD
ATOM     21  H   LIG d   1      -2.762  89.673 117.350  0.00  0.00    -0.090 HD
ENDBRANCH   5  18
BRANCH   3  22
ATOM     22  C   LIG d   1      -7.176  89.770 115.921  0.00  0.00     0.382 C 
ATOM     23  O   LIG d   1      -7.818  90.198 114.931  0.00  0.00    -0.241 OA
ATOM     24  O   LIG d   1      -7.372  88.608 116.324  0.00  0.00    -0.241 OA
ENDBRANCH   3  22
TORSDOF 7
ENDMDL
MODEL 3
REMARK VINA RESULT:      -5.4     12.941     14.944
REMARK  7 active torsions:
REMARK  status: ('A' for Active; 'I' for Inactive)
REMARK    1  A    between atoms: C_2  and  C_3 
REMARK    2  A    between atoms: C_3  and  O_6 
REMARK    3  A    between atoms: C_3  and  C_4 
REMARK    4  A    between atoms: C_7  and  O_6 
REMARK    5  A    between atoms: C_9  and  C_10 
REMARK    6  A    between atoms: N_15  and  C_14 
REMARK    7  A    between atoms: N_20  and  C_19 
REMARK       I    between atoms: C_22  and  N_20 
ROOT
ATOM      1  C   LIG d   1      -6.096  92.372 117.231  0.00  0.00     0.161 C 
ATOM      2  C   LIG d   1      -7.222  93.208 117.308  0.00  0.00     0.016 C 
ATOM      3  C   LIG d   1      -7.275  94.369 118.114  0.00  0.00     0.038 C 
ATOM      4  C   LIG d   1      -6.144  94.858 118.785  0.00  0.00     0.028 C 
ATOM      5  C   LIG d   1      -5.133  93.773 119.139  0.00  0.00    -0.047 C 
ATOM      6  C   LIG d   1      -4.816  92.950 117.870  0.00  0.00     0.091 C 
ENDROOT
BRANCH   1   7
ATOM      7  O   LIG d   1      -5.851  92.008 115.858  0.00  0.00    -0.368 OA
BRANCH   7   8
ATOM      8  C   LIG d   1      -6.454  90.769 115.410  0.00  0.00     0.119 C 
BRANCH   8   9
ATOM      9  C   LIG d   1      -6.993  90.039 116.655  0.00  0.00     0.028 C 
ATOM     10  C   LIG d   1      -8.095  89.024 116.310  0.00  0.00     0.006 C 
ENDBRANCH   8   9
BRANCH   8  11
ATOM     11  C   LIG d   1      -5.409  89.826 114.807  0.00  0.00     0.028 C 
ATOM     12  C   LIG d   1      -4.529  89.153 115.872  0.00  0.00     0.006 C 
ENDBRANCH   8  11
ENDBRANCH   7   8
ENDBRANCH   1   7
BRANCH   6  13
ATOM     13  N   LIG d   1      -3.898  91.813 118.146  0.00  0.00    -0.311 N 
ATOM     14  C   LIG d   1      -2.577  91.885 117.996  0.00  0.00     0.210 C 
ATOM     15  C   LIG d   1      -1.819  90.592 118.316  0.00  0.00     0.109 C 
ATOM     16  O   LIG d   1      -1.957  92.905 117.660  0.00  0.00    -0.276 OA
ATOM     17  H   LIG d   1      -4.314  90.956 118.454  0.00  0.00     0.149 HD
ENDBRANCH   6  13
BRANCH   5  18
ATOM     18  N   LIG d   1      -3.946  94.438 119.709  0.00  0.00     0.381 N 
ATOM     19  H   LIG d   1      -3.968  94.372 120.707  0.00  0.00    -0.090 HD
ATOM     20  H   LIG d   1      -3.966  95.410 119.457  0.00  0.00    -0.090 HD
ATOM     21  H   LIG d   1      -3.116  94.013 119.359  0.00  0.00    -0.090 HD
ENDBRANCH   5  18
BRANCH   3  22
ATOM     22  C   LIG d   1      -8.480  95.032 118.286  0.00  0.00     0.382 C 
ATOM     23  O   LIG d   1      -9.425  94.469 118.890  0.00  0.00    -0.241 OA
ATOM     24  O   LIG d   1      -8.651  96.168 117.805  0.00  0.00    -0.241 OA
ENDBRANCH   3  22
TORSDOF 7
ENDMDL
MODEL 4
REMARK VINA RESULT:      -5.3     13.520     16.428
REMARK  7 active torsions:
REMARK  status: ('A' for Active; 'I' for Inactive)
REMARK    1  A    between atoms: C_2  and  C_3 
REMARK    2  A    between atoms: C_3  and  O_6 
REMARK    3  A    between atoms: C_3  and  C_4 
REMARK    4  A    between atoms: C_7  and  O_6 
REMARK    5  A    between atoms: C_9  and  C_10 
REMARK    6  A    between atoms: N_15  and  C_14 
REMARK    7  A    between atoms: N_20  and  C_19 
REMARK       I    between atoms: C_22  and  N_20 
ROOT
ATOM      1  C   LIG d   1      -6.112  92.775 118.483  0.00  0.00     0.161 C 
ATOM      2  C   LIG d   1      -5.074  93.609 118.931  0.00  0.00     0.016 C 
ATOM      3  C   LIG d   1      -3.720  93.432 118.565  0.00  0.00     0.038 C 
ATOM      4  C   LIG d   1      -3.330  92.492 117.599  0.00  0.00     0.028 C 
ATOM      5  C   LIG d   1      -4.273  91.298 117.500  0.00  0.00    -0.047 C 
ATOM      6  C   LIG d   1      -5.721  91.814 117.341  0.00  0.00     0.091 C 
ENDROOT
BRANCH   1   7
ATOM      7  O   LIG d   1      -7.249  93.573 118.100  0.00  0.00    -0.368 OA
BRANCH   7   8
ATOM      8  C   LIG d   1      -7.554  94.701 118.956  0.00  0.00     0.119 C 
BRANCH   8   9
ATOM      9  C   LIG d   1      -8.994  94.514 119.473  0.00  0.00     0.028 C 
ATOM     10  C   LIG d   1      -9.036  94.031 120.932  0.00  0.00     0.006 C 
ENDBRANCH   8   9
BRANCH   8  11
ATOM     11  C   LIG d   1      -7.574  96.012 118.165  0.00  0.00     0.028 C 
ATOM     12  C   LIG d   1      -6.734  97.118 118.823  0.00  0.00     0.006 C 
ENDBRANCH   8  11
ENDBRANCH   7   8
ENDBRANCH   1   7
BRANCH   6  13
ATOM     13  N   LIG d   1      -6.717  90.711 117.321  0.00  0.00    -0.311 N 
ATOM     14  C   LIG d   1      -7.114  90.101 116.205  0.00  0.00     0.210 C 
ATOM     15  C   LIG d   1      -8.163  89.003 116.407  0.00  0.00     0.109 C 
ATOM     16  O   LIG d   1      -6.674  90.344 115.072  0.00  0.00    -0.276 OA
ATOM     17  H   LIG d   1      -7.103  90.429 118.201  0.00  0.00     0.149 HD
ENDBRANCH   6  13
BRANCH   5  18
ATOM     18  N   LIG d   1      -3.826  90.470 116.364  0.00  0.00     0.381 N 
ATOM     19  H   LIG d   1      -3.916  90.987 115.512  0.00  0.00    -0.090 HD
ATOM     20  H   LIG d   1      -4.413  89.657 116.303  0.00  0.00    -0.090 HD
ATOM     21  H   LIG d   1      -2.877  90.195 116.495  0.00  0.00    -0.090 HD
ENDBRANCH   5  18
BRANCH   3  22
ATOM     22  C   LIG d   1      -2.734  94.173 119.199  0.00  0.00     0.382 C 
ATOM     23  O   LIG d   1      -1.783  93.590 119.773  0.00  0.00    -0.241 OA
ATOM     24  O   LIG d   1      -2.807  95.415 119.241  0.00  0.00    -0.241 OA
ENDBRANCH   3  22
TORSDOF 7
ENDMDL
MODEL 5
REMARK VINA RESULT:      -5.3     12.305     14.240
REMARK  7 active torsions:
REMARK  status: ('A' for Active; 'I' for Inactive)
REMARK    1  A    between atoms: C_2  and  C_3 
REMARK    2  A    between atoms: C_3  and  O_6 
REMARK    3  A    between atoms: C_3  and  C_4 
REMARK    4  A    between atoms: C_7  and  O_6 
REMARK    5  A    between atoms: C_9  and  C_10 
REMARK    6  A    between atoms: N_15  and  C_14 
REMARK    7  A    between atoms: N_20  and  C_19 
REMARK       I    between atoms: C_22  and  N_20 
ROOT
ATOM      1  C   LIG d   1      -3.948  91.092 117.906  0.00  0.00     0.161 C 
ATOM      2  C   LIG d   1      -4.813  90.224 117.218  0.00  0.00     0.016 C 
ATOM      3  C   LIG d   1      -6.090  90.609 116.750  0.00  0.00     0.038 C 
ATOM      4  C   LIG d   1      -6.531  91.940 116.807  0.00  0.00     0.028 C 
ATOM      5  C   LIG d   1      -5.901  92.738 117.943  0.00  0.00    -0.047 C 
ATOM      6  C   LIG d   1      -4.365  92.577 117.879  0.00  0.00     0.091 C 
ENDROOT
BRANCH   1   7
ATOM      7  O   LIG d   1      -2.604  90.940 117.407  0.00  0.00    -0.368 OA
BRANCH   7   8
ATOM      8  C   LIG d   1      -1.645  90.362 118.326  0.00  0.00     0.119 C 
BRANCH   8   9
ATOM      9  C   LIG d   1      -0.322  91.134 118.160  0.00  0.00     0.028 C 
ATOM     10  C   LIG d   1       0.509  90.627 116.969  0.00  0.00     0.006 C 
ENDBRANCH   8   9
BRANCH   8  11
ATOM     11  C   LIG d   1      -1.318  88.913 117.951  0.00  0.00     0.028 C 
ATOM     12  C   LIG d   1      -2.200  87.893 118.689  0.00  0.00     0.006 C 
ENDBRANCH   8  11
ENDBRANCH   7   8
ENDBRANCH   1   7
BRANCH   6  13
ATOM     13  N   LIG d   1      -3.676  93.258 119.006  0.00  0.00    -0.311 N 
ATOM     14  C   LIG d   1      -2.596  94.022 118.851  0.00  0.00     0.210 C 
ATOM     15  C   LIG d   1      -2.031  94.614 120.146  0.00  0.00     0.109 C 
ATOM     16  O   LIG d   1      -2.071  94.291 117.760  0.00  0.00    -0.276 OA
ATOM     17  H   LIG d   1      -4.054  93.119 119.923  0.00  0.00     0.149 HD
ENDBRANCH   6  13
BRANCH   5  18
ATOM     18  N   LIG d   1      -6.342  94.139 117.801  0.00  0.00     0.381 N 
ATOM     19  H   LIG d   1      -6.560  94.330 116.843  0.00  0.00    -0.090 HD
ATOM     20  H   LIG d   1      -5.591  94.746 118.081  0.00  0.00    -0.090 HD
ATOM     21  H   LIG d   1      -7.142  94.304 118.370  0.00  0.00    -0.090 HD
ENDBRANCH   5  18
BRANCH   3  22
ATOM     22  C   LIG d   1      -6.958  89.648 116.254  0.00  0.00     0.382 C 
ATOM     23  O   LIG d   1      -6.688  89.052 115.184  0.00  0.00    -0.241 OA
ATOM     24  O   LIG d   1      -8.030  89.402 116.840  0.00  0.00    -0.241 OA
ENDBRANCH   3  22
TORSDOF 7
ENDMDL
MODEL 6
REMARK VINA RESULT:      -5.2      1.950      5.395
REMARK  7 active torsions:
REMARK  status: ('A' for Active; 'I' for Inactive)
REMARK    1  A    between atoms: C_2  and  C_3 
REMARK    2  A    between atoms: C_3  and  O_6 
REMARK    3  A    between atoms: C_3  and  C_4 
REMARK    4  A    between atoms: C_7  and  O_6 
REMARK    5  A    between atoms: C_9  and  C_10 
REMARK    6  A    between atoms: N_15  and  C_14 
REMARK    7  A    between atoms: N_20  and  C_19 
REMARK       I    between atoms: C_22  and  N_20 
ROOT
ATOM      1  C   LIG d   1      -3.814  77.402 116.070  0.00  0.00     0.161 C 
ATOM      2  C   LIG d   1      -2.570  76.752 116.015  0.00  0.00     0.016 C 
ATOM      3  C   LIG d   1      -1.649  76.741 117.088  0.00  0.00     0.038 C 
ATOM      4  C   LIG d   1      -1.977  77.256 118.351  0.00  0.00     0.028 C 
ATOM      5  C   LIG d   1      -3.022  78.365 118.301  0.00  0.00    -0.047 C 
ATOM      6  C   LIG d   1      -4.235  77.874 117.477  0.00  0.00     0.091 C 
ENDROOT
BRANCH   1   7
ATOM      7  O   LIG d   1      -4.833  76.557 115.500  0.00  0.00    -0.368 OA
BRANCH   7   8
ATOM      8  C   LIG d   1      -4.978  75.243 116.094  0.00  0.00     0.119 C 
BRANCH   8   9
ATOM      9  C   LIG d   1      -5.111  74.227 114.943  0.00  0.00     0.028 C 
ATOM     10  C   LIG d   1      -5.653  72.869 115.419  0.00  0.00     0.006 C 
ENDBRANCH   8   9
BRANCH   8  11
ATOM     11  C   LIG d   1      -6.283  75.131 116.887  0.00  0.00     0.028 C 
ATOM     12  C   LIG d   1      -7.411  75.998 116.304  0.00  0.00     0.006 C 
ENDBRANCH   8  11
ENDBRANCH   7   8
ENDBRANCH   1   7
BRANCH   6  13
ATOM     13  N   LIG d   1      -5.269  78.929 117.308  0.00  0.00    -0.311 N 
ATOM     14  C   LIG d   1      -6.327  79.053 118.107  0.00  0.00     0.210 C 
ATOM     15  C   LIG d   1      -7.281  80.195 117.743  0.00  0.00     0.109 C 
ATOM     16  O   LIG d   1      -6.549  78.347 119.101  0.00  0.00    -0.276 OA
ATOM     17  H   LIG d   1      -5.150  79.565 116.544  0.00  0.00     0.149 HD
ENDBRANCH   6  13
BRANCH   5  18
ATOM     18  N   LIG d   1      -3.370  78.714 119.691  0.00  0.00     0.381 N 
ATOM     19  H   LIG d   1      -2.542  78.732 120.253  0.00  0.00    -0.090 HD
ATOM     20  H   LIG d   1      -3.985  78.009 120.059  0.00  0.00    -0.090 HD
ATOM     21  H   LIG d   1      -3.818  79.603 119.718  0.00  0.00    -0.090 HD
ENDBRANCH   5  18
BRANCH   3  22
ATOM     22  C   LIG d   1      -0.369  76.246 116.890  0.00  0.00     0.382 C 
ATOM     23  O   LIG d   1       0.152  75.495 117.750  0.00  0.00    -0.241 OA
ATOM     24  O   LIG d   1       0.288  76.576 115.885  0.00  0.00    -0.241 OA
ENDBRANCH   3  22
TORSDOF 7
ENDMDL
MODEL 7
REMARK VINA RESULT:      -5.1      1.949      4.996
REMARK  7 active torsions:
REMARK  status: ('A' for Active; 'I' for Inactive)
REMARK    1  A    between atoms: C_2  and  C_3 
REMARK    2  A    between atoms: C_3  and  O_6 
REMARK    3  A    between atoms: C_3  and  C_4 
REMARK    4  A    between atoms: C_7  and  O_6 
REMARK    5  A    between atoms: C_9  and  C_10 
REMARK    6  A    between atoms: N_15  and  C_14 
REMARK    7  A    between atoms: N_20  and  C_19 
REMARK       I    between atoms: C_22  and  N_20 
ROOT
ATOM      1  C   LIG d   1      -5.833  79.186 117.366  0.00  0.00     0.161 C 
ATOM      2  C   LIG d   1      -4.608  78.608 117.740  0.00  0.00     0.016 C 
ATOM      3  C   LIG d   1      -3.967  78.874 118.972  0.00  0.00     0.038 C 
ATOM      4  C   LIG d   1      -4.585  79.624 119.983  0.00  0.00     0.028 C 
ATOM      5  C   LIG d   1      -5.594  80.638 119.454  0.00  0.00    -0.047 C 
ATOM      6  C   LIG d   1      -6.576  79.919 118.502  0.00  0.00     0.091 C 
ENDROOT
BRANCH   1   7
ATOM      7  O   LIG d   1      -6.685  78.185 116.774  0.00  0.00    -0.368 OA
BRANCH   7   8
ATOM      8  C   LIG d   1      -6.681  76.885 117.414  0.00  0.00     0.119 C 
BRANCH   8   9
ATOM      9  C   LIG d   1      -6.879  75.826 116.313  0.00  0.00     0.028 C 
ATOM     10  C   LIG d   1      -6.197  74.490 116.654  0.00  0.00     0.006 C 
ENDBRANCH   8   9
BRANCH   8  11
ATOM     11  C   LIG d   1      -7.880  76.723 118.353  0.00  0.00     0.028 C 
ATOM     12  C   LIG d   1      -7.465  76.499 119.816  0.00  0.00     0.006 C 
ENDBRANCH   8  11
ENDBRANCH   7   8
ENDBRANCH   1   7
BRANCH   6  13
ATOM     13  N   LIG d   1      -7.545  80.855 117.874  0.00  0.00    -0.311 N 
ATOM     14  C   LIG d   1      -8.866  80.703 117.949  0.00  0.00     0.210 C 
ATOM     15  C   LIG d   1      -9.683  81.770 117.214  0.00  0.00     0.109 C 
ATOM     16  O   LIG d   1      -9.439  79.803 118.582  0.00  0.00    -0.276 OA
ATOM     17  H   LIG d   1      -7.166  81.631 117.367  0.00  0.00     0.149 HD
ENDBRANCH   6  13
BRANCH   5  18
ATOM     18  N   LIG d   1      -6.261  81.251 120.618  0.00  0.00     0.381 N 
ATOM     19  H   LIG d   1      -6.370  80.571 121.344  0.00  0.00    -0.090 HD
ATOM     20  H   LIG d   1      -7.175  81.565 120.341  0.00  0.00    -0.090 HD
ATOM     21  H   LIG d   1      -5.725  82.022 120.952  0.00  0.00    -0.090 HD
ENDBRANCH   5  18
BRANCH   3  22
ATOM     22  C   LIG d   1      -2.675  78.419 119.186  0.00  0.00     0.382 C 
ATOM     23  O   LIG d   1      -2.348  77.964 120.309  0.00  0.00    -0.241 OA
ATOM     24  O   LIG d   1      -1.819  78.499 118.284  0.00  0.00    -0.241 OA
ENDBRANCH   3  22
TORSDOF 7
ENDMDL
MODEL 8
REMARK VINA RESULT:      -5.1      1.967      2.600
REMARK  7 active torsions:
REMARK  status: ('A' for Active; 'I' for Inactive)
REMARK    1  A    between atoms: C_2  and  C_3 
REMARK    2  A    between atoms: C_3  and  O_6 
REMARK    3  A    between atoms: C_3  and  C_4 
REMARK    4  A    between atoms: C_7  and  O_6 
REMARK    5  A    between atoms: C_9  and  C_10 
REMARK    6  A    between atoms: N_15  and  C_14 
REMARK    7  A    between atoms: N_20  and  C_19 
REMARK       I    between atoms: C_22  and  N_20 
ROOT
ATOM      1  C   LIG d   1      -6.975  79.209 118.388  0.00  0.00     0.161 C 
ATOM      2  C   LIG d   1      -8.132  79.867 117.937  0.00  0.00     0.016 C 
ATOM      3  C   LIG d   1      -8.489  81.175 118.337  0.00  0.00     0.038 C 
ATOM      4  C   LIG d   1      -7.629  81.977 119.103  0.00  0.00     0.028 C 
ATOM      5  C   LIG d   1      -6.687  81.176 119.994  0.00  0.00    -0.047 C 
ATOM      6  C   LIG d   1      -5.969  80.109 119.135  0.00  0.00     0.091 C 
ENDROOT
BRANCH   1   7
ATOM      7  O   LIG d   1      -6.329  78.545 117.283  0.00  0.00    -0.368 OA
BRANCH   7   8
ATOM      8  C   LIG d   1      -6.125  77.118 117.429  0.00  0.00     0.119 C 
BRANCH   8   9
ATOM      9  C   LIG d   1      -4.810  76.763 116.709  0.00  0.00     0.028 C 
ATOM     10  C   LIG d   1      -3.775  77.899 116.782  0.00  0.00     0.006 C 
ENDBRANCH   8   9
BRANCH   8  11
ATOM     11  C   LIG d   1      -7.213  76.322 116.703  0.00  0.00     0.028 C 
ATOM     12  C   LIG d   1      -6.687  75.596 115.455  0.00  0.00     0.006 C 
ENDBRANCH   8  11
ENDBRANCH   7   8
ENDBRANCH   1   7
BRANCH   6  13
ATOM     13  N   LIG d   1      -5.091  79.226 119.945  0.00  0.00    -0.311 N 
ATOM     14  C   LIG d   1      -3.803  79.480 120.171  0.00  0.00     0.210 C 
ATOM     15  C   LIG d   1      -3.075  78.429 121.016  0.00  0.00     0.109 C 
ATOM     16  O   LIG d   1      -3.202  80.492 119.780  0.00  0.00    -0.276 OA
ATOM     17  H   LIG d   1      -5.505  78.398 120.328  0.00  0.00     0.149 HD
ENDBRANCH   6  13
BRANCH   5  18
ATOM     18  N   LIG d   1      -5.757  82.128 120.630  0.00  0.00     0.381 N 
ATOM     19  H   LIG d   1      -5.967  83.059 120.329  0.00  0.00    -0.090 HD
ATOM     20  H   LIG d   1      -4.819  81.908 120.342  0.00  0.00    -0.090 HD
ATOM     21  H   LIG d   1      -5.831  82.066 121.621  0.00  0.00    -0.090 HD
ENDBRANCH   5  18
BRANCH   3  22
ATOM     22  C   LIG d   1      -9.737  81.680 118.004  0.00  0.00     0.382 C 
ATOM     23  O   LIG d   1     -10.392  81.162 117.068  0.00  0.00    -0.241 OA
ATOM     24  O   LIG d   1     -10.196  82.674 118.598  0.00  0.00    -0.241 OA
ENDBRANCH   3  22
TORSDOF 7
ENDMDL
MODEL 9
REMARK VINA RESULT:      -5.0      2.511      6.271
REMARK  7 active torsions:
REMARK  status: ('A' for Active; 'I' for Inactive)
REMARK    1  A    between atoms: C_2  and  C_3 
REMARK    2  A    between atoms: C_3  and  O_6 
REMARK    3  A    between atoms: C_3  and  C_4 
REMARK    4  A    between atoms: C_7  and  O_6 
REMARK    5  A    between atoms: C_9  and  C_10 
REMARK    6  A    between atoms: N_15  and  C_14 
REMARK    7  A    between atoms: N_20  and  C_19 
REMARK       I    between atoms: C_22  and  N_20 
ROOT
ATOM      1  C   LIG d   1      -6.020  78.435 119.672  0.00  0.00     0.161 C 
ATOM      2  C   LIG d   1      -4.886  78.516 118.847  0.00  0.00     0.016 C 
ATOM      3  C   LIG d   1      -4.841  77.996 117.533  0.00  0.00     0.038 C 
ATOM      4  C   LIG d   1      -5.985  77.491 116.896  0.00  0.00     0.028 C 
ATOM      5  C   LIG d   1      -7.020  76.931 117.865  0.00  0.00    -0.047 C 
ATOM      6  C   LIG d   1      -7.311  77.988 118.955  0.00  0.00     0.091 C 
ENDROOT
BRANCH   1   7
ATOM      7  O   LIG d   1      -6.229  79.696 120.340  0.00  0.00    -0.368 OA
BRANCH   7   8
ATOM      8  C   LIG d   1      -5.826  80.879 119.607  0.00  0.00     0.119 C 
BRANCH   8   9
ATOM      9  C   LIG d   1      -5.086  81.804 120.594  0.00  0.00     0.028 C 
ATOM     10  C   LIG d   1      -3.575  81.524 120.640  0.00  0.00     0.006 C 
ENDBRANCH   8   9
BRANCH   8  11
ATOM     11  C   LIG d   1      -7.041  81.682 119.133  0.00  0.00     0.028 C 
ATOM     12  C   LIG d   1      -7.544  81.238 117.750  0.00  0.00     0.006 C 
ENDBRANCH   8  11
ENDBRANCH   7   8
ENDBRANCH   1   7
BRANCH   6  13
ATOM     13  N   LIG d   1      -8.251  77.489 119.992  0.00  0.00    -0.311 N 
ATOM     14  C   LIG d   1      -9.566  77.700 119.953  0.00  0.00     0.210 C 
ATOM     15  C   LIG d   1     -10.350  77.116 121.132  0.00  0.00     0.109 C 
ATOM     16  O   LIG d   1     -10.160  78.288 119.037  0.00  0.00    -0.276 OA
ATOM     17  H   LIG d   1      -7.858  76.974 120.755  0.00  0.00     0.149 HD
ENDBRANCH   6  13
BRANCH   5  18
ATOM     18  N   LIG d   1      -8.215  76.567 117.080  0.00  0.00     0.381 N 
ATOM     19  H   LIG d   1      -8.666  75.777 117.495  0.00  0.00    -0.090 HD
ATOM     20  H   LIG d   1      -7.928  76.314 116.150  0.00  0.00    -0.090 HD
ATOM     21  H   LIG d   1      -8.846  77.337 117.042  0.00  0.00    -0.090 HD
ENDBRANCH   5  18
BRANCH   3  22
ATOM     22  C   LIG d   1      -3.633  77.942 116.856  0.00  0.00     0.382 C 
ATOM     23  O   LIG d   1      -2.568  78.243 117.448  0.00  0.00    -0.241 OA
ATOM     24  O   LIG d   1      -3.598  77.639 115.648  0.00  0.00    -0.241 OA
ENDBRANCH   3  22
TORSDOF 7
ENDMDL
