MODEL 1
REMARK VINA RESULT:      -5.7      0.000      0.000
REMARK  7 active torsions:
REMARK  status: ('A' for Active; 'I' for Inactive)
REMARK    1  A    between atoms: C_2  and  C_3 
REMARK    2  A    between atoms: C_3  and  O_6 
REMARK    3  A    between atoms: C_3  and  C_4 
REMARK    4  A    between atoms: C_7  and  O_6 
REMARK    5  A    between atoms: C_9  and  C_10 
REMARK    6  A    between atoms: N_15  and  C_14 
REMARK    7  A    between atoms: N_20  and  C_19 
REMARK       I    between atoms: C_22  and  N_20 
ROOT
ATOM      1  C   LIG d   1      -7.301  75.644 116.819  0.00  0.00     0.161 C 
ATOM      2  C   LIG d   1      -8.134  74.529 117.006  0.00  0.00     0.016 C 
ATOM      3  C   LIG d   1      -7.679  73.193 116.913  0.00  0.00     0.038 C 
ATOM      4  C   LIG d   1      -6.318  72.882 116.774  0.00  0.00     0.028 C 
ATOM      5  C   LIG d   1      -5.514  73.975 116.077  0.00  0.00    -0.047 C 
ATOM      6  C   LIG d   1      -5.792  75.325 116.777  0.00  0.00     0.091 C 
ENDROOT
BRANCH   1   7
ATOM      7  O   LIG d   1      -7.575  76.634 117.830  0.00  0.00    -0.368 OA
BRANCH   7   8
ATOM      8  C   LIG d   1      -8.358  77.778 117.407  0.00  0.00     0.119 C 
BRANCH   8   9
ATOM      9  C   LIG d   1      -7.422  79.002 117.400  0.00  0.00     0.028 C 
ATOM     10  C   LIG d   1      -8.166  80.311 117.713  0.00  0.00     0.006 C 
ENDBRANCH   8   9
BRANCH   8  11
ATOM     11  C   LIG d   1      -9.453  78.111 118.425  0.00  0.00     0.028 C 
ATOM     12  C   LIG d   1     -10.446  76.955 118.631  0.00  0.00     0.006 C 
ENDBRANCH   8  11
ENDBRANCH   7   8
ENDBRANCH   1   7
BRANCH   6  13
ATOM     13  N   LIG d   1      -5.110  76.462 116.106  0.00  0.00    -0.311 N 
ATOM     14  C   LIG d   1      -4.237  77.259 116.719  0.00  0.00     0.210 C 
ATOM     15  C   LIG d   1      -3.665  78.383 115.849  0.00  0.00     0.109 C 
ATOM     16  O   LIG d   1      -3.856  77.121 117.892  0.00  0.00    -0.276 OA
ATOM     17  H   LIG d   1      -5.336  76.626 115.144  0.00  0.00     0.149 HD
ENDBRANCH   6  13
BRANCH   5  18
ATOM     18  N   LIG d   1      -4.094  73.581 116.123  0.00  0.00     0.381 N 
ATOM     19  H   LIG d   1      -3.963  72.862 116.806  0.00  0.00    -0.090 HD
ATOM     20  H   LIG d   1      -3.544  74.377 116.395  0.00  0.00    -0.090 HD
ATOM     21  H   LIG d   1      -3.801  73.256 115.228  0.00  0.00    -0.090 HD
ENDBRANCH   5  18
BRANCH   3  22
ATOM     22  C   LIG d   1      -8.595  72.153 116.918  0.00  0.00     0.382 C 
ATOM     23  O   LIG d   1      -9.801  72.381 117.181  0.00  0.00    -0.241 OA
ATOM     24  O   LIG d   1      -8.224  70.983 116.706  0.00  0.00    -0.241 OA
ENDBRANCH   3  22
TORSDOF 7
ENDMDL
MODEL 2
REMARK VINA RESULT:      -5.7      1.879      5.011
REMARK  7 active torsions:
REMARK  status: ('A' for Active; 'I' for Inactive)
REMARK    1  A    between atoms: C_2  and  C_3 
REMARK    2  A    between atoms: C_3  and  O_6 
REMARK    3  A    between atoms: C_3  and  C_4 
REMARK    4  A    between atoms: C_7  and  O_6 
REMARK    5  A    between atoms: C_9  and  C_10 
REMARK    6  A    between atoms: N_15  and  C_14 
REMARK    7  A    between atoms: N_20  and  C_19 
REMARK       I    between atoms: C_22  and  N_20 
ROOT
ATOM      1  C   LIG d   1      -7.243  75.900 117.415  0.00  0.00     0.161 C 
ATOM      2  C   LIG d   1      -8.481  76.469 117.756  0.00  0.00     0.016 C 
ATOM      3  C   LIG d   1      -8.716  77.863 117.782  0.00  0.00     0.038 C 
ATOM      4  C   LIG d   1      -7.764  78.784 117.320  0.00  0.00     0.028 C 
ATOM      5  C   LIG d   1      -6.328  78.286 117.446  0.00  0.00    -0.047 C 
ATOM      6  C   LIG d   1      -6.225  76.885 116.801  0.00  0.00     0.091 C 
ENDROOT
BRANCH   1   7
ATOM      7  O   LIG d   1      -7.447  74.777 116.535  0.00  0.00    -0.368 OA
BRANCH   7   8
ATOM      8  C   LIG d   1      -7.052  73.482 117.052  0.00  0.00     0.119 C 
BRANCH   8   9
ATOM      9  C   LIG d   1      -5.831  73.011 116.238  0.00  0.00     0.028 C 
ATOM     10  C   LIG d   1      -6.024  71.602 115.653  0.00  0.00     0.006 C 
ENDBRANCH   8   9
BRANCH   8  11
ATOM     11  C   LIG d   1      -8.135  72.429 116.804  0.00  0.00     0.028 C 
ATOM     12  C   LIG d   1      -9.555  72.968 117.041  0.00  0.00     0.006 C 
ENDBRANCH   8  11
ENDBRANCH   7   8
ENDBRANCH   1   7
BRANCH   6  13
ATOM     13  N   LIG d   1      -4.873  76.288 116.955  0.00  0.00    -0.311 N 
ATOM     14  C   LIG d   1      -3.932  76.353 116.015  0.00  0.00     0.210 C 
ATOM     15  C   LIG d   1      -2.615  75.655 116.369  0.00  0.00     0.109 C 
ATOM     16  O   LIG d   1      -4.051  76.951 114.935  0.00  0.00    -0.276 OA
ATOM     17  H   LIG d   1      -4.680  75.811 117.814  0.00  0.00     0.149 HD
ENDBRANCH   6  13
BRANCH   5  18
ATOM     18  N   LIG d   1      -5.452  79.284 116.803  0.00  0.00     0.381 N 
ATOM     19  H   LIG d   1      -4.947  79.791 117.501  0.00  0.00    -0.090 HD
ATOM     20  H   LIG d   1      -6.022  79.934 116.290  0.00  0.00    -0.090 HD
ATOM     21  H   LIG d   1      -4.815  78.831 116.185  0.00  0.00    -0.090 HD
ENDBRANCH   5  18
BRANCH   3  22
ATOM     22  C   LIG d   1      -9.901  78.351 118.312  0.00  0.00     0.382 C 
ATOM     23  O   LIG d   1     -10.774  77.554 118.733  0.00  0.00    -0.241 OA
ATOM     24  O   LIG d   1     -10.126  79.576 118.335  0.00  0.00    -0.241 OA
ENDBRANCH   3  22
TORSDOF 7
ENDMDL
MODEL 3
REMARK VINA RESULT:      -5.6      2.424      4.166
REMARK  7 active torsions:
REMARK  status: ('A' for Active; 'I' for Inactive)
REMARK    1  A    between atoms: C_2  and  C_3 
REMARK    2  A    between atoms: C_3  and  O_6 
REMARK    3  A    between atoms: C_3  and  C_4 
REMARK    4  A    between atoms: C_7  and  O_6 
REMARK    5  A    between atoms: C_9  and  C_10 
REMARK    6  A    between atoms: N_15  and  C_14 
REMARK    7  A    between atoms: N_20  and  C_19 
REMARK       I    between atoms: C_22  and  N_20 
ROOT
ATOM      1  C   LIG d   1      -6.761  76.565 115.564  0.00  0.00     0.161 C 
ATOM      2  C   LIG d   1      -5.984  75.466 115.165  0.00  0.00     0.016 C 
ATOM      3  C   LIG d   1      -4.713  75.172 115.710  0.00  0.00     0.038 C 
ATOM      4  C   LIG d   1      -4.195  75.878 116.806  0.00  0.00     0.028 C 
ATOM      5  C   LIG d   1      -4.718  77.307 116.908  0.00  0.00    -0.047 C 
ATOM      6  C   LIG d   1      -6.262  77.282 116.837  0.00  0.00     0.091 C 
ENDROOT
BRANCH   1   7
ATOM      7  O   LIG d   1      -8.135  76.161 115.724  0.00  0.00    -0.368 OA
BRANCH   7   8
ATOM      8  C   LIG d   1      -8.497  75.632 117.023  0.00  0.00     0.119 C 
BRANCH   8   9
ATOM      9  C   LIG d   1      -8.340  74.100 116.960  0.00  0.00     0.028 C 
ATOM     10  C   LIG d   1      -9.688  73.367 117.059  0.00  0.00     0.006 C 
ENDBRANCH   8   9
BRANCH   8  11
ATOM     11  C   LIG d   1      -9.978  75.875 117.331  0.00  0.00     0.028 C 
ATOM     12  C   LIG d   1     -10.193  76.931 118.426  0.00  0.00     0.006 C 
ENDBRANCH   8  11
ENDBRANCH   7   8
ENDBRANCH   1   7
BRANCH   6  13
ATOM     13  N   LIG d   1      -6.852  78.646 116.845  0.00  0.00    -0.311 N 
ATOM     14  C   LIG d   1      -7.295  79.246 117.948  0.00  0.00     0.210 C 
ATOM     15  C   LIG d   1      -7.884  80.644 117.732  0.00  0.00     0.109 C 
ATOM     16  O   LIG d   1      -7.228  78.767 119.090  0.00  0.00    -0.276 OA
ATOM     17  H   LIG d   1      -6.916  79.121 115.966  0.00  0.00     0.149 HD
ENDBRANCH   6  13
BRANCH   5  18
ATOM     18  N   LIG d   1      -4.207  77.879 118.168  0.00  0.00     0.381 N 
ATOM     19  H   LIG d   1      -4.076  77.152 118.842  0.00  0.00    -0.090 HD
ATOM     20  H   LIG d   1      -4.885  78.526 118.530  0.00  0.00    -0.090 HD
ATOM     21  H   LIG d   1      -3.344  78.349 118.003  0.00  0.00    -0.090 HD
ENDBRANCH   5  18
BRANCH   3  22
ATOM     22  C   LIG d   1      -3.927  74.187 115.130  0.00  0.00     0.382 C 
ATOM     23  O   LIG d   1      -2.717  74.412 114.889  0.00  0.00    -0.241 OA
ATOM     24  O   LIG d   1      -4.425  73.092 114.805  0.00  0.00    -0.241 OA
ENDBRANCH   3  22
TORSDOF 7
ENDMDL
MODEL 4
REMARK VINA RESULT:      -5.5      2.240      5.631
REMARK  7 active torsions:
REMARK  status: ('A' for Active; 'I' for Inactive)
REMARK    1  A    between atoms: C_2  and  C_3 
REMARK    2  A    between atoms: C_3  and  O_6 
REMARK    3  A    between atoms: C_3  and  C_4 
REMARK    4  A    between atoms: C_7  and  O_6 
REMARK    5  A    between atoms: C_9  and  C_10 
REMARK    6  A    between atoms: N_15  and  C_14 
REMARK    7  A    between atoms: N_20  and  C_19 
REMARK       I    between atoms: C_22  and  N_20 
ROOT
ATOM      1  C   LIG d   1      -6.405  76.932 116.791  0.00  0.00     0.161 C 
ATOM      2  C   LIG d   1      -7.014  78.142 117.162  0.00  0.00     0.016 C 
ATOM      3  C   LIG d   1      -8.364  78.240 117.572  0.00  0.00     0.038 C 
ATOM      4  C   LIG d   1      -9.159  77.104 117.784  0.00  0.00     0.028 C 
ATOM      5  C   LIG d   1      -8.740  75.906 116.939  0.00  0.00    -0.047 C 
ATOM      6  C   LIG d   1      -7.224  75.667 117.122  0.00  0.00     0.091 C 
ENDROOT
BRANCH   1   7
ATOM      7  O   LIG d   1      -5.091  76.846 117.378  0.00  0.00    -0.368 OA
BRANCH   7   8
ATOM      8  C   LIG d   1      -3.980  76.797 116.449  0.00  0.00     0.119 C 
BRANCH   8   9
ATOM      9  C   LIG d   1      -3.088  75.609 116.858  0.00  0.00     0.028 C 
ATOM     10  C   LIG d   1      -2.661  74.753 115.654  0.00  0.00     0.006 C 
ENDBRANCH   8   9
BRANCH   8  11
ATOM     11  C   LIG d   1      -3.090  78.036 116.579  0.00  0.00     0.028 C 
ATOM     12  C   LIG d   1      -3.394  79.102 115.514  0.00  0.00     0.006 C 
ENDBRANCH   8  11
ENDBRANCH   7   8
ENDBRANCH   1   7
BRANCH   6  13
ATOM     13  N   LIG d   1      -6.716  74.565 116.265  0.00  0.00    -0.311 N 
ATOM     14  C   LIG d   1      -6.155  73.458 116.750  0.00  0.00     0.210 C 
ATOM     15  C   LIG d   1      -5.681  72.457 115.692  0.00  0.00     0.109 C 
ATOM     16  O   LIG d   1      -6.034  73.197 117.956  0.00  0.00    -0.276 OA
ATOM     17  H   LIG d   1      -6.803  74.680 115.274  0.00  0.00     0.149 HD
ENDBRANCH   6  13
BRANCH   5  18
ATOM     18  N   LIG d   1      -9.562  74.755 117.359  0.00  0.00     0.381 N 
ATOM     19  H   LIG d   1     -10.516  74.907 117.099  0.00  0.00    -0.090 HD
ATOM     20  H   LIG d   1      -9.517  74.672 118.359  0.00  0.00    -0.090 HD
ATOM     21  H   LIG d   1      -9.223  73.921 116.933  0.00  0.00    -0.090 HD
ENDBRANCH   5  18
BRANCH   3  22
ATOM     22  C   LIG d   1      -8.943  79.490 117.735  0.00  0.00     0.382 C 
ATOM     23  O   LIG d   1     -10.083  79.589 118.250  0.00  0.00    -0.241 OA
ATOM     24  O   LIG d   1      -8.360  80.514 117.334  0.00  0.00    -0.241 OA
ENDBRANCH   3  22
TORSDOF 7
ENDMDL
MODEL 5
REMARK VINA RESULT:      -5.0      2.316      5.446
REMARK  7 active torsions:
REMARK  status: ('A' for Active; 'I' for Inactive)
REMARK    1  A    between atoms: C_2  and  C_3 
REMARK    2  A    between atoms: C_3  and  O_6 
REMARK    3  A    between atoms: C_3  and  C_4 
REMARK    4  A    between atoms: C_7  and  O_6 
REMARK    5  A    between atoms: C_9  and  C_10 
REMARK    6  A    between atoms: N_15  and  C_14 
REMARK    7  A    between atoms: N_20  and  C_19 
REMARK       I    between atoms: C_22  and  N_20 
ROOT
ATOM      1  C   LIG d   1      -6.791  77.321 117.289  0.00  0.00     0.161 C 
ATOM      2  C   LIG d   1      -7.656  78.402 117.526  0.00  0.00     0.016 C 
ATOM      3  C   LIG d   1      -7.245  79.754 117.474  0.00  0.00     0.038 C 
ATOM      4  C   LIG d   1      -5.966  80.123 117.029  0.00  0.00     0.028 C 
ATOM      5  C   LIG d   1      -4.909  79.049 117.266  0.00  0.00    -0.047 C 
ATOM      6  C   LIG d   1      -5.421  77.707 116.695  0.00  0.00     0.091 C 
ENDROOT
BRANCH   1   7
ATOM      7  O   LIG d   1      -7.444  76.347 116.451  0.00  0.00    -0.368 OA
BRANCH   7   8
ATOM      8  C   LIG d   1      -7.892  75.137 117.111  0.00  0.00     0.119 C 
BRANCH   8   9
ATOM      9  C   LIG d   1      -7.061  73.968 116.546  0.00  0.00     0.028 C 
ATOM     10  C   LIG d   1      -6.081  73.391 117.582  0.00  0.00     0.006 C 
ENDBRANCH   8   9
BRANCH   8  11
ATOM     11  C   LIG d   1      -9.345  74.812 116.752  0.00  0.00     0.028 C 
ATOM     12  C   LIG d   1      -9.744  73.376 117.126  0.00  0.00     0.006 C 
ENDBRANCH   8  11
ENDBRANCH   7   8
ENDBRANCH   1   7
BRANCH   6  13
ATOM     13  N   LIG d   1      -4.483  76.585 116.959  0.00  0.00    -0.311 N 
ATOM     14  C   LIG d   1      -3.778  75.979 116.005  0.00  0.00     0.210 C 
ATOM     15  C   LIG d   1      -2.886  74.832 116.491  0.00  0.00     0.109 C 
ATOM     16  O   LIG d   1      -3.781  76.304 114.809  0.00  0.00    -0.276 OA
ATOM     17  H   LIG d   1      -4.395  76.277 117.908  0.00  0.00     0.149 HD
ENDBRANCH   6  13
BRANCH   5  18
ATOM     18  N   LIG d   1      -3.658  79.508 116.633  0.00  0.00     0.381 N 
ATOM     19  H   LIG d   1      -3.226  78.748 116.147  0.00  0.00    -0.090 HD
ATOM     20  H   LIG d   1      -3.028  79.823 117.349  0.00  0.00    -0.090 HD
ATOM     21  H   LIG d   1      -3.850  80.252 115.998  0.00  0.00    -0.090 HD
ENDBRANCH   5  18
BRANCH   3  22
ATOM     22  C   LIG d   1      -8.105  80.751 117.907  0.00  0.00     0.382 C 
ATOM     23  O   LIG d   1      -7.802  81.957 117.738  0.00  0.00    -0.241 OA
ATOM     24  O   LIG d   1      -9.159  80.461 118.504  0.00  0.00    -0.241 OA
ENDBRANCH   3  22
TORSDOF 7
ENDMDL
MODEL 6
REMARK VINA RESULT:      -5.0      2.471      5.243
REMARK  7 active torsions:
REMARK  status: ('A' for Active; 'I' for Inactive)
REMARK    1  A    between atoms: C_2  and  C_3 
REMARK    2  A    between atoms: C_3  and  O_6 
REMARK    3  A    between atoms: C_3  and  C_4 
REMARK    4  A    between atoms: C_7  and  O_6 
REMARK    5  A    between atoms: C_9  and  C_10 
REMARK    6  A    between atoms: N_15  and  C_14 
REMARK    7  A    between atoms: N_20  and  C_19 
REMARK       I    between atoms: C_22  and  N_20 
ROOT
ATOM      1  C   LIG d   1      -5.884  77.394 116.634  0.00  0.00     0.161 C 
ATOM      2  C   LIG d   1      -6.495  78.589 117.050  0.00  0.00     0.016 C 
ATOM      3  C   LIG d   1      -7.849  78.673 117.449  0.00  0.00     0.038 C 
ATOM      4  C   LIG d   1      -8.647  77.530 117.606  0.00  0.00     0.028 C 
ATOM      5  C   LIG d   1      -8.222  76.367 116.715  0.00  0.00    -0.047 C 
ATOM      6  C   LIG d   1      -6.709  76.118 116.904  0.00  0.00     0.091 C 
ENDROOT
BRANCH   1   7
ATOM      7  O   LIG d   1      -4.576  77.281 117.229  0.00  0.00    -0.368 OA
BRANCH   7   8
ATOM      8  C   LIG d   1      -4.353  78.061 118.430  0.00  0.00     0.119 C 
BRANCH   8   9
ATOM      9  C   LIG d   1      -3.154  78.991 118.161  0.00  0.00     0.028 C 
ATOM     10  C   LIG d   1      -3.326  80.373 118.814  0.00  0.00     0.006 C 
ENDBRANCH   8   9
BRANCH   8  11
ATOM     11  C   LIG d   1      -3.922  77.172 119.600  0.00  0.00     0.028 C 
ATOM     12  C   LIG d   1      -5.082  76.349 120.181  0.00  0.00     0.006 C 
ENDBRANCH   8  11
ENDBRANCH   7   8
ENDBRANCH   1   7
BRANCH   6  13
ATOM     13  N   LIG d   1      -6.194  75.052 116.006  0.00  0.00    -0.311 N 
ATOM     14  C   LIG d   1      -5.738  73.880 116.446  0.00  0.00     0.210 C 
ATOM     15  C   LIG d   1      -5.235  72.931 115.353  0.00  0.00     0.109 C 
ATOM     16  O   LIG d   1      -5.733  73.524 117.633  0.00  0.00    -0.276 OA
ATOM     17  H   LIG d   1      -6.191  75.244 115.023  0.00  0.00     0.149 HD
ENDBRANCH   6  13
BRANCH   5  18
ATOM     18  N   LIG d   1      -9.050  75.202 117.079  0.00  0.00     0.381 N 
ATOM     19  H   LIG d   1      -9.914  75.229 116.574  0.00  0.00    -0.090 HD
ATOM     20  H   LIG d   1      -9.257  75.244 118.061  0.00  0.00    -0.090 HD
ATOM     21  H   LIG d   1      -8.562  74.359 116.871  0.00  0.00    -0.090 HD
ENDBRANCH   5  18
BRANCH   3  22
ATOM     22  C   LIG d   1      -8.428  79.915 117.659  0.00  0.00     0.382 C 
ATOM     23  O   LIG d   1      -7.982  80.923 117.061  0.00  0.00    -0.241 OA
ATOM     24  O   LIG d   1      -9.361  80.047 118.473  0.00  0.00    -0.241 OA
ENDBRANCH   3  22
TORSDOF 7
ENDMDL
MODEL 7
REMARK VINA RESULT:      -4.9     16.247     18.988
REMARK  7 active torsions:
REMARK  status: ('A' for Active; 'I' for Inactive)
REMARK    1  A    between atoms: C_2  and  C_3 
REMARK    2  A    between atoms: C_3  and  O_6 
REMARK    3  A    between atoms: C_3  and  C_4 
REMARK    4  A    between atoms: C_7  and  O_6 
REMARK    5  A    between atoms: C_9  and  C_10 
REMARK    6  A    between atoms: N_15  and  C_14 
REMARK    7  A    between atoms: N_20  and  C_19 
REMARK       I    between atoms: C_22  and  N_20 
ROOT
ATOM      1  C   LIG d   1      -5.559  93.734 119.335  0.00  0.00     0.161 C 
ATOM      2  C   LIG d   1      -5.360  92.642 118.475  0.00  0.00     0.016 C 
ATOM      3  C   LIG d   1      -6.202  92.354 117.376  0.00  0.00     0.038 C 
ATOM      4  C   LIG d   1      -7.218  93.232 116.970  0.00  0.00     0.028 C 
ATOM      5  C   LIG d   1      -7.772  94.084 118.107  0.00  0.00    -0.047 C 
ATOM      6  C   LIG d   1      -6.596  94.765 118.843  0.00  0.00     0.091 C 
ENDROOT
BRANCH   1   7
ATOM      7  O   LIG d   1      -4.299  94.380 119.604  0.00  0.00    -0.368 OA
BRANCH   7   8
ATOM      8  C   LIG d   1      -3.128  93.761 119.017  0.00  0.00     0.119 C 
BRANCH   8   9
ATOM      9  C   LIG d   1      -2.218  93.303 120.173  0.00  0.00     0.028 C 
ATOM     10  C   LIG d   1      -2.197  91.773 120.332  0.00  0.00     0.006 C 
ENDBRANCH   8   9
BRANCH   8  11
ATOM     11  C   LIG d   1      -2.298  94.777 118.226  0.00  0.00     0.028 C 
ATOM     12  C   LIG d   1      -1.134  94.128 117.459  0.00  0.00     0.006 C 
ENDBRANCH   8  11
ENDBRANCH   7   8
ENDBRANCH   1   7
BRANCH   6  13
ATOM     13  N   LIG d   1      -7.044  95.551 120.022  0.00  0.00    -0.311 N 
ATOM     14  C   LIG d   1      -7.336  96.850 119.970  0.00  0.00     0.210 C 
ATOM     15  C   LIG d   1      -7.759  97.472 121.304  0.00  0.00     0.109 C 
ATOM     16  O   LIG d   1      -7.315  97.538 118.938  0.00  0.00    -0.276 OA
ATOM     17  H   LIG d   1      -7.118  95.064 120.893  0.00  0.00     0.149 HD
ENDBRANCH   6  13
BRANCH   5  18
ATOM     18  N   LIG d   1      -8.723  95.047 117.520  0.00  0.00     0.381 N 
ATOM     19  H   LIG d   1      -8.236  95.677 116.915  0.00  0.00    -0.090 HD
ATOM     20  H   LIG d   1      -9.143  95.581 118.260  0.00  0.00    -0.090 HD
ATOM     21  H   LIG d   1      -9.427  94.562 117.009  0.00  0.00    -0.090 HD
ENDBRANCH   5  18
BRANCH   3  22
ATOM     22  C   LIG d   1      -6.056  91.156 116.694  0.00  0.00     0.382 C 
ATOM     23  O   LIG d   1      -7.068  90.545 116.274  0.00  0.00    -0.241 OA
ATOM     24  O   LIG d   1      -4.927  90.655 116.531  0.00  0.00    -0.241 OA
ENDBRANCH   3  22
TORSDOF 7
ENDMDL
MODEL 8
REMARK VINA RESULT:      -4.7     15.826     17.653
REMARK  7 active torsions:
REMARK  status: ('A' for Active; 'I' for Inactive)
REMARK    1  A    between atoms: C_2  and  C_3 
REMARK    2  A    between atoms: C_3  and  O_6 
REMARK    3  A    between atoms: C_3  and  C_4 
REMARK    4  A    between atoms: C_7  and  O_6 
REMARK    5  A    between atoms: C_9  and  C_10 
REMARK    6  A    between atoms: N_15  and  C_14 
REMARK    7  A    between atoms: N_20  and  C_19 
REMARK       I    between atoms: C_22  and  N_20 
ROOT
ATOM      1  C   LIG d   1      -4.934  93.037 118.711  0.00  0.00     0.161 C 
ATOM      2  C   LIG d   1      -5.883  92.709 117.728  0.00  0.00     0.016 C 
ATOM      3  C   LIG d   1      -5.633  91.791 116.682  0.00  0.00     0.038 C 
ATOM      4  C   LIG d   1      -4.461  91.022 116.634  0.00  0.00     0.028 C 
ATOM      5  C   LIG d   1      -3.271  91.687 117.318  0.00  0.00    -0.047 C 
ATOM      6  C   LIG d   1      -3.690  92.125 118.740  0.00  0.00     0.091 C 
ENDROOT
BRANCH   1   7
ATOM      7  O   LIG d   1      -5.563  93.067 120.007  0.00  0.00    -0.368 OA
BRANCH   7   8
ATOM      8  C   LIG d   1      -5.820  94.381 120.561  0.00  0.00     0.119 C 
BRANCH   8   9
ATOM      9  C   LIG d   1      -7.306  94.705 120.316  0.00  0.00     0.028 C 
ATOM     10  C   LIG d   1      -7.503  95.773 119.227  0.00  0.00     0.006 C 
ENDBRANCH   8   9
BRANCH   8  11
ATOM     11  C   LIG d   1      -5.040  95.464 119.810  0.00  0.00     0.028 C 
ATOM     12  C   LIG d   1      -3.907  96.073 120.651  0.00  0.00     0.006 C 
ENDBRANCH   8  11
ENDBRANCH   7   8
ENDBRANCH   1   7
BRANCH   6  13
ATOM     13  N   LIG d   1      -2.609  92.859 119.448  0.00  0.00    -0.311 N 
ATOM     14  C   LIG d   1      -1.734  92.271 120.261  0.00  0.00     0.210 C 
ATOM     15  C   LIG d   1      -0.714  93.215 120.905  0.00  0.00     0.109 C 
ATOM     16  O   LIG d   1      -1.685  91.052 120.486  0.00  0.00    -0.276 OA
ATOM     17  H   LIG d   1      -2.556  93.848 119.298  0.00  0.00     0.149 HD
ENDBRANCH   6  13
BRANCH   5  18
ATOM     18  N   LIG d   1      -2.158  90.719 117.315  0.00  0.00     0.381 N 
ATOM     19  H   LIG d   1      -2.120  90.243 118.194  0.00  0.00    -0.090 HD
ATOM     20  H   LIG d   1      -1.295  91.218 117.189  0.00  0.00    -0.090 HD
ATOM     21  H   LIG d   1      -2.280  90.061 116.577  0.00  0.00    -0.090 HD
ENDBRANCH   5  18
BRANCH   3  22
ATOM     22  C   LIG d   1      -6.546  91.666 115.645  0.00  0.00     0.382 C 
ATOM     23  O   LIG d   1      -6.671  92.590 114.805  0.00  0.00    -0.241 OA
ATOM     24  O   LIG d   1      -7.277  90.661 115.565  0.00  0.00    -0.241 OA
ENDBRANCH   3  22
TORSDOF 7
ENDMDL
MODEL 9
REMARK VINA RESULT:      -4.7      3.052      5.998
REMARK  7 active torsions:
REMARK  status: ('A' for Active; 'I' for Inactive)
REMARK    1  A    between atoms: C_2  and  C_3 
REMARK    2  A    between atoms: C_3  and  O_6 
REMARK    3  A    between atoms: C_3  and  C_4 
REMARK    4  A    between atoms: C_7  and  O_6 
REMARK    5  A    between atoms: C_9  and  C_10 
REMARK    6  A    between atoms: N_15  and  C_14 
REMARK    7  A    between atoms: N_20  and  C_19 
REMARK       I    between atoms: C_22  and  N_20 
ROOT
ATOM      1  C   LIG d   1      -7.648  78.311 118.849  0.00  0.00     0.161 C 
ATOM      2  C   LIG d   1      -8.574  79.142 118.196  0.00  0.00     0.016 C 
ATOM      3  C   LIG d   1      -8.276  80.457 117.774  0.00  0.00     0.038 C 
ATOM      4  C   LIG d   1      -6.977  80.981 117.840  0.00  0.00     0.028 C 
ATOM      5  C   LIG d   1      -6.131  80.364 118.949  0.00  0.00    -0.047 C 
ATOM      6  C   LIG d   1      -6.193  78.824 118.830  0.00  0.00     0.091 C 
ENDROOT
BRANCH   1   7
ATOM      7  O   LIG d   1      -7.717  76.979 118.301  0.00  0.00    -0.368 OA
BRANCH   7   8
ATOM      8  C   LIG d   1      -7.286  76.832 116.926  0.00  0.00     0.119 C 
BRANCH   8   9
ATOM      9  C   LIG d   1      -8.440  76.169 116.148  0.00  0.00     0.028 C 
ATOM     10  C   LIG d   1      -9.362  75.342 117.059  0.00  0.00     0.006 C 
ENDBRANCH   8   9
BRANCH   8  11
ATOM     11  C   LIG d   1      -6.109  75.860 116.811  0.00  0.00     0.028 C 
ATOM     12  C   LIG d   1      -5.897  75.348 115.377  0.00  0.00     0.006 C 
ENDBRANCH   8  11
ENDBRANCH   7   8
ENDBRANCH   1   7
BRANCH   6  13
ATOM     13  N   LIG d   1      -5.461  78.141 119.928  0.00  0.00    -0.311 N 
ATOM     14  C   LIG d   1      -4.203  77.718 119.818  0.00  0.00     0.210 C 
ATOM     15  C   LIG d   1      -3.644  77.021 121.062  0.00  0.00     0.109 C 
ATOM     16  O   LIG d   1      -3.486  77.884 118.820  0.00  0.00    -0.276 OA
ATOM     17  H   LIG d   1      -5.958  77.993 120.785  0.00  0.00     0.149 HD
ENDBRANCH   6  13
BRANCH   5  18
ATOM     18  N   LIG d   1      -4.763  80.899 118.816  0.00  0.00     0.381 N 
ATOM     19  H   LIG d   1      -4.249  80.729 119.658  0.00  0.00    -0.090 HD
ATOM     20  H   LIG d   1      -4.815  81.893 118.674  0.00  0.00    -0.090 HD
ATOM     21  H   LIG d   1      -4.302  80.470 118.045  0.00  0.00    -0.090 HD
ENDBRANCH   5  18
BRANCH   3  22
ATOM     22  C   LIG d   1      -9.295  81.279 117.314  0.00  0.00     0.382 C 
ATOM     23  O   LIG d   1     -10.465  81.125 117.739  0.00  0.00    -0.241 OA
ATOM     24  O   LIG d   1      -9.066  82.142 116.446  0.00  0.00    -0.241 OA
ENDBRANCH   3  22
TORSDOF 7
ENDMDL
