MODEL 1
REMARK VINA RESULT:      -5.5      0.000      0.000
REMARK  7 active torsions:
REMARK  status: ('A' for Active; 'I' for Inactive)
REMARK    1  A    between atoms: C_2  and  C_3 
REMARK    2  A    between atoms: C_3  and  O_6 
REMARK    3  A    between atoms: C_3  and  C_4 
REMARK    4  A    between atoms: C_7  and  O_6 
REMARK    5  A    between atoms: C_9  and  C_10 
REMARK    6  A    between atoms: N_15  and  C_14 
REMARK    7  A    between atoms: N_20  and  C_19 
REMARK       I    between atoms: C_22  and  N_20 
ROOT
ATOM      1  C   LIG d   1      -6.942  77.358 117.440  0.00  0.00     0.161 C 
ATOM      2  C   LIG d   1      -8.149  77.964 117.826  0.00  0.00     0.016 C 
ATOM      3  C   LIG d   1      -8.266  79.339 118.136  0.00  0.00     0.038 C 
ATOM      4  C   LIG d   1      -7.208  80.237 117.933  0.00  0.00     0.028 C 
ATOM      5  C   LIG d   1      -5.833  79.584 118.027  0.00  0.00    -0.047 C 
ATOM      6  C   LIG d   1      -5.802  78.343 117.106  0.00  0.00     0.091 C 
ENDROOT
BRANCH   1   7
ATOM      7  O   LIG d   1      -7.175  76.467 116.331  0.00  0.00    -0.368 OA
BRANCH   7   8
ATOM      8  C   LIG d   1      -6.884  75.068 116.567  0.00  0.00     0.119 C 
BRANCH   8   9
ATOM      9  C   LIG d   1      -6.331  74.482 115.253  0.00  0.00     0.028 C 
ATOM     10  C   LIG d   1      -4.799  74.581 115.165  0.00  0.00     0.006 C 
ENDBRANCH   8   9
BRANCH   8  11
ATOM     11  C   LIG d   1      -8.162  74.274 116.858  0.00  0.00     0.028 C 
ATOM     12  C   LIG d   1      -8.142  72.866 116.242  0.00  0.00     0.006 C 
ENDBRANCH   8  11
ENDBRANCH   7   8
ENDBRANCH   1   7
BRANCH   6  13
ATOM     13  N   LIG d   1      -4.520  77.597 117.202  0.00  0.00    -0.311 N 
ATOM     14  C   LIG d   1      -3.486  77.809 116.391  0.00  0.00     0.210 C 
ATOM     15  C   LIG d   1      -2.268  76.917 116.650  0.00  0.00     0.109 C 
ATOM     16  O   LIG d   1      -3.450  78.673 115.502  0.00  0.00    -0.276 OA
ATOM     17  H   LIG d   1      -4.452  76.899 117.916  0.00  0.00     0.149 HD
ENDBRANCH   6  13
BRANCH   5  18
ATOM     18  N   LIG d   1      -4.830  80.602 117.660  0.00  0.00     0.381 N 
ATOM     19  H   LIG d   1      -5.233  81.259 117.023  0.00  0.00    -0.090 HD
ATOM     20  H   LIG d   1      -4.060  80.148 117.201  0.00  0.00    -0.090 HD
ATOM     21  H   LIG d   1      -4.509  81.074 118.477  0.00  0.00    -0.090 HD
ENDBRANCH   5  18
BRANCH   3  22
ATOM     22  C   LIG d   1      -9.441  79.820 118.692  0.00  0.00     0.382 C 
ATOM     23  O   LIG d   1     -10.524  79.219 118.489  0.00  0.00    -0.241 OA
ATOM     24  O   LIG d   1      -9.440  80.873 119.358  0.00  0.00    -0.241 OA
ENDBRANCH   3  22
TORSDOF 7
ENDMDL
MODEL 2
REMARK VINA RESULT:      -5.5     13.684     16.808
REMARK  7 active torsions:
REMARK  status: ('A' for Active; 'I' for Inactive)
REMARK    1  A    between atoms: C_2  and  C_3 
REMARK    2  A    between atoms: C_3  and  O_6 
REMARK    3  A    between atoms: C_3  and  C_4 
REMARK    4  A    between atoms: C_7  and  O_6 
REMARK    5  A    between atoms: C_9  and  C_10 
REMARK    6  A    between atoms: N_15  and  C_14 
REMARK    7  A    between atoms: N_20  and  C_19 
REMARK       I    between atoms: C_22  and  N_20 
ROOT
ATOM      1  C   LIG d   1      -6.983  93.728 117.646  0.00  0.00     0.161 C 
ATOM      2  C   LIG d   1      -7.558  92.580 117.077  0.00  0.00     0.016 C 
ATOM      3  C   LIG d   1      -6.808  91.446 116.687  0.00  0.00     0.038 C 
ATOM      4  C   LIG d   1      -5.442  91.324 116.979  0.00  0.00     0.028 C 
ATOM      5  C   LIG d   1      -4.725  92.665 117.096  0.00  0.00    -0.047 C 
ATOM      6  C   LIG d   1      -5.509  93.569 118.075  0.00  0.00     0.091 C 
ENDROOT
BRANCH   1   7
ATOM      7  O   LIG d   1      -7.783  94.176 118.758  0.00  0.00    -0.368 OA
BRANCH   7   8
ATOM      8  C   LIG d   1      -8.821  95.138 118.450  0.00  0.00     0.119 C 
BRANCH   8   9
ATOM      9  C   LIG d   1      -8.128  96.465 118.083  0.00  0.00     0.028 C 
ATOM     10  C   LIG d   1      -7.690  97.262 119.323  0.00  0.00     0.006 C 
ENDBRANCH   8   9
BRANCH   8  11
ATOM     11  C   LIG d   1      -9.672  95.454 119.684  0.00  0.00     0.028 C 
ATOM     12  C   LIG d   1     -10.310  94.200 120.304  0.00  0.00     0.006 C 
ENDBRANCH   8  11
ENDBRANCH   7   8
ENDBRANCH   1   7
BRANCH   6  13
ATOM     13  N   LIG d   1      -4.922  94.931 118.183  0.00  0.00    -0.311 N 
ATOM     14  C   LIG d   1      -4.044  95.278 119.121  0.00  0.00     0.210 C 
ATOM     15  C   LIG d   1      -3.580  96.737 119.064  0.00  0.00     0.109 C 
ATOM     16  O   LIG d   1      -3.580  94.508 119.976  0.00  0.00    -0.276 OA
ATOM     17  H   LIG d   1      -5.220  95.610 117.510  0.00  0.00     0.149 HD
ENDBRANCH   6  13
BRANCH   5  18
ATOM     18  N   LIG d   1      -3.344  92.395 117.539  0.00  0.00     0.381 N 
ATOM     19  H   LIG d   1      -2.696  92.821 116.906  0.00  0.00    -0.090 HD
ATOM     20  H   LIG d   1      -3.188  91.403 117.530  0.00  0.00    -0.090 HD
ATOM     21  H   LIG d   1      -3.204  92.753 118.458  0.00  0.00    -0.090 HD
ENDBRANCH   5  18
BRANCH   3  22
ATOM     22  C   LIG d   1      -7.419  90.436 115.959  0.00  0.00     0.382 C 
ATOM     23  O   LIG d   1      -8.462  89.892 116.395  0.00  0.00    -0.241 OA
ATOM     24  O   LIG d   1      -6.915  90.031 114.894  0.00  0.00    -0.241 OA
ENDBRANCH   3  22
TORSDOF 7
ENDMDL
MODEL 3
REMARK VINA RESULT:      -5.2     13.272     15.918
REMARK  7 active torsions:
REMARK  status: ('A' for Active; 'I' for Inactive)
REMARK    1  A    between atoms: C_2  and  C_3 
REMARK    2  A    between atoms: C_3  and  O_6 
REMARK    3  A    between atoms: C_3  and  C_4 
REMARK    4  A    between atoms: C_7  and  O_6 
REMARK    5  A    between atoms: C_9  and  C_10 
REMARK    6  A    between atoms: N_15  and  C_14 
REMARK    7  A    between atoms: N_20  and  C_19 
REMARK       I    between atoms: C_22  and  N_20 
ROOT
ATOM      1  C   LIG d   1      -5.982  92.129 118.589  0.00  0.00     0.161 C 
ATOM      2  C   LIG d   1      -6.209  91.302 117.476  0.00  0.00     0.016 C 
ATOM      3  C   LIG d   1      -6.784  91.762 116.269  0.00  0.00     0.038 C 
ATOM      4  C   LIG d   1      -7.033  93.123 116.038  0.00  0.00     0.028 C 
ATOM      5  C   LIG d   1      -7.289  93.917 117.314  0.00  0.00    -0.047 C 
ATOM      6  C   LIG d   1      -6.145  93.639 118.316  0.00  0.00     0.091 C 
ENDROOT
BRANCH   1   7
ATOM      7  O   LIG d   1      -4.679  91.858 119.142  0.00  0.00    -0.368 OA
BRANCH   7   8
ATOM      8  C   LIG d   1      -3.577  91.848 118.201  0.00  0.00     0.119 C 
BRANCH   8   9
ATOM      9  C   LIG d   1      -2.680  90.645 118.552  0.00  0.00     0.028 C 
ATOM     10  C   LIG d   1      -3.002  89.404 117.703  0.00  0.00     0.006 C 
ENDBRANCH   8   9
BRANCH   8  11
ATOM     11  C   LIG d   1      -2.687  93.082 118.372  0.00  0.00     0.028 C 
ATOM     12  C   LIG d   1      -2.607  93.562 119.830  0.00  0.00     0.006 C 
ENDBRANCH   8  11
ENDBRANCH   7   8
ENDBRANCH   1   7
BRANCH   6  13
ATOM     13  N   LIG d   1      -6.361  94.312 119.624  0.00  0.00    -0.311 N 
ATOM     14  C   LIG d   1      -5.833  95.493 119.936  0.00  0.00     0.210 C 
ATOM     15  C   LIG d   1      -6.165  95.998 121.344  0.00  0.00     0.109 C 
ATOM     16  O   LIG d   1      -5.147  96.187 119.170  0.00  0.00    -0.276 OA
ATOM     17  H   LIG d   1      -6.931  93.834 120.294  0.00  0.00     0.149 HD
ENDBRANCH   6  13
BRANCH   5  18
ATOM     18  N   LIG d   1      -7.397  95.340 116.940  0.00  0.00     0.381 N 
ATOM     19  H   LIG d   1      -6.659  95.860 117.369  0.00  0.00    -0.090 HD
ATOM     20  H   LIG d   1      -8.273  95.699 117.277  0.00  0.00    -0.090 HD
ATOM     21  H   LIG d   1      -7.350  95.436 115.949  0.00  0.00    -0.090 HD
ENDBRANCH   5  18
BRANCH   3  22
ATOM     22  C   LIG d   1      -7.152  90.849 115.292  0.00  0.00     0.382 C 
ATOM     23  O   LIG d   1      -8.308  90.884 114.805  0.00  0.00    -0.241 OA
ATOM     24  O   LIG d   1      -6.357  89.964 114.923  0.00  0.00    -0.241 OA
ENDBRANCH   3  22
TORSDOF 7
ENDMDL
MODEL 4
REMARK VINA RESULT:      -4.8     13.175     16.190
REMARK  7 active torsions:
REMARK  status: ('A' for Active; 'I' for Inactive)
REMARK    1  A    between atoms: C_2  and  C_3 
REMARK    2  A    between atoms: C_3  and  O_6 
REMARK    3  A    between atoms: C_3  and  C_4 
REMARK    4  A    between atoms: C_7  and  O_6 
REMARK    5  A    between atoms: C_9  and  C_10 
REMARK    6  A    between atoms: N_15  and  C_14 
REMARK    7  A    between atoms: N_20  and  C_19 
REMARK       I    between atoms: C_22  and  N_20 
ROOT
ATOM      1  C   LIG d   1      -5.589  93.228 117.389  0.00  0.00     0.161 C 
ATOM      2  C   LIG d   1      -6.708  92.522 116.917  0.00  0.00     0.016 C 
ATOM      3  C   LIG d   1      -6.643  91.197 116.427  0.00  0.00     0.038 C 
ATOM      4  C   LIG d   1      -5.472  90.430 116.519  0.00  0.00     0.028 C 
ATOM      5  C   LIG d   1      -4.198  91.267 116.523  0.00  0.00    -0.047 C 
ATOM      6  C   LIG d   1      -4.325  92.369 117.600  0.00  0.00     0.091 C 
ENDROOT
BRANCH   1   7
ATOM      7  O   LIG d   1      -5.929  93.926 118.604  0.00  0.00    -0.368 OA
BRANCH   7   8
ATOM      8  C   LIG d   1      -6.452  95.267 118.443  0.00  0.00     0.119 C 
BRANCH   8   9
ATOM      9  C   LIG d   1      -5.457  96.235 119.112  0.00  0.00     0.028 C 
ATOM     10  C   LIG d   1      -5.767  96.456 120.603  0.00  0.00     0.006 C 
ENDBRANCH   8   9
BRANCH   8  11
ATOM     11  C   LIG d   1      -7.768  95.447 119.204  0.00  0.00     0.028 C 
ATOM     12  C   LIG d   1      -8.894  96.012 118.324  0.00  0.00     0.006 C 
ENDBRANCH   8  11
ENDBRANCH   7   8
ENDBRANCH   1   7
BRANCH   6  13
ATOM     13  N   LIG d   1      -3.155  93.286 117.613  0.00  0.00    -0.311 N 
ATOM     14  C   LIG d   1      -2.102  93.120 118.412  0.00  0.00     0.210 C 
ATOM     15  C   LIG d   1      -1.015  94.191 118.280  0.00  0.00     0.109 C 
ATOM     16  O   LIG d   1      -1.951  92.169 119.194  0.00  0.00    -0.276 OA
ATOM     17  H   LIG d   1      -3.181  94.067 116.987  0.00  0.00     0.149 HD
ENDBRANCH   6  13
BRANCH   5  18
ATOM     18  N   LIG d   1      -3.065  90.354 116.761  0.00  0.00     0.381 N 
ATOM     19  H   LIG d   1      -2.386  90.459 116.033  0.00  0.00    -0.090 HD
ATOM     20  H   LIG d   1      -3.401  89.407 116.744  0.00  0.00    -0.090 HD
ATOM     21  H   LIG d   1      -2.648  90.550 117.644  0.00  0.00    -0.090 HD
ENDBRANCH   5  18
BRANCH   3  22
ATOM     22  C   LIG d   1      -7.748  90.640 115.802  0.00  0.00     0.382 C 
ATOM     23  O   LIG d   1      -8.212  89.546 116.206  0.00  0.00    -0.241 OA
ATOM     24  O   LIG d   1      -8.260  91.195 114.811  0.00  0.00    -0.241 OA
ENDBRANCH   3  22
TORSDOF 7
ENDMDL
MODEL 5
REMARK VINA RESULT:      -4.5      2.095      2.757
REMARK  7 active torsions:
REMARK  status: ('A' for Active; 'I' for Inactive)
REMARK    1  A    between atoms: C_2  and  C_3 
REMARK    2  A    between atoms: C_3  and  O_6 
REMARK    3  A    between atoms: C_3  and  C_4 
REMARK    4  A    between atoms: C_7  and  O_6 
REMARK    5  A    between atoms: C_9  and  C_10 
REMARK    6  A    between atoms: N_15  and  C_14 
REMARK    7  A    between atoms: N_20  and  C_19 
REMARK       I    between atoms: C_22  and  N_20 
ROOT
ATOM      1  C   LIG d   1      -6.519  78.874 118.122  0.00  0.00     0.161 C 
ATOM      2  C   LIG d   1      -7.886  79.134 117.928  0.00  0.00     0.016 C 
ATOM      3  C   LIG d   1      -8.566  80.215 118.533  0.00  0.00     0.038 C 
ATOM      4  C   LIG d   1      -7.887  81.205 119.260  0.00  0.00     0.028 C 
ATOM      5  C   LIG d   1      -6.596  80.707 119.900  0.00  0.00    -0.047 C 
ATOM      6  C   LIG d   1      -5.739  80.006 118.821  0.00  0.00     0.091 C 
ENDROOT
BRANCH   1   7
ATOM      7  O   LIG d   1      -5.901  78.543 116.863  0.00  0.00    -0.368 OA
BRANCH   7   8
ATOM      8  C   LIG d   1      -5.513  77.158 116.688  0.00  0.00     0.119 C 
BRANCH   8   9
ATOM      9  C   LIG d   1      -4.033  77.142 116.258  0.00  0.00     0.028 C 
ATOM     10  C   LIG d   1      -3.098  76.692 117.393  0.00  0.00     0.006 C 
ENDBRANCH   8   9
BRANCH   8  11
ATOM     11  C   LIG d   1      -6.278  76.507 115.531  0.00  0.00     0.028 C 
ATOM     12  C   LIG d   1      -5.776  75.091 115.207  0.00  0.00     0.006 C 
ENDBRANCH   8  11
ENDBRANCH   7   8
ENDBRANCH   1   7
BRANCH   6  13
ATOM     13  N   LIG d   1      -4.495  79.416 119.381  0.00  0.00    -0.311 N 
ATOM     14  C   LIG d   1      -3.323  80.049 119.391  0.00  0.00     0.210 C 
ATOM     15  C   LIG d   1      -2.163  79.252 119.997  0.00  0.00     0.109 C 
ATOM     16  O   LIG d   1      -3.141  81.206 118.984  0.00  0.00    -0.276 OA
ATOM     17  H   LIG d   1      -4.559  78.492 119.761  0.00  0.00     0.149 HD
ENDBRANCH   6  13
BRANCH   5  18
ATOM     18  N   LIG d   1      -5.923  81.871 120.507  0.00  0.00     0.381 N 
ATOM     19  H   LIG d   1      -5.280  82.270 119.853  0.00  0.00    -0.090 HD
ATOM     20  H   LIG d   1      -5.404  81.564 121.311  0.00  0.00    -0.090 HD
ATOM     21  H   LIG d   1      -6.597  82.552 120.778  0.00  0.00    -0.090 HD
ENDBRANCH   5  18
BRANCH   3  22
ATOM     22  C   LIG d   1      -9.948  80.292 118.448  0.00  0.00     0.382 C 
ATOM     23  O   LIG d   1     -10.655  79.334 118.844  0.00  0.00    -0.241 OA
ATOM     24  O   LIG d   1     -10.495  81.289 117.940  0.00  0.00    -0.241 OA
ENDBRANCH   3  22
TORSDOF 7
ENDMDL
MODEL 6
REMARK VINA RESULT:      -4.5     13.505     16.619
REMARK  7 active torsions:
REMARK  status: ('A' for Active; 'I' for Inactive)
REMARK    1  A    between atoms: C_2  and  C_3 
REMARK    2  A    between atoms: C_3  and  O_6 
REMARK    3  A    between atoms: C_3  and  C_4 
REMARK    4  A    between atoms: C_7  and  O_6 
REMARK    5  A    between atoms: C_9  and  C_10 
REMARK    6  A    between atoms: N_15  and  C_14 
REMARK    7  A    between atoms: N_20  and  C_19 
REMARK       I    between atoms: C_22  and  N_20 
ROOT
ATOM      1  C   LIG d   1     -16.569  66.355 118.358  0.00  0.00     0.161 C 
ATOM      2  C   LIG d   1     -15.265  65.861 118.529  0.00  0.00     0.016 C 
ATOM      3  C   LIG d   1     -14.983  64.546 118.967  0.00  0.00     0.038 C 
ATOM      4  C   LIG d   1     -15.992  63.582 119.117  0.00  0.00     0.028 C 
ATOM      5  C   LIG d   1     -17.357  64.180 119.442  0.00  0.00    -0.047 C 
ATOM      6  C   LIG d   1     -17.679  65.285 118.410  0.00  0.00     0.091 C 
ENDROOT
BRANCH   1   7
ATOM      7  O   LIG d   1     -16.650  67.101 117.127  0.00  0.00    -0.368 OA
BRANCH   7   8
ATOM      8  C   LIG d   1     -15.792  66.649 116.050  0.00  0.00     0.119 C 
BRANCH   8   9
ATOM      9  C   LIG d   1     -15.362  67.892 115.247  0.00  0.00     0.028 C 
ATOM     10  C   LIG d   1     -14.313  68.736 115.990  0.00  0.00     0.006 C 
ENDBRANCH   8   9
BRANCH   8  11
ATOM     11  C   LIG d   1     -16.560  65.771 115.057  0.00  0.00     0.028 C 
ATOM     12  C   LIG d   1     -16.210  64.280 115.186  0.00  0.00     0.006 C 
ENDBRANCH   8  11
ENDBRANCH   7   8
ENDBRANCH   1   7
BRANCH   6  13
ATOM     13  N   LIG d   1     -18.959  65.980 118.705  0.00  0.00    -0.311 N 
ATOM     14  C   LIG d   1     -19.917  66.168 117.798  0.00  0.00     0.210 C 
ATOM     15  C   LIG d   1     -21.148  66.925 118.305  0.00  0.00     0.109 C 
ATOM     16  O   LIG d   1     -19.876  65.752 116.630  0.00  0.00    -0.276 OA
ATOM     17  H   LIG d   1     -19.089  66.322 119.637  0.00  0.00     0.149 HD
ENDBRANCH   6  13
BRANCH   5  18
ATOM     18  N   LIG d   1     -18.338  63.079 119.436  0.00  0.00     0.381 N 
ATOM     19  H   LIG d   1     -17.863  62.201 119.490  0.00  0.00    -0.090 HD
ATOM     20  H   LIG d   1     -18.852  63.107 118.573  0.00  0.00    -0.090 HD
ATOM     21  H   LIG d   1     -18.963  63.175 120.206  0.00  0.00    -0.090 HD
ENDBRANCH   5  18
BRANCH   3  22
ATOM     22  C   LIG d   1     -13.683  64.195 119.296  0.00  0.00     0.382 C 
ATOM     23  O   LIG d   1     -13.005  63.492 118.509  0.00  0.00    -0.241 OA
ATOM     24  O   LIG d   1     -13.195  64.536 120.390  0.00  0.00    -0.241 OA
ENDBRANCH   3  22
TORSDOF 7
ENDMDL
MODEL 7
REMARK VINA RESULT:      -4.5     16.936     19.626
REMARK  7 active torsions:
REMARK  status: ('A' for Active; 'I' for Inactive)
REMARK    1  A    between atoms: C_2  and  C_3 
REMARK    2  A    between atoms: C_3  and  O_6 
REMARK    3  A    between atoms: C_3  and  C_4 
REMARK    4  A    between atoms: C_7  and  O_6 
REMARK    5  A    between atoms: C_9  and  C_10 
REMARK    6  A    between atoms: N_15  and  C_14 
REMARK    7  A    between atoms: N_20  and  C_19 
REMARK       I    between atoms: C_22  and  N_20 
ROOT
ATOM      1  C   LIG d   1      -3.625  58.618 121.460  0.00  0.00     0.161 C 
ATOM      2  C   LIG d   1      -4.808  59.356 121.297  0.00  0.00     0.016 C 
ATOM      3  C   LIG d   1      -4.921  60.464 120.426  0.00  0.00     0.038 C 
ATOM      4  C   LIG d   1      -3.893  60.817 119.539  0.00  0.00     0.028 C 
ATOM      5  C   LIG d   1      -2.506  60.415 120.028  0.00  0.00    -0.047 C 
ATOM      6  C   LIG d   1      -2.526  58.919 120.419  0.00  0.00     0.091 C 
ENDROOT
BRANCH   1   7
ATOM      7  O   LIG d   1      -3.926  57.208 121.476  0.00  0.00    -0.368 OA
BRANCH   7   8
ATOM      8  C   LIG d   1      -3.751  56.505 120.221  0.00  0.00     0.119 C 
BRANCH   8   9
ATOM      9  C   LIG d   1      -5.133  56.414 119.545  0.00  0.00     0.028 C 
ATOM     10  C   LIG d   1      -5.031  56.091 118.045  0.00  0.00     0.006 C 
ENDBRANCH   8   9
BRANCH   8  11
ATOM     11  C   LIG d   1      -3.317  55.054 120.452  0.00  0.00     0.028 C 
ATOM     12  C   LIG d   1      -2.008  54.702 119.727  0.00  0.00     0.006 C 
ENDBRANCH   8  11
ENDBRANCH   7   8
ENDBRANCH   1   7
BRANCH   6  13
ATOM     13  N   LIG d   1      -1.231  58.464 120.988  0.00  0.00    -0.311 N 
ATOM     14  C   LIG d   1      -0.256  57.927 120.255  0.00  0.00     0.210 C 
ATOM     15  C   LIG d   1       0.989  57.508 121.043  0.00  0.00     0.109 C 
ATOM     16  O   LIG d   1      -0.292  57.788 119.023  0.00  0.00    -0.276 OA
ATOM     17  H   LIG d   1      -1.104  58.569 121.975  0.00  0.00     0.149 HD
ENDBRANCH   6  13
BRANCH   5  18
ATOM     18  N   LIG d   1      -1.547  60.718 118.949  0.00  0.00     0.381 N 
ATOM     19  H   LIG d   1      -1.361  59.890 118.419  0.00  0.00    -0.090 HD
ATOM     20  H   LIG d   1      -0.685  61.031 119.359  0.00  0.00    -0.090 HD
ATOM     21  H   LIG d   1      -1.916  61.426 118.354  0.00  0.00    -0.090 HD
ENDBRANCH   5  18
BRANCH   3  22
ATOM     22  C   LIG d   1      -6.058  61.256 120.464  0.00  0.00     0.382 C 
ATOM     23  O   LIG d   1      -6.524  61.737 119.403  0.00  0.00    -0.241 OA
ATOM     24  O   LIG d   1      -6.599  61.533 121.552  0.00  0.00    -0.241 OA
ENDBRANCH   3  22
TORSDOF 7
ENDMDL
MODEL 8
REMARK VINA RESULT:      -4.4     12.197     14.898
REMARK  7 active torsions:
REMARK  status: ('A' for Active; 'I' for Inactive)
REMARK    1  A    between atoms: C_2  and  C_3 
REMARK    2  A    between atoms: C_3  and  O_6 
REMARK    3  A    between atoms: C_3  and  C_4 
REMARK    4  A    between atoms: C_7  and  O_6 
REMARK    5  A    between atoms: C_9  and  C_10 
REMARK    6  A    between atoms: N_15  and  C_14 
REMARK    7  A    between atoms: N_20  and  C_19 
REMARK       I    between atoms: C_22  and  N_20 
ROOT
ATOM      1  C   LIG d   1       0.439  89.473 116.723  0.00  0.00     0.161 C 
ATOM      2  C   LIG d   1       1.831  89.655 116.761  0.00  0.00     0.016 C 
ATOM      3  C   LIG d   1       2.448  90.846 117.211  0.00  0.00     0.038 C 
ATOM      4  C   LIG d   1       1.713  91.886 117.798  0.00  0.00     0.028 C 
ATOM      5  C   LIG d   1       0.267  91.952 117.318  0.00  0.00    -0.047 C 
ATOM      6  C   LIG d   1      -0.376  90.554 117.464  0.00  0.00     0.091 C 
ENDROOT
BRANCH   1   7
ATOM      7  O   LIG d   1       0.104  88.163 117.222  0.00  0.00    -0.368 OA
BRANCH   7   8
ATOM      8  C   LIG d   1       0.851  87.712 118.379  0.00  0.00     0.119 C 
BRANCH   8   9
ATOM      9  C   LIG d   1       1.144  86.211 118.184  0.00  0.00     0.028 C 
ATOM     10  C   LIG d   1       1.885  85.925 116.867  0.00  0.00     0.006 C 
ENDBRANCH   8   9
BRANCH   8  11
ATOM     11  C   LIG d   1       0.008  87.798 119.655  0.00  0.00     0.028 C 
ATOM     12  C   LIG d   1      -1.487  87.547 119.400  0.00  0.00     0.006 C 
ENDBRANCH   8  11
ENDBRANCH   7   8
ENDBRANCH   1   7
BRANCH   6  13
ATOM     13  N   LIG d   1      -1.765  90.511 116.938  0.00  0.00    -0.311 N 
ATOM     14  C   LIG d   1      -2.843  90.686 117.699  0.00  0.00     0.210 C 
ATOM     15  C   LIG d   1      -4.181  90.582 116.960  0.00  0.00     0.109 C 
ATOM     16  O   LIG d   1      -2.818  90.950 118.911  0.00  0.00    -0.276 OA
ATOM     17  H   LIG d   1      -1.876  90.333 115.959  0.00  0.00     0.149 HD
ENDBRANCH   6  13
BRANCH   5  18
ATOM     18  N   LIG d   1      -0.419  92.990 118.110  0.00  0.00     0.381 N 
ATOM     19  H   LIG d   1      -1.409  92.851 118.066  0.00  0.00    -0.090 HD
ATOM     20  H   LIG d   1      -0.209  93.891 117.718  0.00  0.00    -0.090 HD
ATOM     21  H   LIG d   1      -0.113  92.953 119.058  0.00  0.00    -0.090 HD
ENDBRANCH   5  18
BRANCH   3  22
ATOM     22  C   LIG d   1       3.813  91.020 117.037  0.00  0.00     0.382 C 
ATOM     23  O   LIG d   1       4.285  92.175 116.908  0.00  0.00    -0.241 OA
ATOM     24  O   LIG d   1       4.571  90.035 116.963  0.00  0.00    -0.241 OA
ENDBRANCH   3  22
TORSDOF 7
ENDMDL
MODEL 9
REMARK VINA RESULT:      -4.4     20.773     23.394
REMARK  7 active torsions:
REMARK  status: ('A' for Active; 'I' for Inactive)
REMARK    1  A    between atoms: C_2  and  C_3 
REMARK    2  A    between atoms: C_3  and  O_6 
REMARK    3  A    between atoms: C_3  and  C_4 
REMARK    4  A    between atoms: C_7  and  O_6 
REMARK    5  A    between atoms: C_9  and  C_10 
REMARK    6  A    between atoms: N_15  and  C_14 
REMARK    7  A    between atoms: N_20  and  C_19 
REMARK       I    between atoms: C_22  and  N_20 
ROOT
ATOM      1  C   LIG d   1     -20.548  96.038 119.747  0.00  0.00     0.161 C 
ATOM      2  C   LIG d   1     -20.031  94.794 120.147  0.00  0.00     0.016 C 
ATOM      3  C   LIG d   1     -20.532  93.557 119.683  0.00  0.00     0.038 C 
ATOM      4  C   LIG d   1     -21.493  93.482 118.664  0.00  0.00     0.028 C 
ATOM      5  C   LIG d   1     -22.400  94.706 118.595  0.00  0.00    -0.047 C 
ATOM      6  C   LIG d   1     -21.523  95.978 118.552  0.00  0.00     0.091 C 
ENDROOT
BRANCH   1   7
ATOM      7  O   LIG d   1     -19.468  96.950 119.468  0.00  0.00    -0.368 OA
BRANCH   7   8
ATOM      8  C   LIG d   1     -18.574  96.569 118.393  0.00  0.00     0.119 C 
BRANCH   8   9
ATOM      9  C   LIG d   1     -17.132  96.747 118.906  0.00  0.00     0.028 C 
ATOM     10  C   LIG d   1     -16.602  95.489 119.615  0.00  0.00     0.006 C 
ENDBRANCH   8   9
BRANCH   8  11
ATOM     11  C   LIG d   1     -18.701  97.521 117.200  0.00  0.00     0.028 C 
ATOM     12  C   LIG d   1     -19.074  96.796 115.897  0.00  0.00     0.006 C 
ENDBRANCH   8  11
ENDBRANCH   7   8
ENDBRANCH   1   7
BRANCH   6  13
ATOM     13  N   LIG d   1     -22.331  97.225 118.569  0.00  0.00    -0.311 N 
ATOM     14  C   LIG d   1     -22.682  97.886 117.467  0.00  0.00     0.210 C 
ATOM     15  C   LIG d   1     -23.499  99.159 117.709  0.00  0.00     0.109 C 
ATOM     16  O   LIG d   1     -22.422  97.521 116.310  0.00  0.00    -0.276 OA
ATOM     17  H   LIG d   1     -22.612  97.575 119.464  0.00  0.00     0.149 HD
ENDBRANCH   6  13
BRANCH   5  18
ATOM     18  N   LIG d   1     -23.260  94.557 117.406  0.00  0.00     0.381 N 
ATOM     19  H   LIG d   1     -23.167  95.360 116.817  0.00  0.00    -0.090 HD
ATOM     20  H   LIG d   1     -24.218  94.494 117.704  0.00  0.00    -0.090 HD
ATOM     21  H   LIG d   1     -23.007  93.736 116.902  0.00  0.00    -0.090 HD
ENDBRANCH   5  18
BRANCH   3  22
ATOM     22  C   LIG d   1     -20.100  92.377 120.268  0.00  0.00     0.382 C 
ATOM     23  O   LIG d   1     -20.257  91.285 119.670  0.00  0.00    -0.241 OA
ATOM     24  O   LIG d   1     -19.594  92.384 121.407  0.00  0.00    -0.241 OA
ENDBRANCH   3  22
TORSDOF 7
ENDMDL
