MODEL 1
REMARK VINA RESULT:      -6.5      0.000      0.000
REMARK  7 active torsions:
REMARK  status: ('A' for Active; 'I' for Inactive)
REMARK    1  A    between atoms: C_2  and  C_3 
REMARK    2  A    between atoms: C_3  and  O_6 
REMARK    3  A    between atoms: C_3  and  C_4 
REMARK    4  A    between atoms: C_7  and  O_6 
REMARK    5  A    between atoms: C_9  and  C_10 
REMARK    6  A    between atoms: N_15  and  C_14 
REMARK    7  A    between atoms: N_20  and  C_19 
REMARK       I    between atoms: C_22  and  N_20 
ROOT
ATOM      1  C   LIG d   1      -7.710  75.990 117.811  0.00  0.00     0.161 C 
ATOM      2  C   LIG d   1      -9.009  76.084 118.338  0.00  0.00     0.016 C 
ATOM      3  C   LIG d   1      -9.612  77.308 118.708  0.00  0.00     0.038 C 
ATOM      4  C   LIG d   1      -9.009  78.544 118.433  0.00  0.00     0.028 C 
ATOM      5  C   LIG d   1      -7.487  78.474 118.365  0.00  0.00    -0.047 C 
ATOM      6  C   LIG d   1      -7.080  77.337 117.400  0.00  0.00     0.091 C 
ENDROOT
BRANCH   1   7
ATOM      7  O   LIG d   1      -7.699  75.072 116.700  0.00  0.00    -0.368 OA
BRANCH   7   8
ATOM      8  C   LIG d   1      -7.673  73.663 117.037  0.00  0.00     0.119 C 
BRANCH   8   9
ATOM      9  C   LIG d   1      -6.748  72.962 116.023  0.00  0.00     0.028 C 
ATOM     10  C   LIG d   1      -5.807  73.946 115.309  0.00  0.00     0.006 C 
ENDBRANCH   8   9
BRANCH   8  11
ATOM     11  C   LIG d   1      -9.048  73.018 116.844  0.00  0.00     0.028 C 
ATOM     12  C   LIG d   1      -8.965  71.603 116.251  0.00  0.00     0.006 C 
ENDBRANCH   8  11
ENDBRANCH   7   8
ENDBRANCH   1   7
BRANCH   6  13
ATOM     13  N   LIG d   1      -5.607  77.145 117.340  0.00  0.00    -0.311 N 
ATOM     14  C   LIG d   1      -4.907  77.200 116.209  0.00  0.00     0.210 C 
ATOM     15  C   LIG d   1      -3.403  76.954 116.367  0.00  0.00     0.109 C 
ATOM     16  O   LIG d   1      -5.383  77.460 115.093  0.00  0.00    -0.276 OA
ATOM     17  H   LIG d   1      -5.136  76.960 118.204  0.00  0.00     0.149 HD
ENDBRANCH   6  13
BRANCH   5  18
ATOM     18  N   LIG d   1      -6.999  79.799 117.936  0.00  0.00     0.381 N 
ATOM     19  H   LIG d   1      -7.693  80.494 118.127  0.00  0.00    -0.090 HD
ATOM     20  H   LIG d   1      -6.837  79.780 116.944  0.00  0.00    -0.090 HD
ATOM     21  H   LIG d   1      -6.154  80.022 118.414  0.00  0.00    -0.090 HD
ENDBRANCH   5  18
BRANCH   3  22
ATOM     22  C   LIG d   1     -10.815  77.301 119.397  0.00  0.00     0.382 C 
ATOM     23  O   LIG d   1     -10.851  77.657 120.600  0.00  0.00    -0.241 OA
ATOM     24  O   LIG d   1     -11.857  76.900 118.845  0.00  0.00    -0.241 OA
ENDBRANCH   3  22
TORSDOF 7
ENDMDL
MODEL 2
REMARK VINA RESULT:      -5.9      2.396      5.592
REMARK  7 active torsions:
REMARK  status: ('A' for Active; 'I' for Inactive)
REMARK    1  A    between atoms: C_2  and  C_3 
REMARK    2  A    between atoms: C_3  and  O_6 
REMARK    3  A    between atoms: C_3  and  C_4 
REMARK    4  A    between atoms: C_7  and  O_6 
REMARK    5  A    between atoms: C_9  and  C_10 
REMARK    6  A    between atoms: N_15  and  C_14 
REMARK    7  A    between atoms: N_20  and  C_19 
REMARK       I    between atoms: C_22  and  N_20 
ROOT
ATOM      1  C   LIG d   1      -7.796  77.413 118.152  0.00  0.00     0.161 C 
ATOM      2  C   LIG d   1      -7.667  76.150 117.550  0.00  0.00     0.016 C 
ATOM      3  C   LIG d   1      -8.721  75.211 117.476  0.00  0.00     0.038 C 
ATOM      4  C   LIG d   1     -10.029  75.533 117.869  0.00  0.00     0.028 C 
ATOM      5  C   LIG d   1     -10.090  76.613 118.944  0.00  0.00    -0.047 C 
ATOM      6  C   LIG d   1      -9.245  77.824 118.487  0.00  0.00     0.091 C 
ENDROOT
BRANCH   1   7
ATOM      7  O   LIG d   1      -7.169  78.414 117.327  0.00  0.00    -0.368 OA
BRANCH   7   8
ATOM      8  C   LIG d   1      -5.992  79.052 117.882  0.00  0.00     0.119 C 
BRANCH   8   9
ATOM      9  C   LIG d   1      -6.291  80.560 117.991  0.00  0.00     0.028 C 
ATOM     10  C   LIG d   1      -5.921  81.133 119.369  0.00  0.00     0.006 C 
ENDBRANCH   8   9
BRANCH   8  11
ATOM     11  C   LIG d   1      -4.798  78.943 116.930  0.00  0.00     0.028 C 
ATOM     12  C   LIG d   1      -4.044  77.611 117.070  0.00  0.00     0.006 C 
ENDBRANCH   8  11
ENDBRANCH   7   8
ENDBRANCH   1   7
BRANCH   6  13
ATOM     13  N   LIG d   1      -9.182  78.893 119.518  0.00  0.00    -0.311 N 
ATOM     14  C   LIG d   1      -9.699  80.108 119.346  0.00  0.00     0.210 C 
ATOM     15  C   LIG d   1      -9.507  81.065 120.526  0.00  0.00     0.109 C 
ATOM     16  O   LIG d   1     -10.326  80.475 118.341  0.00  0.00    -0.276 OA
ATOM     17  H   LIG d   1      -8.719  78.671 120.377  0.00  0.00     0.149 HD
ENDBRANCH   6  13
BRANCH   5  18
ATOM     18  N   LIG d   1     -11.511  76.947 119.159  0.00  0.00     0.381 N 
ATOM     19  H   LIG d   1     -11.740  77.786 118.664  0.00  0.00    -0.090 HD
ATOM     20  H   LIG d   1     -11.662  77.109 120.140  0.00  0.00    -0.090 HD
ATOM     21  H   LIG d   1     -12.089  76.199 118.846  0.00  0.00    -0.090 HD
ENDBRANCH   5  18
BRANCH   3  22
ATOM     22  C   LIG d   1      -8.463  73.920 117.041  0.00  0.00     0.382 C 
ATOM     23  O   LIG d   1      -7.303  73.597 116.690  0.00  0.00    -0.241 OA
ATOM     24  O   LIG d   1      -9.384  73.086 116.954  0.00  0.00    -0.241 OA
ENDBRANCH   3  22
TORSDOF 7
ENDMDL
MODEL 3
REMARK VINA RESULT:      -5.7     15.083     17.718
REMARK  7 active torsions:
REMARK  status: ('A' for Active; 'I' for Inactive)
REMARK    1  A    between atoms: C_2  and  C_3 
REMARK    2  A    between atoms: C_3  and  O_6 
REMARK    3  A    between atoms: C_3  and  C_4 
REMARK    4  A    between atoms: C_7  and  O_6 
REMARK    5  A    between atoms: C_9  and  C_10 
REMARK    6  A    between atoms: N_15  and  C_14 
REMARK    7  A    between atoms: N_20  and  C_19 
REMARK       I    between atoms: C_22  and  N_20 
ROOT
ATOM      1  C   LIG d   1      -6.288  93.131 117.949  0.00  0.00     0.161 C 
ATOM      2  C   LIG d   1      -6.998  92.077 117.350  0.00  0.00     0.016 C 
ATOM      3  C   LIG d   1      -6.373  90.985 116.705  0.00  0.00     0.038 C 
ATOM      4  C   LIG d   1      -4.984  90.795 116.748  0.00  0.00     0.028 C 
ATOM      5  C   LIG d   1      -4.199  92.093 116.905  0.00  0.00    -0.047 C 
ATOM      6  C   LIG d   1      -4.773  92.884 118.103  0.00  0.00     0.091 C 
ENDROOT
BRANCH   1   7
ATOM      7  O   LIG d   1      -6.876  93.452 119.226  0.00  0.00    -0.368 OA
BRANCH   7   8
ATOM      8  C   LIG d   1      -7.669  94.663 119.275  0.00  0.00     0.119 C 
BRANCH   8   9
ATOM      9  C   LIG d   1      -9.127  94.276 118.962  0.00  0.00     0.028 C 
ATOM     10  C   LIG d   1     -10.109  94.765 120.040  0.00  0.00     0.006 C 
ENDBRANCH   8   9
BRANCH   8  11
ATOM     11  C   LIG d   1      -7.262  95.641 118.169  0.00  0.00     0.028 C 
ATOM     12  C   LIG d   1      -6.715  96.969 118.718  0.00  0.00     0.006 C 
ENDBRANCH   8  11
ENDBRANCH   7   8
ENDBRANCH   1   7
BRANCH   6  13
ATOM     13  N   LIG d   1      -4.117  94.207 118.275  0.00  0.00    -0.311 N 
ATOM     14  C   LIG d   1      -3.431  94.549 119.364  0.00  0.00     0.210 C 
ATOM     15  C   LIG d   1      -2.853  95.968 119.345  0.00  0.00     0.109 C 
ATOM     16  O   LIG d   1      -3.218  93.801 120.330  0.00  0.00    -0.276 OA
ATOM     17  H   LIG d   1      -4.213  94.864 117.526  0.00  0.00     0.149 HD
ENDBRANCH   6  13
BRANCH   5  18
ATOM     18  N   LIG d   1      -2.778  91.738 117.074  0.00  0.00     0.381 N 
ATOM     19  H   LIG d   1      -2.563  91.655 118.047  0.00  0.00    -0.090 HD
ATOM     20  H   LIG d   1      -2.211  92.472 116.687  0.00  0.00    -0.090 HD
ATOM     21  H   LIG d   1      -2.584  90.878 116.609  0.00  0.00    -0.090 HD
ENDBRANCH   5  18
BRANCH   3  22
ATOM     22  C   LIG d   1      -7.138  90.089 115.973  0.00  0.00     0.382 C 
ATOM     23  O   LIG d   1      -8.132  89.536 116.502  0.00  0.00    -0.241 OA
ATOM     24  O   LIG d   1      -6.820  89.795 114.805  0.00  0.00    -0.241 OA
ENDBRANCH   3  22
TORSDOF 7
ENDMDL
MODEL 4
REMARK VINA RESULT:      -5.6      2.103      4.557
REMARK  7 active torsions:
REMARK  status: ('A' for Active; 'I' for Inactive)
REMARK    1  A    between atoms: C_2  and  C_3 
REMARK    2  A    between atoms: C_3  and  O_6 
REMARK    3  A    between atoms: C_3  and  C_4 
REMARK    4  A    between atoms: C_7  and  O_6 
REMARK    5  A    between atoms: C_9  and  C_10 
REMARK    6  A    between atoms: N_15  and  C_14 
REMARK    7  A    between atoms: N_20  and  C_19 
REMARK       I    between atoms: C_22  and  N_20 
ROOT
ATOM      1  C   LIG d   1      -6.592  77.216 117.330  0.00  0.00     0.161 C 
ATOM      2  C   LIG d   1      -7.021  75.918 117.006  0.00  0.00     0.016 C 
ATOM      3  C   LIG d   1      -8.316  75.431 117.299  0.00  0.00     0.038 C 
ATOM      4  C   LIG d   1      -9.325  76.265 117.803  0.00  0.00     0.028 C 
ATOM      5  C   LIG d   1      -8.791  77.442 118.612  0.00  0.00    -0.047 C 
ATOM      6  C   LIG d   1      -7.714  78.175 117.779  0.00  0.00     0.091 C 
ENDROOT
BRANCH   1   7
ATOM      7  O   LIG d   1      -5.865  77.780 116.221  0.00  0.00    -0.368 OA
BRANCH   7   8
ATOM      8  C   LIG d   1      -4.451  77.467 116.160  0.00  0.00     0.119 C 
BRANCH   8   9
ATOM      9  C   LIG d   1      -3.691  78.794 115.970  0.00  0.00     0.028 C 
ATOM     10  C   LIG d   1      -2.684  78.733 114.809  0.00  0.00     0.006 C 
ENDBRANCH   8   9
BRANCH   8  11
ATOM     11  C   LIG d   1      -4.119  76.629 114.922  0.00  0.00     0.028 C 
ATOM     12  C   LIG d   1      -3.716  75.187 115.269  0.00  0.00     0.006 C 
ENDBRANCH   8  11
ENDBRANCH   7   8
ENDBRANCH   1   7
BRANCH   6  13
ATOM     13  N   LIG d   1      -7.079  79.290 118.530  0.00  0.00    -0.311 N 
ATOM     14  C   LIG d   1      -7.454  80.562 118.408  0.00  0.00     0.210 C 
ATOM     15  C   LIG d   1      -6.654  81.555 119.257  0.00  0.00     0.109 C 
ATOM     16  O   LIG d   1      -8.394  80.958 117.703  0.00  0.00    -0.276 OA
ATOM     17  H   LIG d   1      -6.328  79.054 119.148  0.00  0.00     0.149 HD
ENDBRANCH   6  13
BRANCH   5  18
ATOM     18  N   LIG d   1      -9.938  78.302 118.959  0.00  0.00     0.381 N 
ATOM     19  H   LIG d   1      -9.925  78.505 119.938  0.00  0.00    -0.090 HD
ATOM     20  H   LIG d   1     -10.788  77.809 118.751  0.00  0.00    -0.090 HD
ATOM     21  H   LIG d   1      -9.900  79.149 118.436  0.00  0.00    -0.090 HD
ENDBRANCH   5  18
BRANCH   3  22
ATOM     22  C   LIG d   1      -8.600  74.085 117.124  0.00  0.00     0.382 C 
ATOM     23  O   LIG d   1      -9.790  73.689 117.133  0.00  0.00    -0.241 OA
ATOM     24  O   LIG d   1      -7.678  73.256 117.002  0.00  0.00    -0.241 OA
ENDBRANCH   3  22
TORSDOF 7
ENDMDL
MODEL 5
REMARK VINA RESULT:      -5.6      2.011      5.157
REMARK  7 active torsions:
REMARK  status: ('A' for Active; 'I' for Inactive)
REMARK    1  A    between atoms: C_2  and  C_3 
REMARK    2  A    between atoms: C_3  and  O_6 
REMARK    3  A    between atoms: C_3  and  C_4 
REMARK    4  A    between atoms: C_7  and  O_6 
REMARK    5  A    between atoms: C_9  and  C_10 
REMARK    6  A    between atoms: N_15  and  C_14 
REMARK    7  A    between atoms: N_20  and  C_19 
REMARK       I    between atoms: C_22  and  N_20 
ROOT
ATOM      1  C   LIG d   1      -7.307  77.549 117.388  0.00  0.00     0.161 C 
ATOM      2  C   LIG d   1      -6.162  77.136 116.688  0.00  0.00     0.016 C 
ATOM      3  C   LIG d   1      -4.941  77.850 116.702  0.00  0.00     0.038 C 
ATOM      4  C   LIG d   1      -4.737  78.952 117.546  0.00  0.00     0.028 C 
ATOM      5  C   LIG d   1      -6.021  79.700 117.887  0.00  0.00    -0.047 C 
ATOM      6  C   LIG d   1      -7.070  78.688 118.402  0.00  0.00     0.091 C 
ENDROOT
BRANCH   1   7
ATOM      7  O   LIG d   1      -7.916  76.417 118.040  0.00  0.00    -0.368 OA
BRANCH   7   8
ATOM      8  C   LIG d   1      -8.558  75.450 117.172  0.00  0.00     0.119 C 
BRANCH   8   9
ATOM      9  C   LIG d   1     -10.040  75.371 117.584  0.00  0.00     0.028 C 
ATOM     10  C   LIG d   1     -10.402  76.393 118.675  0.00  0.00     0.006 C 
ENDBRANCH   8   9
BRANCH   8  11
ATOM     11  C   LIG d   1      -7.998  74.042 117.397  0.00  0.00     0.028 C 
ATOM     12  C   LIG d   1      -8.866  72.947 116.756  0.00  0.00     0.006 C 
ENDBRANCH   8  11
ENDBRANCH   7   8
ENDBRANCH   1   7
BRANCH   6  13
ATOM     13  N   LIG d   1      -8.384  79.325 118.679  0.00  0.00    -0.311 N 
ATOM     14  C   LIG d   1      -8.755  79.745 119.887  0.00  0.00     0.210 C 
ATOM     15  C   LIG d   1     -10.158  80.355 119.957  0.00  0.00     0.109 C 
ATOM     16  O   LIG d   1      -8.042  79.701 120.901  0.00  0.00    -0.276 OA
ATOM     17  H   LIG d   1      -9.012  79.428 117.906  0.00  0.00     0.149 HD
ENDBRANCH   6  13
BRANCH   5  18
ATOM     18  N   LIG d   1      -5.683  80.737 118.879  0.00  0.00     0.381 N 
ATOM     19  H   LIG d   1      -6.379  81.456 118.869  0.00  0.00    -0.090 HD
ATOM     20  H   LIG d   1      -4.800  81.149 118.631  0.00  0.00    -0.090 HD
ATOM     21  H   LIG d   1      -5.625  80.334 119.788  0.00  0.00    -0.090 HD
ENDBRANCH   5  18
BRANCH   3  22
ATOM     22  C   LIG d   1      -3.922  77.485 115.836  0.00  0.00     0.382 C 
ATOM     23  O   LIG d   1      -3.653  78.207 114.846  0.00  0.00    -0.241 OA
ATOM     24  O   LIG d   1      -3.297  76.421 116.008  0.00  0.00    -0.241 OA
ENDBRANCH   3  22
TORSDOF 7
ENDMDL
MODEL 6
REMARK VINA RESULT:      -5.5      2.479      6.842
REMARK  7 active torsions:
REMARK  status: ('A' for Active; 'I' for Inactive)
REMARK    1  A    between atoms: C_2  and  C_3 
REMARK    2  A    between atoms: C_3  and  O_6 
REMARK    3  A    between atoms: C_3  and  C_4 
REMARK    4  A    between atoms: C_7  and  O_6 
REMARK    5  A    between atoms: C_9  and  C_10 
REMARK    6  A    between atoms: N_15  and  C_14 
REMARK    7  A    between atoms: N_20  and  C_19 
REMARK       I    between atoms: C_22  and  N_20 
ROOT
ATOM      1  C   LIG d   1      -7.360  78.785 118.243  0.00  0.00     0.161 C 
ATOM      2  C   LIG d   1      -6.270  78.595 117.377  0.00  0.00     0.016 C 
ATOM      3  C   LIG d   1      -6.072  77.414 116.625  0.00  0.00     0.038 C 
ATOM      4  C   LIG d   1      -7.037  76.398 116.571  0.00  0.00     0.028 C 
ATOM      5  C   LIG d   1      -7.911  76.326 117.819  0.00  0.00    -0.047 C 
ATOM      6  C   LIG d   1      -8.481  77.733 118.113  0.00  0.00     0.091 C 
ENDROOT
BRANCH   1   7
ATOM      7  O   LIG d   1      -7.896  80.112 118.069  0.00  0.00    -0.368 OA
BRANCH   7   8
ATOM      8  C   LIG d   1      -7.945  80.940 119.257  0.00  0.00     0.119 C 
BRANCH   8   9
ATOM      9  C   LIG d   1      -9.361  81.543 119.343  0.00  0.00     0.028 C 
ATOM     10  C   LIG d   1     -10.203  81.244 118.091  0.00  0.00     0.006 C 
ENDBRANCH   8   9
BRANCH   8  11
ATOM     11  C   LIG d   1      -7.001  82.140 119.139  0.00  0.00     0.028 C 
ATOM     12  C   LIG d   1      -5.668  81.923 119.873  0.00  0.00     0.006 C 
ENDBRANCH   8  11
ENDBRANCH   7   8
ENDBRANCH   1   7
BRANCH   6  13
ATOM     13  N   LIG d   1      -9.280  77.770 119.366  0.00  0.00    -0.311 N 
ATOM     14  C   LIG d   1     -10.571  77.446 119.422  0.00  0.00     0.210 C 
ATOM     15  C   LIG d   1     -11.209  77.572 120.809  0.00  0.00     0.109 C 
ATOM     16  O   LIG d   1     -11.239  77.035 118.461  0.00  0.00    -0.276 OA
ATOM     17  H   LIG d   1      -8.808  78.062 120.199  0.00  0.00     0.149 HD
ENDBRANCH   6  13
BRANCH   5  18
ATOM     18  N   LIG d   1      -8.959  75.318 117.572  0.00  0.00     0.381 N 
ATOM     19  H   LIG d   1      -9.133  75.244 116.589  0.00  0.00    -0.090 HD
ATOM     20  H   LIG d   1      -9.807  75.614 118.021  0.00  0.00    -0.090 HD
ATOM     21  H   LIG d   1      -8.673  74.434 117.933  0.00  0.00    -0.090 HD
ENDBRANCH   5  18
BRANCH   3  22
ATOM     22  C   LIG d   1      -4.878  77.225 115.945  0.00  0.00     0.382 C 
ATOM     23  O   LIG d   1      -4.439  76.065 115.760  0.00  0.00    -0.241 OA
ATOM     24  O   LIG d   1      -4.211  78.203 115.555  0.00  0.00    -0.241 OA
ENDBRANCH   3  22
TORSDOF 7
ENDMDL
MODEL 7
REMARK VINA RESULT:      -5.2      2.376      5.091
REMARK  7 active torsions:
REMARK  status: ('A' for Active; 'I' for Inactive)
REMARK    1  A    between atoms: C_2  and  C_3 
REMARK    2  A    between atoms: C_3  and  O_6 
REMARK    3  A    between atoms: C_3  and  C_4 
REMARK    4  A    between atoms: C_7  and  O_6 
REMARK    5  A    between atoms: C_9  and  C_10 
REMARK    6  A    between atoms: N_15  and  C_14 
REMARK    7  A    between atoms: N_20  and  C_19 
REMARK       I    between atoms: C_22  and  N_20 
ROOT
ATOM      1  C   LIG d   1      -6.890  78.223 117.916  0.00  0.00     0.161 C 
ATOM      2  C   LIG d   1      -8.123  77.612 118.197  0.00  0.00     0.016 C 
ATOM      3  C   LIG d   1      -8.523  76.375 117.642  0.00  0.00     0.038 C 
ATOM      4  C   LIG d   1      -7.647  75.586 116.881  0.00  0.00     0.028 C 
ATOM      5  C   LIG d   1      -6.576  76.396 116.158  0.00  0.00    -0.047 C 
ATOM      6  C   LIG d   1      -5.877  77.325 117.176  0.00  0.00     0.091 C 
ENDROOT
BRANCH   1   7
ATOM      7  O   LIG d   1      -6.310  78.736 119.132  0.00  0.00    -0.368 OA
BRANCH   7   8
ATOM      8  C   LIG d   1      -6.548  80.138 119.410  0.00  0.00     0.119 C 
BRANCH   8   9
ATOM      9  C   LIG d   1      -6.686  80.861 118.056  0.00  0.00     0.028 C 
ATOM     10  C   LIG d   1      -7.728  81.992 118.099  0.00  0.00     0.006 C 
ENDBRANCH   8   9
BRANCH   8  11
ATOM     11  C   LIG d   1      -5.338  80.784 120.093  0.00  0.00     0.028 C 
ATOM     12  C   LIG d   1      -4.022  80.526 119.342  0.00  0.00     0.006 C 
ENDBRANCH   8  11
ENDBRANCH   7   8
ENDBRANCH   1   7
BRANCH   6  13
ATOM     13  N   LIG d   1      -4.872  78.213 116.536  0.00  0.00    -0.311 N 
ATOM     14  C   LIG d   1      -3.577  77.912 116.447  0.00  0.00     0.210 C 
ATOM     15  C   LIG d   1      -2.711  78.976 115.766  0.00  0.00     0.109 C 
ATOM     16  O   LIG d   1      -3.070  76.850 116.838  0.00  0.00    -0.276 OA
ATOM     17  H   LIG d   1      -5.202  79.082 116.164  0.00  0.00     0.149 HD
ENDBRANCH   6  13
BRANCH   5  18
ATOM     18  N   LIG d   1      -5.653  75.441 115.517  0.00  0.00     0.381 N 
ATOM     19  H   LIG d   1      -4.978  75.123 116.184  0.00  0.00    -0.090 HD
ATOM     20  H   LIG d   1      -5.165  75.910 114.774  0.00  0.00    -0.090 HD
ATOM     21  H   LIG d   1      -6.162  74.666 115.153  0.00  0.00    -0.090 HD
ENDBRANCH   5  18
BRANCH   3  22
ATOM     22  C   LIG d   1      -9.826  75.934 117.814  0.00  0.00     0.382 C 
ATOM     23  O   LIG d   1     -10.153  74.782 117.438  0.00  0.00    -0.241 OA
ATOM     24  O   LIG d   1     -10.689  76.688 118.301  0.00  0.00    -0.241 OA
ENDBRANCH   3  22
TORSDOF 7
ENDMDL
MODEL 8
REMARK VINA RESULT:      -5.2     15.100     17.728
REMARK  7 active torsions:
REMARK  status: ('A' for Active; 'I' for Inactive)
REMARK    1  A    between atoms: C_2  and  C_3 
REMARK    2  A    between atoms: C_3  and  O_6 
REMARK    3  A    between atoms: C_3  and  C_4 
REMARK    4  A    between atoms: C_7  and  O_6 
REMARK    5  A    between atoms: C_9  and  C_10 
REMARK    6  A    between atoms: N_15  and  C_14 
REMARK    7  A    between atoms: N_20  and  C_19 
REMARK       I    between atoms: C_22  and  N_20 
ROOT
ATOM      1  C   LIG d   1      -4.764  92.554 117.715  0.00  0.00     0.161 C 
ATOM      2  C   LIG d   1      -4.922  91.543 116.752  0.00  0.00     0.016 C 
ATOM      3  C   LIG d   1      -6.132  91.313 116.058  0.00  0.00     0.038 C 
ATOM      4  C   LIG d   1      -7.228  92.181 116.170  0.00  0.00     0.028 C 
ATOM      5  C   LIG d   1      -7.284  92.916 117.505  0.00  0.00    -0.047 C 
ATOM      6  C   LIG d   1      -5.914  93.581 117.770  0.00  0.00     0.091 C 
ENDROOT
BRANCH   1   7
ATOM      7  O   LIG d   1      -3.503  93.224 117.516  0.00  0.00    -0.368 OA
BRANCH   7   8
ATOM      8  C   LIG d   1      -2.350  92.612 118.144  0.00  0.00     0.119 C 
BRANCH   8   9
ATOM      9  C   LIG d   1      -2.702  92.370 119.624  0.00  0.00     0.028 C 
ATOM     10  C   LIG d   1      -2.492  93.623 120.490  0.00  0.00     0.006 C 
ENDBRANCH   8   9
BRANCH   8  11
ATOM     11  C   LIG d   1      -1.153  93.567 118.163  0.00  0.00     0.028 C 
ATOM     12  C   LIG d   1      -1.289  94.714 117.149  0.00  0.00     0.006 C 
ENDBRANCH   8  11
ENDBRANCH   7   8
ENDBRANCH   1   7
BRANCH   6  13
ATOM     13  N   LIG d   1      -5.856  94.251 119.095  0.00  0.00    -0.311 N 
ATOM     14  C   LIG d   1      -6.214  95.518 119.292  0.00  0.00     0.210 C 
ATOM     15  C   LIG d   1      -6.057  96.018 120.732  0.00  0.00     0.109 C 
ATOM     16  O   LIG d   1      -6.677  96.267 118.418  0.00  0.00    -0.276 OA
ATOM     17  H   LIG d   1      -5.521  93.707 119.867  0.00  0.00     0.149 HD
ENDBRANCH   6  13
BRANCH   5  18
ATOM     18  N   LIG d   1      -8.393  93.886 117.434  0.00  0.00     0.381 N 
ATOM     19  H   LIG d   1      -9.007  93.757 118.213  0.00  0.00    -0.090 HD
ATOM     20  H   LIG d   1      -8.915  93.722 116.591  0.00  0.00    -0.090 HD
ATOM     21  H   LIG d   1      -8.034  94.815 117.435  0.00  0.00    -0.090 HD
ENDBRANCH   5  18
BRANCH   3  22
ATOM     22  C   LIG d   1      -6.267  90.180 115.269  0.00  0.00     0.382 C 
ATOM     23  O   LIG d   1      -7.390  89.870 114.805  0.00  0.00    -0.241 OA
ATOM     24  O   LIG d   1      -5.288  89.441 115.053  0.00  0.00    -0.241 OA
ENDBRANCH   3  22
TORSDOF 7
ENDMDL
MODEL 9
REMARK VINA RESULT:      -5.0     18.324     21.164
REMARK  7 active torsions:
REMARK  status: ('A' for Active; 'I' for Inactive)
REMARK    1  A    between atoms: C_2  and  C_3 
REMARK    2  A    between atoms: C_3  and  O_6 
REMARK    3  A    between atoms: C_3  and  C_4 
REMARK    4  A    between atoms: C_7  and  O_6 
REMARK    5  A    between atoms: C_9  and  C_10 
REMARK    6  A    between atoms: N_15  and  C_14 
REMARK    7  A    between atoms: N_20  and  C_19 
REMARK       I    between atoms: C_22  and  N_20 
ROOT
ATOM      1  C   LIG d   1       2.167  58.563 120.574  0.00  0.00     0.161 C 
ATOM      2  C   LIG d   1       2.966  59.543 119.963  0.00  0.00     0.016 C 
ATOM      3  C   LIG d   1       3.812  59.282 118.861  0.00  0.00     0.038 C 
ATOM      4  C   LIG d   1       3.803  58.047 118.195  0.00  0.00     0.028 C 
ATOM      5  C   LIG d   1       3.389  56.882 119.087  0.00  0.00    -0.047 C 
ATOM      6  C   LIG d   1       2.060  57.237 119.792  0.00  0.00     0.091 C 
ENDROOT
BRANCH   1   7
ATOM      7  O   LIG d   1       0.854  59.096 120.838  0.00  0.00    -0.368 OA
BRANCH   7   8
ATOM      8  C   LIG d   1       0.533  60.349 120.186  0.00  0.00     0.119 C 
BRANCH   8   9
ATOM      9  C   LIG d   1      -0.288  61.192 121.181  0.00  0.00     0.028 C 
ATOM     10  C   LIG d   1      -1.769  61.296 120.780  0.00  0.00     0.006 C 
ENDBRANCH   8   9
BRANCH   8  11
ATOM     11  C   LIG d   1      -0.390  60.131 118.983  0.00  0.00     0.028 C 
ATOM     12  C   LIG d   1       0.360  60.171 117.642  0.00  0.00     0.006 C 
ENDBRANCH   8  11
ENDBRANCH   7   8
ENDBRANCH   1   7
BRANCH   6  13
ATOM     13  N   LIG d   1       1.627  56.184 120.748  0.00  0.00    -0.311 N 
ATOM     14  C   LIG d   1       0.830  55.171 120.412  0.00  0.00     0.210 C 
ATOM     15  C   LIG d   1       0.490  54.210 121.555  0.00  0.00     0.109 C 
ATOM     16  O   LIG d   1       0.399  54.960 119.269  0.00  0.00    -0.276 OA
ATOM     17  H   LIG d   1       1.956  56.261 121.691  0.00  0.00     0.149 HD
ENDBRANCH   6  13
BRANCH   5  18
ATOM     18  N   LIG d   1       3.288  55.682 118.234  0.00  0.00     0.381 N 
ATOM     19  H   LIG d   1       3.591  54.877 118.745  0.00  0.00    -0.090 HD
ATOM     20  H   LIG d   1       3.892  55.797 117.439  0.00  0.00    -0.090 HD
ATOM     21  H   LIG d   1       2.348  55.557 117.931  0.00  0.00    -0.090 HD
ENDBRANCH   5  18
BRANCH   3  22
ATOM     22  C   LIG d   1       4.709  60.251 118.438  0.00  0.00     0.382 C 
ATOM     23  O   LIG d   1       4.570  60.787 117.313  0.00  0.00    -0.241 OA
ATOM     24  O   LIG d   1       5.682  60.564 119.151  0.00  0.00    -0.241 OA
ENDBRANCH   3  22
TORSDOF 7
ENDMDL
