MODEL 1
REMARK VINA RESULT:      -5.8      0.000      0.000
REMARK  7 active torsions:
REMARK  status: ('A' for Active; 'I' for Inactive)
REMARK    1  A    between atoms: C_2  and  C_3 
REMARK    2  A    between atoms: C_3  and  O_6 
REMARK    3  A    between atoms: C_3  and  C_4 
REMARK    4  A    between atoms: C_7  and  O_6 
REMARK    5  A    between atoms: C_9  and  C_10 
REMARK    6  A    between atoms: N_15  and  C_14 
REMARK    7  A    between atoms: N_20  and  C_19 
REMARK       I    between atoms: C_22  and  N_20 
ROOT
ATOM      1  C   LIG d   1      -7.092  76.866 117.597  0.00  0.00     0.161 C 
ATOM      2  C   LIG d   1      -8.351  77.429 117.868  0.00  0.00     0.016 C 
ATOM      3  C   LIG d   1      -8.580  78.822 117.941  0.00  0.00     0.038 C 
ATOM      4  C   LIG d   1      -7.592  79.755 117.596  0.00  0.00     0.028 C 
ATOM      5  C   LIG d   1      -6.172  79.240 117.807  0.00  0.00    -0.047 C 
ATOM      6  C   LIG d   1      -6.027  77.869 117.108  0.00  0.00     0.091 C 
ENDROOT
BRANCH   1   7
ATOM      7  O   LIG d   1      -7.234  75.786 116.653  0.00  0.00    -0.368 OA
BRANCH   7   8
ATOM      8  C   LIG d   1      -7.085  74.448 117.188  0.00  0.00     0.119 C 
BRANCH   8   9
ATOM      9  C   LIG d   1      -6.248  73.636 116.180  0.00  0.00     0.028 C 
ATOM     10  C   LIG d   1      -5.464  74.536 115.210  0.00  0.00     0.006 C 
ENDBRANCH   8   9
BRANCH   8  11
ATOM     11  C   LIG d   1      -8.434  73.726 117.268  0.00  0.00     0.028 C 
ATOM     12  C   LIG d   1      -8.501  72.715 118.424  0.00  0.00     0.006 C 
ENDBRANCH   8  11
ENDBRANCH   7   8
ENDBRANCH   1   7
BRANCH   6  13
ATOM     13  N   LIG d   1      -4.693  77.255 117.336  0.00  0.00    -0.311 N 
ATOM     14  C   LIG d   1      -3.667  77.399 116.499  0.00  0.00     0.210 C 
ATOM     15  C   LIG d   1      -2.387  76.666 116.913  0.00  0.00     0.109 C 
ATOM     16  O   LIG d   1      -3.685  78.090 115.470  0.00  0.00    -0.276 OA
ATOM     17  H   LIG d   1      -4.580  76.702 118.164  0.00  0.00     0.149 HD
ENDBRANCH   6  13
BRANCH   5  18
ATOM     18  N   LIG d   1      -5.245  80.259 117.279  0.00  0.00     0.381 N 
ATOM     19  H   LIG d   1      -5.007  80.042 116.332  0.00  0.00    -0.090 HD
ATOM     20  H   LIG d   1      -4.403  80.247 117.827  0.00  0.00    -0.090 HD
ATOM     21  H   LIG d   1      -5.667  81.160 117.325  0.00  0.00    -0.090 HD
ENDBRANCH   5  18
BRANCH   3  22
ATOM     22  C   LIG d   1      -9.800  79.294 118.402  0.00  0.00     0.382 C 
ATOM     23  O   LIG d   1     -10.536  78.554 119.098  0.00  0.00    -0.241 OA
ATOM     24  O   LIG d   1     -10.192  80.435 118.094  0.00  0.00    -0.241 OA
ENDBRANCH   3  22
TORSDOF 7
ENDMDL
MODEL 2
REMARK VINA RESULT:      -5.6     13.941     16.987
REMARK  7 active torsions:
REMARK  status: ('A' for Active; 'I' for Inactive)
REMARK    1  A    between atoms: C_2  and  C_3 
REMARK    2  A    between atoms: C_3  and  O_6 
REMARK    3  A    between atoms: C_3  and  C_4 
REMARK    4  A    between atoms: C_7  and  O_6 
REMARK    5  A    between atoms: C_9  and  C_10 
REMARK    6  A    between atoms: N_15  and  C_14 
REMARK    7  A    between atoms: N_20  and  C_19 
REMARK       I    between atoms: C_22  and  N_20 
ROOT
ATOM      1  C   LIG d   1      -7.077  93.413 117.805  0.00  0.00     0.161 C 
ATOM      2  C   LIG d   1      -7.476  92.371 116.951  0.00  0.00     0.016 C 
ATOM      3  C   LIG d   1      -6.590  91.385 116.460  0.00  0.00     0.038 C 
ATOM      4  C   LIG d   1      -5.266  91.286 116.914  0.00  0.00     0.028 C 
ATOM      5  C   LIG d   1      -4.686  92.615 117.386  0.00  0.00    -0.047 C 
ATOM      6  C   LIG d   1      -5.662  93.256 118.399  0.00  0.00     0.091 C 
ENDROOT
BRANCH   1   7
ATOM      7  O   LIG d   1      -8.047  93.580 118.858  0.00  0.00    -0.368 OA
BRANCH   7   8
ATOM      8  C   LIG d   1      -9.160  94.459 118.566  0.00  0.00     0.119 C 
BRANCH   8   9
ATOM      9  C   LIG d   1      -8.585  95.737 117.926  0.00  0.00     0.028 C 
ATOM     10  C   LIG d   1      -8.154  96.776 118.975  0.00  0.00     0.006 C 
ENDBRANCH   8   9
BRANCH   8  11
ATOM     11  C   LIG d   1      -9.855  94.925 119.849  0.00  0.00     0.028 C 
ATOM     12  C   LIG d   1      -9.495  94.061 121.068  0.00  0.00     0.006 C 
ENDBRANCH   8  11
ENDBRANCH   7   8
ENDBRANCH   1   7
BRANCH   6  13
ATOM     13  N   LIG d   1      -5.211  94.600 118.847  0.00  0.00    -0.311 N 
ATOM     14  C   LIG d   1      -4.961  94.902 120.120  0.00  0.00     0.210 C 
ATOM     15  C   LIG d   1      -4.527  96.350 120.368  0.00  0.00     0.109 C 
ATOM     16  O   LIG d   1      -5.028  94.100 121.064  0.00  0.00    -0.276 OA
ATOM     17  H   LIG d   1      -5.100  95.302 118.143  0.00  0.00     0.149 HD
ENDBRANCH   6  13
BRANCH   5  18
ATOM     18  N   LIG d   1      -3.354  92.342 117.958  0.00  0.00     0.381 N 
ATOM     19  H   LIG d   1      -3.116  91.380 117.818  0.00  0.00    -0.090 HD
ATOM     20  H   LIG d   1      -3.383  92.519 118.947  0.00  0.00    -0.090 HD
ATOM     21  H   LIG d   1      -2.672  92.927 117.529  0.00  0.00    -0.090 HD
ENDBRANCH   5  18
BRANCH   3  22
ATOM     22  C   LIG d   1      -7.015  90.508 115.474  0.00  0.00     0.382 C 
ATOM     23  O   LIG d   1      -6.191  89.745 114.915  0.00  0.00    -0.241 OA
ATOM     24  O   LIG d   1      -8.205  90.502 115.104  0.00  0.00    -0.241 OA
ENDBRANCH   3  22
TORSDOF 7
ENDMDL
MODEL 3
REMARK VINA RESULT:      -5.6     18.680     20.601
REMARK  7 active torsions:
REMARK  status: ('A' for Active; 'I' for Inactive)
REMARK    1  A    between atoms: C_2  and  C_3 
REMARK    2  A    between atoms: C_3  and  O_6 
REMARK    3  A    between atoms: C_3  and  C_4 
REMARK    4  A    between atoms: C_7  and  O_6 
REMARK    5  A    between atoms: C_9  and  C_10 
REMARK    6  A    between atoms: N_15  and  C_14 
REMARK    7  A    between atoms: N_20  and  C_19 
REMARK       I    between atoms: C_22  and  N_20 
ROOT
ATOM      1  C   LIG d   1      -0.127  57.744 118.775  0.00  0.00     0.161 C 
ATOM      2  C   LIG d   1      -1.502  57.717 119.062  0.00  0.00     0.016 C 
ATOM      3  C   LIG d   1      -2.472  58.391 118.286  0.00  0.00     0.038 C 
ATOM      4  C   LIG d   1      -2.148  59.016 117.073  0.00  0.00     0.028 C 
ATOM      5  C   LIG d   1      -0.702  59.497 117.007  0.00  0.00    -0.047 C 
ATOM      6  C   LIG d   1       0.234  58.329 117.393  0.00  0.00     0.091 C 
ENDROOT
BRANCH   1   7
ATOM      7  O   LIG d   1       0.428  56.421 118.919  0.00  0.00    -0.368 OA
BRANCH   7   8
ATOM      8  C   LIG d   1       0.377  55.577 117.743  0.00  0.00     0.119 C 
BRANCH   8   9
ATOM      9  C   LIG d   1      -0.628  54.444 118.030  0.00  0.00     0.028 C 
ATOM     10  C   LIG d   1      -0.352  53.740 119.369  0.00  0.00     0.006 C 
ENDBRANCH   8   9
BRANCH   8  11
ATOM     11  C   LIG d   1       1.718  54.878 117.500  0.00  0.00     0.028 C 
ATOM     12  C   LIG d   1       2.846  55.430 118.385  0.00  0.00     0.006 C 
ENDBRANCH   8  11
ENDBRANCH   7   8
ENDBRANCH   1   7
BRANCH   6  13
ATOM     13  N   LIG d   1       1.662  58.736 117.436  0.00  0.00    -0.311 N 
ATOM     14  C   LIG d   1       2.116  59.737 118.188  0.00  0.00     0.210 C 
ATOM     15  C   LIG d   1       3.620  60.005 118.069  0.00  0.00     0.109 C 
ATOM     16  O   LIG d   1       1.422  60.408 118.967  0.00  0.00    -0.276 OA
ATOM     17  H   LIG d   1       2.300  58.225 116.858  0.00  0.00     0.149 HD
ENDBRANCH   6  13
BRANCH   5  18
ATOM     18  N   LIG d   1      -0.462  60.003 115.643  0.00  0.00     0.381 N 
ATOM     19  H   LIG d   1      -1.334  60.229 115.207  0.00  0.00    -0.090 HD
ATOM     20  H   LIG d   1      -0.017  59.283 115.102  0.00  0.00    -0.090 HD
ATOM     21  H   LIG d   1       0.119  60.812 115.676  0.00  0.00    -0.090 HD
ENDBRANCH   5  18
BRANCH   3  22
ATOM     22  C   LIG d   1      -3.779  58.476 118.742  0.00  0.00     0.382 C 
ATOM     23  O   LIG d   1      -4.482  59.472 118.445  0.00  0.00    -0.241 OA
ATOM     24  O   LIG d   1      -4.248  57.593 119.484  0.00  0.00    -0.241 OA
ENDBRANCH   3  22
TORSDOF 7
ENDMDL
MODEL 4
REMARK VINA RESULT:      -5.5      1.288      2.215
REMARK  7 active torsions:
REMARK  status: ('A' for Active; 'I' for Inactive)
REMARK    1  A    between atoms: C_2  and  C_3 
REMARK    2  A    between atoms: C_3  and  O_6 
REMARK    3  A    between atoms: C_3  and  C_4 
REMARK    4  A    between atoms: C_7  and  O_6 
REMARK    5  A    between atoms: C_9  and  C_10 
REMARK    6  A    between atoms: N_15  and  C_14 
REMARK    7  A    between atoms: N_20  and  C_19 
REMARK       I    between atoms: C_22  and  N_20 
ROOT
ATOM      1  C   LIG d   1      -6.479  77.342 118.220  0.00  0.00     0.161 C 
ATOM      2  C   LIG d   1      -7.873  77.322 118.389  0.00  0.00     0.016 C 
ATOM      3  C   LIG d   1      -8.691  78.467 118.248  0.00  0.00     0.038 C 
ATOM      4  C   LIG d   1      -8.184  79.686 117.775  0.00  0.00     0.028 C 
ATOM      5  C   LIG d   1      -6.702  79.884 118.077  0.00  0.00    -0.047 C 
ATOM      6  C   LIG d   1      -5.922  78.639 117.596  0.00  0.00     0.091 C 
ENDROOT
BRANCH   1   7
ATOM      7  O   LIG d   1      -6.064  76.197 117.450  0.00  0.00    -0.368 OA
BRANCH   7   8
ATOM      8  C   LIG d   1      -7.030  75.683 116.500  0.00  0.00     0.119 C 
BRANCH   8   9
ATOM      9  C   LIG d   1      -7.056  74.150 116.649  0.00  0.00     0.028 C 
ATOM     10  C   LIG d   1      -8.267  73.660 117.461  0.00  0.00     0.006 C 
ENDBRANCH   8   9
BRANCH   8  11
ATOM     11  C   LIG d   1      -6.585  75.943 115.057  0.00  0.00     0.028 C 
ATOM     12  C   LIG d   1      -5.056  75.946 114.897  0.00  0.00     0.006 C 
ENDBRANCH   8  11
ENDBRANCH   7   8
ENDBRANCH   1   7
BRANCH   6  13
ATOM     13  N   LIG d   1      -4.475  78.713 117.929  0.00  0.00    -0.311 N 
ATOM     14  C   LIG d   1      -3.543  79.108 117.063  0.00  0.00     0.210 C 
ATOM     15  C   LIG d   1      -2.110  79.092 117.604  0.00  0.00     0.109 C 
ATOM     16  O   LIG d   1      -3.771  79.500 115.909  0.00  0.00    -0.276 OA
ATOM     17  H   LIG d   1      -4.206  78.442 118.854  0.00  0.00     0.149 HD
ENDBRANCH   6  13
BRANCH   5  18
ATOM     18  N   LIG d   1      -6.273  81.128 117.410  0.00  0.00     0.381 N 
ATOM     19  H   LIG d   1      -5.748  80.908 116.588  0.00  0.00    -0.090 HD
ATOM     20  H   LIG d   1      -5.680  81.644 118.036  0.00  0.00    -0.090 HD
ATOM     21  H   LIG d   1      -7.069  81.676 117.168  0.00  0.00    -0.090 HD
ENDBRANCH   5  18
BRANCH   3  22
ATOM     22  C   LIG d   1     -10.026  78.408 118.619  0.00  0.00     0.382 C 
ATOM     23  O   LIG d   1     -10.549  79.369 119.232  0.00  0.00    -0.241 OA
ATOM     24  O   LIG d   1     -10.701  77.387 118.387  0.00  0.00    -0.241 OA
ENDBRANCH   3  22
TORSDOF 7
ENDMDL
MODEL 5
REMARK VINA RESULT:      -5.3      2.286      4.237
REMARK  7 active torsions:
REMARK  status: ('A' for Active; 'I' for Inactive)
REMARK    1  A    between atoms: C_2  and  C_3 
REMARK    2  A    between atoms: C_3  and  O_6 
REMARK    3  A    between atoms: C_3  and  C_4 
REMARK    4  A    between atoms: C_7  and  O_6 
REMARK    5  A    between atoms: C_9  and  C_10 
REMARK    6  A    between atoms: N_15  and  C_14 
REMARK    7  A    between atoms: N_20  and  C_19 
REMARK       I    between atoms: C_22  and  N_20 
ROOT
ATOM      1  C   LIG d   1      -6.742  77.879 117.348  0.00  0.00     0.161 C 
ATOM      2  C   LIG d   1      -6.737  79.284 117.373  0.00  0.00     0.016 C 
ATOM      3  C   LIG d   1      -7.821  80.057 117.848  0.00  0.00     0.038 C 
ATOM      4  C   LIG d   1      -8.932  79.472 118.475  0.00  0.00     0.028 C 
ATOM      5  C   LIG d   1      -9.203  78.044 118.015  0.00  0.00    -0.047 C 
ATOM      6  C   LIG d   1      -7.899  77.222 118.130  0.00  0.00     0.091 C 
ENDROOT
BRANCH   1   7
ATOM      7  O   LIG d   1      -5.474  77.378 117.814  0.00  0.00    -0.368 OA
BRANCH   7   8
ATOM      8  C   LIG d   1      -4.481  77.108 116.794  0.00  0.00     0.119 C 
BRANCH   8   9
ATOM      9  C   LIG d   1      -5.157  76.250 115.706  0.00  0.00     0.028 C 
ATOM     10  C   LIG d   1      -5.039  74.743 115.990  0.00  0.00     0.006 C 
ENDBRANCH   8   9
BRANCH   8  11
ATOM     11  C   LIG d   1      -3.341  76.244 117.341  0.00  0.00     0.028 C 
ATOM     12  C   LIG d   1      -3.057  76.505 118.828  0.00  0.00     0.006 C 
ENDBRANCH   8  11
ENDBRANCH   7   8
ENDBRANCH   1   7
BRANCH   6  13
ATOM     13  N   LIG d   1      -8.055  75.835 117.620  0.00  0.00    -0.311 N 
ATOM     14  C   LIG d   1      -8.371  74.800 118.397  0.00  0.00     0.210 C 
ATOM     15  C   LIG d   1      -8.463  73.453 117.673  0.00  0.00     0.109 C 
ATOM     16  O   LIG d   1      -8.615  74.875 119.610  0.00  0.00    -0.276 OA
ATOM     17  H   LIG d   1      -7.906  75.690 116.641  0.00  0.00     0.149 HD
ENDBRANCH   6  13
BRANCH   5  18
ATOM     18  N   LIG d   1     -10.299  77.509 118.845  0.00  0.00     0.381 N 
ATOM     19  H   LIG d   1     -10.308  77.971 119.732  0.00  0.00    -0.090 HD
ATOM     20  H   LIG d   1     -10.139  76.529 119.002  0.00  0.00    -0.090 HD
ATOM     21  H   LIG d   1     -11.172  77.640 118.384  0.00  0.00    -0.090 HD
ENDBRANCH   5  18
BRANCH   3  22
ATOM     22  C   LIG d   1      -7.819  81.432 117.662  0.00  0.00     0.382 C 
ATOM     23  O   LIG d   1      -7.997  81.909 116.516  0.00  0.00    -0.241 OA
ATOM     24  O   LIG d   1      -7.597  82.198 118.619  0.00  0.00    -0.241 OA
ENDBRANCH   3  22
TORSDOF 7
ENDMDL
MODEL 6
REMARK VINA RESULT:      -5.3      1.962      2.906
REMARK  7 active torsions:
REMARK  status: ('A' for Active; 'I' for Inactive)
REMARK    1  A    between atoms: C_2  and  C_3 
REMARK    2  A    between atoms: C_3  and  O_6 
REMARK    3  A    between atoms: C_3  and  C_4 
REMARK    4  A    between atoms: C_7  and  O_6 
REMARK    5  A    between atoms: C_9  and  C_10 
REMARK    6  A    between atoms: N_15  and  C_14 
REMARK    7  A    between atoms: N_20  and  C_19 
REMARK       I    between atoms: C_22  and  N_20 
ROOT
ATOM      1  C   LIG d   1      -5.788  77.314 118.177  0.00  0.00     0.161 C 
ATOM      2  C   LIG d   1      -6.620  78.441 118.073  0.00  0.00     0.016 C 
ATOM      3  C   LIG d   1      -6.153  79.721 117.696  0.00  0.00     0.038 C 
ATOM      4  C   LIG d   1      -4.840  79.929 117.248  0.00  0.00     0.028 C 
ATOM      5  C   LIG d   1      -3.840  78.928 117.818  0.00  0.00    -0.047 C 
ATOM      6  C   LIG d   1      -4.375  77.497 117.585  0.00  0.00     0.091 C 
ENDROOT
BRANCH   1   7
ATOM      7  O   LIG d   1      -6.436  76.172 117.583  0.00  0.00    -0.368 OA
BRANCH   7   8
ATOM      8  C   LIG d   1      -7.371  76.455 116.513  0.00  0.00     0.119 C 
BRANCH   8   9
ATOM      9  C   LIG d   1      -8.623  75.588 116.750  0.00  0.00     0.028 C 
ATOM     10  C   LIG d   1      -8.363  74.440 117.739  0.00  0.00     0.006 C 
ENDBRANCH   8   9
BRANCH   8  11
ATOM     11  C   LIG d   1      -6.817  76.005 115.157  0.00  0.00     0.028 C 
ATOM     12  C   LIG d   1      -5.699  74.959 115.288  0.00  0.00     0.006 C 
ENDBRANCH   8  11
ENDBRANCH   7   8
ENDBRANCH   1   7
BRANCH   6  13
ATOM     13  N   LIG d   1      -3.498  76.459 118.187  0.00  0.00    -0.311 N 
ATOM     14  C   LIG d   1      -2.586  75.778 117.495  0.00  0.00     0.210 C 
ATOM     15  C   LIG d   1      -1.803  74.740 118.304  0.00  0.00     0.109 C 
ATOM     16  O   LIG d   1      -2.330  75.957 116.294  0.00  0.00    -0.276 OA
ATOM     17  H   LIG d   1      -3.617  76.271 119.163  0.00  0.00     0.149 HD
ENDBRANCH   6  13
BRANCH   5  18
ATOM     18  N   LIG d   1      -2.541  79.174 117.163  0.00  0.00     0.381 N 
ATOM     19  H   LIG d   1      -2.349  78.443 116.508  0.00  0.00    -0.090 HD
ATOM     20  H   LIG d   1      -1.819  79.170 117.862  0.00  0.00    -0.090 HD
ATOM     21  H   LIG d   1      -2.556  80.053 116.695  0.00  0.00    -0.090 HD
ENDBRANCH   5  18
BRANCH   3  22
ATOM     22  C   LIG d   1      -6.993  80.819 117.803  0.00  0.00     0.382 C 
ATOM     23  O   LIG d   1      -7.066  81.647 116.864  0.00  0.00    -0.241 OA
ATOM     24  O   LIG d   1      -7.646  81.015 118.846  0.00  0.00    -0.241 OA
ENDBRANCH   3  22
TORSDOF 7
ENDMDL
MODEL 7
REMARK VINA RESULT:      -5.1     14.570     17.190
REMARK  7 active torsions:
REMARK  status: ('A' for Active; 'I' for Inactive)
REMARK    1  A    between atoms: C_2  and  C_3 
REMARK    2  A    between atoms: C_3  and  O_6 
REMARK    3  A    between atoms: C_3  and  C_4 
REMARK    4  A    between atoms: C_7  and  O_6 
REMARK    5  A    between atoms: C_9  and  C_10 
REMARK    6  A    between atoms: N_15  and  C_14 
REMARK    7  A    between atoms: N_20  and  C_19 
REMARK       I    between atoms: C_22  and  N_20 
ROOT
ATOM      1  C   LIG d   1      -5.921  92.972 118.481  0.00  0.00     0.161 C 
ATOM      2  C   LIG d   1      -5.936  92.005 117.462  0.00  0.00     0.016 C 
ATOM      3  C   LIG d   1      -6.851  92.024 116.384  0.00  0.00     0.038 C 
ATOM      4  C   LIG d   1      -7.721  93.102 116.170  0.00  0.00     0.028 C 
ATOM      5  C   LIG d   1      -8.088  93.849 117.448  0.00  0.00    -0.047 C 
ATOM      6  C   LIG d   1      -6.790  94.216 118.204  0.00  0.00     0.091 C 
ENDROOT
BRANCH   1   7
ATOM      7  O   LIG d   1      -4.563  93.362 118.765  0.00  0.00    -0.368 OA
BRANCH   7   8
ATOM      8  C   LIG d   1      -3.981  92.812 119.973  0.00  0.00     0.119 C 
BRANCH   8   9
ATOM      9  C   LIG d   1      -3.919  93.946 121.014  0.00  0.00     0.028 C 
ATOM     10  C   LIG d   1      -3.560  95.302 120.385  0.00  0.00     0.006 C 
ENDBRANCH   8   9
BRANCH   8  11
ATOM     11  C   LIG d   1      -2.527  92.388 119.747  0.00  0.00     0.028 C 
ATOM     12  C   LIG d   1      -2.164  92.272 118.258  0.00  0.00     0.006 C 
ENDBRANCH   8  11
ENDBRANCH   7   8
ENDBRANCH   1   7
BRANCH   6  13
ATOM     13  N   LIG d   1      -7.062  94.875 119.508  0.00  0.00    -0.311 N 
ATOM     14  C   LIG d   1      -7.144  96.196 119.660  0.00  0.00     0.210 C 
ATOM     15  C   LIG d   1      -7.411  96.667 121.093  0.00  0.00     0.109 C 
ATOM     16  O   LIG d   1      -7.054  97.020 118.738  0.00  0.00    -0.276 OA
ATOM     17  H   LIG d   1      -7.179  94.279 120.305  0.00  0.00     0.149 HD
ENDBRANCH   6  13
BRANCH   5  18
ATOM     18  N   LIG d   1      -8.886  95.028 117.063  0.00  0.00     0.381 N 
ATOM     19  H   LIG d   1      -8.318  95.850 117.106  0.00  0.00    -0.090 HD
ATOM     20  H   LIG d   1      -9.645  95.133 117.713  0.00  0.00    -0.090 HD
ATOM     21  H   LIG d   1      -9.244  94.911 116.140  0.00  0.00    -0.090 HD
ENDBRANCH   5  18
BRANCH   3  22
ATOM     22  C   LIG d   1      -6.928  90.935 115.529  0.00  0.00     0.382 C 
ATOM     23  O   LIG d   1      -5.967  90.132 115.448  0.00  0.00    -0.241 OA
ATOM     24  O   LIG d   1      -7.928  90.770 114.805  0.00  0.00    -0.241 OA
ENDBRANCH   3  22
TORSDOF 7
ENDMDL
MODEL 8
REMARK VINA RESULT:      -5.0     17.819     20.319
REMARK  7 active torsions:
REMARK  status: ('A' for Active; 'I' for Inactive)
REMARK    1  A    between atoms: C_2  and  C_3 
REMARK    2  A    between atoms: C_3  and  O_6 
REMARK    3  A    between atoms: C_3  and  C_4 
REMARK    4  A    between atoms: C_7  and  O_6 
REMARK    5  A    between atoms: C_9  and  C_10 
REMARK    6  A    between atoms: N_15  and  C_14 
REMARK    7  A    between atoms: N_20  and  C_19 
REMARK       I    between atoms: C_22  and  N_20 
ROOT
ATOM      1  C   LIG d   1       0.130  59.147 117.592  0.00  0.00     0.161 C 
ATOM      2  C   LIG d   1       1.530  59.080 117.692  0.00  0.00     0.016 C 
ATOM      3  C   LIG d   1       2.262  59.652 118.758  0.00  0.00     0.038 C 
ATOM      4  C   LIG d   1       1.628  60.202 119.881  0.00  0.00     0.028 C 
ATOM      5  C   LIG d   1       0.232  60.742 119.586  0.00  0.00    -0.047 C 
ATOM      6  C   LIG d   1      -0.586  59.647 118.864  0.00  0.00     0.091 C 
ENDROOT
BRANCH   1   7
ATOM      7  O   LIG d   1      -0.393  57.864 117.194  0.00  0.00    -0.368 OA
BRANCH   7   8
ATOM      8  C   LIG d   1       0.179  56.709 117.854  0.00  0.00     0.119 C 
BRANCH   8   9
ATOM      9  C   LIG d   1       0.322  55.595 116.799  0.00  0.00     0.028 C 
ATOM     10  C   LIG d   1       1.473  54.627 117.119  0.00  0.00     0.006 C 
ENDBRANCH   8   9
BRANCH   8  11
ATOM     11  C   LIG d   1      -0.772  56.145 118.914  0.00  0.00     0.028 C 
ATOM     12  C   LIG d   1      -0.226  56.289 120.343  0.00  0.00     0.006 C 
ENDBRANCH   8  11
ENDBRANCH   7   8
ENDBRANCH   1   7
BRANCH   6  13
ATOM     13  N   LIG d   1      -1.937  60.120 118.463  0.00  0.00    -0.311 N 
ATOM     14  C   LIG d   1      -3.067  59.597 118.935  0.00  0.00     0.210 C 
ATOM     15  C   LIG d   1      -4.350  60.219 118.376  0.00  0.00     0.109 C 
ATOM     16  O   LIG d   1      -3.128  58.698 119.788  0.00  0.00    -0.276 OA
ATOM     17  H   LIG d   1      -1.979  60.868 117.798  0.00  0.00     0.149 HD
ENDBRANCH   6  13
BRANCH   5  18
ATOM     18  N   LIG d   1      -0.365  61.159 120.868  0.00  0.00     0.381 N 
ATOM     19  H   LIG d   1      -1.096  61.822 120.702  0.00  0.00    -0.090 HD
ATOM     20  H   LIG d   1       0.342  61.603 121.427  0.00  0.00    -0.090 HD
ATOM     21  H   LIG d   1      -0.730  60.366 121.349  0.00  0.00    -0.090 HD
ENDBRANCH   5  18
BRANCH   3  22
ATOM     22  C   LIG d   1       3.645  59.711 118.687  0.00  0.00     0.382 C 
ATOM     23  O   LIG d   1       4.198  60.445 117.832  0.00  0.00    -0.241 OA
ATOM     24  O   LIG d   1       4.347  59.008 119.437  0.00  0.00    -0.241 OA
ENDBRANCH   3  22
TORSDOF 7
ENDMDL
MODEL 9
REMARK VINA RESULT:      -5.0      2.414      4.884
REMARK  7 active torsions:
REMARK  status: ('A' for Active; 'I' for Inactive)
REMARK    1  A    between atoms: C_2  and  C_3 
REMARK    2  A    between atoms: C_3  and  O_6 
REMARK    3  A    between atoms: C_3  and  C_4 
REMARK    4  A    between atoms: C_7  and  O_6 
REMARK    5  A    between atoms: C_9  and  C_10 
REMARK    6  A    between atoms: N_15  and  C_14 
REMARK    7  A    between atoms: N_20  and  C_19 
REMARK       I    between atoms: C_22  and  N_20 
ROOT
ATOM      1  C   LIG d   1      -6.076  78.498 117.417  0.00  0.00     0.161 C 
ATOM      2  C   LIG d   1      -4.937  77.728 117.704  0.00  0.00     0.016 C 
ATOM      3  C   LIG d   1      -4.511  77.430 119.019  0.00  0.00     0.038 C 
ATOM      4  C   LIG d   1      -5.285  77.757 120.142  0.00  0.00     0.028 C 
ATOM      5  C   LIG d   1      -6.182  78.971 119.926  0.00  0.00    -0.047 C 
ATOM      6  C   LIG d   1      -6.995  78.770 118.626  0.00  0.00     0.091 C 
ENDROOT
BRANCH   1   7
ATOM      7  O   LIG d   1      -6.824  77.885 116.348  0.00  0.00    -0.368 OA
BRANCH   7   8
ATOM      8  C   LIG d   1      -6.869  76.437 116.351  0.00  0.00     0.119 C 
BRANCH   8   9
ATOM      9  C   LIG d   1      -6.589  75.962 114.912  0.00  0.00     0.028 C 
ATOM     10  C   LIG d   1      -5.287  75.151 114.805  0.00  0.00     0.006 C 
ENDBRANCH   8   9
BRANCH   8  11
ATOM     11  C   LIG d   1      -8.274  75.925 116.680  0.00  0.00     0.028 C 
ATOM     12  C   LIG d   1      -8.330  75.150 118.006  0.00  0.00     0.006 C 
ENDBRANCH   8  11
ENDBRANCH   7   8
ENDBRANCH   1   7
BRANCH   6  13
ATOM     13  N   LIG d   1      -7.837  79.949 118.296  0.00  0.00    -0.311 N 
ATOM     14  C   LIG d   1      -9.162  79.892 118.170  0.00  0.00     0.210 C 
ATOM     15  C   LIG d   1      -9.834  81.219 117.805  0.00  0.00     0.109 C 
ATOM     16  O   LIG d   1      -9.847  78.875 118.356  0.00  0.00    -0.276 OA
ATOM     17  H   LIG d   1      -7.366  80.822 118.159  0.00  0.00     0.149 HD
ENDBRANCH   6  13
BRANCH   5  18
ATOM     18  N   LIG d   1      -7.032  79.116 121.123  0.00  0.00     0.381 N 
ATOM     19  H   LIG d   1      -6.577  79.704 121.792  0.00  0.00    -0.090 HD
ATOM     20  H   LIG d   1      -7.166  78.211 121.538  0.00  0.00    -0.090 HD
ATOM     21  H   LIG d   1      -7.913  79.507 120.870  0.00  0.00    -0.090 HD
ENDBRANCH   5  18
BRANCH   3  22
ATOM     22  C   LIG d   1      -3.276  76.832 119.222  0.00  0.00     0.382 C 
ATOM     23  O   LIG d   1      -2.694  76.954 120.326  0.00  0.00    -0.241 OA
ATOM     24  O   LIG d   1      -2.717  76.208 118.300  0.00  0.00    -0.241 OA
ENDBRANCH   3  22
TORSDOF 7
ENDMDL
