MODEL 1
REMARK VINA RESULT:      -5.5      0.000      0.000
REMARK  7 active torsions:
REMARK  status: ('A' for Active; 'I' for Inactive)
REMARK    1  A    between atoms: C_2  and  C_3 
REMARK    2  A    between atoms: C_3  and  O_6 
REMARK    3  A    between atoms: C_3  and  C_4 
REMARK    4  A    between atoms: C_7  and  O_6 
REMARK    5  A    between atoms: C_9  and  C_10 
REMARK    6  A    between atoms: N_15  and  C_14 
REMARK    7  A    between atoms: N_20  and  C_19 
REMARK       I    between atoms: C_22  and  N_20 
ROOT
ATOM      1  C   LIG d   1      -4.652  92.454 117.302  0.00  0.00     0.161 C 
ATOM      2  C   LIG d   1      -4.266  91.157 116.924  0.00  0.00     0.016 C 
ATOM      3  C   LIG d   1      -4.990  90.367 116.002  0.00  0.00     0.038 C 
ATOM      4  C   LIG d   1      -6.075  90.881 115.277  0.00  0.00     0.028 C 
ATOM      5  C   LIG d   1      -6.804  92.012 115.997  0.00  0.00    -0.047 C 
ATOM      6  C   LIG d   1      -5.770  93.073 116.438  0.00  0.00     0.091 C 
ENDROOT
BRANCH   1   7
ATOM      7  O   LIG d   1      -3.500  93.319 117.326  0.00  0.00    -0.368 OA
BRANCH   7   8
ATOM      8  C   LIG d   1      -2.661  93.232 118.504  0.00  0.00     0.119 C 
BRANCH   8   9
ATOM      9  C   LIG d   1      -3.286  94.135 119.585  0.00  0.00     0.028 C 
ATOM     10  C   LIG d   1      -3.520  95.571 119.088  0.00  0.00     0.006 C 
ENDBRANCH   8   9
BRANCH   8  11
ATOM     11  C   LIG d   1      -1.270  93.816 118.243  0.00  0.00     0.028 C 
ATOM     12  C   LIG d   1      -0.296  93.582 119.409  0.00  0.00     0.006 C 
ENDBRANCH   8  11
ENDBRANCH   7   8
ENDBRANCH   1   7
BRANCH   6  13
ATOM     13  N   LIG d   1      -6.388  94.173 117.223  0.00  0.00    -0.311 N 
ATOM     14  C   LIG d   1      -6.853  94.018 118.462  0.00  0.00     0.210 C 
ATOM     15  C   LIG d   1      -7.469  95.276 119.083  0.00  0.00     0.109 C 
ATOM     16  O   LIG d   1      -6.784  92.968 119.117  0.00  0.00    -0.276 OA
ATOM     17  H   LIG d   1      -6.456  95.068 116.780  0.00  0.00     0.149 HD
ENDBRANCH   6  13
BRANCH   5  18
ATOM     18  N   LIG d   1      -7.822  92.545 115.072  0.00  0.00     0.381 N 
ATOM     19  H   LIG d   1      -8.554  91.874 114.951  0.00  0.00    -0.090 HD
ATOM     20  H   LIG d   1      -7.395  92.711 114.178  0.00  0.00    -0.090 HD
ATOM     21  H   LIG d   1      -8.197  93.395 115.432  0.00  0.00    -0.090 HD
ENDBRANCH   5  18
BRANCH   3  22
ATOM     22  C   LIG d   1      -4.655  89.033 115.828  0.00  0.00     0.382 C 
ATOM     23  O   LIG d   1      -3.947  88.448 116.683  0.00  0.00    -0.241 OA
ATOM     24  O   LIG d   1      -5.014  88.420 114.805  0.00  0.00    -0.241 OA
ENDBRANCH   3  22
TORSDOF 7
ENDMDL
MODEL 2
REMARK VINA RESULT:      -5.4      2.316      4.148
REMARK  7 active torsions:
REMARK  status: ('A' for Active; 'I' for Inactive)
REMARK    1  A    between atoms: C_2  and  C_3 
REMARK    2  A    between atoms: C_3  and  O_6 
REMARK    3  A    between atoms: C_3  and  C_4 
REMARK    4  A    between atoms: C_7  and  O_6 
REMARK    5  A    between atoms: C_9  and  C_10 
REMARK    6  A    between atoms: N_15  and  C_14 
REMARK    7  A    between atoms: N_20  and  C_19 
REMARK       I    between atoms: C_22  and  N_20 
ROOT
ATOM      1  C   LIG d   1      -4.976  92.794 116.901  0.00  0.00     0.161 C 
ATOM      2  C   LIG d   1      -6.128  92.147 116.425  0.00  0.00     0.016 C 
ATOM      3  C   LIG d   1      -6.227  90.745 116.273  0.00  0.00     0.038 C 
ATOM      4  C   LIG d   1      -5.224  89.877 116.732  0.00  0.00     0.028 C 
ATOM      5  C   LIG d   1      -3.838  90.511 116.754  0.00  0.00    -0.047 C 
ATOM      6  C   LIG d   1      -3.913  91.857 117.511  0.00  0.00     0.091 C 
ENDROOT
BRANCH   1   7
ATOM      7  O   LIG d   1      -5.345  93.816 117.848  0.00  0.00    -0.368 OA
BRANCH   7   8
ATOM      8  C   LIG d   1      -6.573  93.591 118.582  0.00  0.00     0.119 C 
BRANCH   8   9
ATOM      9  C   LIG d   1      -7.243  94.963 118.796  0.00  0.00     0.028 C 
ATOM     10  C   LIG d   1      -7.672  95.618 117.473  0.00  0.00     0.006 C 
ENDBRANCH   8   9
BRANCH   8  11
ATOM     11  C   LIG d   1      -6.291  93.054 119.989  0.00  0.00     0.028 C 
ATOM     12  C   LIG d   1      -6.575  91.550 120.120  0.00  0.00     0.006 C 
ENDBRANCH   8  11
ENDBRANCH   7   8
ENDBRANCH   1   7
BRANCH   6  13
ATOM     13  N   LIG d   1      -2.616  92.583 117.506  0.00  0.00    -0.311 N 
ATOM     14  C   LIG d   1      -2.101  93.171 118.584  0.00  0.00     0.210 C 
ATOM     15  C   LIG d   1      -0.764  93.883 118.356  0.00  0.00     0.109 C 
ATOM     16  O   LIG d   1      -2.609  93.144 119.715  0.00  0.00    -0.276 OA
ATOM     17  H   LIG d   1      -2.122  92.627 116.637  0.00  0.00     0.149 HD
ENDBRANCH   6  13
BRANCH   5  18
ATOM     18  N   LIG d   1      -2.916  89.545 117.381  0.00  0.00     0.381 N 
ATOM     19  H   LIG d   1      -2.786  88.759 116.776  0.00  0.00    -0.090 HD
ATOM     20  H   LIG d   1      -3.323  89.218 118.240  0.00  0.00    -0.090 HD
ATOM     21  H   LIG d   1      -2.039  89.981 117.565  0.00  0.00    -0.090 HD
ENDBRANCH   5  18
BRANCH   3  22
ATOM     22  C   LIG d   1      -7.321  90.200 115.619  0.00  0.00     0.382 C 
ATOM     23  O   LIG d   1      -7.975  90.895 114.805  0.00  0.00    -0.241 OA
ATOM     24  O   LIG d   1      -7.689  89.035 115.866  0.00  0.00    -0.241 OA
ENDBRANCH   3  22
TORSDOF 7
ENDMDL
MODEL 3
REMARK VINA RESULT:      -5.3      2.502      4.634
REMARK  7 active torsions:
REMARK  status: ('A' for Active; 'I' for Inactive)
REMARK    1  A    between atoms: C_2  and  C_3 
REMARK    2  A    between atoms: C_3  and  O_6 
REMARK    3  A    between atoms: C_3  and  C_4 
REMARK    4  A    between atoms: C_7  and  O_6 
REMARK    5  A    between atoms: C_9  and  C_10 
REMARK    6  A    between atoms: N_15  and  C_14 
REMARK    7  A    between atoms: N_20  and  C_19 
REMARK       I    between atoms: C_22  and  N_20 
ROOT
ATOM      1  C   LIG d   1      -5.867  91.173 118.616  0.00  0.00     0.161 C 
ATOM      2  C   LIG d   1      -4.611  91.608 119.071  0.00  0.00     0.016 C 
ATOM      3  C   LIG d   1      -3.396  91.294 118.420  0.00  0.00     0.038 C 
ATOM      4  C   LIG d   1      -3.367  90.645 117.177  0.00  0.00     0.028 C 
ATOM      5  C   LIG d   1      -4.576  89.747 116.934  0.00  0.00    -0.047 C 
ATOM      6  C   LIG d   1      -5.865  90.558 117.201  0.00  0.00     0.091 C 
ENDROOT
BRANCH   1   7
ATOM      7  O   LIG d   1      -6.816  92.255 118.691  0.00  0.00    -0.368 OA
BRANCH   7   8
ATOM      8  C   LIG d   1      -6.274  93.590 118.534  0.00  0.00     0.119 C 
BRANCH   8   9
ATOM      9  C   LIG d   1      -6.862  94.463 119.659  0.00  0.00     0.028 C 
ATOM     10  C   LIG d   1      -5.861  94.697 120.804  0.00  0.00     0.006 C 
ENDBRANCH   8   9
BRANCH   8  11
ATOM     11  C   LIG d   1      -6.750  94.235 117.229  0.00  0.00     0.028 C 
ATOM     12  C   LIG d   1      -7.515  95.548 117.458  0.00  0.00     0.006 C 
ENDBRANCH   8  11
ENDBRANCH   7   8
ENDBRANCH   1   7
BRANCH   6  13
ATOM     13  N   LIG d   1      -7.092  89.731 117.068  0.00  0.00    -0.311 N 
ATOM     14  C   LIG d   1      -7.753  89.579 115.922  0.00  0.00     0.210 C 
ATOM     15  C   LIG d   1      -9.005  88.700 116.009  0.00  0.00     0.109 C 
ATOM     16  O   LIG d   1      -7.404  90.062 114.835  0.00  0.00    -0.276 OA
ATOM     17  H   LIG d   1      -7.428  89.277 117.895  0.00  0.00     0.149 HD
ENDBRANCH   6  13
BRANCH   5  18
ATOM     18  N   LIG d   1      -4.486  89.243 115.551  0.00  0.00     0.381 N 
ATOM     19  H   LIG d   1      -3.601  88.799 115.409  0.00  0.00    -0.090 HD
ATOM     20  H   LIG d   1      -4.555  90.020 114.917  0.00  0.00    -0.090 HD
ATOM     21  H   LIG d   1      -5.223  88.596 115.375  0.00  0.00    -0.090 HD
ENDBRANCH   5  18
BRANCH   3  22
ATOM     22  C   LIG d   1      -2.190  91.595 119.034  0.00  0.00     0.382 C 
ATOM     23  O   LIG d   1      -2.159  92.405 119.991  0.00  0.00    -0.241 OA
ATOM     24  O   LIG d   1      -1.126  91.101 118.613  0.00  0.00    -0.241 OA
ENDBRANCH   3  22
TORSDOF 7
ENDMDL
MODEL 4
REMARK VINA RESULT:      -5.2      2.699      6.137
REMARK  7 active torsions:
REMARK  status: ('A' for Active; 'I' for Inactive)
REMARK    1  A    between atoms: C_2  and  C_3 
REMARK    2  A    between atoms: C_3  and  O_6 
REMARK    3  A    between atoms: C_3  and  C_4 
REMARK    4  A    between atoms: C_7  and  O_6 
REMARK    5  A    between atoms: C_9  and  C_10 
REMARK    6  A    between atoms: N_15  and  C_14 
REMARK    7  A    between atoms: N_20  and  C_19 
REMARK       I    between atoms: C_22  and  N_20 
ROOT
ATOM      1  C   LIG d   1      -5.337  90.101 117.721  0.00  0.00     0.161 C 
ATOM      2  C   LIG d   1      -6.135  91.031 118.410  0.00  0.00     0.016 C 
ATOM      3  C   LIG d   1      -5.679  92.312 118.797  0.00  0.00     0.038 C 
ATOM      4  C   LIG d   1      -4.434  92.811 118.387  0.00  0.00     0.028 C 
ATOM      5  C   LIG d   1      -3.401  91.720 118.123  0.00  0.00    -0.047 C 
ATOM      6  C   LIG d   1      -4.014  90.670 117.168  0.00  0.00     0.091 C 
ENDROOT
BRANCH   1   7
ATOM      7  O   LIG d   1      -6.102  89.491 116.663  0.00  0.00    -0.368 OA
BRANCH   7   8
ATOM      8  C   LIG d   1      -7.068  90.343 116.001  0.00  0.00     0.119 C 
BRANCH   8   9
ATOM      9  C   LIG d   1      -8.156  89.432 115.401  0.00  0.00     0.028 C 
ATOM     10  C   LIG d   1      -8.836  88.553 116.464  0.00  0.00     0.006 C 
ENDBRANCH   8   9
BRANCH   8  11
ATOM     11  C   LIG d   1      -6.443  91.069 114.805  0.00  0.00     0.028 C 
ATOM     12  C   LIG d   1      -6.519  92.599 114.931  0.00  0.00     0.006 C 
ENDBRANCH   8  11
ENDBRANCH   7   8
ENDBRANCH   1   7
BRANCH   6  13
ATOM     13  N   LIG d   1      -3.100  89.524 116.924  0.00  0.00    -0.311 N 
ATOM     14  C   LIG d   1      -2.859  88.573 117.825  0.00  0.00     0.210 C 
ATOM     15  C   LIG d   1      -1.869  87.493 117.377  0.00  0.00     0.109 C 
ATOM     16  O   LIG d   1      -3.397  88.503 118.940  0.00  0.00    -0.276 OA
ATOM     17  H   LIG d   1      -2.645  89.485 116.033  0.00  0.00     0.149 HD
ENDBRANCH   6  13
BRANCH   5  18
ATOM     18  N   LIG d   1      -2.197  92.370 117.571  0.00  0.00     0.381 N 
ATOM     19  H   LIG d   1      -2.148  92.210 116.585  0.00  0.00    -0.090 HD
ATOM     20  H   LIG d   1      -1.384  91.963 117.998  0.00  0.00    -0.090 HD
ATOM     21  H   LIG d   1      -2.223  93.348 117.756  0.00  0.00    -0.090 HD
ENDBRANCH   5  18
BRANCH   3  22
ATOM     22  C   LIG d   1      -6.457  93.093 119.638  0.00  0.00     0.382 C 
ATOM     23  O   LIG d   1      -6.058  94.232 119.982  0.00  0.00    -0.241 OA
ATOM     24  O   LIG d   1      -7.531  92.655 120.093  0.00  0.00    -0.241 OA
ENDBRANCH   3  22
TORSDOF 7
ENDMDL
MODEL 5
REMARK VINA RESULT:      -5.1      2.163      3.375
REMARK  7 active torsions:
REMARK  status: ('A' for Active; 'I' for Inactive)
REMARK    1  A    between atoms: C_2  and  C_3 
REMARK    2  A    between atoms: C_3  and  O_6 
REMARK    3  A    between atoms: C_3  and  C_4 
REMARK    4  A    between atoms: C_7  and  O_6 
REMARK    5  A    between atoms: C_9  and  C_10 
REMARK    6  A    between atoms: N_15  and  C_14 
REMARK    7  A    between atoms: N_20  and  C_19 
REMARK       I    between atoms: C_22  and  N_20 
ROOT
ATOM      1  C   LIG d   1      -4.586  90.977 118.837  0.00  0.00     0.161 C 
ATOM      2  C   LIG d   1      -5.132  90.059 117.925  0.00  0.00     0.016 C 
ATOM      3  C   LIG d   1      -5.964  90.435 116.845  0.00  0.00     0.038 C 
ATOM      4  C   LIG d   1      -6.184  91.780 116.513  0.00  0.00     0.028 C 
ATOM      5  C   LIG d   1      -6.066  92.726 117.704  0.00  0.00    -0.047 C 
ATOM      6  C   LIG d   1      -4.725  92.458 118.426  0.00  0.00     0.091 C 
ENDROOT
BRANCH   1   7
ATOM      7  O   LIG d   1      -3.204  90.655 119.088  0.00  0.00    -0.368 OA
BRANCH   7   8
ATOM      8  C   LIG d   1      -2.418  90.279 117.931  0.00  0.00     0.119 C 
BRANCH   8   9
ATOM      9  C   LIG d   1      -1.718  88.946 118.259  0.00  0.00     0.028 C 
ATOM     10  C   LIG d   1      -2.321  87.761 117.486  0.00  0.00     0.006 C 
ENDBRANCH   8   9
BRANCH   8  11
ATOM     11  C   LIG d   1      -1.285  91.279 117.678  0.00  0.00     0.028 C 
ATOM     12  C   LIG d   1      -1.010  92.186 118.888  0.00  0.00     0.006 C 
ENDBRANCH   8  11
ENDBRANCH   7   8
ENDBRANCH   1   7
BRANCH   6  13
ATOM     13  N   LIG d   1      -4.567  93.283 119.652  0.00  0.00    -0.311 N 
ATOM     14  C   LIG d   1      -3.920  94.447 119.674  0.00  0.00     0.210 C 
ATOM     15  C   LIG d   1      -3.857  95.125 121.047  0.00  0.00     0.109 C 
ATOM     16  O   LIG d   1      -3.421  94.998 118.682  0.00  0.00    -0.276 OA
ATOM     17  H   LIG d   1      -4.969  92.925 120.497  0.00  0.00     0.149 HD
ENDBRANCH   6  13
BRANCH   5  18
ATOM     18  N   LIG d   1      -6.182  94.104 117.192  0.00  0.00     0.381 N 
ATOM     19  H   LIG d   1      -6.721  94.108 116.350  0.00  0.00    -0.090 HD
ATOM     20  H   LIG d   1      -5.263  94.450 116.980  0.00  0.00    -0.090 HD
ATOM     21  H   LIG d   1      -6.614  94.686 117.875  0.00  0.00    -0.090 HD
ENDBRANCH   5  18
BRANCH   3  22
ATOM     22  C   LIG d   1      -6.617  89.459 116.109  0.00  0.00     0.382 C 
ATOM     23  O   LIG d   1      -7.577  88.829 116.614  0.00  0.00    -0.241 OA
ATOM     24  O   LIG d   1      -6.230  89.170 114.960  0.00  0.00    -0.241 OA
ENDBRANCH   3  22
TORSDOF 7
ENDMDL
MODEL 6
REMARK VINA RESULT:      -5.1      2.530      5.882
REMARK  7 active torsions:
REMARK  status: ('A' for Active; 'I' for Inactive)
REMARK    1  A    between atoms: C_2  and  C_3 
REMARK    2  A    between atoms: C_3  and  O_6 
REMARK    3  A    between atoms: C_3  and  C_4 
REMARK    4  A    between atoms: C_7  and  O_6 
REMARK    5  A    between atoms: C_9  and  C_10 
REMARK    6  A    between atoms: N_15  and  C_14 
REMARK    7  A    between atoms: N_20  and  C_19 
REMARK       I    between atoms: C_22  and  N_20 
ROOT
ATOM      1  C   LIG d   1      -5.890  93.090 117.196  0.00  0.00     0.161 C 
ATOM      2  C   LIG d   1      -7.000  93.928 117.006  0.00  0.00     0.016 C 
ATOM      3  C   LIG d   1      -7.226  95.103 117.760  0.00  0.00     0.038 C 
ATOM      4  C   LIG d   1      -6.270  95.603 118.658  0.00  0.00     0.028 C 
ATOM      5  C   LIG d   1      -5.369  94.523 119.246  0.00  0.00    -0.047 C 
ATOM      6  C   LIG d   1      -4.781  93.677 118.093  0.00  0.00     0.091 C 
ENDROOT
BRANCH   1   7
ATOM      7  O   LIG d   1      -5.347  92.702 115.918  0.00  0.00    -0.368 OA
BRANCH   7   8
ATOM      8  C   LIG d   1      -5.621  91.343 115.495  0.00  0.00     0.119 C 
BRANCH   8   9
ATOM      9  C   LIG d   1      -7.011  91.336 114.831  0.00  0.00     0.028 C 
ATOM     10  C   LIG d   1      -7.866  90.136 115.273  0.00  0.00     0.006 C 
ENDBRANCH   8   9
BRANCH   8  11
ATOM     11  C   LIG d   1      -5.740  90.399 116.695  0.00  0.00     0.028 C 
ATOM     12  C   LIG d   1      -4.548  89.437 116.817  0.00  0.00     0.006 C 
ENDBRANCH   8  11
ENDBRANCH   7   8
ENDBRANCH   1   7
BRANCH   6  13
ATOM     13  N   LIG d   1      -3.953  92.545 118.585  0.00  0.00    -0.311 N 
ATOM     14  C   LIG d   1      -2.651  92.426 118.334  0.00  0.00     0.210 C 
ATOM     15  C   LIG d   1      -1.992  91.172 118.919  0.00  0.00     0.109 C 
ATOM     16  O   LIG d   1      -1.972  93.255 117.710  0.00  0.00    -0.276 OA
ATOM     17  H   LIG d   1      -4.417  91.842 119.127  0.00  0.00     0.149 HD
ENDBRANCH   6  13
BRANCH   5  18
ATOM     18  N   LIG d   1      -4.335  95.196 120.054  0.00  0.00     0.381 N 
ATOM     19  H   LIG d   1      -4.078  94.616 120.828  0.00  0.00    -0.090 HD
ATOM     20  H   LIG d   1      -4.713  96.054 120.416  0.00  0.00    -0.090 HD
ATOM     21  H   LIG d   1      -3.535  95.388 119.493  0.00  0.00    -0.090 HD
ENDBRANCH   5  18
BRANCH   3  22
ATOM     22  C   LIG d   1      -8.436  95.770 117.648  0.00  0.00     0.382 C 
ATOM     23  O   LIG d   1      -9.479  95.260 118.123  0.00  0.00    -0.241 OA
ATOM     24  O   LIG d   1      -8.506  96.854 117.039  0.00  0.00    -0.241 OA
ENDBRANCH   3  22
TORSDOF 7
ENDMDL
MODEL 7
REMARK VINA RESULT:      -5.0      2.135      4.999
REMARK  7 active torsions:
REMARK  status: ('A' for Active; 'I' for Inactive)
REMARK    1  A    between atoms: C_2  and  C_3 
REMARK    2  A    between atoms: C_3  and  O_6 
REMARK    3  A    between atoms: C_3  and  C_4 
REMARK    4  A    between atoms: C_7  and  O_6 
REMARK    5  A    between atoms: C_9  and  C_10 
REMARK    6  A    between atoms: N_15  and  C_14 
REMARK    7  A    between atoms: N_20  and  C_19 
REMARK       I    between atoms: C_22  and  N_20 
ROOT
ATOM      1  C   LIG d   1      -4.936  92.331 117.749  0.00  0.00     0.161 C 
ATOM      2  C   LIG d   1      -5.248  93.557 118.360  0.00  0.00     0.016 C 
ATOM      3  C   LIG d   1      -6.310  94.389 117.938  0.00  0.00     0.038 C 
ATOM      4  C   LIG d   1      -7.232  93.978 116.965  0.00  0.00     0.028 C 
ATOM      5  C   LIG d   1      -6.658  92.971 115.973  0.00  0.00    -0.047 C 
ATOM      6  C   LIG d   1      -5.999  91.814 116.758  0.00  0.00     0.091 C 
ENDROOT
BRANCH   1   7
ATOM      7  O   LIG d   1      -4.664  91.337 118.757  0.00  0.00    -0.368 OA
BRANCH   7   8
ATOM      8  C   LIG d   1      -3.351  90.728 118.714  0.00  0.00     0.119 C 
BRANCH   8   9
ATOM      9  C   LIG d   1      -3.547  89.200 118.762  0.00  0.00     0.028 C 
ATOM     10  C   LIG d   1      -2.477  88.446 117.954  0.00  0.00     0.006 C 
ENDBRANCH   8   9
BRANCH   8  11
ATOM     11  C   LIG d   1      -2.536  91.072 119.964  0.00  0.00     0.028 C 
ATOM     12  C   LIG d   1      -1.786  92.408 119.839  0.00  0.00     0.006 C 
ENDBRANCH   8  11
ENDBRANCH   7   8
ENDBRANCH   1   7
BRANCH   6  13
ATOM     13  N   LIG d   1      -5.339  90.827 115.864  0.00  0.00    -0.311 N 
ATOM     14  C   LIG d   1      -5.716  89.553 115.773  0.00  0.00     0.210 C 
ATOM     15  C   LIG d   1      -4.888  88.701 114.806  0.00  0.00     0.109 C 
ATOM     16  O   LIG d   1      -6.678  89.055 116.377  0.00  0.00    -0.276 OA
ATOM     17  H   LIG d   1      -4.568  91.154 115.314  0.00  0.00     0.149 HD
ENDBRANCH   6  13
BRANCH   5  18
ATOM     18  N   LIG d   1      -7.761  92.525 115.102  0.00  0.00     0.381 N 
ATOM     19  H   LIG d   1      -7.446  92.476 114.154  0.00  0.00    -0.090 HD
ATOM     20  H   LIG d   1      -8.507  93.196 115.152  0.00  0.00    -0.090 HD
ATOM     21  H   LIG d   1      -8.089  91.631 115.397  0.00  0.00    -0.090 HD
ENDBRANCH   5  18
BRANCH   3  22
ATOM     22  C   LIG d   1      -6.433  95.666 118.464  0.00  0.00     0.382 C 
ATOM     23  O   LIG d   1      -7.138  96.521 117.876  0.00  0.00    -0.241 OA
ATOM     24  O   LIG d   1      -5.813  95.987 119.496  0.00  0.00    -0.241 OA
ENDBRANCH   3  22
TORSDOF 7
ENDMDL
MODEL 8
REMARK VINA RESULT:      -5.0      2.306      4.872
REMARK  7 active torsions:
REMARK  status: ('A' for Active; 'I' for Inactive)
REMARK    1  A    between atoms: C_2  and  C_3 
REMARK    2  A    between atoms: C_3  and  O_6 
REMARK    3  A    between atoms: C_3  and  C_4 
REMARK    4  A    between atoms: C_7  and  O_6 
REMARK    5  A    between atoms: C_9  and  C_10 
REMARK    6  A    between atoms: N_15  and  C_14 
REMARK    7  A    between atoms: N_20  and  C_19 
REMARK       I    between atoms: C_22  and  N_20 
ROOT
ATOM      1  C   LIG d   1      -4.129  92.438 117.169  0.00  0.00     0.161 C 
ATOM      2  C   LIG d   1      -3.245  93.328 117.802  0.00  0.00     0.016 C 
ATOM      3  C   LIG d   1      -3.669  94.364 118.665  0.00  0.00     0.038 C 
ATOM      4  C   LIG d   1      -5.005  94.487 119.076  0.00  0.00     0.028 C 
ATOM      5  C   LIG d   1      -6.003  93.925 118.069  0.00  0.00    -0.047 C 
ATOM      6  C   LIG d   1      -5.580  92.486 117.693  0.00  0.00     0.091 C 
ENDROOT
BRANCH   1   7
ATOM      7  O   LIG d   1      -3.612  91.095 117.250  0.00  0.00    -0.368 OA
BRANCH   7   8
ATOM      8  C   LIG d   1      -2.818  90.788 118.423  0.00  0.00     0.119 C 
BRANCH   8   9
ATOM      9  C   LIG d   1      -1.658  89.880 117.971  0.00  0.00     0.028 C 
ATOM     10  C   LIG d   1      -0.451  90.682 117.457  0.00  0.00     0.006 C 
ENDBRANCH   8   9
BRANCH   8  11
ATOM     11  C   LIG d   1      -3.615  89.956 119.432  0.00  0.00     0.028 C 
ATOM     12  C   LIG d   1      -4.074  90.776 120.649  0.00  0.00     0.006 C 
ENDBRANCH   8  11
ENDBRANCH   7   8
ENDBRANCH   1   7
BRANCH   6  13
ATOM     13  N   LIG d   1      -6.455  91.893 116.648  0.00  0.00    -0.311 N 
ATOM     14  C   LIG d   1      -6.850  90.621 116.659  0.00  0.00     0.210 C 
ATOM     15  C   LIG d   1      -7.733  90.208 115.477  0.00  0.00     0.109 C 
ATOM     16  O   LIG d   1      -6.580  89.804 117.552  0.00  0.00    -0.276 OA
ATOM     17  H   LIG d   1      -6.747  92.494 115.903  0.00  0.00     0.149 HD
ENDBRANCH   6  13
BRANCH   5  18
ATOM     18  N   LIG d   1      -7.342  93.992 118.683  0.00  0.00     0.381 N 
ATOM     19  H   LIG d   1      -7.330  93.535 119.573  0.00  0.00    -0.090 HD
ATOM     20  H   LIG d   1      -7.996  93.512 118.090  0.00  0.00    -0.090 HD
ATOM     21  H   LIG d   1      -7.619  94.943 118.794  0.00  0.00    -0.090 HD
ENDBRANCH   5  18
BRANCH   3  22
ATOM     22  C   LIG d   1      -2.758  95.317 119.095  0.00  0.00     0.382 C 
ATOM     23  O   LIG d   1      -3.131  96.499 119.288  0.00  0.00    -0.241 OA
ATOM     24  O   LIG d   1      -1.559  95.019 119.249  0.00  0.00    -0.241 OA
ENDBRANCH   3  22
TORSDOF 7
ENDMDL
MODEL 9
REMARK VINA RESULT:      -5.0     13.102     15.699
REMARK  7 active torsions:
REMARK  status: ('A' for Active; 'I' for Inactive)
REMARK    1  A    between atoms: C_2  and  C_3 
REMARK    2  A    between atoms: C_3  and  O_6 
REMARK    3  A    between atoms: C_3  and  C_4 
REMARK    4  A    between atoms: C_7  and  O_6 
REMARK    5  A    between atoms: C_9  and  C_10 
REMARK    6  A    between atoms: N_15  and  C_14 
REMARK    7  A    between atoms: N_20  and  C_19 
REMARK       I    between atoms: C_22  and  N_20 
ROOT
ATOM      1  C   LIG d   1      -5.884  77.604 117.097  0.00  0.00     0.161 C 
ATOM      2  C   LIG d   1      -7.202  78.090 117.086  0.00  0.00     0.016 C 
ATOM      3  C   LIG d   1      -7.633  79.189 117.865  0.00  0.00     0.038 C 
ATOM      4  C   LIG d   1      -6.733  79.976 118.598  0.00  0.00     0.028 C 
ATOM      5  C   LIG d   1      -5.484  79.219 119.037  0.00  0.00    -0.047 C 
ATOM      6  C   LIG d   1      -4.863  78.519 117.806  0.00  0.00     0.091 C 
ENDROOT
BRANCH   1   7
ATOM      7  O   LIG d   1      -5.455  77.325 115.750  0.00  0.00    -0.368 OA
BRANCH   7   8
ATOM      8  C   LIG d   1      -5.349  75.925 115.392  0.00  0.00     0.119 C 
BRANCH   8   9
ATOM      9  C   LIG d   1      -5.440  75.106 116.695  0.00  0.00     0.028 C 
ATOM     10  C   LIG d   1      -6.549  74.042 116.643  0.00  0.00     0.006 C 
ENDBRANCH   8   9
BRANCH   8  11
ATOM     11  C   LIG d   1      -3.972  75.602 114.806  0.00  0.00     0.028 C 
ATOM     12  C   LIG d   1      -3.237  74.497 115.582  0.00  0.00     0.006 C 
ENDBRANCH   8  11
ENDBRANCH   7   8
ENDBRANCH   1   7
BRANCH   6  13
ATOM     13  N   LIG d   1      -3.684  77.687 118.162  0.00  0.00    -0.311 N 
ATOM     14  C   LIG d   1      -2.531  77.727 117.496  0.00  0.00     0.210 C 
ATOM     15  C   LIG d   1      -1.451  76.772 118.016  0.00  0.00     0.109 C 
ATOM     16  O   LIG d   1      -2.289  78.485 116.545  0.00  0.00    -0.276 OA
ATOM     17  H   LIG d   1      -3.783  77.065 118.941  0.00  0.00     0.149 HD
ENDBRANCH   6  13
BRANCH   5  18
ATOM     18  N   LIG d   1      -4.572  80.191 119.670  0.00  0.00     0.381 N 
ATOM     19  H   LIG d   1      -4.834  80.328 120.626  0.00  0.00    -0.090 HD
ATOM     20  H   LIG d   1      -4.653  81.071 119.192  0.00  0.00    -0.090 HD
ATOM     21  H   LIG d   1      -3.634  79.861 119.619  0.00  0.00    -0.090 HD
ENDBRANCH   5  18
BRANCH   3  22
ATOM     22  C   LIG d   1      -8.985  79.485 117.946  0.00  0.00     0.382 C 
ATOM     23  O   LIG d   1      -9.806  78.589 118.257  0.00  0.00    -0.241 OA
ATOM     24  O   LIG d   1      -9.399  80.627 117.669  0.00  0.00    -0.241 OA
ENDBRANCH   3  22
TORSDOF 7
ENDMDL
