MODEL 1
REMARK VINA RESULT:      -6.0      0.000      0.000
REMARK  7 active torsions:
REMARK  status: ('A' for Active; 'I' for Inactive)
REMARK    1  A    between atoms: C_2  and  C_3 
REMARK    2  A    between atoms: C_3  and  O_6 
REMARK    3  A    between atoms: C_3  and  C_4 
REMARK    4  A    between atoms: C_7  and  O_6 
REMARK    5  A    between atoms: C_9  and  C_10 
REMARK    6  A    between atoms: N_15  and  C_14 
REMARK    7  A    between atoms: N_20  and  C_19 
REMARK       I    between atoms: C_22  and  N_20 
ROOT
ATOM      1  C   LIG d   1      -7.371  74.501 117.568  0.00  0.00     0.161 C 
ATOM      2  C   LIG d   1      -8.567  75.122 117.963  0.00  0.00     0.016 C 
ATOM      3  C   LIG d   1      -8.755  76.523 117.959  0.00  0.00     0.038 C 
ATOM      4  C   LIG d   1      -7.803  77.397 117.414  0.00  0.00     0.028 C 
ATOM      5  C   LIG d   1      -6.379  76.854 117.470  0.00  0.00    -0.047 C 
ATOM      6  C   LIG d   1      -6.361  75.431 116.865  0.00  0.00     0.091 C 
ENDROOT
BRANCH   1   7
ATOM      7  O   LIG d   1      -7.663  73.360 116.737  0.00  0.00    -0.368 OA
BRANCH   7   8
ATOM      8  C   LIG d   1      -7.876  72.105 117.429  0.00  0.00     0.119 C 
BRANCH   8   9
ATOM      9  C   LIG d   1      -6.965  71.052 116.769  0.00  0.00     0.028 C 
ATOM     10  C   LIG d   1      -6.168  71.625 115.585  0.00  0.00     0.006 C 
ENDBRANCH   8   9
BRANCH   8  11
ATOM     11  C   LIG d   1      -9.304  71.591 117.224  0.00  0.00     0.028 C 
ATOM     12  C   LIG d   1      -9.394  70.057 117.244  0.00  0.00     0.006 C 
ENDBRANCH   8  11
ENDBRANCH   7   8
ENDBRANCH   1   7
BRANCH   6  13
ATOM     13  N   LIG d   1      -5.021  74.793 116.957  0.00  0.00    -0.311 N 
ATOM     14  C   LIG d   1      -4.158  74.752 115.944  0.00  0.00     0.210 C 
ATOM     15  C   LIG d   1      -2.841  74.029 116.246  0.00  0.00     0.109 C 
ATOM     16  O   LIG d   1      -4.343  75.274 114.834  0.00  0.00    -0.276 OA
ATOM     17  H   LIG d   1      -4.776  74.372 117.832  0.00  0.00     0.149 HD
ENDBRANCH   6  13
BRANCH   5  18
ATOM     18  N   LIG d   1      -5.511  77.801 116.746  0.00  0.00     0.381 N 
ATOM     19  H   LIG d   1      -4.828  77.298 116.215  0.00  0.00    -0.090 HD
ATOM     20  H   LIG d   1      -5.030  78.377 117.414  0.00  0.00    -0.090 HD
ATOM     21  H   LIG d   1      -6.059  78.371 116.140  0.00  0.00    -0.090 HD
ENDBRANCH   5  18
BRANCH   3  22
ATOM     22  C   LIG d   1      -9.889  77.066 118.543  0.00  0.00     0.382 C 
ATOM     23  O   LIG d   1      -9.778  77.965 119.411  0.00  0.00    -0.241 OA
ATOM     24  O   LIG d   1     -11.020  76.638 118.245  0.00  0.00    -0.241 OA
ENDBRANCH   3  22
TORSDOF 7
ENDMDL
MODEL 2
REMARK VINA RESULT:      -5.6      2.014      5.109
REMARK  7 active torsions:
REMARK  status: ('A' for Active; 'I' for Inactive)
REMARK    1  A    between atoms: C_2  and  C_3 
REMARK    2  A    between atoms: C_3  and  O_6 
REMARK    3  A    between atoms: C_3  and  C_4 
REMARK    4  A    between atoms: C_7  and  O_6 
REMARK    5  A    between atoms: C_9  and  C_10 
REMARK    6  A    between atoms: N_15  and  C_14 
REMARK    7  A    between atoms: N_20  and  C_19 
REMARK       I    between atoms: C_22  and  N_20 
ROOT
ATOM      1  C   LIG d   1      -6.167  74.234 117.379  0.00  0.00     0.161 C 
ATOM      2  C   LIG d   1      -4.937  73.698 116.962  0.00  0.00     0.016 C 
ATOM      3  C   LIG d   1      -3.686  74.259 117.309  0.00  0.00     0.038 C 
ATOM      4  C   LIG d   1      -3.576  75.314 118.228  0.00  0.00     0.028 C 
ATOM      5  C   LIG d   1      -4.813  76.205 118.278  0.00  0.00    -0.047 C 
ATOM      6  C   LIG d   1      -6.063  75.318 118.472  0.00  0.00     0.091 C 
ENDROOT
BRANCH   1   7
ATOM      7  O   LIG d   1      -7.042  73.172 117.808  0.00  0.00    -0.368 OA
BRANCH   7   8
ATOM      8  C   LIG d   1      -7.863  72.567 116.779  0.00  0.00     0.119 C 
BRANCH   8   9
ATOM      9  C   LIG d   1      -9.335  72.743 117.198  0.00  0.00     0.028 C 
ATOM     10  C   LIG d   1      -9.818  74.196 117.053  0.00  0.00     0.006 C 
ENDBRANCH   8   9
BRANCH   8  11
ATOM     11  C   LIG d   1      -7.640  71.054 116.706  0.00  0.00     0.028 C 
ATOM     12  C   LIG d   1      -8.871  70.248 117.149  0.00  0.00     0.006 C 
ENDBRANCH   8  11
ENDBRANCH   7   8
ENDBRANCH   1   7
BRANCH   6  13
ATOM     13  N   LIG d   1      -7.325  76.103 118.447  0.00  0.00    -0.311 N 
ATOM     14  C   LIG d   1      -7.970  76.489 119.547  0.00  0.00     0.210 C 
ATOM     15  C   LIG d   1      -9.262  77.273 119.297  0.00  0.00     0.109 C 
ATOM     16  O   LIG d   1      -7.577  76.285 120.705  0.00  0.00    -0.276 OA
ATOM     17  H   LIG d   1      -7.698  76.340 117.548  0.00  0.00     0.149 HD
ENDBRANCH   6  13
BRANCH   5  18
ATOM     18  N   LIG d   1      -4.618  77.177 119.370  0.00  0.00     0.381 N 
ATOM     19  H   LIG d   1      -5.381  77.824 119.388  0.00  0.00    -0.090 HD
ATOM     20  H   LIG d   1      -3.772  77.692 119.200  0.00  0.00    -0.090 HD
ATOM     21  H   LIG d   1      -4.556  76.701 120.243  0.00  0.00    -0.090 HD
ENDBRANCH   5  18
BRANCH   3  22
ATOM     22  C   LIG d   1      -2.531  73.790 116.704  0.00  0.00     0.382 C 
ATOM     23  O   LIG d   1      -1.827  72.926 117.281  0.00  0.00    -0.241 OA
ATOM     24  O   LIG d   1      -2.159  74.251 115.608  0.00  0.00    -0.241 OA
ENDBRANCH   3  22
TORSDOF 7
ENDMDL
MODEL 3
REMARK VINA RESULT:      -5.1      1.984      5.169
REMARK  7 active torsions:
REMARK  status: ('A' for Active; 'I' for Inactive)
REMARK    1  A    between atoms: C_2  and  C_3 
REMARK    2  A    between atoms: C_3  and  O_6 
REMARK    3  A    between atoms: C_3  and  C_4 
REMARK    4  A    between atoms: C_7  and  O_6 
REMARK    5  A    between atoms: C_9  and  C_10 
REMARK    6  A    between atoms: N_15  and  C_14 
REMARK    7  A    between atoms: N_20  and  C_19 
REMARK       I    between atoms: C_22  and  N_20 
ROOT
ATOM      1  C   LIG d   1      -7.822  75.254 117.534  0.00  0.00     0.161 C 
ATOM      2  C   LIG d   1      -8.431  73.989 117.522  0.00  0.00     0.016 C 
ATOM      3  C   LIG d   1      -7.727  72.788 117.276  0.00  0.00     0.038 C 
ATOM      4  C   LIG d   1      -6.328  72.757 117.174  0.00  0.00     0.028 C 
ATOM      5  C   LIG d   1      -5.727  74.068 116.678  0.00  0.00    -0.047 C 
ATOM      6  C   LIG d   1      -6.279  75.229 117.536  0.00  0.00     0.091 C 
ENDROOT
BRANCH   1   7
ATOM      7  O   LIG d   1      -8.311  76.022 118.652  0.00  0.00    -0.368 OA
BRANCH   7   8
ATOM      8  C   LIG d   1      -9.202  77.119 118.331  0.00  0.00     0.119 C 
BRANCH   8   9
ATOM      9  C   LIG d   1      -8.943  78.240 119.356  0.00  0.00     0.028 C 
ATOM     10  C   LIG d   1      -8.309  79.486 118.715  0.00  0.00     0.006 C 
ENDBRANCH   8   9
BRANCH   8  11
ATOM     11  C   LIG d   1     -10.668  76.722 118.526  0.00  0.00     0.028 C 
ATOM     12  C   LIG d   1     -11.323  77.430 119.722  0.00  0.00     0.006 C 
ENDBRANCH   8  11
ENDBRANCH   7   8
ENDBRANCH   1   7
BRANCH   6  13
ATOM     13  N   LIG d   1      -5.807  76.557 117.063  0.00  0.00    -0.311 N 
ATOM     14  C   LIG d   1      -5.294  77.483 117.871  0.00  0.00     0.210 C 
ATOM     15  C   LIG d   1      -4.888  78.790 117.182  0.00  0.00     0.109 C 
ATOM     16  O   LIG d   1      -5.107  77.334 119.088  0.00  0.00    -0.276 OA
ATOM     17  H   LIG d   1      -5.893  76.750 116.084  0.00  0.00     0.149 HD
ENDBRANCH   6  13
BRANCH   5  18
ATOM     18  N   LIG d   1      -4.259  73.941 116.751  0.00  0.00     0.381 N 
ATOM     19  H   LIG d   1      -3.980  73.038 116.423  0.00  0.00    -0.090 HD
ATOM     20  H   LIG d   1      -3.973  74.031 117.710  0.00  0.00    -0.090 HD
ATOM     21  H   LIG d   1      -3.828  74.651 116.200  0.00  0.00    -0.090 HD
ENDBRANCH   5  18
BRANCH   3  22
ATOM     22  C   LIG d   1      -8.427  71.606 117.089  0.00  0.00     0.382 C 
ATOM     23  O   LIG d   1      -7.901  70.659 116.457  0.00  0.00    -0.241 OA
ATOM     24  O   LIG d   1      -9.595  71.491 117.507  0.00  0.00    -0.241 OA
ENDBRANCH   3  22
TORSDOF 7
ENDMDL
MODEL 4
REMARK VINA RESULT:      -4.8      2.245      4.971
REMARK  7 active torsions:
REMARK  status: ('A' for Active; 'I' for Inactive)
REMARK    1  A    between atoms: C_2  and  C_3 
REMARK    2  A    between atoms: C_3  and  O_6 
REMARK    3  A    between atoms: C_3  and  C_4 
REMARK    4  A    between atoms: C_7  and  O_6 
REMARK    5  A    between atoms: C_9  and  C_10 
REMARK    6  A    between atoms: N_15  and  C_14 
REMARK    7  A    between atoms: N_20  and  C_19 
REMARK       I    between atoms: C_22  and  N_20 
ROOT
ATOM      1  C   LIG d   1      -5.740  74.516 117.297  0.00  0.00     0.161 C 
ATOM      2  C   LIG d   1      -6.403  73.321 116.971  0.00  0.00     0.016 C 
ATOM      3  C   LIG d   1      -7.801  73.148 117.094  0.00  0.00     0.038 C 
ATOM      4  C   LIG d   1      -8.655  74.215 117.408  0.00  0.00     0.028 C 
ATOM      5  C   LIG d   1      -7.982  75.306 118.234  0.00  0.00    -0.047 C 
ATOM      6  C   LIG d   1      -6.668  75.725 117.536  0.00  0.00     0.091 C 
ENDROOT
BRANCH   1   7
ATOM      7  O   LIG d   1      -4.765  74.826 116.282  0.00  0.00    -0.368 OA
BRANCH   7   8
ATOM      8  C   LIG d   1      -3.406  75.025 116.744  0.00  0.00     0.119 C 
BRANCH   8   9
ATOM      9  C   LIG d   1      -2.688  75.905 115.702  0.00  0.00     0.028 C 
ATOM     10  C   LIG d   1      -3.672  76.676 114.806  0.00  0.00     0.006 C 
ENDBRANCH   8   9
BRANCH   8  11
ATOM     11  C   LIG d   1      -2.626  73.707 116.768  0.00  0.00     0.028 C 
ATOM     12  C   LIG d   1      -1.390  73.763 117.679  0.00  0.00     0.006 C 
ENDBRANCH   8  11
ENDBRANCH   7   8
ENDBRANCH   1   7
BRANCH   6  13
ATOM     13  N   LIG d   1      -5.905  76.730 118.321  0.00  0.00    -0.311 N 
ATOM     14  C   LIG d   1      -5.597  77.941 117.860  0.00  0.00     0.210 C 
ATOM     15  C   LIG d   1      -4.787  78.813 118.824  0.00  0.00     0.109 C 
ATOM     16  O   LIG d   1      -5.945  78.387 116.757  0.00  0.00    -0.276 OA
ATOM     17  H   LIG d   1      -5.609  76.462 119.240  0.00  0.00     0.149 HD
ENDBRANCH   6  13
BRANCH   5  18
ATOM     18  N   LIG d   1      -8.943  76.417 118.372  0.00  0.00     0.381 N 
ATOM     19  H   LIG d   1      -8.450  77.282 118.468  0.00  0.00    -0.090 HD
ATOM     20  H   LIG d   1      -9.490  76.272 119.203  0.00  0.00    -0.090 HD
ATOM     21  H   LIG d   1      -9.540  76.453 117.575  0.00  0.00    -0.090 HD
ENDBRANCH   5  18
BRANCH   3  22
ATOM     22  C   LIG d   1      -8.353  71.886 116.938  0.00  0.00     0.382 C 
ATOM     23  O   LIG d   1      -7.740  71.009 116.283  0.00  0.00    -0.241 OA
ATOM     24  O   LIG d   1      -9.477  71.626 117.408  0.00  0.00    -0.241 OA
ENDBRANCH   3  22
TORSDOF 7
ENDMDL
MODEL 5
REMARK VINA RESULT:      -4.7     16.021     18.236
REMARK  7 active torsions:
REMARK  status: ('A' for Active; 'I' for Inactive)
REMARK    1  A    between atoms: C_2  and  C_3 
REMARK    2  A    between atoms: C_3  and  O_6 
REMARK    3  A    between atoms: C_3  and  C_4 
REMARK    4  A    between atoms: C_7  and  O_6 
REMARK    5  A    between atoms: C_9  and  C_10 
REMARK    6  A    between atoms: N_15  and  C_14 
REMARK    7  A    between atoms: N_20  and  C_19 
REMARK       I    between atoms: C_22  and  N_20 
ROOT
ATOM      1  C   LIG d   1       0.766  90.224 117.137  0.00  0.00     0.161 C 
ATOM      2  C   LIG d   1      -0.639  90.187 117.145  0.00  0.00     0.016 C 
ATOM      3  C   LIG d   1      -1.439  91.160 117.787  0.00  0.00     0.038 C 
ATOM      4  C   LIG d   1      -0.888  92.326 118.339  0.00  0.00     0.028 C 
ATOM      5  C   LIG d   1       0.557  92.156 118.796  0.00  0.00    -0.047 C 
ATOM      6  C   LIG d   1       1.381  91.547 117.638  0.00  0.00     0.091 C 
ENDROOT
BRANCH   1   7
ATOM      7  O   LIG d   1       1.255  89.912 115.817  0.00  0.00    -0.368 OA
BRANCH   7   8
ATOM      8  C   LIG d   1       2.304  88.915 115.745  0.00  0.00     0.119 C 
BRANCH   8   9
ATOM      9  C   LIG d   1       3.396  89.460 114.805  0.00  0.00     0.028 C 
ATOM     10  C   LIG d   1       4.806  89.324 115.403  0.00  0.00     0.006 C 
ENDBRANCH   8   9
BRANCH   8  11
ATOM     11  C   LIG d   1       1.804  87.628 115.083  0.00  0.00     0.028 C 
ATOM     12  C   LIG d   1       2.260  86.361 115.825  0.00  0.00     0.006 C 
ENDBRANCH   8  11
ENDBRANCH   7   8
ENDBRANCH   1   7
BRANCH   6  13
ATOM     13  N   LIG d   1       2.788  91.269 118.029  0.00  0.00    -0.311 N 
ATOM     14  C   LIG d   1       3.781  92.141 117.863  0.00  0.00     0.210 C 
ATOM     15  C   LIG d   1       5.158  91.646 118.315  0.00  0.00     0.109 C 
ATOM     16  O   LIG d   1       3.646  93.290 117.415  0.00  0.00    -0.276 OA
ATOM     17  H   LIG d   1       2.981  90.372 118.429  0.00  0.00     0.149 HD
ENDBRANCH   6  13
BRANCH   5  18
ATOM     18  N   LIG d   1       1.049  93.480 119.222  0.00  0.00     0.381 N 
ATOM     19  H   LIG d   1       1.579  93.389 120.066  0.00  0.00    -0.090 HD
ATOM     20  H   LIG d   1       0.262  94.076 119.406  0.00  0.00    -0.090 HD
ATOM     21  H   LIG d   1       1.617  93.879 118.506  0.00  0.00    -0.090 HD
ENDBRANCH   5  18
BRANCH   3  22
ATOM     22  C   LIG d   1      -2.803  90.952 117.916  0.00  0.00     0.382 C 
ATOM     23  O   LIG d   1      -3.247  89.791 118.091  0.00  0.00    -0.241 OA
ATOM     24  O   LIG d   1      -3.600  91.904 117.815  0.00  0.00    -0.241 OA
ENDBRANCH   3  22
TORSDOF 7
ENDMDL
MODEL 6
REMARK VINA RESULT:      -4.6      2.342      4.952
REMARK  7 active torsions:
REMARK  status: ('A' for Active; 'I' for Inactive)
REMARK    1  A    between atoms: C_2  and  C_3 
REMARK    2  A    between atoms: C_3  and  O_6 
REMARK    3  A    between atoms: C_3  and  C_4 
REMARK    4  A    between atoms: C_7  and  O_6 
REMARK    5  A    between atoms: C_9  and  C_10 
REMARK    6  A    between atoms: N_15  and  C_14 
REMARK    7  A    between atoms: N_20  and  C_19 
REMARK       I    between atoms: C_22  and  N_20 
ROOT
ATOM      1  C   LIG d   1      -6.184  75.760 116.616  0.00  0.00     0.161 C 
ATOM      2  C   LIG d   1      -6.917  74.562 116.565  0.00  0.00     0.016 C 
ATOM      3  C   LIG d   1      -6.317  73.286 116.461  0.00  0.00     0.038 C 
ATOM      4  C   LIG d   1      -4.928  73.110 116.554  0.00  0.00     0.028 C 
ATOM      5  C   LIG d   1      -4.132  74.329 116.099  0.00  0.00    -0.047 C 
ATOM      6  C   LIG d   1      -4.667  75.580 116.831  0.00  0.00     0.091 C 
ENDROOT
BRANCH   1   7
ATOM      7  O   LIG d   1      -6.734  76.626 117.628  0.00  0.00    -0.368 OA
BRANCH   7   8
ATOM      8  C   LIG d   1      -7.762  76.050 118.471  0.00  0.00     0.119 C 
BRANCH   8   9
ATOM      9  C   LIG d   1      -8.958  77.022 118.473  0.00  0.00     0.028 C 
ATOM     10  C   LIG d   1      -8.527  78.483 118.684  0.00  0.00     0.006 C 
ENDBRANCH   8   9
BRANCH   8  11
ATOM     11  C   LIG d   1      -7.305  75.966 119.930  0.00  0.00     0.028 C 
ATOM     12  C   LIG d   1      -6.635  74.625 120.269  0.00  0.00     0.006 C 
ENDBRANCH   8  11
ENDBRANCH   7   8
ENDBRANCH   1   7
BRANCH   6  13
ATOM     13  N   LIG d   1      -3.998  76.829 116.382  0.00  0.00    -0.311 N 
ATOM     14  C   LIG d   1      -3.276  77.605 117.188  0.00  0.00     0.210 C 
ATOM     15  C   LIG d   1      -2.690  78.857 116.527  0.00  0.00     0.109 C 
ATOM     16  O   LIG d   1      -3.038  77.359 118.380  0.00  0.00    -0.276 OA
ATOM     17  H   LIG d   1      -4.113  77.088 115.421  0.00  0.00     0.149 HD
ENDBRANCH   6  13
BRANCH   5  18
ATOM     18  N   LIG d   1      -2.708  74.060 116.378  0.00  0.00     0.381 N 
ATOM     19  H   LIG d   1      -2.585  73.095 116.613  0.00  0.00    -0.090 HD
ATOM     20  H   LIG d   1      -2.421  74.615 117.165  0.00  0.00    -0.090 HD
ATOM     21  H   LIG d   1      -2.155  74.288 115.581  0.00  0.00    -0.090 HD
ENDBRANCH   5  18
BRANCH   3  22
ATOM     22  C   LIG d   1      -7.107  72.173 116.221  0.00  0.00     0.382 C 
ATOM     23  O   LIG d   1      -6.608  71.152 115.689  0.00  0.00    -0.241 OA
ATOM     24  O   LIG d   1      -8.324  72.191 116.490  0.00  0.00    -0.241 OA
ENDBRANCH   3  22
TORSDOF 7
ENDMDL
MODEL 7
REMARK VINA RESULT:      -4.5      2.157      4.297
REMARK  7 active torsions:
REMARK  status: ('A' for Active; 'I' for Inactive)
REMARK    1  A    between atoms: C_2  and  C_3 
REMARK    2  A    between atoms: C_3  and  O_6 
REMARK    3  A    between atoms: C_3  and  C_4 
REMARK    4  A    between atoms: C_7  and  O_6 
REMARK    5  A    between atoms: C_9  and  C_10 
REMARK    6  A    between atoms: N_15  and  C_14 
REMARK    7  A    between atoms: N_20  and  C_19 
REMARK       I    between atoms: C_22  and  N_20 
ROOT
ATOM      1  C   LIG d   1      -6.625  75.937 117.523  0.00  0.00     0.161 C 
ATOM      2  C   LIG d   1      -7.264  77.098 117.988  0.00  0.00     0.016 C 
ATOM      3  C   LIG d   1      -8.659  77.187 118.201  0.00  0.00     0.038 C 
ATOM      4  C   LIG d   1      -9.496  76.066 118.107  0.00  0.00     0.028 C 
ATOM      5  C   LIG d   1      -8.973  74.998 117.153  0.00  0.00    -0.047 C 
ATOM      6  C   LIG d   1      -7.507  74.671 117.520  0.00  0.00     0.091 C 
ENDROOT
BRANCH   1   7
ATOM      7  O   LIG d   1      -5.420  75.706 118.278  0.00  0.00    -0.368 OA
BRANCH   7   8
ATOM      8  C   LIG d   1      -4.210  76.299 117.744  0.00  0.00     0.119 C 
BRANCH   8   9
ATOM      9  C   LIG d   1      -3.765  75.442 116.543  0.00  0.00     0.028 C 
ATOM     10  C   LIG d   1      -3.290  74.041 116.966  0.00  0.00     0.006 C 
ENDBRANCH   8   9
BRANCH   8  11
ATOM     11  C   LIG d   1      -3.058  76.217 118.750  0.00  0.00     0.028 C 
ATOM     12  C   LIG d   1      -3.543  76.036 120.197  0.00  0.00     0.006 C 
ENDBRANCH   8  11
ENDBRANCH   7   8
ENDBRANCH   1   7
BRANCH   6  13
ATOM     13  N   LIG d   1      -6.892  73.695 116.583  0.00  0.00    -0.311 N 
ATOM     14  C   LIG d   1      -6.872  72.382 116.801  0.00  0.00     0.210 C 
ATOM     15  C   LIG d   1      -6.169  71.557 115.718  0.00  0.00     0.109 C 
ATOM     16  O   LIG d   1      -7.398  71.818 117.772  0.00  0.00    -0.276 OA
ATOM     17  H   LIG d   1      -6.469  74.064 115.754  0.00  0.00     0.149 HD
ENDBRANCH   6  13
BRANCH   5  18
ATOM     18  N   LIG d   1      -9.869  73.830 117.256  0.00  0.00     0.381 N 
ATOM     19  H   LIG d   1      -9.640  73.298 118.071  0.00  0.00    -0.090 HD
ATOM     20  H   LIG d   1      -9.735  73.246 116.450  0.00  0.00    -0.090 HD
ATOM     21  H   LIG d   1     -10.817  74.132 117.303  0.00  0.00    -0.090 HD
ENDBRANCH   5  18
BRANCH   3  22
ATOM     22  C   LIG d   1      -9.235  78.419 118.474  0.00  0.00     0.382 C 
ATOM     23  O   LIG d   1      -8.513  79.440 118.576  0.00  0.00    -0.241 OA
ATOM     24  O   LIG d   1     -10.462  78.513 118.664  0.00  0.00    -0.241 OA
ENDBRANCH   3  22
TORSDOF 7
ENDMDL
MODEL 8
REMARK VINA RESULT:      -4.4     16.107     18.672
REMARK  7 active torsions:
REMARK  status: ('A' for Active; 'I' for Inactive)
REMARK    1  A    between atoms: C_2  and  C_3 
REMARK    2  A    between atoms: C_3  and  O_6 
REMARK    3  A    between atoms: C_3  and  C_4 
REMARK    4  A    between atoms: C_7  and  O_6 
REMARK    5  A    between atoms: C_9  and  C_10 
REMARK    6  A    between atoms: N_15  and  C_14 
REMARK    7  A    between atoms: N_20  and  C_19 
REMARK       I    between atoms: C_22  and  N_20 
ROOT
ATOM      1  C   LIG d   1       1.456  90.487 116.837  0.00  0.00     0.161 C 
ATOM      2  C   LIG d   1       2.741  91.013 117.057  0.00  0.00     0.016 C 
ATOM      3  C   LIG d   1       2.987  92.159 117.848  0.00  0.00     0.038 C 
ATOM      4  C   LIG d   1       1.975  92.772 118.600  0.00  0.00     0.028 C 
ATOM      5  C   LIG d   1       0.582  92.582 118.010  0.00  0.00    -0.047 C 
ATOM      6  C   LIG d   1       0.353  91.077 117.740  0.00  0.00     0.091 C 
ENDROOT
BRANCH   1   7
ATOM      7  O   LIG d   1       1.489  89.051 116.959  0.00  0.00    -0.368 OA
BRANCH   7   8
ATOM      8  C   LIG d   1       2.635  88.388 116.373  0.00  0.00     0.119 C 
BRANCH   8   9
ATOM      9  C   LIG d   1       2.158  87.687 115.087  0.00  0.00     0.028 C 
ATOM     10  C   LIG d   1       2.070  86.160 115.249  0.00  0.00     0.006 C 
ENDBRANCH   8   9
BRANCH   8  11
ATOM     11  C   LIG d   1       3.152  87.265 117.279  0.00  0.00     0.028 C 
ATOM     12  C   LIG d   1       4.211  87.750 118.282  0.00  0.00     0.006 C 
ENDBRANCH   8  11
ENDBRANCH   7   8
ENDBRANCH   1   7
BRANCH   6  13
ATOM     13  N   LIG d   1      -0.954  90.812 117.084  0.00  0.00    -0.311 N 
ATOM     14  C   LIG d   1      -2.034  90.396 117.743  0.00  0.00     0.210 C 
ATOM     15  C   LIG d   1      -3.273  90.164 116.873  0.00  0.00     0.109 C 
ATOM     16  O   LIG d   1      -2.093  90.228 118.970  0.00  0.00    -0.276 OA
ATOM     17  H   LIG d   1      -1.005  90.953 116.094  0.00  0.00     0.149 HD
ENDBRANCH   6  13
BRANCH   5  18
ATOM     18  N   LIG d   1      -0.388  93.152 118.964  0.00  0.00     0.381 N 
ATOM     19  H   LIG d   1      -1.280  92.715 118.842  0.00  0.00    -0.090 HD
ATOM     20  H   LIG d   1      -0.490  94.134 118.777  0.00  0.00    -0.090 HD
ATOM     21  H   LIG d   1      -0.068  93.016 119.898  0.00  0.00    -0.090 HD
ENDBRANCH   5  18
BRANCH   3  22
ATOM     22  C   LIG d   1       4.253  92.726 117.860  0.00  0.00     0.382 C 
ATOM     23  O   LIG d   1       4.424  93.884 117.409  0.00  0.00    -0.241 OA
ATOM     24  O   LIG d   1       5.232  92.077 118.274  0.00  0.00    -0.241 OA
ENDBRANCH   3  22
TORSDOF 7
ENDMDL
MODEL 9
REMARK VINA RESULT:      -4.2     23.489     25.265
REMARK  7 active torsions:
REMARK  status: ('A' for Active; 'I' for Inactive)
REMARK    1  A    between atoms: C_2  and  C_3 
REMARK    2  A    between atoms: C_3  and  O_6 
REMARK    3  A    between atoms: C_3  and  C_4 
REMARK    4  A    between atoms: C_7  and  O_6 
REMARK    5  A    between atoms: C_9  and  C_10 
REMARK    6  A    between atoms: N_15  and  C_14 
REMARK    7  A    between atoms: N_20  and  C_19 
REMARK       I    between atoms: C_22  and  N_20 
ROOT
ATOM      1  C   LIG d   1     -20.686  95.431 118.427  0.00  0.00     0.161 C 
ATOM      2  C   LIG d   1     -20.808  94.257 119.189  0.00  0.00     0.016 C 
ATOM      3  C   LIG d   1     -21.985  93.475 119.231  0.00  0.00     0.038 C 
ATOM      4  C   LIG d   1     -23.077  93.733 118.390  0.00  0.00     0.028 C 
ATOM      5  C   LIG d   1     -23.191  95.197 117.977  0.00  0.00    -0.047 C 
ATOM      6  C   LIG d   1     -21.829  95.668 117.417  0.00  0.00     0.091 C 
ENDROOT
BRANCH   1   7
ATOM      7  O   LIG d   1     -19.412  95.447 117.754  0.00  0.00    -0.368 OA
BRANCH   7   8
ATOM      8  C   LIG d   1     -18.444  96.407 118.246  0.00  0.00     0.119 C 
BRANCH   8   9
ATOM      9  C   LIG d   1     -17.487  96.736 117.083  0.00  0.00     0.028 C 
ATOM     10  C   LIG d   1     -17.748  98.129 116.484  0.00  0.00     0.006 C 
ENDBRANCH   8   9
BRANCH   8  11
ATOM     11  C   LIG d   1     -17.560  95.799 119.338  0.00  0.00     0.028 C 
ATOM     12  C   LIG d   1     -16.068  96.105 119.136  0.00  0.00     0.006 C 
ENDBRANCH   8  11
ENDBRANCH   7   8
ENDBRANCH   1   7
BRANCH   6  13
ATOM     13  N   LIG d   1     -21.828  97.112 117.068  0.00  0.00    -0.311 N 
ATOM     14  C   LIG d   1     -21.354  97.588 115.918  0.00  0.00     0.210 C 
ATOM     15  C   LIG d   1     -21.431  99.110 115.767  0.00  0.00     0.109 C 
ATOM     16  O   LIG d   1     -20.906  96.891 114.995  0.00  0.00    -0.276 OA
ATOM     17  H   LIG d   1     -22.202  97.746 117.747  0.00  0.00     0.149 HD
ENDBRANCH   6  13
BRANCH   5  18
ATOM     18  N   LIG d   1     -24.286  95.299 116.995  0.00  0.00     0.381 N 
ATOM     19  H   LIG d   1     -24.588  96.250 116.922  0.00  0.00    -0.090 HD
ATOM     20  H   LIG d   1     -25.061  94.745 117.313  0.00  0.00    -0.090 HD
ATOM     21  H   LIG d   1     -23.978  94.972 116.105  0.00  0.00    -0.090 HD
ENDBRANCH   5  18
BRANCH   3  22
ATOM     22  C   LIG d   1     -22.092  92.444 120.152  0.00  0.00     0.382 C 
ATOM     23  O   LIG d   1     -21.138  91.644 120.312  0.00  0.00    -0.241 OA
ATOM     24  O   LIG d   1     -23.146  92.276 120.793  0.00  0.00    -0.241 OA
ENDBRANCH   3  22
TORSDOF 7
ENDMDL
