MODEL 1
REMARK VINA RESULT:      -6.1      0.000      0.000
REMARK  7 active torsions:
REMARK  status: ('A' for Active; 'I' for Inactive)
REMARK    1  A    between atoms: C_2  and  C_3 
REMARK    2  A    between atoms: C_3  and  O_6 
REMARK    3  A    between atoms: C_3  and  C_4 
REMARK    4  A    between atoms: C_7  and  O_6 
REMARK    5  A    between atoms: C_9  and  C_10 
REMARK    6  A    between atoms: N_15  and  C_14 
REMARK    7  A    between atoms: N_20  and  C_19 
REMARK       I    between atoms: C_22  and  N_20 
ROOT
ATOM      1  C   LIG d   1      -7.284  77.465 117.210  0.00  0.00     0.161 C 
ATOM      2  C   LIG d   1      -8.507  78.119 117.433  0.00  0.00     0.016 C 
ATOM      3  C   LIG d   1      -8.607  79.490 117.766  0.00  0.00     0.038 C 
ATOM      4  C   LIG d   1      -7.492  80.340 117.750  0.00  0.00     0.028 C 
ATOM      5  C   LIG d   1      -6.176  79.618 118.025  0.00  0.00    -0.047 C 
ATOM      6  C   LIG d   1      -6.064  78.401 117.079  0.00  0.00     0.091 C 
ENDROOT
BRANCH   1   7
ATOM      7  O   LIG d   1      -7.389  76.614 116.051  0.00  0.00    -0.368 OA
BRANCH   7   8
ATOM      8  C   LIG d   1      -7.592  75.204 116.312  0.00  0.00     0.119 C 
BRANCH   8   9
ATOM      9  C   LIG d   1      -6.657  74.420 115.371  0.00  0.00     0.028 C 
ATOM     10  C   LIG d   1      -5.476  73.777 116.118  0.00  0.00     0.006 C 
ENDBRANCH   8   9
BRANCH   8  11
ATOM     11  C   LIG d   1      -9.009  74.765 115.934  0.00  0.00     0.028 C 
ATOM     12  C   LIG d   1      -9.172  73.237 115.906  0.00  0.00     0.006 C 
ENDBRANCH   8  11
ENDBRANCH   7   8
ENDBRANCH   1   7
BRANCH   6  13
ATOM     13  N   LIG d   1      -4.846  77.591 117.340  0.00  0.00    -0.311 N 
ATOM     14  C   LIG d   1      -4.029  77.166 116.377  0.00  0.00     0.210 C 
ATOM     15  C   LIG d   1      -2.841  76.328 116.861  0.00  0.00     0.109 C 
ATOM     16  O   LIG d   1      -4.157  77.431 115.173  0.00  0.00    -0.276 OA
ATOM     17  H   LIG d   1      -4.649  77.357 118.293  0.00  0.00     0.149 HD
ENDBRANCH   6  13
BRANCH   5  18
ATOM     18  N   LIG d   1      -5.086  80.595 117.843  0.00  0.00     0.381 N 
ATOM     19  H   LIG d   1      -5.236  81.117 117.002  0.00  0.00    -0.090 HD
ATOM     20  H   LIG d   1      -4.217  80.099 117.755  0.00  0.00    -0.090 HD
ATOM     21  H   LIG d   1      -5.047  81.212 118.623  0.00  0.00    -0.090 HD
ENDBRANCH   5  18
BRANCH   3  22
ATOM     22  C   LIG d   1      -9.829  80.014 118.159  0.00  0.00     0.382 C 
ATOM     23  O   LIG d   1     -10.515  80.682 117.347  0.00  0.00    -0.241 OA
ATOM     24  O   LIG d   1     -10.235  79.865 119.327  0.00  0.00    -0.241 OA
ENDBRANCH   3  22
TORSDOF 7
ENDMDL
MODEL 2
REMARK VINA RESULT:      -5.9      2.114      5.326
REMARK  7 active torsions:
REMARK  status: ('A' for Active; 'I' for Inactive)
REMARK    1  A    between atoms: C_2  and  C_3 
REMARK    2  A    between atoms: C_3  and  O_6 
REMARK    3  A    between atoms: C_3  and  C_4 
REMARK    4  A    between atoms: C_7  and  O_6 
REMARK    5  A    between atoms: C_9  and  C_10 
REMARK    6  A    between atoms: N_15  and  C_14 
REMARK    7  A    between atoms: N_20  and  C_19 
REMARK       I    between atoms: C_22  and  N_20 
ROOT
ATOM      1  C   LIG d   1      -6.738  76.192 116.447  0.00  0.00     0.161 C 
ATOM      2  C   LIG d   1      -7.638  75.114 116.405  0.00  0.00     0.016 C 
ATOM      3  C   LIG d   1      -7.237  73.772 116.209  0.00  0.00     0.038 C 
ATOM      4  C   LIG d   1      -5.885  73.397 116.193  0.00  0.00     0.028 C 
ATOM      5  C   LIG d   1      -4.953  74.511 115.727  0.00  0.00    -0.047 C 
ATOM      6  C   LIG d   1      -5.251  75.789 116.543  0.00  0.00     0.091 C 
ENDROOT
BRANCH   1   7
ATOM      7  O   LIG d   1      -7.088  77.078 117.529  0.00  0.00    -0.368 OA
BRANCH   7   8
ATOM      8  C   LIG d   1      -7.449  78.430 117.153  0.00  0.00     0.119 C 
BRANCH   8   9
ATOM      9  C   LIG d   1      -6.379  79.374 117.735  0.00  0.00     0.028 C 
ATOM     10  C   LIG d   1      -5.737  78.814 119.015  0.00  0.00     0.006 C 
ENDBRANCH   8   9
BRANCH   8  11
ATOM     11  C   LIG d   1      -8.766  78.857 117.808  0.00  0.00     0.028 C 
ATOM     12  C   LIG d   1      -9.048  80.360 117.654  0.00  0.00     0.006 C 
ENDBRANCH   8  11
ENDBRANCH   7   8
ENDBRANCH   1   7
BRANCH   6  13
ATOM     13  N   LIG d   1      -4.441  76.951 116.093  0.00  0.00    -0.311 N 
ATOM     14  C   LIG d   1      -3.287  77.302 116.658  0.00  0.00     0.210 C 
ATOM     15  C   LIG d   1      -2.623  78.543 116.053  0.00  0.00     0.109 C 
ATOM     16  O   LIG d   1      -2.734  76.685 117.581  0.00  0.00    -0.276 OA
ATOM     17  H   LIG d   1      -4.800  77.489 115.329  0.00  0.00     0.149 HD
ENDBRANCH   6  13
BRANCH   5  18
ATOM     18  N   LIG d   1      -3.568  74.030 115.891  0.00  0.00     0.381 N 
ATOM     19  H   LIG d   1      -2.929  74.790 115.770  0.00  0.00    -0.090 HD
ATOM     20  H   LIG d   1      -3.377  73.342 115.184  0.00  0.00    -0.090 HD
ATOM     21  H   LIG d   1      -3.451  73.629 116.796  0.00  0.00    -0.090 HD
ENDBRANCH   5  18
BRANCH   3  22
ATOM     22  C   LIG d   1      -8.194  72.794 115.986  0.00  0.00     0.382 C 
ATOM     23  O   LIG d   1      -9.397  73.118 115.831  0.00  0.00    -0.241 OA
ATOM     24  O   LIG d   1      -7.878  71.590 115.983  0.00  0.00    -0.241 OA
ENDBRANCH   3  22
TORSDOF 7
ENDMDL
MODEL 3
REMARK VINA RESULT:      -5.5      1.485      4.921
REMARK  7 active torsions:
REMARK  status: ('A' for Active; 'I' for Inactive)
REMARK    1  A    between atoms: C_2  and  C_3 
REMARK    2  A    between atoms: C_3  and  O_6 
REMARK    3  A    between atoms: C_3  and  C_4 
REMARK    4  A    between atoms: C_7  and  O_6 
REMARK    5  A    between atoms: C_9  and  C_10 
REMARK    6  A    between atoms: N_15  and  C_14 
REMARK    7  A    between atoms: N_20  and  C_19 
REMARK       I    between atoms: C_22  and  N_20 
ROOT
ATOM      1  C   LIG d   1      -6.600  77.079 116.400  0.00  0.00     0.161 C 
ATOM      2  C   LIG d   1      -5.331  76.636 115.991  0.00  0.00     0.016 C 
ATOM      3  C   LIG d   1      -4.134  77.327 116.286  0.00  0.00     0.038 C 
ATOM      4  C   LIG d   1      -4.109  78.436 117.145  0.00  0.00     0.028 C 
ATOM      5  C   LIG d   1      -5.422  79.212 117.169  0.00  0.00    -0.047 C 
ATOM      6  C   LIG d   1      -6.583  78.227 117.432  0.00  0.00     0.091 C 
ENDROOT
BRANCH   1   7
ATOM      7  O   LIG d   1      -7.368  75.967 116.900  0.00  0.00    -0.368 OA
BRANCH   7   8
ATOM      8  C   LIG d   1      -7.610  74.887 115.965  0.00  0.00     0.119 C 
BRANCH   8   9
ATOM      9  C   LIG d   1      -9.132  74.661 115.902  0.00  0.00     0.028 C 
ATOM     10  C   LIG d   1      -9.502  73.169 115.845  0.00  0.00     0.006 C 
ENDBRANCH   8   9
BRANCH   8  11
ATOM     11  C   LIG d   1      -7.024  73.567 116.476  0.00  0.00     0.028 C 
ATOM     12  C   LIG d   1      -5.753  73.148 115.721  0.00  0.00     0.006 C 
ENDBRANCH   8  11
ENDBRANCH   7   8
ENDBRANCH   1   7
BRANCH   6  13
ATOM     13  N   LIG d   1      -7.912  78.891 117.388  0.00  0.00    -0.311 N 
ATOM     14  C   LIG d   1      -8.565  79.296 118.475  0.00  0.00     0.210 C 
ATOM     15  C   LIG d   1      -9.929  79.940 118.207  0.00  0.00     0.109 C 
ATOM     16  O   LIG d   1      -8.131  79.212 119.634  0.00  0.00    -0.276 OA
ATOM     17  H   LIG d   1      -8.324  79.028 116.485  0.00  0.00     0.149 HD
ENDBRANCH   6  13
BRANCH   5  18
ATOM     18  N   LIG d   1      -5.303  80.256 118.204  0.00  0.00     0.381 N 
ATOM     19  H   LIG d   1      -5.369  79.841 119.112  0.00  0.00    -0.090 HD
ATOM     20  H   LIG d   1      -6.062  80.906 118.099  0.00  0.00    -0.090 HD
ATOM     21  H   LIG d   1      -4.433  80.732 118.111  0.00  0.00    -0.090 HD
ENDBRANCH   5  18
BRANCH   3  22
ATOM     22  C   LIG d   1      -2.947  76.933 115.686  0.00  0.00     0.382 C 
ATOM     23  O   LIG d   1      -1.871  77.499 115.994  0.00  0.00    -0.241 OA
ATOM     24  O   LIG d   1      -2.947  76.049 114.808  0.00  0.00    -0.241 OA
ENDBRANCH   3  22
TORSDOF 7
ENDMDL
MODEL 4
REMARK VINA RESULT:      -5.3      1.391      2.261
REMARK  7 active torsions:
REMARK  status: ('A' for Active; 'I' for Inactive)
REMARK    1  A    between atoms: C_2  and  C_3 
REMARK    2  A    between atoms: C_3  and  O_6 
REMARK    3  A    between atoms: C_3  and  C_4 
REMARK    4  A    between atoms: C_7  and  O_6 
REMARK    5  A    between atoms: C_9  and  C_10 
REMARK    6  A    between atoms: N_15  and  C_14 
REMARK    7  A    between atoms: N_20  and  C_19 
REMARK       I    between atoms: C_22  and  N_20 
ROOT
ATOM      1  C   LIG d   1      -6.083  76.830 116.524  0.00  0.00     0.161 C 
ATOM      2  C   LIG d   1      -7.101  77.756 116.807  0.00  0.00     0.016 C 
ATOM      3  C   LIG d   1      -6.867  79.006 117.425  0.00  0.00     0.038 C 
ATOM      4  C   LIG d   1      -5.569  79.482 117.666  0.00  0.00     0.028 C 
ATOM      5  C   LIG d   1      -4.542  78.371 117.859  0.00  0.00    -0.047 C 
ATOM      6  C   LIG d   1      -4.649  77.379 116.679  0.00  0.00     0.091 C 
ENDROOT
BRANCH   1   7
ATOM      7  O   LIG d   1      -6.271  76.285 115.203  0.00  0.00    -0.368 OA
BRANCH   7   8
ATOM      8  C   LIG d   1      -6.879  74.971 115.137  0.00  0.00     0.119 C 
BRANCH   8   9
ATOM      9  C   LIG d   1      -7.848  74.849 116.329  0.00  0.00     0.028 C 
ATOM     10  C   LIG d   1      -9.312  74.703 115.883  0.00  0.00     0.006 C 
ENDBRANCH   8   9
BRANCH   8  11
ATOM     11  C   LIG d   1      -5.840  73.865 115.342  0.00  0.00     0.028 C 
ATOM     12  C   LIG d   1      -6.366  72.707 116.205  0.00  0.00     0.006 C 
ENDBRANCH   8  11
ENDBRANCH   7   8
ENDBRANCH   1   7
BRANCH   6  13
ATOM     13  N   LIG d   1      -3.736  76.216 116.832  0.00  0.00    -0.311 N 
ATOM     14  C   LIG d   1      -2.880  75.826 115.890  0.00  0.00     0.210 C 
ATOM     15  C   LIG d   1      -2.046  74.591 116.244  0.00  0.00     0.109 C 
ATOM     16  O   LIG d   1      -2.709  76.405 114.806  0.00  0.00    -0.276 OA
ATOM     17  H   LIG d   1      -3.787  75.707 117.693  0.00  0.00     0.149 HD
ENDBRANCH   6  13
BRANCH   5  18
ATOM     18  N   LIG d   1      -3.215  79.005 117.963  0.00  0.00     0.381 N 
ATOM     19  H   LIG d   1      -2.629  78.467 118.571  0.00  0.00    -0.090 HD
ATOM     20  H   LIG d   1      -3.322  79.922 118.360  0.00  0.00    -0.090 HD
ATOM     21  H   LIG d   1      -2.797  79.072 117.061  0.00  0.00    -0.090 HD
ENDBRANCH   5  18
BRANCH   3  22
ATOM     22  C   LIG d   1      -7.940  79.777 117.844  0.00  0.00     0.382 C 
ATOM     23  O   LIG d   1      -8.595  79.440 118.860  0.00  0.00    -0.241 OA
ATOM     24  O   LIG d   1      -8.289  80.781 117.195  0.00  0.00    -0.241 OA
ENDBRANCH   3  22
TORSDOF 7
ENDMDL
MODEL 5
REMARK VINA RESULT:      -5.2     12.532     14.822
REMARK  7 active torsions:
REMARK  status: ('A' for Active; 'I' for Inactive)
REMARK    1  A    between atoms: C_2  and  C_3 
REMARK    2  A    between atoms: C_3  and  O_6 
REMARK    3  A    between atoms: C_3  and  C_4 
REMARK    4  A    between atoms: C_7  and  O_6 
REMARK    5  A    between atoms: C_9  and  C_10 
REMARK    6  A    between atoms: N_15  and  C_14 
REMARK    7  A    between atoms: N_20  and  C_19 
REMARK       I    between atoms: C_22  and  N_20 
ROOT
ATOM      1  C   LIG d   1      -3.765  91.157 118.057  0.00  0.00     0.161 C 
ATOM      2  C   LIG d   1      -4.341  90.318 117.089  0.00  0.00     0.016 C 
ATOM      3  C   LIG d   1      -5.614  90.548 116.517  0.00  0.00     0.038 C 
ATOM      4  C   LIG d   1      -6.336  91.724 116.765  0.00  0.00     0.028 C 
ATOM      5  C   LIG d   1      -6.022  92.354 118.119  0.00  0.00    -0.047 C 
ATOM      6  C   LIG d   1      -4.490  92.504 118.259  0.00  0.00     0.091 C 
ENDROOT
BRANCH   1   7
ATOM      7  O   LIG d   1      -2.375  91.377 117.748  0.00  0.00    -0.368 OA
BRANCH   7   8
ATOM      8  C   LIG d   1      -1.418  90.689 118.590  0.00  0.00     0.119 C 
BRANCH   8   9
ATOM      9  C   LIG d   1      -0.886  89.481 117.795  0.00  0.00     0.028 C 
ATOM     10  C   LIG d   1      -1.487  88.150 118.277  0.00  0.00     0.006 C 
ENDBRANCH   8   9
BRANCH   8  11
ATOM     11  C   LIG d   1      -2.093  90.094 119.829  0.00  0.00     0.028 C 
ATOM     12  C   LIG d   1      -1.640  90.765 121.135  0.00  0.00     0.006 C 
ENDBRANCH   8  11
ENDBRANCH   7   8
ENDBRANCH   1   7
BRANCH   6  13
ATOM     13  N   LIG d   1      -4.092  93.035 119.589  0.00  0.00    -0.311 N 
ATOM     14  C   LIG d   1      -3.154  93.965 119.756  0.00  0.00     0.210 C 
ATOM     15  C   LIG d   1      -2.883  94.356 121.212  0.00  0.00     0.109 C 
ATOM     16  O   LIG d   1      -2.543  94.527 118.834  0.00  0.00    -0.276 OA
ATOM     17  H   LIG d   1      -4.560  92.656 120.389  0.00  0.00     0.149 HD
ENDBRANCH   6  13
BRANCH   5  18
ATOM     18  N   LIG d   1      -6.739  93.641 118.188  0.00  0.00     0.381 N 
ATOM     19  H   LIG d   1      -7.380  93.714 117.424  0.00  0.00    -0.090 HD
ATOM     20  H   LIG d   1      -6.072  94.389 118.113  0.00  0.00    -0.090 HD
ATOM     21  H   LIG d   1      -7.231  93.711 119.052  0.00  0.00    -0.090 HD
ENDBRANCH   5  18
BRANCH   3  22
ATOM     22  C   LIG d   1      -6.193  89.576 115.716  0.00  0.00     0.382 C 
ATOM     23  O   LIG d   1      -7.371  89.204 115.934  0.00  0.00    -0.241 OA
ATOM     24  O   LIG d   1      -5.538  89.034 114.805  0.00  0.00    -0.241 OA
ENDBRANCH   3  22
TORSDOF 7
ENDMDL
MODEL 6
REMARK VINA RESULT:      -5.0      2.080      5.476
REMARK  7 active torsions:
REMARK  status: ('A' for Active; 'I' for Inactive)
REMARK    1  A    between atoms: C_2  and  C_3 
REMARK    2  A    between atoms: C_3  and  O_6 
REMARK    3  A    between atoms: C_3  and  C_4 
REMARK    4  A    between atoms: C_7  and  O_6 
REMARK    5  A    between atoms: C_9  and  C_10 
REMARK    6  A    between atoms: N_15  and  C_14 
REMARK    7  A    between atoms: N_20  and  C_19 
REMARK       I    between atoms: C_22  and  N_20 
ROOT
ATOM      1  C   LIG d   1      -4.792  76.843 115.536  0.00  0.00     0.161 C 
ATOM      2  C   LIG d   1      -3.854  75.847 115.215  0.00  0.00     0.016 C 
ATOM      3  C   LIG d   1      -2.739  75.537 116.026  0.00  0.00     0.038 C 
ATOM      4  C   LIG d   1      -2.567  76.103 117.298  0.00  0.00     0.028 C 
ATOM      5  C   LIG d   1      -3.211  77.478 117.441  0.00  0.00    -0.047 C 
ATOM      6  C   LIG d   1      -4.682  77.394 116.973  0.00  0.00     0.091 C 
ENDROOT
BRANCH   1   7
ATOM      7  O   LIG d   1      -6.125  76.358 115.286  0.00  0.00    -0.368 OA
BRANCH   7   8
ATOM      8  C   LIG d   1      -6.697  75.507 116.309  0.00  0.00     0.119 C 
BRANCH   8   9
ATOM      9  C   LIG d   1      -6.897  74.110 115.690  0.00  0.00     0.028 C 
ATOM     10  C   LIG d   1      -6.140  73.013 116.459  0.00  0.00     0.006 C 
ENDBRANCH   8   9
BRANCH   8  11
ATOM     11  C   LIG d   1      -8.098  75.978 116.708  0.00  0.00     0.028 C 
ATOM     12  C   LIG d   1      -9.215  75.162 116.038  0.00  0.00     0.006 C 
ENDBRANCH   8  11
ENDBRANCH   7   8
ENDBRANCH   1   7
BRANCH   6  13
ATOM     13  N   LIG d   1      -5.362  78.715 117.002  0.00  0.00    -0.311 N 
ATOM     14  C   LIG d   1      -6.170  79.103 117.987  0.00  0.00     0.210 C 
ATOM     15  C   LIG d   1      -6.784  80.495 117.810  0.00  0.00     0.109 C 
ATOM     16  O   LIG d   1      -6.411  78.439 119.007  0.00  0.00    -0.276 OA
ATOM     17  H   LIG d   1      -5.198  79.330 116.228  0.00  0.00     0.149 HD
ENDBRANCH   6  13
BRANCH   5  18
ATOM     18  N   LIG d   1      -3.076  77.889 118.852  0.00  0.00     0.381 N 
ATOM     19  H   LIG d   1      -2.118  77.823 119.133  0.00  0.00    -0.090 HD
ATOM     20  H   LIG d   1      -3.617  77.266 119.425  0.00  0.00    -0.090 HD
ATOM     21  H   LIG d   1      -3.400  78.824 118.967  0.00  0.00    -0.090 HD
ENDBRANCH   5  18
BRANCH   3  22
ATOM     22  C   LIG d   1      -1.758  74.681 115.548  0.00  0.00     0.382 C 
ATOM     23  O   LIG d   1      -0.848  75.122 114.806  0.00  0.00    -0.241 OA
ATOM     24  O   LIG d   1      -1.798  73.465 115.814  0.00  0.00    -0.241 OA
ENDBRANCH   3  22
TORSDOF 7
ENDMDL
MODEL 7
REMARK VINA RESULT:      -5.0     12.569     15.329
REMARK  7 active torsions:
REMARK  status: ('A' for Active; 'I' for Inactive)
REMARK    1  A    between atoms: C_2  and  C_3 
REMARK    2  A    between atoms: C_3  and  O_6 
REMARK    3  A    between atoms: C_3  and  C_4 
REMARK    4  A    between atoms: C_7  and  O_6 
REMARK    5  A    between atoms: C_9  and  C_10 
REMARK    6  A    between atoms: N_15  and  C_14 
REMARK    7  A    between atoms: N_20  and  C_19 
REMARK       I    between atoms: C_22  and  N_20 
ROOT
ATOM      1  C   LIG d   1      -5.373  92.415 117.857  0.00  0.00     0.161 C 
ATOM      2  C   LIG d   1      -6.470  91.719 117.324  0.00  0.00     0.016 C 
ATOM      3  C   LIG d   1      -6.349  90.503 116.612  0.00  0.00     0.038 C 
ATOM      4  C   LIG d   1      -5.128  89.820 116.516  0.00  0.00     0.028 C 
ATOM      5  C   LIG d   1      -3.912  90.736 116.603  0.00  0.00    -0.047 C 
ATOM      6  C   LIG d   1      -4.046  91.629 117.858  0.00  0.00     0.091 C 
ENDROOT
BRANCH   1   7
ATOM      7  O   LIG d   1      -5.685  92.873 119.188  0.00  0.00    -0.368 OA
BRANCH   7   8
ATOM      8  C   LIG d   1      -6.807  93.783 119.303  0.00  0.00     0.119 C 
BRANCH   8   9
ATOM      9  C   LIG d   1      -6.238  95.214 119.360  0.00  0.00     0.028 C 
ATOM     10  C   LIG d   1      -4.904  95.286 120.121  0.00  0.00     0.006 C 
ENDBRANCH   8   9
BRANCH   8  11
ATOM     11  C   LIG d   1      -7.549  93.588 120.629  0.00  0.00     0.028 C 
ATOM     12  C   LIG d   1      -7.039  92.376 121.424  0.00  0.00     0.006 C 
ENDBRANCH   8  11
ENDBRANCH   7   8
ENDBRANCH   1   7
BRANCH   6  13
ATOM     13  N   LIG d   1      -2.939  92.614 117.973  0.00  0.00    -0.311 N 
ATOM     14  C   LIG d   1      -1.828  92.389 118.673  0.00  0.00     0.210 C 
ATOM     15  C   LIG d   1      -0.822  93.545 118.677  0.00  0.00     0.109 C 
ATOM     16  O   LIG d   1      -1.565  91.330 119.263  0.00  0.00    -0.276 OA
ATOM     17  H   LIG d   1      -3.055  93.488 117.500  0.00  0.00     0.149 HD
ENDBRANCH   6  13
BRANCH   5  18
ATOM     18  N   LIG d   1      -2.710  89.881 116.627  0.00  0.00     0.381 N 
ATOM     19  H   LIG d   1      -2.696  89.293 115.818  0.00  0.00    -0.090 HD
ATOM     20  H   LIG d   1      -2.746  89.294 117.442  0.00  0.00    -0.090 HD
ATOM     21  H   LIG d   1      -1.890  90.446 116.651  0.00  0.00    -0.090 HD
ENDBRANCH   5  18
BRANCH   3  22
ATOM     22  C   LIG d   1      -7.451  89.980 115.954  0.00  0.00     0.382 C 
ATOM     23  O   LIG d   1      -7.895  88.851 116.274  0.00  0.00    -0.241 OA
ATOM     24  O   LIG d   1      -7.979  90.602 115.013  0.00  0.00    -0.241 OA
ENDBRANCH   3  22
TORSDOF 7
ENDMDL
MODEL 8
REMARK VINA RESULT:      -4.9      1.319      2.088
REMARK  7 active torsions:
REMARK  status: ('A' for Active; 'I' for Inactive)
REMARK    1  A    between atoms: C_2  and  C_3 
REMARK    2  A    between atoms: C_3  and  O_6 
REMARK    3  A    between atoms: C_3  and  C_4 
REMARK    4  A    between atoms: C_7  and  O_6 
REMARK    5  A    between atoms: C_9  and  C_10 
REMARK    6  A    between atoms: N_15  and  C_14 
REMARK    7  A    between atoms: N_20  and  C_19 
REMARK       I    between atoms: C_22  and  N_20 
ROOT
ATOM      1  C   LIG d   1      -6.772  77.863 117.364  0.00  0.00     0.161 C 
ATOM      2  C   LIG d   1      -8.053  78.432 117.448  0.00  0.00     0.016 C 
ATOM      3  C   LIG d   1      -8.342  79.590 118.207  0.00  0.00     0.038 C 
ATOM      4  C   LIG d   1      -7.332  80.349 118.815  0.00  0.00     0.028 C 
ATOM      5  C   LIG d   1      -6.095  79.533 119.176  0.00  0.00    -0.047 C 
ATOM      6  C   LIG d   1      -5.636  78.741 117.931  0.00  0.00     0.091 C 
ENDROOT
BRANCH   1   7
ATOM      7  O   LIG d   1      -6.488  77.497 115.999  0.00  0.00    -0.368 OA
BRANCH   7   8
ATOM      8  C   LIG d   1      -6.561  76.083 115.690  0.00  0.00     0.119 C 
BRANCH   8   9
ATOM      9  C   LIG d   1      -7.550  75.443 116.683  0.00  0.00     0.028 C 
ATOM     10  C   LIG d   1      -8.843  74.968 115.999  0.00  0.00     0.006 C 
ENDBRANCH   8   9
BRANCH   8  11
ATOM     11  C   LIG d   1      -5.221  75.387 115.947  0.00  0.00     0.028 C 
ATOM     12  C   LIG d   1      -5.321  73.856 115.871  0.00  0.00     0.006 C 
ENDBRANCH   8  11
ENDBRANCH   7   8
ENDBRANCH   1   7
BRANCH   6  13
ATOM     13  N   LIG d   1      -4.481  77.851 118.219  0.00  0.00    -0.311 N 
ATOM     14  C   LIG d   1      -3.214  78.201 118.005  0.00  0.00     0.210 C 
ATOM     15  C   LIG d   1      -2.179  77.126 118.353  0.00  0.00     0.109 C 
ATOM     16  O   LIG d   1      -2.847  79.311 117.591  0.00  0.00    -0.276 OA
ATOM     17  H   LIG d   1      -4.686  76.942 118.587  0.00  0.00     0.149 HD
ENDBRANCH   6  13
BRANCH   5  18
ATOM     18  N   LIG d   1      -5.072  80.471 119.675  0.00  0.00     0.381 N 
ATOM     19  H   LIG d   1      -4.352  80.583 118.988  0.00  0.00    -0.090 HD
ATOM     20  H   LIG d   1      -4.657  80.088 120.506  0.00  0.00    -0.090 HD
ATOM     21  H   LIG d   1      -5.488  81.353 119.878  0.00  0.00    -0.090 HD
ENDBRANCH   5  18
BRANCH   3  22
ATOM     22  C   LIG d   1      -9.660  79.977 118.395  0.00  0.00     0.382 C 
ATOM     23  O   LIG d   1     -10.180  79.899 119.535  0.00  0.00    -0.241 OA
ATOM     24  O   LIG d   1     -10.350  80.360 117.432  0.00  0.00    -0.241 OA
ENDBRANCH   3  22
TORSDOF 7
ENDMDL
MODEL 9
REMARK VINA RESULT:      -4.7      2.322      5.432
REMARK  7 active torsions:
REMARK  status: ('A' for Active; 'I' for Inactive)
REMARK    1  A    between atoms: C_2  and  C_3 
REMARK    2  A    between atoms: C_3  and  O_6 
REMARK    3  A    between atoms: C_3  and  C_4 
REMARK    4  A    between atoms: C_7  and  O_6 
REMARK    5  A    between atoms: C_9  and  C_10 
REMARK    6  A    between atoms: N_15  and  C_14 
REMARK    7  A    between atoms: N_20  and  C_19 
REMARK       I    between atoms: C_22  and  N_20 
ROOT
ATOM      1  C   LIG d   1      -6.275  77.463 117.549  0.00  0.00     0.161 C 
ATOM      2  C   LIG d   1      -6.848  76.190 117.394  0.00  0.00     0.016 C 
ATOM      3  C   LIG d   1      -6.240  75.146 116.659  0.00  0.00     0.038 C 
ATOM      4  C   LIG d   1      -4.937  75.259 116.152  0.00  0.00     0.028 C 
ATOM      5  C   LIG d   1      -4.526  76.696 115.851  0.00  0.00    -0.047 C 
ATOM      6  C   LIG d   1      -4.803  77.569 117.096  0.00  0.00     0.091 C 
ENDROOT
BRANCH   1   7
ATOM      7  O   LIG d   1      -6.411  77.898 118.916  0.00  0.00    -0.368 OA
BRANCH   7   8
ATOM      8  C   LIG d   1      -7.324  78.998 119.147  0.00  0.00     0.119 C 
BRANCH   8   9
ATOM      9  C   LIG d   1      -7.848  79.461 117.774  0.00  0.00     0.028 C 
ATOM     10  C   LIG d   1      -7.563  80.949 117.508  0.00  0.00     0.006 C 
ENDBRANCH   8   9
BRANCH   8  11
ATOM     11  C   LIG d   1      -6.597  80.212 119.734  0.00  0.00     0.028 C 
ATOM     12  C   LIG d   1      -5.432  79.820 120.657  0.00  0.00     0.006 C 
ENDBRANCH   8  11
ENDBRANCH   7   8
ENDBRANCH   1   7
BRANCH   6  13
ATOM     13  N   LIG d   1      -4.508  79.006 116.858  0.00  0.00    -0.311 N 
ATOM     14  C   LIG d   1      -3.551  79.674 117.500  0.00  0.00     0.210 C 
ATOM     15  C   LIG d   1      -3.427  81.152 117.119  0.00  0.00     0.109 C 
ATOM     16  O   LIG d   1      -2.772  79.174 118.325  0.00  0.00    -0.276 OA
ATOM     17  H   LIG d   1      -5.072  79.482 116.182  0.00  0.00     0.149 HD
ENDBRANCH   6  13
BRANCH   5  18
ATOM     18  N   LIG d   1      -3.103  76.681 115.461  0.00  0.00     0.381 N 
ATOM     19  H   LIG d   1      -2.529  76.793 116.272  0.00  0.00    -0.090 HD
ATOM     20  H   LIG d   1      -2.928  77.451 114.840  0.00  0.00    -0.090 HD
ATOM     21  H   LIG d   1      -2.884  75.822 115.006  0.00  0.00    -0.090 HD
ENDBRANCH   5  18
BRANCH   3  22
ATOM     22  C   LIG d   1      -6.953  73.988 116.392  0.00  0.00     0.382 C 
ATOM     23  O   LIG d   1      -6.462  72.869 116.677  0.00  0.00    -0.241 OA
ATOM     24  O   LIG d   1      -8.063  74.045 115.828  0.00  0.00    -0.241 OA
ENDBRANCH   3  22
TORSDOF 7
ENDMDL
