MODEL 1
REMARK VINA RESULT:      -5.6      0.000      0.000
REMARK  7 active torsions:
REMARK  status: ('A' for Active; 'I' for Inactive)
REMARK    1  A    between atoms: C_2  and  C_3 
REMARK    2  A    between atoms: C_3  and  O_6 
REMARK    3  A    between atoms: C_3  and  C_4 
REMARK    4  A    between atoms: C_7  and  O_6 
REMARK    5  A    between atoms: C_9  and  C_10 
REMARK    6  A    between atoms: N_15  and  C_14 
REMARK    7  A    between atoms: N_20  and  C_19 
REMARK       I    between atoms: C_22  and  N_20 
ROOT
ATOM      1  C   LIG d   1      -8.188  75.318 117.472  0.00  0.00     0.161 C 
ATOM      2  C   LIG d   1      -9.438  75.713 117.976  0.00  0.00     0.016 C 
ATOM      3  C   LIG d   1      -9.762  77.051 118.295  0.00  0.00     0.038 C 
ATOM      4  C   LIG d   1      -8.901  78.116 117.987  0.00  0.00     0.028 C 
ATOM      5  C   LIG d   1      -7.431  77.713 117.944  0.00  0.00    -0.047 C 
ATOM      6  C   LIG d   1      -7.276  76.480 117.025  0.00  0.00     0.091 C 
ENDROOT
BRANCH   1   7
ATOM      7  O   LIG d   1      -8.370  74.380 116.392  0.00  0.00    -0.368 OA
BRANCH   7   8
ATOM      8  C   LIG d   1      -8.409  72.981 116.764  0.00  0.00     0.119 C 
BRANCH   8   9
ATOM      9  C   LIG d   1      -7.591  72.200 115.717  0.00  0.00     0.028 C 
ATOM     10  C   LIG d   1      -6.381  72.999 115.204  0.00  0.00     0.006 C 
ENDBRANCH   8   9
BRANCH   8  11
ATOM     11  C   LIG d   1      -9.831  72.418 116.669  0.00  0.00     0.028 C 
ATOM     12  C   LIG d   1      -9.868  70.882 116.708  0.00  0.00     0.006 C 
ENDBRANCH   8  11
ENDBRANCH   7   8
ENDBRANCH   1   7
BRANCH   6  13
ATOM     13  N   LIG d   1      -5.880  75.969 116.993  0.00  0.00    -0.311 N 
ATOM     14  C   LIG d   1      -4.985  76.338 116.078  0.00  0.00     0.210 C 
ATOM     15  C   LIG d   1      -3.610  75.676 116.215  0.00  0.00     0.109 C 
ATOM     16  O   LIG d   1      -5.190  77.174 115.185  0.00  0.00    -0.276 OA
ATOM     17  H   LIG d   1      -5.620  75.309 117.699  0.00  0.00     0.149 HD
ENDBRANCH   6  13
BRANCH   5  18
ATOM     18  N   LIG d   1      -6.662  78.882 117.477  0.00  0.00     0.381 N 
ATOM     19  H   LIG d   1      -5.700  78.778 117.731  0.00  0.00    -0.090 HD
ATOM     20  H   LIG d   1      -7.019  79.706 117.927  0.00  0.00    -0.090 HD
ATOM     21  H   LIG d   1      -6.745  78.972 116.489  0.00  0.00    -0.090 HD
ENDBRANCH   5  18
BRANCH   3  22
ATOM     22  C   LIG d   1     -10.942  77.332 118.967  0.00  0.00     0.382 C 
ATOM     23  O   LIG d   1     -11.970  76.649 118.740  0.00  0.00    -0.241 OA
ATOM     24  O   LIG d   1     -11.004  78.288 119.763  0.00  0.00    -0.241 OA
ENDBRANCH   3  22
TORSDOF 7
ENDMDL
MODEL 2
REMARK VINA RESULT:      -5.4      2.288      4.686
REMARK  7 active torsions:
REMARK  status: ('A' for Active; 'I' for Inactive)
REMARK    1  A    between atoms: C_2  and  C_3 
REMARK    2  A    between atoms: C_3  and  O_6 
REMARK    3  A    between atoms: C_3  and  C_4 
REMARK    4  A    between atoms: C_7  and  O_6 
REMARK    5  A    between atoms: C_9  and  C_10 
REMARK    6  A    between atoms: N_15  and  C_14 
REMARK    7  A    between atoms: N_20  and  C_19 
REMARK       I    between atoms: C_22  and  N_20 
ROOT
ATOM      1  C   LIG d   1      -7.084  75.609 116.564  0.00  0.00     0.161 C 
ATOM      2  C   LIG d   1      -8.448  75.652 116.897  0.00  0.00     0.016 C 
ATOM      3  C   LIG d   1      -9.290  74.516 116.879  0.00  0.00     0.038 C 
ATOM      4  C   LIG d   1      -8.786  73.224 116.672  0.00  0.00     0.028 C 
ATOM      5  C   LIG d   1      -7.511  73.197 115.836  0.00  0.00    -0.047 C 
ATOM      6  C   LIG d   1      -6.492  74.189 116.443  0.00  0.00     0.091 C 
ENDROOT
BRANCH   1   7
ATOM      7  O   LIG d   1      -6.325  76.388 117.510  0.00  0.00    -0.368 OA
BRANCH   7   8
ATOM      8  C   LIG d   1      -5.982  77.734 117.096  0.00  0.00     0.119 C 
BRANCH   8   9
ATOM      9  C   LIG d   1      -4.445  77.839 117.090  0.00  0.00     0.028 C 
ATOM     10  C   LIG d   1      -3.870  77.947 115.667  0.00  0.00     0.006 C 
ENDBRANCH   8   9
BRANCH   8  11
ATOM     11  C   LIG d   1      -6.455  78.769 118.122  0.00  0.00     0.028 C 
ATOM     12  C   LIG d   1      -7.900  79.231 117.879  0.00  0.00     0.006 C 
ENDBRANCH   8  11
ENDBRANCH   7   8
ENDBRANCH   1   7
BRANCH   6  13
ATOM     13  N   LIG d   1      -5.248  74.287 115.637  0.00  0.00    -0.311 N 
ATOM     14  C   LIG d   1      -4.027  74.182 116.158  0.00  0.00     0.210 C 
ATOM     15  C   LIG d   1      -2.880  74.333 115.154  0.00  0.00     0.109 C 
ATOM     16  O   LIG d   1      -3.785  73.945 117.351  0.00  0.00    -0.276 OA
ATOM     17  H   LIG d   1      -5.352  74.447 114.654  0.00  0.00     0.149 HD
ENDBRANCH   6  13
BRANCH   5  18
ATOM     18  N   LIG d   1      -7.021  71.806 115.814  0.00  0.00     0.381 N 
ATOM     19  H   LIG d   1      -6.268  71.722 115.161  0.00  0.00    -0.090 HD
ATOM     20  H   LIG d   1      -7.767  71.203 115.514  0.00  0.00    -0.090 HD
ATOM     21  H   LIG d   1      -6.713  71.539 116.723  0.00  0.00    -0.090 HD
ENDBRANCH   5  18
BRANCH   3  22
ATOM     22  C   LIG d   1     -10.659  74.673 117.032  0.00  0.00     0.382 C 
ATOM     23  O   LIG d   1     -11.115  75.716 117.559  0.00  0.00    -0.241 OA
ATOM     24  O   LIG d   1     -11.441  73.766 116.689  0.00  0.00    -0.241 OA
ENDBRANCH   3  22
TORSDOF 7
ENDMDL
MODEL 3
REMARK VINA RESULT:      -5.3      1.985      4.916
REMARK  7 active torsions:
REMARK  status: ('A' for Active; 'I' for Inactive)
REMARK    1  A    between atoms: C_2  and  C_3 
REMARK    2  A    between atoms: C_3  and  O_6 
REMARK    3  A    between atoms: C_3  and  C_4 
REMARK    4  A    between atoms: C_7  and  O_6 
REMARK    5  A    between atoms: C_9  and  C_10 
REMARK    6  A    between atoms: N_15  and  C_14 
REMARK    7  A    between atoms: N_20  and  C_19 
REMARK       I    between atoms: C_22  and  N_20 
ROOT
ATOM      1  C   LIG d   1      -8.134  76.150 116.982  0.00  0.00     0.161 C 
ATOM      2  C   LIG d   1      -9.250  75.299 117.046  0.00  0.00     0.016 C 
ATOM      3  C   LIG d   1      -9.186  73.912 116.778  0.00  0.00     0.038 C 
ATOM      4  C   LIG d   1      -7.965  73.251 116.573  0.00  0.00     0.028 C 
ATOM      5  C   LIG d   1      -6.877  74.154 116.002  0.00  0.00    -0.047 C 
ATOM      6  C   LIG d   1      -6.775  75.429 116.870  0.00  0.00     0.091 C 
ENDROOT
BRANCH   1   7
ATOM      7  O   LIG d   1      -8.136  77.043 118.114  0.00  0.00    -0.368 OA
BRANCH   7   8
ATOM      8  C   LIG d   1      -8.364  78.443 117.821  0.00  0.00     0.119 C 
BRANCH   8   9
ATOM      9  C   LIG d   1      -7.263  79.251 118.535  0.00  0.00     0.028 C 
ATOM     10  C   LIG d   1      -6.240  79.844 117.553  0.00  0.00     0.006 C 
ENDBRANCH   8   9
BRANCH   8  11
ATOM     11  C   LIG d   1      -9.683  78.931 118.427  0.00  0.00     0.028 C 
ATOM     12  C   LIG d   1      -9.948  80.421 118.157  0.00  0.00     0.006 C 
ENDBRANCH   8  11
ENDBRANCH   7   8
ENDBRANCH   1   7
BRANCH   6  13
ATOM     13  N   LIG d   1      -5.791  76.404 116.331  0.00  0.00    -0.311 N 
ATOM     14  C   LIG d   1      -4.524  76.467 116.737  0.00  0.00     0.210 C 
ATOM     15  C   LIG d   1      -3.684  77.559 116.067  0.00  0.00     0.109 C 
ATOM     16  O   LIG d   1      -4.007  75.701 117.564  0.00  0.00    -0.276 OA
ATOM     17  H   LIG d   1      -6.118  77.043 115.633  0.00  0.00     0.149 HD
ENDBRANCH   6  13
BRANCH   5  18
ATOM     18  N   LIG d   1      -5.624  73.375 115.970  0.00  0.00     0.381 N 
ATOM     19  H   LIG d   1      -5.188  73.473 115.075  0.00  0.00    -0.090 HD
ATOM     20  H   LIG d   1      -5.841  72.404 116.110  0.00  0.00    -0.090 HD
ATOM     21  H   LIG d   1      -5.007  73.692 116.685  0.00  0.00    -0.090 HD
ENDBRANCH   5  18
BRANCH   3  22
ATOM     22  C   LIG d   1     -10.358  73.178 116.672  0.00  0.00     0.382 C 
ATOM     23  O   LIG d   1     -11.469  73.753 116.771  0.00  0.00    -0.241 OA
ATOM     24  O   LIG d   1     -10.318  71.942 116.524  0.00  0.00    -0.241 OA
ENDBRANCH   3  22
TORSDOF 7
ENDMDL
MODEL 4
REMARK VINA RESULT:      -5.2      2.376      4.592
REMARK  7 active torsions:
REMARK  status: ('A' for Active; 'I' for Inactive)
REMARK    1  A    between atoms: C_2  and  C_3 
REMARK    2  A    between atoms: C_3  and  O_6 
REMARK    3  A    between atoms: C_3  and  C_4 
REMARK    4  A    between atoms: C_7  and  O_6 
REMARK    5  A    between atoms: C_9  and  C_10 
REMARK    6  A    between atoms: N_15  and  C_14 
REMARK    7  A    between atoms: N_20  and  C_19 
REMARK       I    between atoms: C_22  and  N_20 
ROOT
ATOM      1  C   LIG d   1      -7.391  76.365 116.685  0.00  0.00     0.161 C 
ATOM      2  C   LIG d   1      -6.733  77.573 116.971  0.00  0.00     0.016 C 
ATOM      3  C   LIG d   1      -7.283  78.583 117.793  0.00  0.00     0.038 C 
ATOM      4  C   LIG d   1      -8.472  78.388 118.512  0.00  0.00     0.028 C 
ATOM      5  C   LIG d   1      -9.418  77.387 117.859  0.00  0.00    -0.047 C 
ATOM      6  C   LIG d   1      -8.639  76.088 117.550  0.00  0.00     0.091 C 
ENDROOT
BRANCH   1   7
ATOM      7  O   LIG d   1      -6.461  75.268 116.781  0.00  0.00    -0.368 OA
BRANCH   7   8
ATOM      8  C   LIG d   1      -5.378  75.265 115.819  0.00  0.00     0.119 C 
BRANCH   8   9
ATOM      9  C   LIG d   1      -5.614  74.083 114.860  0.00  0.00     0.028 C 
ATOM     10  C   LIG d   1      -6.623  73.065 115.419  0.00  0.00     0.006 C 
ENDBRANCH   8   9
BRANCH   8  11
ATOM     11  C   LIG d   1      -4.034  74.977 116.495  0.00  0.00     0.028 C 
ATOM     12  C   LIG d   1      -3.013  74.337 115.541  0.00  0.00     0.006 C 
ENDBRANCH   8  11
ENDBRANCH   7   8
ENDBRANCH   1   7
BRANCH   6  13
ATOM     13  N   LIG d   1      -9.469  75.085 116.833  0.00  0.00    -0.311 N 
ATOM     14  C   LIG d   1      -9.660  73.842 117.272  0.00  0.00     0.210 C 
ATOM     15  C   LIG d   1     -10.534  72.965 116.371  0.00  0.00     0.109 C 
ATOM     16  O   LIG d   1      -9.214  73.393 118.339  0.00  0.00    -0.276 OA
ATOM     17  H   LIG d   1      -9.894  75.375 115.974  0.00  0.00     0.149 HD
ENDBRANCH   6  13
BRANCH   5  18
ATOM     18  N   LIG d   1     -10.550  77.176 118.780  0.00  0.00     0.381 N 
ATOM     19  H   LIG d   1     -10.449  76.297 119.247  0.00  0.00    -0.090 HD
ATOM     20  H   LIG d   1     -11.403  77.155 118.249  0.00  0.00    -0.090 HD
ATOM     21  H   LIG d   1     -10.587  77.914 119.450  0.00  0.00    -0.090 HD
ENDBRANCH   5  18
BRANCH   3  22
ATOM     22  C   LIG d   1      -6.662  79.821 117.870  0.00  0.00     0.382 C 
ATOM     23  O   LIG d   1      -5.920  80.090 118.845  0.00  0.00    -0.241 OA
ATOM     24  O   LIG d   1      -6.870  80.687 116.999  0.00  0.00    -0.241 OA
ENDBRANCH   3  22
TORSDOF 7
ENDMDL
MODEL 5
REMARK VINA RESULT:      -5.1      2.544      4.820
REMARK  7 active torsions:
REMARK  status: ('A' for Active; 'I' for Inactive)
REMARK    1  A    between atoms: C_2  and  C_3 
REMARK    2  A    between atoms: C_3  and  O_6 
REMARK    3  A    between atoms: C_3  and  C_4 
REMARK    4  A    between atoms: C_7  and  O_6 
REMARK    5  A    between atoms: C_9  and  C_10 
REMARK    6  A    between atoms: N_15  and  C_14 
REMARK    7  A    between atoms: N_20  and  C_19 
REMARK       I    between atoms: C_22  and  N_20 
ROOT
ATOM      1  C   LIG d   1      -6.235  74.735 116.616  0.00  0.00     0.161 C 
ATOM      2  C   LIG d   1      -6.925  73.573 116.230  0.00  0.00     0.016 C 
ATOM      3  C   LIG d   1      -8.311  73.386 116.437  0.00  0.00     0.038 C 
ATOM      4  C   LIG d   1      -9.135  74.417 116.911  0.00  0.00     0.028 C 
ATOM      5  C   LIG d   1      -8.400  75.429 117.783  0.00  0.00    -0.047 C 
ATOM      6  C   LIG d   1      -7.139  75.914 117.033  0.00  0.00     0.091 C 
ENDROOT
BRANCH   1   7
ATOM      7  O   LIG d   1      -5.335  75.140 115.566  0.00  0.00    -0.368 OA
BRANCH   7   8
ATOM      8  C   LIG d   1      -3.972  74.660 115.674  0.00  0.00     0.119 C 
BRANCH   8   9
ATOM      9  C   LIG d   1      -3.635  74.560 117.174  0.00  0.00     0.028 C 
ATOM     10  C   LIG d   1      -2.893  73.258 117.522  0.00  0.00     0.006 C 
ENDBRANCH   8   9
BRANCH   8  11
ATOM     11  C   LIG d   1      -2.977  75.674 115.101  0.00  0.00     0.028 C 
ATOM     12  C   LIG d   1      -2.539  76.726 116.132  0.00  0.00     0.006 C 
ENDBRANCH   8  11
ENDBRANCH   7   8
ENDBRANCH   1   7
BRANCH   6  13
ATOM     13  N   LIG d   1      -6.316  76.844 117.850  0.00  0.00    -0.311 N 
ATOM     14  C   LIG d   1      -5.769  77.957 117.365  0.00  0.00     0.210 C 
ATOM     15  C   LIG d   1      -4.942  78.763 118.373  0.00  0.00     0.109 C 
ATOM     16  O   LIG d   1      -5.916  78.371 116.206  0.00  0.00    -0.276 OA
ATOM     17  H   LIG d   1      -6.171  76.601 118.810  0.00  0.00     0.149 HD
ENDBRANCH   6  13
BRANCH   5  18
ATOM     18  N   LIG d   1      -9.344  76.519 118.093  0.00  0.00     0.381 N 
ATOM     19  H   LIG d   1      -8.867  77.398 118.066  0.00  0.00    -0.090 HD
ATOM     20  H   LIG d   1      -9.703  76.384 119.022  0.00  0.00    -0.090 HD
ATOM     21  H   LIG d   1     -10.093  76.519 117.436  0.00  0.00    -0.090 HD
ENDBRANCH   5  18
BRANCH   3  22
ATOM     22  C   LIG d   1      -8.878  72.141 116.207  0.00  0.00     0.382 C 
ATOM     23  O   LIG d   1     -10.119  71.989 116.313  0.00  0.00    -0.241 OA
ATOM     24  O   LIG d   1      -8.160  71.160 115.937  0.00  0.00    -0.241 OA
ENDBRANCH   3  22
TORSDOF 7
ENDMDL
MODEL 6
REMARK VINA RESULT:      -5.1     15.305     17.399
REMARK  7 active torsions:
REMARK  status: ('A' for Active; 'I' for Inactive)
REMARK    1  A    between atoms: C_2  and  C_3 
REMARK    2  A    between atoms: C_3  and  O_6 
REMARK    3  A    between atoms: C_3  and  C_4 
REMARK    4  A    between atoms: C_7  and  O_6 
REMARK    5  A    between atoms: C_9  and  C_10 
REMARK    6  A    between atoms: N_15  and  C_14 
REMARK    7  A    between atoms: N_20  and  C_19 
REMARK       I    between atoms: C_22  and  N_20 
ROOT
ATOM      1  C   LIG d   1      -3.927  91.714 118.267  0.00  0.00     0.161 C 
ATOM      2  C   LIG d   1      -4.635  90.932 117.339  0.00  0.00     0.016 C 
ATOM      3  C   LIG d   1      -5.990  91.157 117.004  0.00  0.00     0.038 C 
ATOM      4  C   LIG d   1      -6.690  92.282 117.465  0.00  0.00     0.028 C 
ATOM      5  C   LIG d   1      -6.172  92.815 118.796  0.00  0.00    -0.047 C 
ATOM      6  C   LIG d   1      -4.642  93.012 118.696  0.00  0.00     0.091 C 
ENDROOT
BRANCH   1   7
ATOM      7  O   LIG d   1      -2.614  92.011 117.754  0.00  0.00    -0.368 OA
BRANCH   7   8
ATOM      8  C   LIG d   1      -1.504  91.379 118.439  0.00  0.00     0.119 C 
BRANCH   8   9
ATOM      9  C   LIG d   1      -0.923  90.312 117.490  0.00  0.00     0.028 C 
ATOM     10  C   LIG d   1       0.490  89.867 117.903  0.00  0.00     0.006 C 
ENDBRANCH   8   9
BRANCH   8  11
ATOM     11  C   LIG d   1      -1.978  90.608 119.674  0.00  0.00     0.028 C 
ATOM     12  C   LIG d   1      -1.389  91.160 120.982  0.00  0.00     0.006 C 
ENDBRANCH   8  11
ENDBRANCH   7   8
ENDBRANCH   1   7
BRANCH   6  13
ATOM     13  N   LIG d   1      -4.042  93.452 119.983  0.00  0.00    -0.311 N 
ATOM     14  C   LIG d   1      -3.465  94.640 120.155  0.00  0.00     0.210 C 
ATOM     15  C   LIG d   1      -2.892  94.884 121.555  0.00  0.00     0.109 C 
ATOM     16  O   LIG d   1      -3.402  95.527 119.291  0.00  0.00    -0.276 OA
ATOM     17  H   LIG d   1      -4.077  92.805 120.747  0.00  0.00     0.149 HD
ENDBRANCH   6  13
BRANCH   5  18
ATOM     18  N   LIG d   1      -6.899  94.064 119.090  0.00  0.00     0.381 N 
ATOM     19  H   LIG d   1      -7.704  94.134 118.500  0.00  0.00    -0.090 HD
ATOM     20  H   LIG d   1      -6.296  94.844 118.895  0.00  0.00    -0.090 HD
ATOM     21  H   LIG d   1      -7.176  94.081 120.046  0.00  0.00    -0.090 HD
ENDBRANCH   5  18
BRANCH   3  22
ATOM     22  C   LIG d   1      -6.670  90.230 116.230  0.00  0.00     0.382 C 
ATOM     23  O   LIG d   1      -6.031  89.432 115.501  0.00  0.00    -0.241 OA
ATOM     24  O   LIG d   1      -7.915  90.209 116.216  0.00  0.00    -0.241 OA
ENDBRANCH   3  22
TORSDOF 7
ENDMDL
MODEL 7
REMARK VINA RESULT:      -4.9      2.058      4.729
REMARK  7 active torsions:
REMARK  status: ('A' for Active; 'I' for Inactive)
REMARK    1  A    between atoms: C_2  and  C_3 
REMARK    2  A    between atoms: C_3  and  O_6 
REMARK    3  A    between atoms: C_3  and  C_4 
REMARK    4  A    between atoms: C_7  and  O_6 
REMARK    5  A    between atoms: C_9  and  C_10 
REMARK    6  A    between atoms: N_15  and  C_14 
REMARK    7  A    between atoms: N_20  and  C_19 
REMARK       I    between atoms: C_22  and  N_20 
ROOT
ATOM      1  C   LIG d   1      -8.180  76.177 116.864  0.00  0.00     0.161 C 
ATOM      2  C   LIG d   1      -9.284  75.313 116.947  0.00  0.00     0.016 C 
ATOM      3  C   LIG d   1      -9.196  73.916 116.753  0.00  0.00     0.038 C 
ATOM      4  C   LIG d   1      -7.962  73.264 116.610  0.00  0.00     0.028 C 
ATOM      5  C   LIG d   1      -6.873  74.151 116.016  0.00  0.00    -0.047 C 
ATOM      6  C   LIG d   1      -6.808  75.471 116.819  0.00  0.00     0.091 C 
ENDROOT
BRANCH   1   7
ATOM      7  O   LIG d   1      -8.219  77.127 117.947  0.00  0.00    -0.368 OA
BRANCH   7   8
ATOM      8  C   LIG d   1      -8.082  76.577 119.281  0.00  0.00     0.119 C 
BRANCH   8   9
ATOM      9  C   LIG d   1      -9.321  77.011 120.089  0.00  0.00     0.028 C 
ATOM     10  C   LIG d   1      -9.359  76.376 121.490  0.00  0.00     0.006 C 
ENDBRANCH   8   9
BRANCH   8  11
ATOM     11  C   LIG d   1      -6.885  77.189 120.015  0.00  0.00     0.028 C 
ATOM     12  C   LIG d   1      -6.338  78.445 119.320  0.00  0.00     0.006 C 
ENDBRANCH   8  11
ENDBRANCH   7   8
ENDBRANCH   1   7
BRANCH   6  13
ATOM     13  N   LIG d   1      -5.826  76.431 116.252  0.00  0.00    -0.311 N 
ATOM     14  C   LIG d   1      -4.572  76.539 116.686  0.00  0.00     0.210 C 
ATOM     15  C   LIG d   1      -3.732  77.606 115.977  0.00  0.00     0.109 C 
ATOM     16  O   LIG d   1      -4.066  75.830 117.569  0.00  0.00    -0.276 OA
ATOM     17  H   LIG d   1      -6.144  77.024 115.510  0.00  0.00     0.149 HD
ENDBRANCH   6  13
BRANCH   5  18
ATOM     18  N   LIG d   1      -5.610  73.390 116.051  0.00  0.00     0.381 N 
ATOM     19  H   LIG d   1      -4.853  73.977 115.761  0.00  0.00    -0.090 HD
ATOM     20  H   LIG d   1      -5.676  72.620 115.409  0.00  0.00    -0.090 HD
ATOM     21  H   LIG d   1      -5.442  73.051 116.973  0.00  0.00    -0.090 HD
ENDBRANCH   5  18
BRANCH   3  22
ATOM     22  C   LIG d   1     -10.355  73.160 116.660  0.00  0.00     0.382 C 
ATOM     23  O   LIG d   1     -11.474  73.709 116.800  0.00  0.00    -0.241 OA
ATOM     24  O   LIG d   1     -10.293  71.928 116.483  0.00  0.00    -0.241 OA
ENDBRANCH   3  22
TORSDOF 7
ENDMDL
MODEL 8
REMARK VINA RESULT:      -4.9      1.703      2.797
REMARK  7 active torsions:
REMARK  status: ('A' for Active; 'I' for Inactive)
REMARK    1  A    between atoms: C_2  and  C_3 
REMARK    2  A    between atoms: C_3  and  O_6 
REMARK    3  A    between atoms: C_3  and  C_4 
REMARK    4  A    between atoms: C_7  and  O_6 
REMARK    5  A    between atoms: C_9  and  C_10 
REMARK    6  A    between atoms: N_15  and  C_14 
REMARK    7  A    between atoms: N_20  and  C_19 
REMARK       I    between atoms: C_22  and  N_20 
ROOT
ATOM      1  C   LIG d   1      -7.310  76.651 118.428  0.00  0.00     0.161 C 
ATOM      2  C   LIG d   1      -8.656  76.299 118.625  0.00  0.00     0.016 C 
ATOM      3  C   LIG d   1      -9.721  77.225 118.547  0.00  0.00     0.038 C 
ATOM      4  C   LIG d   1      -9.527  78.545 118.115  0.00  0.00     0.028 C 
ATOM      5  C   LIG d   1      -8.124  79.073 118.395  0.00  0.00    -0.047 C 
ATOM      6  C   LIG d   1      -7.089  78.063 117.847  0.00  0.00     0.091 C 
ENDROOT
BRANCH   1   7
ATOM      7  O   LIG d   1      -6.662  75.663 117.602  0.00  0.00    -0.368 OA
BRANCH   7   8
ATOM      8  C   LIG d   1      -7.324  75.341 116.355  0.00  0.00     0.119 C 
BRANCH   8   9
ATOM      9  C   LIG d   1      -7.294  73.809 116.196  0.00  0.00     0.028 C 
ATOM     10  C   LIG d   1      -8.618  73.149 116.616  0.00  0.00     0.006 C 
ENDBRANCH   8   9
BRANCH   8  11
ATOM     11  C   LIG d   1      -6.547  75.888 115.154  0.00  0.00     0.028 C 
ATOM     12  C   LIG d   1      -5.028  75.912 115.388  0.00  0.00     0.006 C 
ENDBRANCH   8  11
ENDBRANCH   7   8
ENDBRANCH   1   7
BRANCH   6  13
ATOM     13  N   LIG d   1      -5.691  78.462 118.153  0.00  0.00    -0.311 N 
ATOM     14  C   LIG d   1      -4.910  79.116 117.295  0.00  0.00     0.210 C 
ATOM     15  C   LIG d   1      -3.496  79.413 117.804  0.00  0.00     0.109 C 
ATOM     16  O   LIG d   1      -5.265  79.508 116.173  0.00  0.00    -0.276 OA
ATOM     17  H   LIG d   1      -5.332  78.212 119.054  0.00  0.00     0.149 HD
ENDBRANCH   6  13
BRANCH   5  18
ATOM     18  N   LIG d   1      -8.017  80.406 117.772  0.00  0.00     0.381 N 
ATOM     19  H   LIG d   1      -8.646  80.469 116.997  0.00  0.00    -0.090 HD
ATOM     20  H   LIG d   1      -7.080  80.530 117.429  0.00  0.00    -0.090 HD
ATOM     21  H   LIG d   1      -8.230  81.113 118.441  0.00  0.00    -0.090 HD
ENDBRANCH   5  18
BRANCH   3  22
ATOM     22  C   LIG d   1     -10.994  76.842 118.942  0.00  0.00     0.382 C 
ATOM     23  O   LIG d   1     -11.807  76.398 118.095  0.00  0.00    -0.241 OA
ATOM     24  O   LIG d   1     -11.355  76.976 120.126  0.00  0.00    -0.241 OA
ENDBRANCH   3  22
TORSDOF 7
ENDMDL
MODEL 9
REMARK VINA RESULT:      -4.8     18.492     21.028
REMARK  7 active torsions:
REMARK  status: ('A' for Active; 'I' for Inactive)
REMARK    1  A    between atoms: C_2  and  C_3 
REMARK    2  A    between atoms: C_3  and  O_6 
REMARK    3  A    between atoms: C_3  and  C_4 
REMARK    4  A    between atoms: C_7  and  O_6 
REMARK    5  A    between atoms: C_9  and  C_10 
REMARK    6  A    between atoms: N_15  and  C_14 
REMARK    7  A    between atoms: N_20  and  C_19 
REMARK       I    between atoms: C_22  and  N_20 
ROOT
ATOM      1  C   LIG d   1       1.004  57.507 118.506  0.00  0.00     0.161 C 
ATOM      2  C   LIG d   1       0.350  58.672 118.941  0.00  0.00     0.016 C 
ATOM      3  C   LIG d   1      -1.054  58.839 118.899  0.00  0.00     0.038 C 
ATOM      4  C   LIG d   1      -1.915  57.786 118.556  0.00  0.00     0.028 C 
ATOM      5  C   LIG d   1      -1.276  56.758 117.629  0.00  0.00    -0.047 C 
ATOM      6  C   LIG d   1       0.073  56.307 118.233  0.00  0.00     0.091 C 
ENDROOT
BRANCH   1   7
ATOM      7  O   LIG d   1       2.030  57.141 119.449  0.00  0.00    -0.368 OA
BRANCH   7   8
ATOM      8  C   LIG d   1       3.396  57.389 119.033  0.00  0.00     0.119 C 
BRANCH   8   9
ATOM      9  C   LIG d   1       4.320  56.618 119.996  0.00  0.00     0.028 C 
ATOM     10  C   LIG d   1       4.593  55.181 119.522  0.00  0.00     0.006 C 
ENDBRANCH   8   9
BRANCH   8  11
ATOM     11  C   LIG d   1       3.771  58.864 119.203  0.00  0.00     0.028 C 
ATOM     12  C   LIG d   1       5.119  59.057 119.917  0.00  0.00     0.006 C 
ENDBRANCH   8  11
ENDBRANCH   7   8
ENDBRANCH   1   7
BRANCH   6  13
ATOM     13  N   LIG d   1       0.804  55.364 117.347  0.00  0.00    -0.311 N 
ATOM     14  C   LIG d   1       1.394  54.254 117.786  0.00  0.00     0.210 C 
ATOM     15  C   LIG d   1       2.110  53.433 116.709  0.00  0.00     0.109 C 
ATOM     16  O   LIG d   1       1.366  53.854 118.959  0.00  0.00    -0.276 OA
ATOM     17  H   LIG d   1       0.850  55.595 116.373  0.00  0.00     0.149 HD
ENDBRANCH   6  13
BRANCH   5  18
ATOM     18  N   LIG d   1      -2.236  55.649 117.465  0.00  0.00     0.381 N 
ATOM     19  H   LIG d   1      -2.839  55.836 116.689  0.00  0.00    -0.090 HD
ATOM     20  H   LIG d   1      -2.799  55.581 118.294  0.00  0.00    -0.090 HD
ATOM     21  H   LIG d   1      -1.746  54.794 117.316  0.00  0.00    -0.090 HD
ENDBRANCH   5  18
BRANCH   3  22
ATOM     22  C   LIG d   1      -1.606  60.082 119.164  0.00  0.00     0.382 C 
ATOM     23  O   LIG d   1      -1.611  60.529 120.336  0.00  0.00    -0.241 OA
ATOM     24  O   LIG d   1      -2.140  60.744 118.253  0.00  0.00    -0.241 OA
ENDBRANCH   3  22
TORSDOF 7
ENDMDL
