MODEL 1
REMARK VINA RESULT:      -5.3      0.000      0.000
REMARK  7 active torsions:
REMARK  status: ('A' for Active; 'I' for Inactive)
REMARK    1  A    between atoms: C_2  and  C_3 
REMARK    2  A    between atoms: C_3  and  O_6 
REMARK    3  A    between atoms: C_3  and  C_4 
REMARK    4  A    between atoms: C_7  and  O_6 
REMARK    5  A    between atoms: C_9  and  C_10 
REMARK    6  A    between atoms: N_15  and  C_14 
REMARK    7  A    between atoms: N_20  and  C_19 
REMARK       I    between atoms: C_22  and  N_20 
ROOT
ATOM      1  C   LIG d   1      -6.106  93.394 117.977  0.00  0.00     0.161 C 
ATOM      2  C   LIG d   1      -6.758  92.323 117.345  0.00  0.00     0.016 C 
ATOM      3  C   LIG d   1      -6.079  91.199 116.820  0.00  0.00     0.038 C 
ATOM      4  C   LIG d   1      -4.706  90.999 117.027  0.00  0.00     0.028 C 
ATOM      5  C   LIG d   1      -3.927  92.296 117.219  0.00  0.00    -0.047 C 
ATOM      6  C   LIG d   1      -4.621  93.141 118.311  0.00  0.00     0.091 C 
ENDROOT
BRANCH   1   7
ATOM      7  O   LIG d   1      -6.829  93.774 119.164  0.00  0.00    -0.368 OA
BRANCH   7   8
ATOM      8  C   LIG d   1      -7.896  94.737 118.980  0.00  0.00     0.119 C 
BRANCH   8   9
ATOM      9  C   LIG d   1      -7.667  95.880 119.989  0.00  0.00     0.028 C 
ATOM     10  C   LIG d   1      -6.444  96.741 119.632  0.00  0.00     0.006 C 
ENDBRANCH   8   9
BRANCH   8  11
ATOM     11  C   LIG d   1      -9.257  94.139 119.348  0.00  0.00     0.028 C 
ATOM     12  C   LIG d   1      -9.649  94.406 120.810  0.00  0.00     0.006 C 
ENDBRANCH   8  11
ENDBRANCH   7   8
ENDBRANCH   1   7
BRANCH   6  13
ATOM     13  N   LIG d   1      -3.971  94.464 118.502  0.00  0.00    -0.311 N 
ATOM     14  C   LIG d   1      -3.037  94.696 119.422  0.00  0.00     0.210 C 
ATOM     15  C   LIG d   1      -2.513  96.135 119.463  0.00  0.00     0.109 C 
ATOM     16  O   LIG d   1      -2.570  93.839 120.187  0.00  0.00    -0.276 OA
ATOM     17  H   LIG d   1      -4.268  95.209 117.902  0.00  0.00     0.149 HD
ENDBRANCH   6  13
BRANCH   5  18
ATOM     18  N   LIG d   1      -2.539  91.935 117.562  0.00  0.00     0.381 N 
ATOM     19  H   LIG d   1      -2.509  90.999 117.916  0.00  0.00    -0.090 HD
ATOM     20  H   LIG d   1      -2.210  92.555 118.281  0.00  0.00    -0.090 HD
ATOM     21  H   LIG d   1      -1.957  92.011 116.756  0.00  0.00    -0.090 HD
ENDBRANCH   5  18
BRANCH   3  22
ATOM     22  C   LIG d   1      -6.769  90.280 116.043  0.00  0.00     0.382 C 
ATOM     23  O   LIG d   1      -7.849  89.795 116.457  0.00  0.00    -0.241 OA
ATOM     24  O   LIG d   1      -6.302  89.898 114.953  0.00  0.00    -0.241 OA
ENDBRANCH   3  22
TORSDOF 7
ENDMDL
MODEL 2
REMARK VINA RESULT:      -5.2      2.404      4.815
REMARK  7 active torsions:
REMARK  status: ('A' for Active; 'I' for Inactive)
REMARK    1  A    between atoms: C_2  and  C_3 
REMARK    2  A    between atoms: C_3  and  O_6 
REMARK    3  A    between atoms: C_3  and  C_4 
REMARK    4  A    between atoms: C_7  and  O_6 
REMARK    5  A    between atoms: C_9  and  C_10 
REMARK    6  A    between atoms: N_15  and  C_14 
REMARK    7  A    between atoms: N_20  and  C_19 
REMARK       I    between atoms: C_22  and  N_20 
ROOT
ATOM      1  C   LIG d   1      -3.990  91.575 118.087  0.00  0.00     0.161 C 
ATOM      2  C   LIG d   1      -4.723  90.752 117.215  0.00  0.00     0.016 C 
ATOM      3  C   LIG d   1      -5.921  91.159 116.584  0.00  0.00     0.038 C 
ATOM      4  C   LIG d   1      -6.391  92.478 116.665  0.00  0.00     0.028 C 
ATOM      5  C   LIG d   1      -5.958  93.199 117.937  0.00  0.00    -0.047 C 
ATOM      6  C   LIG d   1      -4.427  93.055 118.099  0.00  0.00     0.091 C 
ENDROOT
BRANCH   1   7
ATOM      7  O   LIG d   1      -2.583  91.471 117.790  0.00  0.00    -0.368 OA
BRANCH   7   8
ATOM      8  C   LIG d   1      -1.776  90.772 118.770  0.00  0.00     0.119 C 
BRANCH   8   9
ATOM      9  C   LIG d   1      -0.531  91.638 119.046  0.00  0.00     0.028 C 
ATOM     10  C   LIG d   1      -0.050  92.389 117.794  0.00  0.00     0.006 C 
ENDBRANCH   8   9
BRANCH   8  11
ATOM     11  C   LIG d   1      -1.236  89.453 118.209  0.00  0.00     0.028 C 
ATOM     12  C   LIG d   1      -2.181  88.268 118.460  0.00  0.00     0.006 C 
ENDBRANCH   8  11
ENDBRANCH   7   8
ENDBRANCH   1   7
BRANCH   6  13
ATOM     13  N   LIG d   1      -3.931  93.660 119.363  0.00  0.00    -0.311 N 
ATOM     14  C   LIG d   1      -2.939  94.547 119.411  0.00  0.00     0.210 C 
ATOM     15  C   LIG d   1      -2.571  95.030 120.818  0.00  0.00     0.109 C 
ATOM     16  O   LIG d   1      -2.350  95.004 118.420  0.00  0.00    -0.276 OA
ATOM     17  H   LIG d   1      -4.374  93.369 120.212  0.00  0.00     0.149 HD
ENDBRANCH   6  13
BRANCH   5  18
ATOM     18  N   LIG d   1      -6.398  94.602 117.826  0.00  0.00     0.381 N 
ATOM     19  H   LIG d   1      -5.877  95.065 117.108  0.00  0.00    -0.090 HD
ATOM     20  H   LIG d   1      -6.218  95.069 118.697  0.00  0.00    -0.090 HD
ATOM     21  H   LIG d   1      -7.371  94.639 117.616  0.00  0.00    -0.090 HD
ENDBRANCH   5  18
BRANCH   3  22
ATOM     22  C   LIG d   1      -6.685  90.229 115.895  0.00  0.00     0.382 C 
ATOM     23  O   LIG d   1      -6.273  89.764 114.805  0.00  0.00    -0.241 OA
ATOM     24  O   LIG d   1      -7.800  89.882 116.328  0.00  0.00    -0.241 OA
ENDBRANCH   3  22
TORSDOF 7
ENDMDL
MODEL 3
REMARK VINA RESULT:      -5.2     14.071     17.140
REMARK  7 active torsions:
REMARK  status: ('A' for Active; 'I' for Inactive)
REMARK    1  A    between atoms: C_2  and  C_3 
REMARK    2  A    between atoms: C_3  and  O_6 
REMARK    3  A    between atoms: C_3  and  C_4 
REMARK    4  A    between atoms: C_7  and  O_6 
REMARK    5  A    between atoms: C_9  and  C_10 
REMARK    6  A    between atoms: N_15  and  C_14 
REMARK    7  A    between atoms: N_20  and  C_19 
REMARK       I    between atoms: C_22  and  N_20 
ROOT
ATOM      1  C   LIG d   1      -6.255  76.618 116.800  0.00  0.00     0.161 C 
ATOM      2  C   LIG d   1      -6.755  75.344 116.481  0.00  0.00     0.016 C 
ATOM      3  C   LIG d   1      -8.075  74.931 116.772  0.00  0.00     0.038 C 
ATOM      4  C   LIG d   1      -9.038  75.821 117.269  0.00  0.00     0.028 C 
ATOM      5  C   LIG d   1      -8.442  76.971 118.074  0.00  0.00    -0.047 C 
ATOM      6  C   LIG d   1      -7.324  77.640 117.241  0.00  0.00     0.091 C 
ENDROOT
BRANCH   1   7
ATOM      7  O   LIG d   1      -5.495  77.136 115.691  0.00  0.00    -0.368 OA
BRANCH   7   8
ATOM      8  C   LIG d   1      -4.060  77.210 115.881  0.00  0.00     0.119 C 
BRANCH   8   9
ATOM      9  C   LIG d   1      -3.417  76.147 114.969  0.00  0.00     0.028 C 
ATOM     10  C   LIG d   1      -3.093  74.846 115.721  0.00  0.00     0.006 C 
ENDBRANCH   8   9
BRANCH   8  11
ATOM     11  C   LIG d   1      -3.666  76.812 117.307  0.00  0.00     0.028 C 
ATOM     12  C   LIG d   1      -2.935  77.936 118.058  0.00  0.00     0.006 C 
ENDBRANCH   8  11
ENDBRANCH   7   8
ENDBRANCH   1   7
BRANCH   6  13
ATOM     13  N   LIG d   1      -6.631  78.721 117.988  0.00  0.00    -0.311 N 
ATOM     14  C   LIG d   1      -7.010  79.997 117.951  0.00  0.00     0.210 C 
ATOM     15  C   LIG d   1      -6.145  80.954 118.778  0.00  0.00     0.109 C 
ATOM     16  O   LIG d   1      -8.000  80.423 117.337  0.00  0.00    -0.276 OA
ATOM     17  H   LIG d   1      -5.836  78.459 118.538  0.00  0.00     0.149 HD
ENDBRANCH   6  13
BRANCH   5  18
ATOM     18  N   LIG d   1      -9.541  77.895 118.413  0.00  0.00     0.381 N 
ATOM     19  H   LIG d   1      -9.408  78.256 119.336  0.00  0.00    -0.090 HD
ATOM     20  H   LIG d   1     -10.409  77.389 118.394  0.00  0.00    -0.090 HD
ATOM     21  H   LIG d   1      -9.571  78.644 117.757  0.00  0.00    -0.090 HD
ENDBRANCH   5  18
BRANCH   3  22
ATOM     22  C   LIG d   1      -8.432  73.602 116.603  0.00  0.00     0.382 C 
ATOM     23  O   LIG d   1      -7.555  72.746 116.334  0.00  0.00    -0.241 OA
ATOM     24  O   LIG d   1      -9.627  73.255 116.672  0.00  0.00    -0.241 OA
ENDBRANCH   3  22
TORSDOF 7
ENDMDL
MODEL 4
REMARK VINA RESULT:      -5.1      2.151      4.598
REMARK  7 active torsions:
REMARK  status: ('A' for Active; 'I' for Inactive)
REMARK    1  A    between atoms: C_2  and  C_3 
REMARK    2  A    between atoms: C_3  and  O_6 
REMARK    3  A    between atoms: C_3  and  C_4 
REMARK    4  A    between atoms: C_7  and  O_6 
REMARK    5  A    between atoms: C_9  and  C_10 
REMARK    6  A    between atoms: N_15  and  C_14 
REMARK    7  A    between atoms: N_20  and  C_19 
REMARK       I    between atoms: C_22  and  N_20 
ROOT
ATOM      1  C   LIG d   1      -4.938  92.232 119.069  0.00  0.00     0.161 C 
ATOM      2  C   LIG d   1      -5.249  91.240 118.123  0.00  0.00     0.016 C 
ATOM      3  C   LIG d   1      -6.252  91.390 117.139  0.00  0.00     0.038 C 
ATOM      4  C   LIG d   1      -6.914  92.610 116.936  0.00  0.00     0.028 C 
ATOM      5  C   LIG d   1      -6.990  93.475 118.190  0.00  0.00    -0.047 C 
ATOM      6  C   LIG d   1      -5.573  93.611 118.792  0.00  0.00     0.091 C 
ENDROOT
BRANCH   1   7
ATOM      7  O   LIG d   1      -3.507  92.355 119.195  0.00  0.00    -0.368 OA
BRANCH   7   8
ATOM      8  C   LIG d   1      -2.761  92.411 117.955  0.00  0.00     0.119 C 
BRANCH   8   9
ATOM      9  C   LIG d   1      -1.566  91.447 118.090  0.00  0.00     0.028 C 
ATOM     10  C   LIG d   1      -1.715  90.492 119.286  0.00  0.00     0.006 C 
ENDBRANCH   8   9
BRANCH   8  11
ATOM     11  C   LIG d   1      -2.142  93.795 117.738  0.00  0.00     0.028 C 
ATOM     12  C   LIG d   1      -0.615  93.798 117.905  0.00  0.00     0.006 C 
ENDBRANCH   8  11
ENDBRANCH   7   8
ENDBRANCH   1   7
BRANCH   6  13
ATOM     13  N   LIG d   1      -5.570  94.371 120.069  0.00  0.00    -0.311 N 
ATOM     14  C   LIG d   1      -5.380  95.688 120.137  0.00  0.00     0.210 C 
ATOM     15  C   LIG d   1      -5.395  96.271 121.554  0.00  0.00     0.109 C 
ATOM     16  O   LIG d   1      -5.232  96.433 119.157  0.00  0.00    -0.276 OA
ATOM     17  H   LIG d   1      -5.714  93.850 120.911  0.00  0.00     0.149 HD
ENDBRANCH   6  13
BRANCH   5  18
ATOM     18  N   LIG d   1      -7.581  94.770 117.803  0.00  0.00     0.381 N 
ATOM     19  H   LIG d   1      -7.043  95.518 118.194  0.00  0.00    -0.090 HD
ATOM     20  H   LIG d   1      -8.513  94.825 118.173  0.00  0.00    -0.090 HD
ATOM     21  H   LIG d   1      -7.604  94.851 116.811  0.00  0.00    -0.090 HD
ENDBRANCH   5  18
BRANCH   3  22
ATOM     22  C   LIG d   1      -6.630  90.300 116.371  0.00  0.00     0.382 C 
ATOM     23  O   LIG d   1      -5.815  89.787 115.567  0.00  0.00    -0.241 OA
ATOM     24  O   LIG d   1      -7.790  89.850 116.439  0.00  0.00    -0.241 OA
ENDBRANCH   3  22
TORSDOF 7
ENDMDL
MODEL 5
REMARK VINA RESULT:      -5.0      2.023      4.920
REMARK  7 active torsions:
REMARK  status: ('A' for Active; 'I' for Inactive)
REMARK    1  A    between atoms: C_2  and  C_3 
REMARK    2  A    between atoms: C_3  and  O_6 
REMARK    3  A    between atoms: C_3  and  C_4 
REMARK    4  A    between atoms: C_7  and  O_6 
REMARK    5  A    between atoms: C_9  and  C_10 
REMARK    6  A    between atoms: N_15  and  C_14 
REMARK    7  A    between atoms: N_20  and  C_19 
REMARK       I    between atoms: C_22  and  N_20 
ROOT
ATOM      1  C   LIG d   1      -5.314  93.161 118.172  0.00  0.00     0.161 C 
ATOM      2  C   LIG d   1      -6.666  93.546 118.171  0.00  0.00     0.016 C 
ATOM      3  C   LIG d   1      -7.144  94.711 118.812  0.00  0.00     0.038 C 
ATOM      4  C   LIG d   1      -6.275  95.658 119.375  0.00  0.00     0.028 C 
ATOM      5  C   LIG d   1      -4.950  95.063 119.840  0.00  0.00    -0.047 C 
ATOM      6  C   LIG d   1      -4.336  94.239 118.685  0.00  0.00     0.091 C 
ENDROOT
BRANCH   1   7
ATOM      7  O   LIG d   1      -4.930  92.722 116.854  0.00  0.00    -0.368 OA
BRANCH   7   8
ATOM      8  C   LIG d   1      -4.579  91.322 116.726  0.00  0.00     0.119 C 
BRANCH   8   9
ATOM      9  C   LIG d   1      -5.715  90.631 115.947  0.00  0.00     0.028 C 
ATOM     10  C   LIG d   1      -6.414  91.581 114.961  0.00  0.00     0.006 C 
ENDBRANCH   8   9
BRANCH   8  11
ATOM     11  C   LIG d   1      -4.543  90.630 118.091  0.00  0.00     0.028 C 
ATOM     12  C   LIG d   1      -3.219  89.894 118.352  0.00  0.00     0.006 C 
ENDBRANCH   8  11
ENDBRANCH   7   8
ENDBRANCH   1   7
BRANCH   6  13
ATOM     13  N   LIG d   1      -3.080  93.553 119.084  0.00  0.00    -0.311 N 
ATOM     14  C   LIG d   1      -1.962  93.592 118.360  0.00  0.00     0.210 C 
ATOM     15  C   LIG d   1      -0.787  92.799 118.942  0.00  0.00     0.109 C 
ATOM     16  O   LIG d   1      -1.822  94.233 117.308  0.00  0.00    -0.276 OA
ATOM     17  H   LIG d   1      -3.095  93.034 119.940  0.00  0.00     0.149 HD
ENDBRANCH   6  13
BRANCH   5  18
ATOM     18  N   LIG d   1      -4.089  96.178 120.277  0.00  0.00     0.381 N 
ATOM     19  H   LIG d   1      -3.392  96.359 119.583  0.00  0.00    -0.090 HD
ATOM     20  H   LIG d   1      -3.626  95.917 121.129  0.00  0.00    -0.090 HD
ATOM     21  H   LIG d   1      -4.639  96.995 120.426  0.00  0.00    -0.090 HD
ENDBRANCH   5  18
BRANCH   3  22
ATOM     22  C   LIG d   1      -8.510  94.919 118.931  0.00  0.00     0.382 C 
ATOM     23  O   LIG d   1      -9.302  94.338 118.151  0.00  0.00    -0.241 OA
ATOM     24  O   LIG d   1      -8.957  95.714 119.779  0.00  0.00    -0.241 OA
ENDBRANCH   3  22
TORSDOF 7
ENDMDL
MODEL 6
REMARK VINA RESULT:      -4.9     12.862     15.682
REMARK  7 active torsions:
REMARK  status: ('A' for Active; 'I' for Inactive)
REMARK    1  A    between atoms: C_2  and  C_3 
REMARK    2  A    between atoms: C_3  and  O_6 
REMARK    3  A    between atoms: C_3  and  C_4 
REMARK    4  A    between atoms: C_7  and  O_6 
REMARK    5  A    between atoms: C_9  and  C_10 
REMARK    6  A    between atoms: N_15  and  C_14 
REMARK    7  A    between atoms: N_20  and  C_19 
REMARK       I    between atoms: C_22  and  N_20 
ROOT
ATOM      1  C   LIG d   1      -7.138  78.128 118.716  0.00  0.00     0.161 C 
ATOM      2  C   LIG d   1      -6.074  77.942 117.818  0.00  0.00     0.016 C 
ATOM      3  C   LIG d   1      -6.108  77.016 116.751  0.00  0.00     0.038 C 
ATOM      4  C   LIG d   1      -7.276  76.316 116.414  0.00  0.00     0.028 C 
ATOM      5  C   LIG d   1      -8.213  76.097 117.597  0.00  0.00    -0.047 C 
ATOM      6  C   LIG d   1      -8.462  77.453 118.298  0.00  0.00     0.091 C 
ENDROOT
BRANCH   1   7
ATOM      7  O   LIG d   1      -7.345  79.536 118.945  0.00  0.00    -0.368 OA
BRANCH   7   8
ATOM      8  C   LIG d   1      -7.811  80.305 117.809  0.00  0.00     0.119 C 
BRANCH   8   9
ATOM      9  C   LIG d   1      -6.990  81.608 117.764  0.00  0.00     0.028 C 
ATOM     10  C   LIG d   1      -6.403  81.979 119.136  0.00  0.00     0.006 C 
ENDBRANCH   8   9
BRANCH   8  11
ATOM     11  C   LIG d   1      -9.266  80.747 117.994  0.00  0.00     0.028 C 
ATOM     12  C   LIG d   1      -9.609  82.015 117.196  0.00  0.00     0.006 C 
ENDBRANCH   8  11
ENDBRANCH   7   8
ENDBRANCH   1   7
BRANCH   6  13
ATOM     13  N   LIG d   1      -9.301  77.315 119.517  0.00  0.00    -0.311 N 
ATOM     14  C   LIG d   1     -10.624  77.472 119.517  0.00  0.00     0.210 C 
ATOM     15  C   LIG d   1     -11.294  77.307 120.885  0.00  0.00     0.109 C 
ATOM     16  O   LIG d   1     -11.309  77.701 118.509  0.00  0.00    -0.276 OA
ATOM     17  H   LIG d   1      -8.830  77.100 120.373  0.00  0.00     0.149 HD
ENDBRANCH   6  13
BRANCH   5  18
ATOM     18  N   LIG d   1      -9.448  75.479 117.079  0.00  0.00     0.381 N 
ATOM     19  H   LIG d   1     -10.001  76.169 116.610  0.00  0.00    -0.090 HD
ATOM     20  H   LIG d   1      -9.981  75.120 117.852  0.00  0.00    -0.090 HD
ATOM     21  H   LIG d   1      -9.222  74.740 116.451  0.00  0.00    -0.090 HD
ENDBRANCH   5  18
BRANCH   3  22
ATOM     22  C   LIG d   1      -4.953  76.754 116.031  0.00  0.00     0.382 C 
ATOM     23  O   LIG d   1      -4.575  75.570 115.861  0.00  0.00    -0.241 OA
ATOM     24  O   LIG d   1      -4.259  77.689 115.587  0.00  0.00    -0.241 OA
ENDBRANCH   3  22
TORSDOF 7
ENDMDL
MODEL 7
REMARK VINA RESULT:      -4.9      1.122      1.937
REMARK  7 active torsions:
REMARK  status: ('A' for Active; 'I' for Inactive)
REMARK    1  A    between atoms: C_2  and  C_3 
REMARK    2  A    between atoms: C_3  and  O_6 
REMARK    3  A    between atoms: C_3  and  C_4 
REMARK    4  A    between atoms: C_7  and  O_6 
REMARK    5  A    between atoms: C_9  and  C_10 
REMARK    6  A    between atoms: N_15  and  C_14 
REMARK    7  A    between atoms: N_20  and  C_19 
REMARK       I    between atoms: C_22  and  N_20 
ROOT
ATOM      1  C   LIG d   1      -5.756  92.947 118.526  0.00  0.00     0.161 C 
ATOM      2  C   LIG d   1      -6.649  92.195 117.744  0.00  0.00     0.016 C 
ATOM      3  C   LIG d   1      -6.239  91.156 116.878  0.00  0.00     0.038 C 
ATOM      4  C   LIG d   1      -4.914  90.695 116.847  0.00  0.00     0.028 C 
ATOM      5  C   LIG d   1      -3.894  91.757 117.243  0.00  0.00    -0.047 C 
ATOM      6  C   LIG d   1      -4.320  92.385 118.589  0.00  0.00     0.091 C 
ENDROOT
BRANCH   1   7
ATOM      7  O   LIG d   1      -6.289  93.112 119.855  0.00  0.00    -0.368 OA
BRANCH   7   8
ATOM      8  C   LIG d   1      -6.583  94.471 120.260  0.00  0.00     0.119 C 
BRANCH   8   9
ATOM      9  C   LIG d   1      -8.024  94.491 120.804  0.00  0.00     0.028 C 
ATOM     10  C   LIG d   1      -9.072  94.277 119.699  0.00  0.00     0.006 C 
ENDBRANCH   8   9
BRANCH   8  11
ATOM     11  C   LIG d   1      -6.590  95.421 119.059  0.00  0.00     0.028 C 
ATOM     12  C   LIG d   1      -5.634  96.612 119.235  0.00  0.00     0.006 C 
ENDBRANCH   8  11
ENDBRANCH   7   8
ENDBRANCH   1   7
BRANCH   6  13
ATOM     13  N   LIG d   1      -3.422  93.493 119.007  0.00  0.00    -0.311 N 
ATOM     14  C   LIG d   1      -2.389  93.327 119.832  0.00  0.00     0.210 C 
ATOM     15  C   LIG d   1      -1.604  94.604 120.149  0.00  0.00     0.109 C 
ATOM     16  O   LIG d   1      -2.029  92.239 120.304  0.00  0.00    -0.276 OA
ATOM     17  H   LIG d   1      -3.623  94.405 118.646  0.00  0.00     0.149 HD
ENDBRANCH   6  13
BRANCH   5  18
ATOM     18  N   LIG d   1      -2.572  91.105 117.301  0.00  0.00     0.381 N 
ATOM     19  H   LIG d   1      -2.014  91.534 118.012  0.00  0.00    -0.090 HD
ATOM     20  H   LIG d   1      -2.109  91.230 116.418  0.00  0.00    -0.090 HD
ATOM     21  H   LIG d   1      -2.679  90.134 117.494  0.00  0.00    -0.090 HD
ENDBRANCH   5  18
BRANCH   3  22
ATOM     22  C   LIG d   1      -7.152  90.593 116.000  0.00  0.00     0.382 C 
ATOM     23  O   LIG d   1      -7.325  91.098 114.864  0.00  0.00    -0.241 OA
ATOM     24  O   LIG d   1      -7.839  89.612 116.345  0.00  0.00    -0.241 OA
ENDBRANCH   3  22
TORSDOF 7
ENDMDL
MODEL 8
REMARK VINA RESULT:      -4.5     10.242     12.717
REMARK  7 active torsions:
REMARK  status: ('A' for Active; 'I' for Inactive)
REMARK    1  A    between atoms: C_2  and  C_3 
REMARK    2  A    between atoms: C_3  and  O_6 
REMARK    3  A    between atoms: C_3  and  C_4 
REMARK    4  A    between atoms: C_7  and  O_6 
REMARK    5  A    between atoms: C_9  and  C_10 
REMARK    6  A    between atoms: N_15  and  C_14 
REMARK    7  A    between atoms: N_20  and  C_19 
REMARK       I    between atoms: C_22  and  N_20 
ROOT
ATOM      1  C   LIG d   1     -16.626  96.710 117.252  0.00  0.00     0.161 C 
ATOM      2  C   LIG d   1     -17.831  96.736 116.529  0.00  0.00     0.016 C 
ATOM      3  C   LIG d   1     -19.101  96.567 117.127  0.00  0.00     0.038 C 
ATOM      4  C   LIG d   1     -19.263  96.509 118.520  0.00  0.00     0.028 C 
ATOM      5  C   LIG d   1     -18.037  95.972 119.250  0.00  0.00    -0.047 C 
ATOM      6  C   LIG d   1     -16.790  96.759 118.785  0.00  0.00     0.091 C 
ENDROOT
BRANCH   1   7
ATOM      7  O   LIG d   1     -15.765  97.776 116.806  0.00  0.00    -0.368 OA
BRANCH   7   8
ATOM      8  C   LIG d   1     -16.427  98.943 116.259  0.00  0.00     0.119 C 
BRANCH   8   9
ATOM      9  C   LIG d   1     -15.593  99.428 115.057  0.00  0.00     0.028 C 
ATOM     10  C   LIG d   1     -14.310 100.157 115.488  0.00  0.00     0.006 C 
ENDBRANCH   8   9
BRANCH   8  11
ATOM     11  C   LIG d   1     -16.417 100.107 117.255  0.00  0.00     0.028 C 
ATOM     12  C   LIG d   1     -17.762 100.285 117.977  0.00  0.00     0.006 C 
ENDBRANCH   8  11
ENDBRANCH   7   8
ENDBRANCH   1   7
BRANCH   6  13
ATOM     13  N   LIG d   1     -15.535  96.241 119.389  0.00  0.00    -0.311 N 
ATOM     14  C   LIG d   1     -15.040  96.683 120.544  0.00  0.00     0.210 C 
ATOM     15  C   LIG d   1     -13.724  96.028 120.976  0.00  0.00     0.109 C 
ATOM     16  O   LIG d   1     -15.583  97.532 121.267  0.00  0.00    -0.276 OA
ATOM     17  H   LIG d   1     -15.046  95.528 118.884  0.00  0.00     0.149 HD
ENDBRANCH   6  13
BRANCH   5  18
ATOM     18  N   LIG d   1     -18.291  96.095 120.698  0.00  0.00     0.381 N 
ATOM     19  H   LIG d   1     -17.895  95.313 121.180  0.00  0.00    -0.090 HD
ATOM     20  H   LIG d   1     -19.284  96.091 120.855  0.00  0.00    -0.090 HD
ATOM     21  H   LIG d   1     -17.896  96.942 121.043  0.00  0.00    -0.090 HD
ENDBRANCH   5  18
BRANCH   3  22
ATOM     22  C   LIG d   1     -20.222  96.413 116.327  0.00  0.00     0.382 C 
ATOM     23  O   LIG d   1     -20.489  97.270 115.450  0.00  0.00    -0.241 OA
ATOM     24  O   LIG d   1     -20.995  95.451 116.500  0.00  0.00    -0.241 OA
ENDBRANCH   3  22
TORSDOF 7
ENDMDL
MODEL 9
REMARK VINA RESULT:      -4.3      5.429      8.641
REMARK  7 active torsions:
REMARK  status: ('A' for Active; 'I' for Inactive)
REMARK    1  A    between atoms: C_2  and  C_3 
REMARK    2  A    between atoms: C_3  and  O_6 
REMARK    3  A    between atoms: C_3  and  C_4 
REMARK    4  A    between atoms: C_7  and  O_6 
REMARK    5  A    between atoms: C_9  and  C_10 
REMARK    6  A    between atoms: N_15  and  C_14 
REMARK    7  A    between atoms: N_20  and  C_19 
REMARK       I    between atoms: C_22  and  N_20 
ROOT
ATOM      1  C   LIG d   1       0.365  90.268 116.869  0.00  0.00     0.161 C 
ATOM      2  C   LIG d   1       1.752  90.438 117.017  0.00  0.00     0.016 C 
ATOM      3  C   LIG d   1       2.331  91.482 117.775  0.00  0.00     0.038 C 
ATOM      4  C   LIG d   1       1.555  92.342 118.566  0.00  0.00     0.028 C 
ATOM      5  C   LIG d   1       0.132  92.522 118.049  0.00  0.00    -0.047 C 
ATOM      6  C   LIG d   1      -0.497  91.130 117.815  0.00  0.00     0.091 C 
ENDROOT
BRANCH   1   7
ATOM      7  O   LIG d   1       0.027  88.874 117.013  0.00  0.00    -0.368 OA
BRANCH   7   8
ATOM      8  C   LIG d   1      -0.025  88.367 118.369  0.00  0.00     0.119 C 
BRANCH   8   9
ATOM      9  C   LIG d   1       0.907  87.142 118.442  0.00  0.00     0.028 C 
ATOM     10  C   LIG d   1       1.377  86.680 117.053  0.00  0.00     0.006 C 
ENDBRANCH   8   9
BRANCH   8  11
ATOM     11  C   LIG d   1      -1.420  87.837 118.713  0.00  0.00     0.028 C 
ATOM     12  C   LIG d   1      -1.379  86.510 119.487  0.00  0.00     0.006 C 
ENDBRANCH   8  11
ENDBRANCH   7   8
ENDBRANCH   1   7
BRANCH   6  13
ATOM     13  N   LIG d   1      -1.860  91.215 117.229  0.00  0.00    -0.311 N 
ATOM     14  C   LIG d   1      -2.975  91.172 117.957  0.00  0.00     0.210 C 
ATOM     15  C   LIG d   1      -4.276  91.256 117.152  0.00  0.00     0.109 C 
ATOM     16  O   LIG d   1      -3.009  91.107 119.195  0.00  0.00    -0.276 OA
ATOM     17  H   LIG d   1      -1.924  91.301 116.234  0.00  0.00     0.149 HD
ENDBRANCH   6  13
BRANCH   5  18
ATOM     18  N   LIG d   1      -0.603  93.330 119.040  0.00  0.00     0.381 N 
ATOM     19  H   LIG d   1      -0.702  94.268 118.707  0.00  0.00    -0.090 HD
ATOM     20  H   LIG d   1      -0.077  93.352 119.896  0.00  0.00    -0.090 HD
ATOM     21  H   LIG d   1      -1.502  92.932 119.205  0.00  0.00    -0.090 HD
ENDBRANCH   5  18
BRANCH   3  22
ATOM     22  C   LIG d   1       3.700  91.697 117.715  0.00  0.00     0.382 C 
ATOM     23  O   LIG d   1       4.237  92.014 116.626  0.00  0.00    -0.241 OA
ATOM     24  O   LIG d   1       4.410  91.535 118.725  0.00  0.00    -0.241 OA
ENDBRANCH   3  22
TORSDOF 7
ENDMDL
