MODEL 1
REMARK VINA RESULT:      -5.7      0.000      0.000
REMARK  7 active torsions:
REMARK  status: ('A' for Active; 'I' for Inactive)
REMARK    1  A    between atoms: C_2  and  C_3 
REMARK    2  A    between atoms: C_3  and  O_6 
REMARK    3  A    between atoms: C_3  and  C_4 
REMARK    4  A    between atoms: C_7  and  O_6 
REMARK    5  A    between atoms: C_9  and  C_10 
REMARK    6  A    between atoms: N_15  and  C_14 
REMARK    7  A    between atoms: N_20  and  C_19 
REMARK       I    between atoms: C_22  and  N_20 
ROOT
ATOM      1  C   LIG d   1     -10.249  74.594 117.928  0.00  0.00     0.161 C 
ATOM      2  C   LIG d   1     -10.039  73.219 117.731  0.00  0.00     0.016 C 
ATOM      3  C   LIG d   1      -8.816  72.676 117.275  0.00  0.00     0.038 C 
ATOM      4  C   LIG d   1      -7.664  73.464 117.129  0.00  0.00     0.028 C 
ATOM      5  C   LIG d   1      -7.965  74.929 116.832  0.00  0.00    -0.047 C 
ATOM      6  C   LIG d   1      -8.971  75.457 117.880  0.00  0.00     0.091 C 
ENDROOT
BRANCH   1   7
ATOM      7  O   LIG d   1     -10.952  74.808 119.167  0.00  0.00    -0.368 OA
BRANCH   7   8
ATOM      8  C   LIG d   1     -11.001  73.681 120.076  0.00  0.00     0.119 C 
BRANCH   8   9
ATOM      9  C   LIG d   1     -12.478  73.449 120.448  0.00  0.00     0.028 C 
ATOM     10  C   LIG d   1     -13.366  74.656 120.103  0.00  0.00     0.006 C 
ENDBRANCH   8   9
BRANCH   8  11
ATOM     11  C   LIG d   1     -10.295  73.999 121.397  0.00  0.00     0.028 C 
ATOM     12  C   LIG d   1      -8.764  73.919 121.289  0.00  0.00     0.006 C 
ENDBRANCH   8  11
ENDBRANCH   7   8
ENDBRANCH   1   7
BRANCH   6  13
ATOM     13  N   LIG d   1      -9.384  76.859 117.613  0.00  0.00    -0.311 N 
ATOM     14  C   LIG d   1      -9.283  77.837 118.512  0.00  0.00     0.210 C 
ATOM     15  C   LIG d   1      -9.785  79.205 118.038  0.00  0.00     0.109 C 
ATOM     16  O   LIG d   1      -8.797  77.709 119.645  0.00  0.00    -0.276 OA
ATOM     17  H   LIG d   1      -9.761  77.059 116.707  0.00  0.00     0.149 HD
ENDBRANCH   6  13
BRANCH   5  18
ATOM     18  N   LIG d   1      -6.683  75.658 116.842  0.00  0.00     0.381 N 
ATOM     19  H   LIG d   1      -6.821  76.590 116.504  0.00  0.00    -0.090 HD
ATOM     20  H   LIG d   1      -6.039  75.192 116.227  0.00  0.00    -0.090 HD
ATOM     21  H   LIG d   1      -6.312  75.684 117.766  0.00  0.00    -0.090 HD
ENDBRANCH   5  18
BRANCH   3  22
ATOM     22  C   LIG d   1      -8.747  71.337 116.922  0.00  0.00     0.382 C 
ATOM     23  O   LIG d   1      -9.417  70.487 117.556  0.00  0.00    -0.241 OA
ATOM     24  O   LIG d   1      -7.990  70.963 116.006  0.00  0.00    -0.241 OA
ENDBRANCH   3  22
TORSDOF 7
ENDMDL
MODEL 2
REMARK VINA RESULT:      -5.5      2.076      4.282
REMARK  7 active torsions:
REMARK  status: ('A' for Active; 'I' for Inactive)
REMARK    1  A    between atoms: C_2  and  C_3 
REMARK    2  A    between atoms: C_3  and  O_6 
REMARK    3  A    between atoms: C_3  and  C_4 
REMARK    4  A    between atoms: C_7  and  O_6 
REMARK    5  A    between atoms: C_9  and  C_10 
REMARK    6  A    between atoms: N_15  and  C_14 
REMARK    7  A    between atoms: N_20  and  C_19 
REMARK       I    between atoms: C_22  and  N_20 
ROOT
ATOM      1  C   LIG d   1      -8.446  74.606 117.437  0.00  0.00     0.161 C 
ATOM      2  C   LIG d   1      -8.352  73.283 116.974  0.00  0.00     0.016 C 
ATOM      3  C   LIG d   1      -9.113  72.216 117.505  0.00  0.00     0.038 C 
ATOM      4  C   LIG d   1     -10.138  72.430 118.438  0.00  0.00     0.028 C 
ATOM      5  C   LIG d   1      -9.924  73.670 119.300  0.00  0.00    -0.047 C 
ATOM      6  C   LIG d   1      -9.638  74.877 118.379  0.00  0.00     0.091 C 
ENDROOT
BRANCH   1   7
ATOM      7  O   LIG d   1      -8.474  75.514 116.319  0.00  0.00    -0.368 OA
BRANCH   7   8
ATOM      8  C   LIG d   1      -7.239  76.219 116.040  0.00  0.00     0.119 C 
BRANCH   8   9
ATOM      9  C   LIG d   1      -6.597  75.558 114.805  0.00  0.00     0.028 C 
ATOM     10  C   LIG d   1      -5.400  74.665 115.173  0.00  0.00     0.006 C 
ENDBRANCH   8   9
BRANCH   8  11
ATOM     11  C   LIG d   1      -6.224  76.035 117.172  0.00  0.00     0.028 C 
ATOM     12  C   LIG d   1      -5.980  77.327 117.969  0.00  0.00     0.006 C 
ENDBRANCH   8  11
ENDBRANCH   7   8
ENDBRANCH   1   7
BRANCH   6  13
ATOM     13  N   LIG d   1      -9.334  76.115 119.144  0.00  0.00    -0.311 N 
ATOM     14  C   LIG d   1     -10.027  77.245 119.017  0.00  0.00     0.210 C 
ATOM     15  C   LIG d   1      -9.534  78.407 119.884  0.00  0.00     0.109 C 
ATOM     16  O   LIG d   1     -11.024  77.385 118.292  0.00  0.00    -0.276 OA
ATOM     17  H   LIG d   1      -8.560  76.080 119.778  0.00  0.00     0.149 HD
ENDBRANCH   6  13
BRANCH   5  18
ATOM     18  N   LIG d   1     -11.130  73.849 120.131  0.00  0.00     0.381 N 
ATOM     19  H   LIG d   1     -11.800  74.406 119.640  0.00  0.00    -0.090 HD
ATOM     20  H   LIG d   1     -10.875  74.332 120.974  0.00  0.00    -0.090 HD
ATOM     21  H   LIG d   1     -11.525  72.962 120.354  0.00  0.00    -0.090 HD
ENDBRANCH   5  18
BRANCH   3  22
ATOM     22  C   LIG d   1      -8.825  70.913 117.130  0.00  0.00     0.382 C 
ATOM     23  O   LIG d   1      -8.016  70.693 116.196  0.00  0.00    -0.241 OA
ATOM     24  O   LIG d   1      -9.397  69.955 117.683  0.00  0.00    -0.241 OA
ENDBRANCH   3  22
TORSDOF 7
ENDMDL
MODEL 3
REMARK VINA RESULT:      -5.5      2.322      5.245
REMARK  7 active torsions:
REMARK  status: ('A' for Active; 'I' for Inactive)
REMARK    1  A    between atoms: C_2  and  C_3 
REMARK    2  A    between atoms: C_3  and  O_6 
REMARK    3  A    between atoms: C_3  and  C_4 
REMARK    4  A    between atoms: C_7  and  O_6 
REMARK    5  A    between atoms: C_9  and  C_10 
REMARK    6  A    between atoms: N_15  and  C_14 
REMARK    7  A    between atoms: N_20  and  C_19 
REMARK       I    between atoms: C_22  and  N_20 
ROOT
ATOM      1  C   LIG d   1     -10.581  76.497 118.146  0.00  0.00     0.161 C 
ATOM      2  C   LIG d   1     -11.653  76.184 118.998  0.00  0.00     0.016 C 
ATOM      3  C   LIG d   1     -12.100  74.863 119.232  0.00  0.00     0.038 C 
ATOM      4  C   LIG d   1     -11.405  73.747 118.744  0.00  0.00     0.028 C 
ATOM      5  C   LIG d   1     -10.618  74.034 117.469  0.00  0.00    -0.047 C 
ATOM      6  C   LIG d   1      -9.740  75.286 117.692  0.00  0.00     0.091 C 
ENDROOT
BRANCH   1   7
ATOM      7  O   LIG d   1      -9.738  77.489 118.765  0.00  0.00    -0.368 OA
BRANCH   7   8
ATOM      8  C   LIG d   1      -9.560  78.724 118.029  0.00  0.00     0.119 C 
BRANCH   8   9
ATOM      9  C   LIG d   1      -8.064  79.089 118.094  0.00  0.00     0.028 C 
ATOM     10  C   LIG d   1      -7.226  78.007 118.796  0.00  0.00     0.006 C 
ENDBRANCH   8   9
BRANCH   8  11
ATOM     11  C   LIG d   1     -10.291  79.887 118.705  0.00  0.00     0.028 C 
ATOM     12  C   LIG d   1     -10.454  81.105 117.783  0.00  0.00     0.006 C 
ENDBRANCH   8  11
ENDBRANCH   7   8
ENDBRANCH   1   7
BRANCH   6  13
ATOM     13  N   LIG d   1      -9.001  75.685 116.466  0.00  0.00    -0.311 N 
ATOM     14  C   LIG d   1      -7.739  75.334 116.223  0.00  0.00     0.210 C 
ATOM     15  C   LIG d   1      -7.160  75.869 114.910  0.00  0.00     0.109 C 
ATOM     16  O   LIG d   1      -7.055  74.603 116.956  0.00  0.00    -0.276 OA
ATOM     17  H   LIG d   1      -9.491  76.254 115.803  0.00  0.00     0.149 HD
ENDBRANCH   6  13
BRANCH   5  18
ATOM     18  N   LIG d   1      -9.833  72.826 117.149  0.00  0.00     0.381 N 
ATOM     19  H   LIG d   1      -8.860  73.006 117.297  0.00  0.00    -0.090 HD
ATOM     20  H   LIG d   1      -9.968  72.598 116.180  0.00  0.00    -0.090 HD
ATOM     21  H   LIG d   1     -10.128  72.066 117.721  0.00  0.00    -0.090 HD
ENDBRANCH   5  18
BRANCH   3  22
ATOM     22  C   LIG d   1     -13.280  74.651 119.929  0.00  0.00     0.382 C 
ATOM     23  O   LIG d   1     -13.332  73.767 120.819  0.00  0.00    -0.241 OA
ATOM     24  O   LIG d   1     -14.305  75.301 119.650  0.00  0.00    -0.241 OA
ENDBRANCH   3  22
TORSDOF 7
ENDMDL
MODEL 4
REMARK VINA RESULT:      -5.5      2.381      5.176
REMARK  7 active torsions:
REMARK  status: ('A' for Active; 'I' for Inactive)
REMARK    1  A    between atoms: C_2  and  C_3 
REMARK    2  A    between atoms: C_3  and  O_6 
REMARK    3  A    between atoms: C_3  and  C_4 
REMARK    4  A    between atoms: C_7  and  O_6 
REMARK    5  A    between atoms: C_9  and  C_10 
REMARK    6  A    between atoms: N_15  and  C_14 
REMARK    7  A    between atoms: N_20  and  C_19 
REMARK       I    between atoms: C_22  and  N_20 
ROOT
ATOM      1  C   LIG d   1      -9.872  76.236 118.153  0.00  0.00     0.161 C 
ATOM      2  C   LIG d   1     -10.564  77.219 118.880  0.00  0.00     0.016 C 
ATOM      3  C   LIG d   1     -10.027  78.495 119.169  0.00  0.00     0.038 C 
ATOM      4  C   LIG d   1      -8.814  78.931 118.617  0.00  0.00     0.028 C 
ATOM      5  C   LIG d   1      -7.851  77.793 118.295  0.00  0.00    -0.047 C 
ATOM      6  C   LIG d   1      -8.593  76.733 117.448  0.00  0.00     0.091 C 
ENDROOT
BRANCH   1   7
ATOM      7  O   LIG d   1     -10.760  75.617 117.201  0.00  0.00    -0.368 OA
BRANCH   7   8
ATOM      8  C   LIG d   1     -11.315  74.335 117.586  0.00  0.00     0.119 C 
BRANCH   8   9
ATOM      9  C   LIG d   1     -12.378  74.598 118.671  0.00  0.00     0.028 C 
ATOM     10  C   LIG d   1     -12.197  73.693 119.901  0.00  0.00     0.006 C 
ENDBRANCH   8   9
BRANCH   8  11
ATOM     11  C   LIG d   1     -10.260  73.451 118.258  0.00  0.00     0.028 C 
ATOM     12  C   LIG d   1      -9.565  72.499 117.273  0.00  0.00     0.006 C 
ENDBRANCH   8  11
ENDBRANCH   7   8
ENDBRANCH   1   7
BRANCH   6  13
ATOM     13  N   LIG d   1      -7.748  75.545 117.160  0.00  0.00    -0.311 N 
ATOM     14  C   LIG d   1      -7.074  75.383 116.023  0.00  0.00     0.210 C 
ATOM     15  C   LIG d   1      -6.280  74.077 115.922  0.00  0.00     0.109 C 
ATOM     16  O   LIG d   1      -7.033  76.212 115.101  0.00  0.00    -0.276 OA
ATOM     17  H   LIG d   1      -7.699  74.837 117.867  0.00  0.00     0.149 HD
ENDBRANCH   6  13
BRANCH   5  18
ATOM     18  N   LIG d   1      -6.687  78.376 117.601  0.00  0.00     0.381 N 
ATOM     19  H   LIG d   1      -6.998  78.946 116.839  0.00  0.00    -0.090 HD
ATOM     20  H   LIG d   1      -6.124  77.632 117.229  0.00  0.00    -0.090 HD
ATOM     21  H   LIG d   1      -6.150  78.924 118.237  0.00  0.00    -0.090 HD
ENDBRANCH   5  18
BRANCH   3  22
ATOM     22  C   LIG d   1     -10.689  79.335 120.051  0.00  0.00     0.382 C 
ATOM     23  O   LIG d   1     -10.643  80.578 119.888  0.00  0.00    -0.241 OA
ATOM     24  O   LIG d   1     -11.296  78.868 121.034  0.00  0.00    -0.241 OA
ENDBRANCH   3  22
TORSDOF 7
ENDMDL
MODEL 5
REMARK VINA RESULT:      -5.5     15.386     18.633
REMARK  7 active torsions:
REMARK  status: ('A' for Active; 'I' for Inactive)
REMARK    1  A    between atoms: C_2  and  C_3 
REMARK    2  A    between atoms: C_3  and  O_6 
REMARK    3  A    between atoms: C_3  and  C_4 
REMARK    4  A    between atoms: C_7  and  O_6 
REMARK    5  A    between atoms: C_9  and  C_10 
REMARK    6  A    between atoms: N_15  and  C_14 
REMARK    7  A    between atoms: N_20  and  C_19 
REMARK       I    between atoms: C_22  and  N_20 
ROOT
ATOM      1  C   LIG d   1      -5.558  92.376 117.566  0.00  0.00     0.161 C 
ATOM      2  C   LIG d   1      -6.581  91.455 117.283  0.00  0.00     0.016 C 
ATOM      3  C   LIG d   1      -6.343  90.096 116.977  0.00  0.00     0.038 C 
ATOM      4  C   LIG d   1      -5.065  89.526 117.081  0.00  0.00     0.028 C 
ATOM      5  C   LIG d   1      -3.936  90.528 116.870  0.00  0.00    -0.047 C 
ATOM      6  C   LIG d   1      -4.168  91.746 117.793  0.00  0.00     0.091 C 
ENDROOT
BRANCH   1   7
ATOM      7  O   LIG d   1      -5.931  93.189 118.696  0.00  0.00    -0.368 OA
BRANCH   7   8
ATOM      8  C   LIG d   1      -6.391  94.529 118.392  0.00  0.00     0.119 C 
BRANCH   8   9
ATOM      9  C   LIG d   1      -5.992  95.434 119.574  0.00  0.00     0.028 C 
ATOM     10  C   LIG d   1      -4.727  96.257 119.281  0.00  0.00     0.006 C 
ENDBRANCH   8   9
BRANCH   8  11
ATOM     11  C   LIG d   1      -7.920  94.592 118.332  0.00  0.00     0.028 C 
ATOM     12  C   LIG d   1      -8.555  94.983 119.676  0.00  0.00     0.006 C 
ENDBRANCH   8  11
ENDBRANCH   7   8
ENDBRANCH   1   7
BRANCH   6  13
ATOM     13  N   LIG d   1      -3.153  92.813 117.589  0.00  0.00    -0.311 N 
ATOM     14  C   LIG d   1      -2.444  93.350 118.581  0.00  0.00     0.210 C 
ATOM     15  C   LIG d   1      -1.466  94.449 118.155  0.00  0.00     0.109 C 
ATOM     16  O   LIG d   1      -2.509  92.997 119.768  0.00  0.00    -0.276 OA
ATOM     17  H   LIG d   1      -3.013  93.137 116.652  0.00  0.00     0.149 HD
ENDBRANCH   6  13
BRANCH   5  18
ATOM     18  N   LIG d   1      -2.665  89.831 117.142  0.00  0.00     0.381 N 
ATOM     19  H   LIG d   1      -2.078  89.867 116.332  0.00  0.00    -0.090 HD
ATOM     20  H   LIG d   1      -2.860  88.866 117.347  0.00  0.00    -0.090 HD
ATOM     21  H   LIG d   1      -2.201  90.255 117.915  0.00  0.00    -0.090 HD
ENDBRANCH   5  18
BRANCH   3  22
ATOM     22  C   LIG d   1      -7.384  89.301 116.522  0.00  0.00     0.382 C 
ATOM     23  O   LIG d   1      -7.877  88.424 117.272  0.00  0.00    -0.241 OA
ATOM     24  O   LIG d   1      -7.807  89.420 115.357  0.00  0.00    -0.241 OA
ENDBRANCH   3  22
TORSDOF 7
ENDMDL
MODEL 6
REMARK VINA RESULT:      -5.2      2.579      6.034
REMARK  7 active torsions:
REMARK  status: ('A' for Active; 'I' for Inactive)
REMARK    1  A    between atoms: C_2  and  C_3 
REMARK    2  A    between atoms: C_3  and  O_6 
REMARK    3  A    between atoms: C_3  and  C_4 
REMARK    4  A    between atoms: C_7  and  O_6 
REMARK    5  A    between atoms: C_9  and  C_10 
REMARK    6  A    between atoms: N_15  and  C_14 
REMARK    7  A    between atoms: N_20  and  C_19 
REMARK       I    between atoms: C_22  and  N_20 
ROOT
ATOM      1  C   LIG d   1      -9.621  77.049 118.208  0.00  0.00     0.161 C 
ATOM      2  C   LIG d   1      -8.876  78.188 117.861  0.00  0.00     0.016 C 
ATOM      3  C   LIG d   1      -8.923  79.400 118.588  0.00  0.00     0.038 C 
ATOM      4  C   LIG d   1      -9.607  79.506 119.808  0.00  0.00     0.028 C 
ATOM      5  C   LIG d   1     -10.779  78.538 119.931  0.00  0.00    -0.047 C 
ATOM      6  C   LIG d   1     -10.287  77.111 119.598  0.00  0.00     0.091 C 
ENDROOT
BRANCH   1   7
ATOM      7  O   LIG d   1      -8.794  75.873 118.101  0.00  0.00    -0.368 OA
BRANCH   7   8
ATOM      8  C   LIG d   1      -8.834  75.179 116.830  0.00  0.00     0.119 C 
BRANCH   8   9
ATOM      9  C   LIG d   1     -10.116  74.324 116.810  0.00  0.00     0.028 C 
ATOM     10  C   LIG d   1      -9.915  72.950 117.470  0.00  0.00     0.006 C 
ENDBRANCH   8   9
BRANCH   8  11
ATOM     11  C   LIG d   1      -7.679  74.181 116.703  0.00  0.00     0.028 C 
ATOM     12  C   LIG d   1      -6.543  74.696 115.806  0.00  0.00     0.006 C 
ENDBRANCH   8  11
ENDBRANCH   7   8
ENDBRANCH   1   7
BRANCH   6  13
ATOM     13  N   LIG d   1     -11.389  76.113 119.614  0.00  0.00    -0.311 N 
ATOM     14  C   LIG d   1     -11.318  74.953 120.263  0.00  0.00     0.210 C 
ATOM     15  C   LIG d   1     -12.558  74.062 120.132  0.00  0.00     0.109 C 
ATOM     16  O   LIG d   1     -10.360  74.590 120.961  0.00  0.00    -0.276 OA
ATOM     17  H   LIG d   1     -12.217  76.341 119.098  0.00  0.00     0.149 HD
ENDBRANCH   6  13
BRANCH   5  18
ATOM     18  N   LIG d   1     -11.315  78.660 121.300  0.00  0.00     0.381 N 
ATOM     19  H   LIG d   1     -11.950  77.908 121.484  0.00  0.00    -0.090 HD
ATOM     20  H   LIG d   1     -11.821  79.525 121.375  0.00  0.00    -0.090 HD
ATOM     21  H   LIG d   1     -10.570  78.643 121.961  0.00  0.00    -0.090 HD
ENDBRANCH   5  18
BRANCH   3  22
ATOM     22  C   LIG d   1      -8.312  80.533 118.074  0.00  0.00     0.382 C 
ATOM     23  O   LIG d   1      -8.889  81.211 117.190  0.00  0.00    -0.241 OA
ATOM     24  O   LIG d   1      -7.171  80.863 118.452  0.00  0.00    -0.241 OA
ENDBRANCH   3  22
TORSDOF 7
ENDMDL
MODEL 7
REMARK VINA RESULT:      -5.0     15.228     17.525
REMARK  7 active torsions:
REMARK  status: ('A' for Active; 'I' for Inactive)
REMARK    1  A    between atoms: C_2  and  C_3 
REMARK    2  A    between atoms: C_3  and  O_6 
REMARK    3  A    between atoms: C_3  and  C_4 
REMARK    4  A    between atoms: C_7  and  O_6 
REMARK    5  A    between atoms: C_9  and  C_10 
REMARK    6  A    between atoms: N_15  and  C_14 
REMARK    7  A    between atoms: N_20  and  C_19 
REMARK       I    between atoms: C_22  and  N_20 
ROOT
ATOM      1  C   LIG d   1      -4.434  90.275 117.827  0.00  0.00     0.161 C 
ATOM      2  C   LIG d   1      -5.460  89.832 116.975  0.00  0.00     0.016 C 
ATOM      3  C   LIG d   1      -6.489  90.674 116.493  0.00  0.00     0.038 C 
ATOM      4  C   LIG d   1      -6.476  92.060 116.711  0.00  0.00     0.028 C 
ATOM      5  C   LIG d   1      -5.739  92.466 117.983  0.00  0.00    -0.047 C 
ATOM      6  C   LIG d   1      -4.341  91.807 117.985  0.00  0.00     0.091 C 
ENDROOT
BRANCH   1   7
ATOM      7  O   LIG d   1      -3.170  89.739 117.389  0.00  0.00    -0.368 OA
BRANCH   7   8
ATOM      8  C   LIG d   1      -2.803  88.447 117.932  0.00  0.00     0.119 C 
BRANCH   8   9
ATOM      9  C   LIG d   1      -3.101  88.478 119.444  0.00  0.00     0.028 C 
ATOM     10  C   LIG d   1      -2.902  87.106 120.110  0.00  0.00     0.006 C 
ENDBRANCH   8   9
BRANCH   8  11
ATOM     11  C   LIG d   1      -1.295  88.203 117.820  0.00  0.00     0.028 C 
ATOM     12  C   LIG d   1      -0.515  89.467 117.428  0.00  0.00     0.006 C 
ENDBRANCH   8  11
ENDBRANCH   7   8
ENDBRANCH   1   7
BRANCH   6  13
ATOM     13  N   LIG d   1      -3.586  92.085 119.235  0.00  0.00    -0.311 N 
ATOM     14  C   LIG d   1      -2.352  92.587 119.249  0.00  0.00     0.210 C 
ATOM     15  C   LIG d   1      -1.748  92.778 120.644  0.00  0.00     0.109 C 
ATOM     16  O   LIG d   1      -1.714  92.923 118.241  0.00  0.00    -0.276 OA
ATOM     17  H   LIG d   1      -4.041  91.871 120.100  0.00  0.00     0.149 HD
ENDBRANCH   6  13
BRANCH   5  18
ATOM     18  N   LIG d   1      -5.684  93.940 118.014  0.00  0.00     0.381 N 
ATOM     19  H   LIG d   1      -6.602  94.310 118.160  0.00  0.00    -0.090 HD
ATOM     20  H   LIG d   1      -5.347  94.271 117.128  0.00  0.00    -0.090 HD
ATOM     21  H   LIG d   1      -5.076  94.243 118.743  0.00  0.00    -0.090 HD
ENDBRANCH   5  18
BRANCH   3  22
ATOM     22  C   LIG d   1      -7.567  90.123 115.818  0.00  0.00     0.382 C 
ATOM     23  O   LIG d   1      -8.359  90.866 115.190  0.00  0.00    -0.241 OA
ATOM     24  O   LIG d   1      -7.783  88.897 115.865  0.00  0.00    -0.241 OA
ENDBRANCH   3  22
TORSDOF 7
ENDMDL
MODEL 8
REMARK VINA RESULT:      -4.9      1.912      2.972
REMARK  7 active torsions:
REMARK  status: ('A' for Active; 'I' for Inactive)
REMARK    1  A    between atoms: C_2  and  C_3 
REMARK    2  A    between atoms: C_3  and  O_6 
REMARK    3  A    between atoms: C_3  and  C_4 
REMARK    4  A    between atoms: C_7  and  O_6 
REMARK    5  A    between atoms: C_9  and  C_10 
REMARK    6  A    between atoms: N_15  and  C_14 
REMARK    7  A    between atoms: N_20  and  C_19 
REMARK       I    between atoms: C_22  and  N_20 
ROOT
ATOM      1  C   LIG d   1      -9.085  76.054 116.865  0.00  0.00     0.161 C 
ATOM      2  C   LIG d   1      -8.272  75.081 116.260  0.00  0.00     0.016 C 
ATOM      3  C   LIG d   1      -6.866  75.041 116.407  0.00  0.00     0.038 C 
ATOM      4  C   LIG d   1      -6.189  75.889 117.296  0.00  0.00     0.028 C 
ATOM      5  C   LIG d   1      -6.909  77.211 117.540  0.00  0.00    -0.047 C 
ATOM      6  C   LIG d   1      -8.376  76.919 117.928  0.00  0.00     0.091 C 
ENDROOT
BRANCH   1   7
ATOM      7  O   LIG d   1     -10.257  75.431 117.426  0.00  0.00    -0.368 OA
BRANCH   7   8
ATOM      8  C   LIG d   1     -10.025  74.486 118.499  0.00  0.00     0.119 C 
BRANCH   8   9
ATOM      9  C   LIG d   1     -10.444  73.094 117.988  0.00  0.00     0.028 C 
ATOM     10  C   LIG d   1      -9.265  72.106 117.941  0.00  0.00     0.006 C 
ENDBRANCH   8   9
BRANCH   8  11
ATOM     11  C   LIG d   1     -10.935  74.769 119.698  0.00  0.00     0.028 C 
ATOM     12  C   LIG d   1     -12.010  73.689 119.897  0.00  0.00     0.006 C 
ENDBRANCH   8  11
ENDBRANCH   7   8
ENDBRANCH   1   7
BRANCH   6  13
ATOM     13  N   LIG d   1      -9.174  78.161 118.101  0.00  0.00    -0.311 N 
ATOM     14  C   LIG d   1      -9.682  78.549 119.270  0.00  0.00     0.210 C 
ATOM     15  C   LIG d   1     -10.490  79.850 119.224  0.00  0.00     0.109 C 
ATOM     16  O   LIG d   1      -9.514  77.955 120.346  0.00  0.00    -0.276 OA
ATOM     17  H   LIG d   1      -9.333  78.719 117.285  0.00  0.00     0.149 HD
ENDBRANCH   6  13
BRANCH   5  18
ATOM     18  N   LIG d   1      -6.166  77.936 118.588  0.00  0.00     0.381 N 
ATOM     19  H   LIG d   1      -5.444  78.489 118.171  0.00  0.00    -0.090 HD
ATOM     20  H   LIG d   1      -5.736  77.268 119.203  0.00  0.00    -0.090 HD
ATOM     21  H   LIG d   1      -6.787  78.521 119.103  0.00  0.00    -0.090 HD
ENDBRANCH   5  18
BRANCH   3  22
ATOM     22  C   LIG d   1      -6.118  74.172 115.627  0.00  0.00     0.382 C 
ATOM     23  O   LIG d   1      -6.238  72.932 115.779  0.00  0.00    -0.241 OA
ATOM     24  O   LIG d   1      -5.292  74.612 114.805  0.00  0.00    -0.241 OA
ENDBRANCH   3  22
TORSDOF 7
ENDMDL
MODEL 9
REMARK VINA RESULT:      -4.9      2.815      4.681
REMARK  7 active torsions:
REMARK  status: ('A' for Active; 'I' for Inactive)
REMARK    1  A    between atoms: C_2  and  C_3 
REMARK    2  A    between atoms: C_3  and  O_6 
REMARK    3  A    between atoms: C_3  and  C_4 
REMARK    4  A    between atoms: C_7  and  O_6 
REMARK    5  A    between atoms: C_9  and  C_10 
REMARK    6  A    between atoms: N_15  and  C_14 
REMARK    7  A    between atoms: N_20  and  C_19 
REMARK       I    between atoms: C_22  and  N_20 
ROOT
ATOM      1  C   LIG d   1      -9.608  76.694 118.472  0.00  0.00     0.161 C 
ATOM      2  C   LIG d   1      -8.375  76.946 117.847  0.00  0.00     0.016 C 
ATOM      3  C   LIG d   1      -7.692  75.991 117.059  0.00  0.00     0.038 C 
ATOM      4  C   LIG d   1      -8.274  74.761 116.715  0.00  0.00     0.028 C 
ATOM      5  C   LIG d   1      -9.293  74.267 117.736  0.00  0.00    -0.047 C 
ATOM      6  C   LIG d   1     -10.310  75.397 118.017  0.00  0.00     0.091 C 
ENDROOT
BRANCH   1   7
ATOM      7  O   LIG d   1     -10.484  77.825 118.298  0.00  0.00    -0.368 OA
BRANCH   7   8
ATOM      8  C   LIG d   1     -10.731  78.627 119.480  0.00  0.00     0.119 C 
BRANCH   8   9
ATOM      9  C   LIG d   1      -9.968  79.955 119.306  0.00  0.00     0.028 C 
ATOM     10  C   LIG d   1     -10.209  80.594 117.928  0.00  0.00     0.006 C 
ENDBRANCH   8   9
BRANCH   8  11
ATOM     11  C   LIG d   1     -10.132  77.976 120.730  0.00  0.00     0.028 C 
ATOM     12  C   LIG d   1      -9.135  78.891 121.458  0.00  0.00     0.006 C 
ENDBRANCH   8  11
ENDBRANCH   7   8
ENDBRANCH   1   7
BRANCH   6  13
ATOM     13  N   LIG d   1     -11.293  75.026 119.068  0.00  0.00    -0.311 N 
ATOM     14  C   LIG d   1     -12.594  75.299 118.984  0.00  0.00     0.210 C 
ATOM     15  C   LIG d   1     -13.429  74.847 120.186  0.00  0.00     0.109 C 
ATOM     16  O   LIG d   1     -13.141  75.845 118.014  0.00  0.00    -0.276 OA
ATOM     17  H   LIG d   1     -10.940  74.552 119.877  0.00  0.00     0.149 HD
ENDBRANCH   6  13
BRANCH   5  18
ATOM     18  N   LIG d   1      -9.919  73.050 117.187  0.00  0.00     0.381 N 
ATOM     19  H   LIG d   1     -10.665  73.301 116.570  0.00  0.00    -0.090 HD
ATOM     20  H   LIG d   1     -10.304  72.512 117.944  0.00  0.00    -0.090 HD
ATOM     21  H   LIG d   1      -9.241  72.509 116.697  0.00  0.00    -0.090 HD
ENDBRANCH   5  18
BRANCH   3  22
ATOM     22  C   LIG d   1      -6.396  76.247 116.638  0.00  0.00     0.382 C 
ATOM     23  O   LIG d   1      -5.709  75.329 116.130  0.00  0.00    -0.241 OA
ATOM     24  O   LIG d   1      -5.890  77.374 116.802  0.00  0.00    -0.241 OA
ENDBRANCH   3  22
TORSDOF 7
ENDMDL
