MODEL 1
REMARK VINA RESULT:      -5.6      0.000      0.000
REMARK  7 active torsions:
REMARK  status: ('A' for Active; 'I' for Inactive)
REMARK    1  A    between atoms: C_2  and  C_3 
REMARK    2  A    between atoms: C_3  and  O_6 
REMARK    3  A    between atoms: C_3  and  C_4 
REMARK    4  A    between atoms: C_7  and  O_6 
REMARK    5  A    between atoms: C_9  and  C_10 
REMARK    6  A    between atoms: N_15  and  C_14 
REMARK    7  A    between atoms: N_20  and  C_19 
REMARK       I    between atoms: C_22  and  N_20 
ROOT
ATOM      1  C   LIG d   1      -7.864  74.902 117.727  0.00  0.00     0.161 C 
ATOM      2  C   LIG d   1      -9.168  75.287 118.082  0.00  0.00     0.016 C 
ATOM      3  C   LIG d   1      -9.581  76.635 118.181  0.00  0.00     0.038 C 
ATOM      4  C   LIG d   1      -8.754  77.696 117.782  0.00  0.00     0.028 C 
ATOM      5  C   LIG d   1      -7.267  77.381 117.899  0.00  0.00    -0.047 C 
ATOM      6  C   LIG d   1      -6.979  76.042 117.181  0.00  0.00     0.091 C 
ENDROOT
BRANCH   1   7
ATOM      7  O   LIG d   1      -7.916  73.813 116.785  0.00  0.00    -0.368 OA
BRANCH   7   8
ATOM      8  C   LIG d   1      -8.020  72.484 117.352  0.00  0.00     0.119 C 
BRANCH   8   9
ATOM      9  C   LIG d   1      -6.736  71.718 116.978  0.00  0.00     0.028 C 
ATOM     10  C   LIG d   1      -6.170  72.153 115.616  0.00  0.00     0.006 C 
ENDBRANCH   8   9
BRANCH   8  11
ATOM     11  C   LIG d   1      -9.165  71.693 116.712  0.00  0.00     0.028 C 
ATOM     12  C   LIG d   1      -9.210  70.228 117.176  0.00  0.00     0.006 C 
ENDBRANCH   8  11
ENDBRANCH   7   8
ENDBRANCH   1   7
BRANCH   6  13
ATOM     13  N   LIG d   1      -5.562  75.618 117.319  0.00  0.00    -0.311 N 
ATOM     14  C   LIG d   1      -4.626  75.879 116.408  0.00  0.00     0.210 C 
ATOM     15  C   LIG d   1      -3.233  75.333 116.738  0.00  0.00     0.109 C 
ATOM     16  O   LIG d   1      -4.810  76.538 115.374  0.00  0.00    -0.276 OA
ATOM     17  H   LIG d   1      -5.318  75.104 118.143  0.00  0.00     0.149 HD
ENDBRANCH   6  13
BRANCH   5  18
ATOM     18  N   LIG d   1      -6.524  78.517 117.323  0.00  0.00     0.381 N 
ATOM     19  H   LIG d   1      -6.760  78.621 116.356  0.00  0.00    -0.090 HD
ATOM     20  H   LIG d   1      -5.539  78.329 117.389  0.00  0.00    -0.090 HD
ATOM     21  H   LIG d   1      -6.743  79.354 117.817  0.00  0.00    -0.090 HD
ENDBRANCH   5  18
BRANCH   3  22
ATOM     22  C   LIG d   1     -10.822  76.935 118.722  0.00  0.00     0.382 C 
ATOM     23  O   LIG d   1     -11.833  76.988 117.980  0.00  0.00    -0.241 OA
ATOM     24  O   LIG d   1     -10.937  77.197 119.934  0.00  0.00    -0.241 OA
ENDBRANCH   3  22
TORSDOF 7
ENDMDL
MODEL 2
REMARK VINA RESULT:      -5.4     15.424     18.089
REMARK  7 active torsions:
REMARK  status: ('A' for Active; 'I' for Inactive)
REMARK    1  A    between atoms: C_2  and  C_3 
REMARK    2  A    between atoms: C_3  and  O_6 
REMARK    3  A    between atoms: C_3  and  C_4 
REMARK    4  A    between atoms: C_7  and  O_6 
REMARK    5  A    between atoms: C_9  and  C_10 
REMARK    6  A    between atoms: N_15  and  C_14 
REMARK    7  A    between atoms: N_20  and  C_19 
REMARK       I    between atoms: C_22  and  N_20 
ROOT
ATOM      1  C   LIG d   1      -5.707  92.572 118.268  0.00  0.00     0.161 C 
ATOM      2  C   LIG d   1      -6.649  91.750 117.628  0.00  0.00     0.016 C 
ATOM      3  C   LIG d   1      -6.296  90.635 116.832  0.00  0.00     0.038 C 
ATOM      4  C   LIG d   1      -4.974  90.175 116.746  0.00  0.00     0.028 C 
ATOM      5  C   LIG d   1      -3.935  91.270 116.965  0.00  0.00    -0.047 C 
ATOM      6  C   LIG d   1      -4.266  92.020 118.276  0.00  0.00     0.091 C 
ENDROOT
BRANCH   1   7
ATOM      7  O   LIG d   1      -6.141  92.858 119.612  0.00  0.00    -0.368 OA
BRANCH   7   8
ATOM      8  C   LIG d   1      -6.868  94.098 119.796  0.00  0.00     0.119 C 
BRANCH   8   9
ATOM      9  C   LIG d   1      -5.833  95.237 119.861  0.00  0.00     0.028 C 
ATOM     10  C   LIG d   1      -6.259  96.465 119.039  0.00  0.00     0.006 C 
ENDBRANCH   8   9
BRANCH   8  11
ATOM     11  C   LIG d   1      -7.587  94.126 121.149  0.00  0.00     0.028 C 
ATOM     12  C   LIG d   1      -9.105  93.926 121.021  0.00  0.00     0.006 C 
ENDBRANCH   8  11
ENDBRANCH   7   8
ENDBRANCH   1   7
BRANCH   6  13
ATOM     13  N   LIG d   1      -3.348  93.163 118.522  0.00  0.00    -0.311 N 
ATOM     14  C   LIG d   1      -2.252  93.074 119.274  0.00  0.00     0.210 C 
ATOM     15  C   LIG d   1      -1.457  94.376 119.414  0.00  0.00     0.109 C 
ATOM     16  O   LIG d   1      -1.845  92.032 119.811  0.00  0.00    -0.276 OA
ATOM     17  H   LIG d   1      -3.586  94.038 118.098  0.00  0.00     0.149 HD
ENDBRANCH   6  13
BRANCH   5  18
ATOM     18  N   LIG d   1      -2.608  90.628 116.985  0.00  0.00     0.381 N 
ATOM     19  H   LIG d   1      -2.628  89.826 117.582  0.00  0.00    -0.090 HD
ATOM     20  H   LIG d   1      -1.937  91.280 117.355  0.00  0.00    -0.090 HD
ATOM     21  H   LIG d   1      -2.345  90.358 116.063  0.00  0.00    -0.090 HD
ENDBRANCH   5  18
BRANCH   3  22
ATOM     22  C   LIG d   1      -7.267  89.992 116.081  0.00  0.00     0.382 C 
ATOM     23  O   LIG d   1      -7.416  90.281 114.869  0.00  0.00    -0.241 OA
ATOM     24  O   LIG d   1      -8.027  89.159 116.610  0.00  0.00    -0.241 OA
ENDBRANCH   3  22
TORSDOF 7
ENDMDL
MODEL 3
REMARK VINA RESULT:      -5.2     15.577     17.412
REMARK  7 active torsions:
REMARK  status: ('A' for Active; 'I' for Inactive)
REMARK    1  A    between atoms: C_2  and  C_3 
REMARK    2  A    between atoms: C_3  and  O_6 
REMARK    3  A    between atoms: C_3  and  C_4 
REMARK    4  A    between atoms: C_7  and  O_6 
REMARK    5  A    between atoms: C_9  and  C_10 
REMARK    6  A    between atoms: N_15  and  C_14 
REMARK    7  A    between atoms: N_20  and  C_19 
REMARK       I    between atoms: C_22  and  N_20 
ROOT
ATOM      1  C   LIG d   1      -4.169  91.780 118.224  0.00  0.00     0.161 C 
ATOM      2  C   LIG d   1      -5.448  92.362 118.208  0.00  0.00     0.016 C 
ATOM      3  C   LIG d   1      -6.463  91.985 117.299  0.00  0.00     0.038 C 
ATOM      4  C   LIG d   1      -6.317  90.887 116.438  0.00  0.00     0.028 C 
ATOM      5  C   LIG d   1      -4.866  90.595 116.070  0.00  0.00    -0.047 C 
ATOM      6  C   LIG d   1      -4.028  90.505 117.366  0.00  0.00     0.091 C 
ENDROOT
BRANCH   1   7
ATOM      7  O   LIG d   1      -3.770  91.516 119.583  0.00  0.00    -0.368 OA
BRANCH   7   8
ATOM      8  C   LIG d   1      -2.693  92.335 120.102  0.00  0.00     0.119 C 
BRANCH   8   9
ATOM      9  C   LIG d   1      -3.302  93.296 121.141  0.00  0.00     0.028 C 
ATOM     10  C   LIG d   1      -3.560  94.698 120.563  0.00  0.00     0.006 C 
ENDBRANCH   8   9
BRANCH   8  11
ATOM     11  C   LIG d   1      -2.103  93.236 119.013  0.00  0.00     0.028 C 
ATOM     12  C   LIG d   1      -0.619  92.947 118.740  0.00  0.00     0.006 C 
ENDBRANCH   8  11
ENDBRANCH   7   8
ENDBRANCH   1   7
BRANCH   6  13
ATOM     13  N   LIG d   1      -2.581  90.305 117.093  0.00  0.00    -0.311 N 
ATOM     14  C   LIG d   1      -1.823  89.434 117.757  0.00  0.00     0.210 C 
ATOM     15  C   LIG d   1      -0.352  89.400 117.330  0.00  0.00     0.109 C 
ATOM     16  O   LIG d   1      -2.236  88.664 118.636  0.00  0.00    -0.276 OA
ATOM     17  H   LIG d   1      -2.170  90.868 116.373  0.00  0.00     0.149 HD
ENDBRANCH   6  13
BRANCH   5  18
ATOM     18  N   LIG d   1      -4.848  89.348 115.283  0.00  0.00     0.381 N 
ATOM     19  H   LIG d   1      -4.917  88.560 115.895  0.00  0.00    -0.090 HD
ATOM     20  H   LIG d   1      -3.975  89.288 114.789  0.00  0.00    -0.090 HD
ATOM     21  H   LIG d   1      -5.606  89.342 114.636  0.00  0.00    -0.090 HD
ENDBRANCH   5  18
BRANCH   3  22
ATOM     22  C   LIG d   1      -7.626  92.735 117.218  0.00  0.00     0.382 C 
ATOM     23  O   LIG d   1      -8.019  93.165 116.107  0.00  0.00    -0.241 OA
ATOM     24  O   LIG d   1      -8.264  93.024 118.248  0.00  0.00    -0.241 OA
ENDBRANCH   3  22
TORSDOF 7
ENDMDL
MODEL 4
REMARK VINA RESULT:      -5.1     14.744     17.189
REMARK  7 active torsions:
REMARK  status: ('A' for Active; 'I' for Inactive)
REMARK    1  A    between atoms: C_2  and  C_3 
REMARK    2  A    between atoms: C_3  and  O_6 
REMARK    3  A    between atoms: C_3  and  C_4 
REMARK    4  A    between atoms: C_7  and  O_6 
REMARK    5  A    between atoms: C_9  and  C_10 
REMARK    6  A    between atoms: N_15  and  C_14 
REMARK    7  A    between atoms: N_20  and  C_19 
REMARK       I    between atoms: C_22  and  N_20 
ROOT
ATOM      1  C   LIG d   1      -3.893  91.747 117.402  0.00  0.00     0.161 C 
ATOM      2  C   LIG d   1      -3.227  92.463 118.411  0.00  0.00     0.016 C 
ATOM      3  C   LIG d   1      -3.894  93.117 119.472  0.00  0.00     0.038 C 
ATOM      4  C   LIG d   1      -5.273  92.970 119.682  0.00  0.00     0.028 C 
ATOM      5  C   LIG d   1      -6.053  92.673 118.406  0.00  0.00    -0.047 C 
ATOM      6  C   LIG d   1      -5.388  91.483 117.677  0.00  0.00     0.091 C 
ENDROOT
BRANCH   1   7
ATOM      7  O   LIG d   1      -3.204  90.507 117.147  0.00  0.00    -0.368 OA
BRANCH   7   8
ATOM      8  C   LIG d   1      -2.390  89.996 118.231  0.00  0.00     0.119 C 
BRANCH   8   9
ATOM      9  C   LIG d   1      -1.052  89.528 117.625  0.00  0.00     0.028 C 
ATOM     10  C   LIG d   1      -0.098  90.698 117.334  0.00  0.00     0.006 C 
ENDBRANCH   8   9
BRANCH   8  11
ATOM     11  C   LIG d   1      -3.013  88.743 118.853  0.00  0.00     0.028 C 
ATOM     12  C   LIG d   1      -1.975  87.655 119.171  0.00  0.00     0.006 C 
ENDBRANCH   8  11
ENDBRANCH   7   8
ENDBRANCH   1   7
BRANCH   6  13
ATOM     13  N   LIG d   1      -6.038  91.180 116.375  0.00  0.00    -0.311 N 
ATOM     14  C   LIG d   1      -7.033  90.306 116.238  0.00  0.00     0.210 C 
ATOM     15  C   LIG d   1      -7.546  90.129 114.806  0.00  0.00     0.109 C 
ATOM     16  O   LIG d   1      -7.561  89.683 117.172  0.00  0.00    -0.276 OA
ATOM     17  H   LIG d   1      -5.692  91.664 115.570  0.00  0.00     0.149 HD
ENDBRANCH   6  13
BRANCH   5  18
ATOM     18  N   LIG d   1      -7.452  92.408 118.789  0.00  0.00     0.381 N 
ATOM     19  H   LIG d   1      -7.522  91.504 119.213  0.00  0.00    -0.090 HD
ATOM     20  H   LIG d   1      -8.022  92.413 117.962  0.00  0.00    -0.090 HD
ATOM     21  H   LIG d   1      -7.770  93.106 119.425  0.00  0.00    -0.090 HD
ENDBRANCH   5  18
BRANCH   3  22
ATOM     22  C   LIG d   1      -3.186  93.960 120.314  0.00  0.00     0.382 C 
ATOM     23  O   LIG d   1      -2.258  93.503 121.024  0.00  0.00    -0.241 OA
ATOM     24  O   LIG d   1      -3.492  95.164 120.405  0.00  0.00    -0.241 OA
ENDBRANCH   3  22
TORSDOF 7
ENDMDL
MODEL 5
REMARK VINA RESULT:      -5.0      2.211      5.350
REMARK  7 active torsions:
REMARK  status: ('A' for Active; 'I' for Inactive)
REMARK    1  A    between atoms: C_2  and  C_3 
REMARK    2  A    between atoms: C_3  and  O_6 
REMARK    3  A    between atoms: C_3  and  C_4 
REMARK    4  A    between atoms: C_7  and  O_6 
REMARK    5  A    between atoms: C_9  and  C_10 
REMARK    6  A    between atoms: N_15  and  C_14 
REMARK    7  A    between atoms: N_20  and  C_19 
REMARK       I    between atoms: C_22  and  N_20 
ROOT
ATOM      1  C   LIG d   1      -5.997  75.239 117.741  0.00  0.00     0.161 C 
ATOM      2  C   LIG d   1      -4.737  74.705 117.421  0.00  0.00     0.016 C 
ATOM      3  C   LIG d   1      -3.517  75.304 117.809  0.00  0.00     0.038 C 
ATOM      4  C   LIG d   1      -3.474  76.404 118.679  0.00  0.00     0.028 C 
ATOM      5  C   LIG d   1      -4.724  77.275 118.616  0.00  0.00    -0.047 C 
ATOM      6  C   LIG d   1      -5.971  76.376 118.784  0.00  0.00     0.091 C 
ENDROOT
BRANCH   1   7
ATOM      7  O   LIG d   1      -6.879  74.184 118.173  0.00  0.00    -0.368 OA
BRANCH   7   8
ATOM      8  C   LIG d   1      -7.808  73.684 117.180  0.00  0.00     0.119 C 
BRANCH   8   9
ATOM      9  C   LIG d   1      -9.227  73.810 117.769  0.00  0.00     0.028 C 
ATOM     10  C   LIG d   1      -9.853  75.189 117.502  0.00  0.00     0.006 C 
ENDBRANCH   8   9
BRANCH   8  11
ATOM     11  C   LIG d   1      -7.604  72.187 116.930  0.00  0.00     0.028 C 
ATOM     12  C   LIG d   1      -8.919  71.448 116.634  0.00  0.00     0.006 C 
ENDBRANCH   8  11
ENDBRANCH   7   8
ENDBRANCH   1   7
BRANCH   6  13
ATOM     13  N   LIG d   1      -7.240  77.137 118.650  0.00  0.00    -0.311 N 
ATOM     14  C   LIG d   1      -7.874  77.692 119.682  0.00  0.00     0.210 C 
ATOM     15  C   LIG d   1      -9.177  78.415 119.327  0.00  0.00     0.109 C 
ATOM     16  O   LIG d   1      -7.465  77.682 120.852  0.00  0.00    -0.276 OA
ATOM     17  H   LIG d   1      -7.627  77.222 117.731  0.00  0.00     0.149 HD
ENDBRANCH   6  13
BRANCH   5  18
ATOM     18  N   LIG d   1      -4.605  78.301 119.668  0.00  0.00     0.381 N 
ATOM     19  H   LIG d   1      -5.499  78.460 120.089  0.00  0.00    -0.090 HD
ATOM     20  H   LIG d   1      -4.297  79.161 119.250  0.00  0.00    -0.090 HD
ATOM     21  H   LIG d   1      -3.952  78.007 120.360  0.00  0.00    -0.090 HD
ENDBRANCH   5  18
BRANCH   3  22
ATOM     22  C   LIG d   1      -2.322  74.826 117.292  0.00  0.00     0.382 C 
ATOM     23  O   LIG d   1      -1.587  74.089 117.993  0.00  0.00    -0.241 OA
ATOM     24  O   LIG d   1      -1.949  75.158 116.151  0.00  0.00    -0.241 OA
ENDBRANCH   3  22
TORSDOF 7
ENDMDL
MODEL 6
REMARK VINA RESULT:      -5.0      1.725      2.189
REMARK  7 active torsions:
REMARK  status: ('A' for Active; 'I' for Inactive)
REMARK    1  A    between atoms: C_2  and  C_3 
REMARK    2  A    between atoms: C_3  and  O_6 
REMARK    3  A    between atoms: C_3  and  C_4 
REMARK    4  A    between atoms: C_7  and  O_6 
REMARK    5  A    between atoms: C_9  and  C_10 
REMARK    6  A    between atoms: N_15  and  C_14 
REMARK    7  A    between atoms: N_20  and  C_19 
REMARK       I    between atoms: C_22  and  N_20 
ROOT
ATOM      1  C   LIG d   1      -7.192  76.645 117.936  0.00  0.00     0.161 C 
ATOM      2  C   LIG d   1      -8.557  76.920 118.122  0.00  0.00     0.016 C 
ATOM      3  C   LIG d   1      -9.090  78.229 118.157  0.00  0.00     0.038 C 
ATOM      4  C   LIG d   1      -8.310  79.355 117.854  0.00  0.00     0.028 C 
ATOM      5  C   LIG d   1      -6.828  79.165 118.158  0.00  0.00    -0.047 C 
ATOM      6  C   LIG d   1      -6.344  77.856 117.494  0.00  0.00     0.091 C 
ENDROOT
BRANCH   1   7
ATOM      7  O   LIG d   1      -7.035  75.557 117.005  0.00  0.00    -0.368 OA
BRANCH   7   8
ATOM      8  C   LIG d   1      -6.408  74.358 117.525  0.00  0.00     0.119 C 
BRANCH   8   9
ATOM      9  C   LIG d   1      -5.127  74.113 116.705  0.00  0.00     0.028 C 
ATOM     10  C   LIG d   1      -5.145  74.849 115.354  0.00  0.00     0.006 C 
ENDBRANCH   8   9
BRANCH   8  11
ATOM     11  C   LIG d   1      -7.284  73.124 117.289  0.00  0.00     0.028 C 
ATOM     12  C   LIG d   1      -6.469  71.823 117.204  0.00  0.00     0.006 C 
ENDBRANCH   8  11
ENDBRANCH   7   8
ENDBRANCH   1   7
BRANCH   6  13
ATOM     13  N   LIG d   1      -4.925  77.550 117.812  0.00  0.00    -0.311 N 
ATOM     14  C   LIG d   1      -3.903  77.934 117.047  0.00  0.00     0.210 C 
ATOM     15  C   LIG d   1      -2.522  77.497 117.547  0.00  0.00     0.109 C 
ATOM     16  O   LIG d   1      -4.007  78.621 116.020  0.00  0.00    -0.276 OA
ATOM     17  H   LIG d   1      -4.747  77.023 118.644  0.00  0.00     0.149 HD
ENDBRANCH   6  13
BRANCH   5  18
ATOM     18  N   LIG d   1      -6.116  80.360 117.669  0.00  0.00     0.381 N 
ATOM     19  H   LIG d   1      -6.776  81.061 117.397  0.00  0.00    -0.090 HD
ATOM     20  H   LIG d   1      -5.574  80.107 116.861  0.00  0.00    -0.090 HD
ATOM     21  H   LIG d   1      -5.517  80.716 118.381  0.00  0.00    -0.090 HD
ENDBRANCH   5  18
BRANCH   3  22
ATOM     22  C   LIG d   1     -10.410  78.424 118.536  0.00  0.00     0.382 C 
ATOM     23  O   LIG d   1     -11.275  77.557 118.265  0.00  0.00    -0.241 OA
ATOM     24  O   LIG d   1     -10.754  79.476 119.106  0.00  0.00    -0.241 OA
ENDBRANCH   3  22
TORSDOF 7
ENDMDL
MODEL 7
REMARK VINA RESULT:      -4.9      2.071      5.039
REMARK  7 active torsions:
REMARK  status: ('A' for Active; 'I' for Inactive)
REMARK    1  A    between atoms: C_2  and  C_3 
REMARK    2  A    between atoms: C_3  and  O_6 
REMARK    3  A    between atoms: C_3  and  C_4 
REMARK    4  A    between atoms: C_7  and  O_6 
REMARK    5  A    between atoms: C_9  and  C_10 
REMARK    6  A    between atoms: N_15  and  C_14 
REMARK    7  A    between atoms: N_20  and  C_19 
REMARK       I    between atoms: C_22  and  N_20 
ROOT
ATOM      1  C   LIG d   1      -7.457  75.734 117.544  0.00  0.00     0.161 C 
ATOM      2  C   LIG d   1      -8.109  74.492 117.470  0.00  0.00     0.016 C 
ATOM      3  C   LIG d   1      -7.425  73.258 117.383  0.00  0.00     0.038 C 
ATOM      4  C   LIG d   1      -6.031  73.172 117.516  0.00  0.00     0.028 C 
ATOM      5  C   LIG d   1      -5.302  74.440 117.085  0.00  0.00    -0.047 C 
ATOM      6  C   LIG d   1      -5.938  75.653 117.802  0.00  0.00     0.091 C 
ENDROOT
BRANCH   1   7
ATOM      7  O   LIG d   1      -8.091  76.561 118.539  0.00  0.00    -0.368 OA
BRANCH   7   8
ATOM      8  C   LIG d   1      -8.717  77.775 118.056  0.00  0.00     0.119 C 
BRANCH   8   9
ATOM      9  C   LIG d   1      -7.986  78.964 118.708  0.00  0.00     0.028 C 
ATOM     10  C   LIG d   1      -7.688  80.092 117.706  0.00  0.00     0.006 C 
ENDBRANCH   8   9
BRANCH   8  11
ATOM     11  C   LIG d   1     -10.169  77.881 118.532  0.00  0.00     0.028 C 
ATOM     12  C   LIG d   1     -10.995  76.626 118.207  0.00  0.00     0.006 C 
ENDBRANCH   8  11
ENDBRANCH   7   8
ENDBRANCH   1   7
BRANCH   6  13
ATOM     13  N   LIG d   1      -5.339  76.943 117.373  0.00  0.00    -0.311 N 
ATOM     14  C   LIG d   1      -4.596  77.708 118.171  0.00  0.00     0.210 C 
ATOM     15  C   LIG d   1      -4.092  79.008 117.536  0.00  0.00     0.109 C 
ATOM     16  O   LIG d   1      -4.280  77.419 119.335  0.00  0.00    -0.276 OA
ATOM     17  H   LIG d   1      -5.519  77.240 116.434  0.00  0.00     0.149 HD
ENDBRANCH   6  13
BRANCH   5  18
ATOM     18  N   LIG d   1      -3.873  74.263 117.405  0.00  0.00     0.381 N 
ATOM     19  H   LIG d   1      -3.496  75.120 117.758  0.00  0.00    -0.090 HD
ATOM     20  H   LIG d   1      -3.378  74.024 116.564  0.00  0.00    -0.090 HD
ATOM     21  H   LIG d   1      -3.762  73.540 118.082  0.00  0.00    -0.090 HD
ENDBRANCH   5  18
BRANCH   3  22
ATOM     22  C   LIG d   1      -8.134  72.096 117.119  0.00  0.00     0.382 C 
ATOM     23  O   LIG d   1      -7.555  70.984 117.161  0.00  0.00    -0.241 OA
ATOM     24  O   LIG d   1      -9.336  72.149 116.797  0.00  0.00    -0.241 OA
ENDBRANCH   3  22
TORSDOF 7
ENDMDL
MODEL 8
REMARK VINA RESULT:      -4.9      2.353      5.046
REMARK  7 active torsions:
REMARK  status: ('A' for Active; 'I' for Inactive)
REMARK    1  A    between atoms: C_2  and  C_3 
REMARK    2  A    between atoms: C_3  and  O_6 
REMARK    3  A    between atoms: C_3  and  C_4 
REMARK    4  A    between atoms: C_7  and  O_6 
REMARK    5  A    between atoms: C_9  and  C_10 
REMARK    6  A    between atoms: N_15  and  C_14 
REMARK    7  A    between atoms: N_20  and  C_19 
REMARK       I    between atoms: C_22  and  N_20 
ROOT
ATOM      1  C   LIG d   1      -6.665  74.822 117.873  0.00  0.00     0.161 C 
ATOM      2  C   LIG d   1      -6.915  73.495 117.483  0.00  0.00     0.016 C 
ATOM      3  C   LIG d   1      -8.207  73.000 117.191  0.00  0.00     0.038 C 
ATOM      4  C   LIG d   1      -9.326  73.844 117.123  0.00  0.00     0.028 C 
ATOM      5  C   LIG d   1      -9.204  75.085 118.001  0.00  0.00    -0.047 C 
ATOM      6  C   LIG d   1      -7.859  75.783 117.697  0.00  0.00     0.091 C 
ENDROOT
BRANCH   1   7
ATOM      7  O   LIG d   1      -5.508  75.326 117.177  0.00  0.00    -0.368 OA
BRANCH   7   8
ATOM      8  C   LIG d   1      -4.244  75.208 117.874  0.00  0.00     0.119 C 
BRANCH   8   9
ATOM      9  C   LIG d   1      -3.896  76.599 118.440  0.00  0.00     0.028 C 
ATOM     10  C   LIG d   1      -4.159  76.700 119.952  0.00  0.00     0.006 C 
ENDBRANCH   8   9
BRANCH   8  11
ATOM     11  C   LIG d   1      -3.105  74.867 116.909  0.00  0.00     0.028 C 
ATOM     12  C   LIG d   1      -1.727  74.865 117.590  0.00  0.00     0.006 C 
ENDBRANCH   8  11
ENDBRANCH   7   8
ENDBRANCH   1   7
BRANCH   6  13
ATOM     13  N   LIG d   1      -7.621  76.960 118.573  0.00  0.00    -0.311 N 
ATOM     14  C   LIG d   1      -7.131  78.117 118.129  0.00  0.00     0.210 C 
ATOM     15  C   LIG d   1      -6.945  79.194 119.203  0.00  0.00     0.109 C 
ATOM     16  O   LIG d   1      -6.864  78.364 116.944  0.00  0.00    -0.276 OA
ATOM     17  H   LIG d   1      -7.840  76.858 119.544  0.00  0.00     0.149 HD
ENDBRANCH   6  13
BRANCH   5  18
ATOM     18  N   LIG d   1     -10.374  75.940 117.729  0.00  0.00     0.381 N 
ATOM     19  H   LIG d   1     -10.492  76.599 118.473  0.00  0.00    -0.090 HD
ATOM     20  H   LIG d   1     -11.196  75.363 117.686  0.00  0.00    -0.090 HD
ATOM     21  H   LIG d   1     -10.252  76.421 116.865  0.00  0.00    -0.090 HD
ENDBRANCH   5  18
BRANCH   3  22
ATOM     22  C   LIG d   1      -8.395  71.640 117.002  0.00  0.00     0.382 C 
ATOM     23  O   LIG d   1      -9.471  71.217 116.514  0.00  0.00    -0.241 OA
ATOM     24  O   LIG d   1      -7.521  70.826 117.356  0.00  0.00    -0.241 OA
ENDBRANCH   3  22
TORSDOF 7
ENDMDL
MODEL 9
REMARK VINA RESULT:      -4.8      4.238      6.860
REMARK  7 active torsions:
REMARK  status: ('A' for Active; 'I' for Inactive)
REMARK    1  A    between atoms: C_2  and  C_3 
REMARK    2  A    between atoms: C_3  and  O_6 
REMARK    3  A    between atoms: C_3  and  C_4 
REMARK    4  A    between atoms: C_7  and  O_6 
REMARK    5  A    between atoms: C_9  and  C_10 
REMARK    6  A    between atoms: N_15  and  C_14 
REMARK    7  A    between atoms: N_20  and  C_19 
REMARK       I    between atoms: C_22  and  N_20 
ROOT
ATOM      1  C   LIG d   1      -2.692  75.985 118.098  0.00  0.00     0.161 C 
ATOM      2  C   LIG d   1      -2.842  76.977 117.115  0.00  0.00     0.016 C 
ATOM      3  C   LIG d   1      -1.760  77.524 116.389  0.00  0.00     0.038 C 
ATOM      4  C   LIG d   1      -0.460  77.005 116.491  0.00  0.00     0.028 C 
ATOM      5  C   LIG d   1      -0.176  76.348 117.838  0.00  0.00    -0.047 C 
ATOM      6  C   LIG d   1      -1.296  75.328 118.145  0.00  0.00     0.091 C 
ENDROOT
BRANCH   1   7
ATOM      7  O   LIG d   1      -3.713  74.981 117.940  0.00  0.00    -0.368 OA
BRANCH   7   8
ATOM      8  C   LIG d   1      -4.963  75.429 117.359  0.00  0.00     0.119 C 
BRANCH   8   9
ATOM      9  C   LIG d   1      -6.083  75.113 118.369  0.00  0.00     0.028 C 
ATOM     10  C   LIG d   1      -6.817  73.803 118.041  0.00  0.00     0.006 C 
ENDBRANCH   8   9
BRANCH   8  11
ATOM     11  C   LIG d   1      -5.312  74.626 116.103  0.00  0.00     0.028 C 
ATOM     12  C   LIG d   1      -5.172  75.448 114.812  0.00  0.00     0.006 C 
ENDBRANCH   8  11
ENDBRANCH   7   8
ENDBRANCH   1   7
BRANCH   6  13
ATOM     13  N   LIG d   1      -1.140  74.701 119.483  0.00  0.00    -0.311 N 
ATOM     14  C   LIG d   1      -0.523  73.536 119.679  0.00  0.00     0.210 C 
ATOM     15  C   LIG d   1      -0.490  73.059 121.135  0.00  0.00     0.109 C 
ATOM     16  O   LIG d   1       0.028  72.869 118.791  0.00  0.00    -0.276 OA
ATOM     17  H   LIG d   1      -1.530  75.190 120.265  0.00  0.00     0.149 HD
ENDBRANCH   6  13
BRANCH   5  18
ATOM     18  N   LIG d   1       1.162  75.730 117.758  0.00  0.00     0.381 N 
ATOM     19  H   LIG d   1       1.098  74.755 117.972  0.00  0.00    -0.090 HD
ATOM     20  H   LIG d   1       1.761  76.164 118.438  0.00  0.00    -0.090 HD
ATOM     21  H   LIG d   1       1.540  75.853 116.845  0.00  0.00    -0.090 HD
ENDBRANCH   5  18
BRANCH   3  22
ATOM     22  C   LIG d   1      -1.965  78.630 115.577  0.00  0.00     0.382 C 
ATOM     23  O   LIG d   1      -0.985  79.295 115.165  0.00  0.00    -0.241 OA
ATOM     24  O   LIG d   1      -3.120  78.996 115.288  0.00  0.00    -0.241 OA
ENDBRANCH   3  22
TORSDOF 7
ENDMDL
