MODEL 1
REMARK VINA RESULT:      -5.9      0.000      0.000
REMARK  7 active torsions:
REMARK  status: ('A' for Active; 'I' for Inactive)
REMARK    1  A    between atoms: C_2  and  C_3 
REMARK    2  A    between atoms: C_3  and  O_6 
REMARK    3  A    between atoms: C_3  and  C_4 
REMARK    4  A    between atoms: C_7  and  O_6 
REMARK    5  A    between atoms: C_9  and  C_10 
REMARK    6  A    between atoms: N_15  and  C_14 
REMARK    7  A    between atoms: N_20  and  C_19 
REMARK       I    between atoms: C_22  and  N_20 
ROOT
ATOM      1  C   LIG d   1      -7.862  76.014 117.653  0.00  0.00     0.161 C 
ATOM      2  C   LIG d   1      -8.917  76.820 118.113  0.00  0.00     0.016 C 
ATOM      3  C   LIG d   1      -8.819  78.223 118.258  0.00  0.00     0.038 C 
ATOM      4  C   LIG d   1      -7.701  78.938 117.806  0.00  0.00     0.028 C 
ATOM      5  C   LIG d   1      -6.416  78.116 117.802  0.00  0.00    -0.047 C 
ATOM      6  C   LIG d   1      -6.672  76.790 117.051  0.00  0.00     0.091 C 
ENDROOT
BRANCH   1   7
ATOM      7  O   LIG d   1      -8.361  75.048 116.707  0.00  0.00    -0.368 OA
BRANCH   7   8
ATOM      8  C   LIG d   1      -8.373  73.669 117.151  0.00  0.00     0.119 C 
BRANCH   8   9
ATOM      9  C   LIG d   1      -7.531  72.854 116.149  0.00  0.00     0.028 C 
ATOM     10  C   LIG d   1      -8.083  71.434 115.938  0.00  0.00     0.006 C 
ENDBRANCH   8   9
BRANCH   8  11
ATOM     11  C   LIG d   1      -9.781  73.071 117.078  0.00  0.00     0.028 C 
ATOM     12  C   LIG d   1     -10.880  74.143 117.013  0.00  0.00     0.006 C 
ENDBRANCH   8  11
ENDBRANCH   7   8
ENDBRANCH   1   7
BRANCH   6  13
ATOM     13  N   LIG d   1      -5.490  75.888 117.073  0.00  0.00    -0.311 N 
ATOM     14  C   LIG d   1      -4.598  75.825 116.087  0.00  0.00     0.210 C 
ATOM     15  C   LIG d   1      -3.467  74.814 116.302  0.00  0.00     0.109 C 
ATOM     16  O   LIG d   1      -4.618  76.532 115.068  0.00  0.00    -0.276 OA
ATOM     17  H   LIG d   1      -5.380  75.302 117.877  0.00  0.00     0.149 HD
ENDBRANCH   6  13
BRANCH   5  18
ATOM     18  N   LIG d   1      -5.362  78.939 117.181  0.00  0.00     0.381 N 
ATOM     19  H   LIG d   1      -5.316  79.830 117.634  0.00  0.00    -0.090 HD
ATOM     20  H   LIG d   1      -5.593  79.088 116.214  0.00  0.00    -0.090 HD
ATOM     21  H   LIG d   1      -4.482  78.477 117.252  0.00  0.00    -0.090 HD
ENDBRANCH   5  18
BRANCH   3  22
ATOM     22  C   LIG d   1      -9.833  78.920 118.897  0.00  0.00     0.382 C 
ATOM     23  O   LIG d   1     -10.219  80.024 118.441  0.00  0.00    -0.241 OA
ATOM     24  O   LIG d   1     -10.336  78.481 119.949  0.00  0.00    -0.241 OA
ENDBRANCH   3  22
TORSDOF 7
ENDMDL
MODEL 2
REMARK VINA RESULT:      -5.7      1.752      4.963
REMARK  7 active torsions:
REMARK  status: ('A' for Active; 'I' for Inactive)
REMARK    1  A    between atoms: C_2  and  C_3 
REMARK    2  A    between atoms: C_3  and  O_6 
REMARK    3  A    between atoms: C_3  and  C_4 
REMARK    4  A    between atoms: C_7  and  O_6 
REMARK    5  A    between atoms: C_9  and  C_10 
REMARK    6  A    between atoms: N_15  and  C_14 
REMARK    7  A    between atoms: N_20  and  C_19 
REMARK       I    between atoms: C_22  and  N_20 
ROOT
ATOM      1  C   LIG d   1      -6.666  75.588 116.258  0.00  0.00     0.161 C 
ATOM      2  C   LIG d   1      -5.456  74.950 115.941  0.00  0.00     0.016 C 
ATOM      3  C   LIG d   1      -4.302  75.021 116.754  0.00  0.00     0.038 C 
ATOM      4  C   LIG d   1      -4.326  75.616 118.025  0.00  0.00     0.028 C 
ATOM      5  C   LIG d   1      -5.382  76.708 118.162  0.00  0.00    -0.047 C 
ATOM      6  C   LIG d   1      -6.745  76.149 117.693  0.00  0.00     0.091 C 
ENDROOT
BRANCH   1   7
ATOM      7  O   LIG d   1      -7.770  74.695 116.008  0.00  0.00    -0.368 OA
BRANCH   7   8
ATOM      8  C   LIG d   1      -7.853  73.529 116.864  0.00  0.00     0.119 C 
BRANCH   8   9
ATOM      9  C   LIG d   1      -7.723  72.284 115.964  0.00  0.00     0.028 C 
ATOM     10  C   LIG d   1      -8.702  71.168 116.363  0.00  0.00     0.006 C 
ENDBRANCH   8   9
BRANCH   8  11
ATOM     11  C   LIG d   1      -9.233  73.414 117.518  0.00  0.00     0.028 C 
ATOM     12  C   LIG d   1     -10.197  74.525 117.071  0.00  0.00     0.006 C 
ENDBRANCH   8  11
ENDBRANCH   7   8
ENDBRANCH   1   7
BRANCH   6  13
ATOM     13  N   LIG d   1      -7.817  77.177 117.716  0.00  0.00    -0.311 N 
ATOM     14  C   LIG d   1      -8.630  77.366 118.754  0.00  0.00     0.210 C 
ATOM     15  C   LIG d   1      -9.679  78.466 118.562  0.00  0.00     0.109 C 
ATOM     16  O   LIG d   1      -8.561  76.750 119.828  0.00  0.00    -0.276 OA
ATOM     17  H   LIG d   1      -7.924  77.744 116.897  0.00  0.00     0.149 HD
ENDBRANCH   6  13
BRANCH   5  18
ATOM     18  N   LIG d   1      -5.390  77.145 119.571  0.00  0.00     0.381 N 
ATOM     19  H   LIG d   1      -5.600  76.368 120.166  0.00  0.00    -0.090 HD
ATOM     20  H   LIG d   1      -6.108  77.838 119.693  0.00  0.00    -0.090 HD
ATOM     21  H   LIG d   1      -4.504  77.528 119.814  0.00  0.00    -0.090 HD
ENDBRANCH   5  18
BRANCH   3  22
ATOM     22  C   LIG d   1      -3.095  74.529 116.281  0.00  0.00     0.382 C 
ATOM     23  O   LIG d   1      -2.366  73.833 117.028  0.00  0.00    -0.241 OA
ATOM     24  O   LIG d   1      -2.707  74.807 115.131  0.00  0.00    -0.241 OA
ENDBRANCH   3  22
TORSDOF 7
ENDMDL
MODEL 3
REMARK VINA RESULT:      -5.2      2.176      5.195
REMARK  7 active torsions:
REMARK  status: ('A' for Active; 'I' for Inactive)
REMARK    1  A    between atoms: C_2  and  C_3 
REMARK    2  A    between atoms: C_3  and  O_6 
REMARK    3  A    between atoms: C_3  and  C_4 
REMARK    4  A    between atoms: C_7  and  O_6 
REMARK    5  A    between atoms: C_9  and  C_10 
REMARK    6  A    between atoms: N_15  and  C_14 
REMARK    7  A    between atoms: N_20  and  C_19 
REMARK       I    between atoms: C_22  and  N_20 
ROOT
ATOM      1  C   LIG d   1      -7.767  75.701 117.765  0.00  0.00     0.161 C 
ATOM      2  C   LIG d   1      -8.423  74.461 117.693  0.00  0.00     0.016 C 
ATOM      3  C   LIG d   1      -8.101  73.464 116.744  0.00  0.00     0.038 C 
ATOM      4  C   LIG d   1      -6.991  73.581 115.893  0.00  0.00     0.028 C 
ATOM      5  C   LIG d   1      -6.612  75.026 115.587  0.00  0.00    -0.047 C 
ATOM      6  C   LIG d   1      -6.481  75.802 116.918  0.00  0.00     0.091 C 
ENDROOT
BRANCH   1   7
ATOM      7  O   LIG d   1      -7.488  76.027 119.140  0.00  0.00    -0.368 OA
BRANCH   7   8
ATOM      8  C   LIG d   1      -8.251  77.122 119.704  0.00  0.00     0.119 C 
BRANCH   8   9
ATOM      9  C   LIG d   1      -9.062  77.758 118.558  0.00  0.00     0.028 C 
ATOM     10  C   LIG d   1      -8.735  79.249 118.365  0.00  0.00     0.006 C 
ENDBRANCH   8   9
BRANCH   8  11
ATOM     11  C   LIG d   1      -7.333  78.235 120.218  0.00  0.00     0.028 C 
ATOM     12  C   LIG d   1      -6.029  77.698 120.827  0.00  0.00     0.006 C 
ENDBRANCH   8  11
ENDBRANCH   7   8
ENDBRANCH   1   7
BRANCH   6  13
ATOM     13  N   LIG d   1      -6.195  77.245 116.706  0.00  0.00    -0.311 N 
ATOM     14  C   LIG d   1      -5.116  77.857 117.190  0.00  0.00     0.210 C 
ATOM     15  C   LIG d   1      -5.023  79.353 116.873  0.00  0.00     0.109 C 
ATOM     16  O   LIG d   1      -4.210  77.297 117.825  0.00  0.00    -0.276 OA
ATOM     17  H   LIG d   1      -6.862  77.770 116.175  0.00  0.00     0.149 HD
ENDBRANCH   6  13
BRANCH   5  18
ATOM     18  N   LIG d   1      -5.362  75.003 114.806  0.00  0.00     0.381 N 
ATOM     19  H   LIG d   1      -4.593  74.774 115.404  0.00  0.00    -0.090 HD
ATOM     20  H   LIG d   1      -5.201  75.917 114.422  0.00  0.00    -0.090 HD
ATOM     21  H   LIG d   1      -5.431  74.333 114.071  0.00  0.00    -0.090 HD
ENDBRANCH   5  18
BRANCH   3  22
ATOM     22  C   LIG d   1      -8.917  72.351 116.612  0.00  0.00     0.382 C 
ATOM     23  O   LIG d   1     -10.033  72.320 117.185  0.00  0.00    -0.241 OA
ATOM     24  O   LIG d   1      -8.533  71.359 115.963  0.00  0.00    -0.241 OA
ENDBRANCH   3  22
TORSDOF 7
ENDMDL
MODEL 4
REMARK VINA RESULT:      -5.2      1.958      3.007
REMARK  7 active torsions:
REMARK  status: ('A' for Active; 'I' for Inactive)
REMARK    1  A    between atoms: C_2  and  C_3 
REMARK    2  A    between atoms: C_3  and  O_6 
REMARK    3  A    between atoms: C_3  and  C_4 
REMARK    4  A    between atoms: C_7  and  O_6 
REMARK    5  A    between atoms: C_9  and  C_10 
REMARK    6  A    between atoms: N_15  and  C_14 
REMARK    7  A    between atoms: N_20  and  C_19 
REMARK       I    between atoms: C_22  and  N_20 
ROOT
ATOM      1  C   LIG d   1      -6.436  77.628 117.485  0.00  0.00     0.161 C 
ATOM      2  C   LIG d   1      -7.788  77.685 117.863  0.00  0.00     0.016 C 
ATOM      3  C   LIG d   1      -8.465  78.893 118.149  0.00  0.00     0.038 C 
ATOM      4  C   LIG d   1      -7.873  80.145 117.929  0.00  0.00     0.028 C 
ATOM      5  C   LIG d   1      -6.352  80.122 118.033  0.00  0.00    -0.047 C 
ATOM      6  C   LIG d   1      -5.804  78.991 117.133  0.00  0.00     0.091 C 
ENDROOT
BRANCH   1   7
ATOM      7  O   LIG d   1      -6.273  76.702 116.393  0.00  0.00    -0.368 OA
BRANCH   7   8
ATOM      8  C   LIG d   1      -6.160  75.304 116.753  0.00  0.00     0.119 C 
BRANCH   8   9
ATOM      9  C   LIG d   1      -4.661  74.986 116.915  0.00  0.00     0.028 C 
ATOM     10  C   LIG d   1      -3.816  75.541 115.756  0.00  0.00     0.006 C 
ENDBRANCH   8   9
BRANCH   8  11
ATOM     11  C   LIG d   1      -6.648  74.395 115.621  0.00  0.00     0.028 C 
ATOM     12  C   LIG d   1      -7.400  73.156 116.133  0.00  0.00     0.006 C 
ENDBRANCH   8  11
ENDBRANCH   7   8
ENDBRANCH   1   7
BRANCH   6  13
ATOM     13  N   LIG d   1      -4.329  78.844 117.240  0.00  0.00    -0.311 N 
ATOM     14  C   LIG d   1      -3.474  79.374 116.367  0.00  0.00     0.210 C 
ATOM     15  C   LIG d   1      -1.997  79.086 116.652  0.00  0.00     0.109 C 
ATOM     16  O   LIG d   1      -3.798  80.082 115.402  0.00  0.00    -0.276 OA
ATOM     17  H   LIG d   1      -3.979  78.311 118.012  0.00  0.00     0.149 HD
ENDBRANCH   6  13
BRANCH   5  18
ATOM     18  N   LIG d   1      -5.858  81.458 117.646  0.00  0.00     0.381 N 
ATOM     19  H   LIG d   1      -6.508  82.158 117.943  0.00  0.00    -0.090 HD
ATOM     20  H   LIG d   1      -5.785  81.500 116.645  0.00  0.00    -0.090 HD
ATOM     21  H   LIG d   1      -4.967  81.625 118.060  0.00  0.00    -0.090 HD
ENDBRANCH   5  18
BRANCH   3  22
ATOM     22  C   LIG d   1      -9.738  78.854 118.699  0.00  0.00     0.382 C 
ATOM     23  O   LIG d   1     -10.511  77.906 118.422  0.00  0.00    -0.241 OA
ATOM     24  O   LIG d   1     -10.137  79.777 119.434  0.00  0.00    -0.241 OA
ENDBRANCH   3  22
TORSDOF 7
ENDMDL
MODEL 5
REMARK VINA RESULT:      -5.0      2.482      5.382
REMARK  7 active torsions:
REMARK  status: ('A' for Active; 'I' for Inactive)
REMARK    1  A    between atoms: C_2  and  C_3 
REMARK    2  A    between atoms: C_3  and  O_6 
REMARK    3  A    between atoms: C_3  and  C_4 
REMARK    4  A    between atoms: C_7  and  O_6 
REMARK    5  A    between atoms: C_9  and  C_10 
REMARK    6  A    between atoms: N_15  and  C_14 
REMARK    7  A    between atoms: N_20  and  C_19 
REMARK       I    between atoms: C_22  and  N_20 
ROOT
ATOM      1  C   LIG d   1      -5.787  74.807 116.740  0.00  0.00     0.161 C 
ATOM      2  C   LIG d   1      -6.536  73.688 116.340  0.00  0.00     0.016 C 
ATOM      3  C   LIG d   1      -7.924  73.556 116.573  0.00  0.00     0.038 C 
ATOM      4  C   LIG d   1      -8.692  74.608 117.094  0.00  0.00     0.028 C 
ATOM      5  C   LIG d   1      -7.893  75.562 117.976  0.00  0.00    -0.047 C 
ATOM      6  C   LIG d   1      -6.628  76.013 117.210  0.00  0.00     0.091 C 
ENDROOT
BRANCH   1   7
ATOM      7  O   LIG d   1      -4.893  75.202 115.681  0.00  0.00    -0.368 OA
BRANCH   7   8
ATOM      8  C   LIG d   1      -3.506  74.816 115.841  0.00  0.00     0.119 C 
BRANCH   8   9
ATOM      9  C   LIG d   1      -3.291  74.465 117.326  0.00  0.00     0.028 C 
ATOM     10  C   LIG d   1      -2.373  75.471 118.040  0.00  0.00     0.006 C 
ENDBRANCH   8   9
BRANCH   8  11
ATOM     11  C   LIG d   1      -2.565  75.991 115.562  0.00  0.00     0.028 C 
ATOM     12  C   LIG d   1      -3.252  77.139 114.805  0.00  0.00     0.006 C 
ENDBRANCH   8  11
ENDBRANCH   7   8
ENDBRANCH   1   7
BRANCH   6  13
ATOM     13  N   LIG d   1      -5.747  76.882 118.033  0.00  0.00    -0.311 N 
ATOM     14  C   LIG d   1      -5.388  78.113 117.672  0.00  0.00     0.210 C 
ATOM     15  C   LIG d   1      -4.458  78.830 118.656  0.00  0.00     0.109 C 
ATOM     16  O   LIG d   1      -5.777  78.691 116.646  0.00  0.00    -0.276 OA
ATOM     17  H   LIG d   1      -5.411  76.504 118.897  0.00  0.00     0.149 HD
ENDBRANCH   6  13
BRANCH   5  18
ATOM     18  N   LIG d   1      -8.781  76.684 118.337  0.00  0.00     0.381 N 
ATOM     19  H   LIG d   1      -9.102  77.142 117.508  0.00  0.00    -0.090 HD
ATOM     20  H   LIG d   1      -8.260  77.348 118.883  0.00  0.00    -0.090 HD
ATOM     21  H   LIG d   1      -9.558  76.348 118.862  0.00  0.00    -0.090 HD
ENDBRANCH   5  18
BRANCH   3  22
ATOM     22  C   LIG d   1      -8.551  72.345 116.322  0.00  0.00     0.382 C 
ATOM     23  O   LIG d   1      -7.905  71.399 115.810  0.00  0.00    -0.241 OA
ATOM     24  O   LIG d   1      -9.765  72.200 116.561  0.00  0.00    -0.241 OA
ENDBRANCH   3  22
TORSDOF 7
ENDMDL
MODEL 6
REMARK VINA RESULT:      -4.8     18.335     20.320
REMARK  7 active torsions:
REMARK  status: ('A' for Active; 'I' for Inactive)
REMARK    1  A    between atoms: C_2  and  C_3 
REMARK    2  A    between atoms: C_3  and  O_6 
REMARK    3  A    between atoms: C_3  and  C_4 
REMARK    4  A    between atoms: C_7  and  O_6 
REMARK    5  A    between atoms: C_9  and  C_10 
REMARK    6  A    between atoms: N_15  and  C_14 
REMARK    7  A    between atoms: N_20  and  C_19 
REMARK       I    between atoms: C_22  and  N_20 
ROOT
ATOM      1  C   LIG d   1      -0.093  57.606 118.720  0.00  0.00     0.161 C 
ATOM      2  C   LIG d   1      -1.496  57.556 118.676  0.00  0.00     0.016 C 
ATOM      3  C   LIG d   1      -2.267  58.208 117.687  0.00  0.00     0.038 C 
ATOM      4  C   LIG d   1      -1.677  58.835 116.580  0.00  0.00     0.028 C 
ATOM      5  C   LIG d   1      -0.264  59.342 116.853  0.00  0.00    -0.047 C 
ATOM      6  C   LIG d   1       0.573  58.192 117.457  0.00  0.00     0.091 C 
ENDROOT
BRANCH   1   7
ATOM      7  O   LIG d   1       0.435  56.295 119.002  0.00  0.00    -0.368 OA
BRANCH   7   8
ATOM      8  C   LIG d   1       0.343  55.327 117.928  0.00  0.00     0.119 C 
BRANCH   8   9
ATOM      9  C   LIG d   1      -0.399  54.093 118.478  0.00  0.00     0.028 C 
ATOM     10  C   LIG d   1      -1.802  53.933 117.870  0.00  0.00     0.006 C 
ENDBRANCH   8   9
BRANCH   8  11
ATOM     11  C   LIG d   1       1.728  54.817 117.517  0.00  0.00     0.028 C 
ATOM     12  C   LIG d   1       1.670  53.789 116.376  0.00  0.00     0.006 C 
ENDBRANCH   8  11
ENDBRANCH   7   8
ENDBRANCH   1   7
BRANCH   6  13
ATOM     13  N   LIG d   1       1.944  58.627 117.833  0.00  0.00    -0.311 N 
ATOM     14  C   LIG d   1       2.202  59.431 118.862  0.00  0.00     0.210 C 
ATOM     15  C   LIG d   1       3.683  59.771 119.062  0.00  0.00     0.109 C 
ATOM     16  O   LIG d   1       1.349  59.870 119.648  0.00  0.00    -0.276 OA
ATOM     17  H   LIG d   1       2.700  58.292 117.267  0.00  0.00     0.149 HD
ENDBRANCH   6  13
BRANCH   5  18
ATOM     18  N   LIG d   1       0.282  59.847 115.579  0.00  0.00     0.381 N 
ATOM     19  H   LIG d   1       0.824  59.133 115.136  0.00  0.00    -0.090 HD
ATOM     20  H   LIG d   1       0.885  60.628 115.771  0.00  0.00    -0.090 HD
ATOM     21  H   LIG d   1      -0.461  60.132 114.979  0.00  0.00    -0.090 HD
ENDBRANCH   5  18
BRANCH   3  22
ATOM     22  C   LIG d   1      -3.646  58.272 117.822  0.00  0.00     0.382 C 
ATOM     23  O   LIG d   1      -4.300  59.127 117.178  0.00  0.00    -0.241 OA
ATOM     24  O   LIG d   1      -4.239  57.515 118.613  0.00  0.00    -0.241 OA
ENDBRANCH   3  22
TORSDOF 7
ENDMDL
MODEL 7
REMARK VINA RESULT:      -4.8      2.412      5.572
REMARK  7 active torsions:
REMARK  status: ('A' for Active; 'I' for Inactive)
REMARK    1  A    between atoms: C_2  and  C_3 
REMARK    2  A    between atoms: C_3  and  O_6 
REMARK    3  A    between atoms: C_3  and  C_4 
REMARK    4  A    between atoms: C_7  and  O_6 
REMARK    5  A    between atoms: C_9  and  C_10 
REMARK    6  A    between atoms: N_15  and  C_14 
REMARK    7  A    between atoms: N_20  and  C_19 
REMARK       I    between atoms: C_22  and  N_20 
ROOT
ATOM      1  C   LIG d   1      -5.783  75.152 116.734  0.00  0.00     0.161 C 
ATOM      2  C   LIG d   1      -6.480  74.002 116.328  0.00  0.00     0.016 C 
ATOM      3  C   LIG d   1      -7.849  73.782 116.606  0.00  0.00     0.038 C 
ATOM      4  C   LIG d   1      -8.656  74.773 117.183  0.00  0.00     0.028 C 
ATOM      5  C   LIG d   1      -7.882  75.749 118.063  0.00  0.00    -0.047 C 
ATOM      6  C   LIG d   1      -6.674  76.293 117.267  0.00  0.00     0.091 C 
ENDROOT
BRANCH   1   7
ATOM      7  O   LIG d   1      -4.952  75.626 115.656  0.00  0.00    -0.368 OA
BRANCH   7   8
ATOM      8  C   LIG d   1      -3.552  75.824 115.970  0.00  0.00     0.119 C 
BRANCH   8   9
ATOM      9  C   LIG d   1      -3.026  76.947 115.055  0.00  0.00     0.028 C 
ATOM     10  C   LIG d   1      -2.270  78.035 115.836  0.00  0.00     0.006 C 
ENDBRANCH   8   9
BRANCH   8  11
ATOM     11  C   LIG d   1      -2.721  74.588 115.614  0.00  0.00     0.028 C 
ATOM     12  C   LIG d   1      -1.573  74.335 116.605  0.00  0.00     0.006 C 
ENDBRANCH   8  11
ENDBRANCH   7   8
ENDBRANCH   1   7
BRANCH   6  13
ATOM     13  N   LIG d   1      -5.816  77.190 118.084  0.00  0.00    -0.311 N 
ATOM     14  C   LIG d   1      -5.454  78.412 117.695  0.00  0.00     0.210 C 
ATOM     15  C   LIG d   1      -4.549  79.162 118.678  0.00  0.00     0.109 C 
ATOM     16  O   LIG d   1      -5.823  78.958 116.645  0.00  0.00    -0.276 OA
ATOM     17  H   LIG d   1      -5.497  76.839 118.965  0.00  0.00     0.149 HD
ENDBRANCH   6  13
BRANCH   5  18
ATOM     18  N   LIG d   1      -8.819  76.806 118.487  0.00  0.00     0.381 N 
ATOM     19  H   LIG d   1      -8.526  77.186 119.365  0.00  0.00    -0.090 HD
ATOM     20  H   LIG d   1      -9.732  76.403 118.607  0.00  0.00    -0.090 HD
ATOM     21  H   LIG d   1      -8.854  77.527 117.800  0.00  0.00    -0.090 HD
ENDBRANCH   5  18
BRANCH   3  22
ATOM     22  C   LIG d   1      -8.414  72.544 116.342  0.00  0.00     0.382 C 
ATOM     23  O   LIG d   1      -7.735  71.652 115.777  0.00  0.00    -0.241 OA
ATOM     24  O   LIG d   1      -9.607  72.321 116.622  0.00  0.00    -0.241 OA
ENDBRANCH   3  22
TORSDOF 7
ENDMDL
MODEL 8
REMARK VINA RESULT:      -4.8      2.315      5.313
REMARK  7 active torsions:
REMARK  status: ('A' for Active; 'I' for Inactive)
REMARK    1  A    between atoms: C_2  and  C_3 
REMARK    2  A    between atoms: C_3  and  O_6 
REMARK    3  A    between atoms: C_3  and  C_4 
REMARK    4  A    between atoms: C_7  and  O_6 
REMARK    5  A    between atoms: C_9  and  C_10 
REMARK    6  A    between atoms: N_15  and  C_14 
REMARK    7  A    between atoms: N_20  and  C_19 
REMARK       I    between atoms: C_22  and  N_20 
ROOT
ATOM      1  C   LIG d   1      -6.645  77.471 117.410  0.00  0.00     0.161 C 
ATOM      2  C   LIG d   1      -7.352  76.276 117.191  0.00  0.00     0.016 C 
ATOM      3  C   LIG d   1      -8.719  76.111 117.511  0.00  0.00     0.038 C 
ATOM      4  C   LIG d   1      -9.516  77.185 117.935  0.00  0.00     0.028 C 
ATOM      5  C   LIG d   1      -8.729  78.279 118.648  0.00  0.00    -0.047 C 
ATOM      6  C   LIG d   1      -7.526  78.687 117.768  0.00  0.00     0.091 C 
ENDROOT
BRANCH   1   7
ATOM      7  O   LIG d   1      -5.822  77.769 116.265  0.00  0.00    -0.368 OA
BRANCH   7   8
ATOM      8  C   LIG d   1      -4.396  77.586 116.440  0.00  0.00     0.119 C 
BRANCH   8   9
ATOM      9  C   LIG d   1      -3.724  78.956 116.226  0.00  0.00     0.028 C 
ATOM     10  C   LIG d   1      -2.905  79.406 117.447  0.00  0.00     0.006 C 
ENDBRANCH   8   9
BRANCH   8  11
ATOM     11  C   LIG d   1      -3.813  76.674 115.356  0.00  0.00     0.028 C 
ATOM     12  C   LIG d   1      -4.087  75.185 115.620  0.00  0.00     0.006 C 
ENDBRANCH   8  11
ENDBRANCH   7   8
ENDBRANCH   1   7
BRANCH   6  13
ATOM     13  N   LIG d   1      -6.655  79.693 118.429  0.00  0.00    -0.311 N 
ATOM     14  C   LIG d   1      -6.420  80.904 117.925  0.00  0.00     0.210 C 
ATOM     15  C   LIG d   1      -5.477  81.779 118.756  0.00  0.00     0.109 C 
ATOM     16  O   LIG d   1      -6.929  81.347 116.884  0.00  0.00    -0.276 OA
ATOM     17  H   LIG d   1      -6.226  79.428 119.294  0.00  0.00     0.149 HD
ENDBRANCH   6  13
BRANCH   5  18
ATOM     18  N   LIG d   1      -9.657  79.395 118.912  0.00  0.00     0.381 N 
ATOM     19  H   LIG d   1     -10.598  79.057 118.928  0.00  0.00    -0.090 HD
ATOM     20  H   LIG d   1      -9.576  80.068 118.170  0.00  0.00    -0.090 HD
ATOM     21  H   LIG d   1      -9.436  79.823 119.784  0.00  0.00    -0.090 HD
ENDBRANCH   5  18
BRANCH   3  22
ATOM     22  C   LIG d   1      -9.292  74.850 117.446  0.00  0.00     0.382 C 
ATOM     23  O   LIG d   1      -8.563  73.829 117.443  0.00  0.00    -0.241 OA
ATOM     24  O   LIG d   1     -10.527  74.722 117.347  0.00  0.00    -0.241 OA
ENDBRANCH   3  22
TORSDOF 7
ENDMDL
MODEL 9
REMARK VINA RESULT:      -4.7      1.922      4.902
REMARK  7 active torsions:
REMARK  status: ('A' for Active; 'I' for Inactive)
REMARK    1  A    between atoms: C_2  and  C_3 
REMARK    2  A    between atoms: C_3  and  O_6 
REMARK    3  A    between atoms: C_3  and  C_4 
REMARK    4  A    between atoms: C_7  and  O_6 
REMARK    5  A    between atoms: C_9  and  C_10 
REMARK    6  A    between atoms: N_15  and  C_14 
REMARK    7  A    between atoms: N_20  and  C_19 
REMARK       I    between atoms: C_22  and  N_20 
ROOT
ATOM      1  C   LIG d   1      -8.084  77.116 117.486  0.00  0.00     0.161 C 
ATOM      2  C   LIG d   1      -9.126  76.180 117.591  0.00  0.00     0.016 C 
ATOM      3  C   LIG d   1      -8.983  74.814 117.252  0.00  0.00     0.038 C 
ATOM      4  C   LIG d   1      -7.737  74.258 116.927  0.00  0.00     0.028 C 
ATOM      5  C   LIG d   1      -6.764  75.264 116.321  0.00  0.00    -0.047 C 
ATOM      6  C   LIG d   1      -6.689  76.505 117.240  0.00  0.00     0.091 C 
ENDROOT
BRANCH   1   7
ATOM      7  O   LIG d   1      -8.063  77.956 118.657  0.00  0.00    -0.368 OA
BRANCH   7   8
ATOM      8  C   LIG d   1      -8.361  79.358 118.441  0.00  0.00     0.119 C 
BRANCH   8   9
ATOM      9  C   LIG d   1      -7.605  80.163 119.515  0.00  0.00     0.028 C 
ATOM     10  C   LIG d   1      -6.208  79.588 119.806  0.00  0.00     0.006 C 
ENDBRANCH   8   9
BRANCH   8  11
ATOM     11  C   LIG d   1      -9.844  79.656 118.679  0.00  0.00     0.028 C 
ATOM     12  C   LIG d   1     -10.288  79.355 120.119  0.00  0.00     0.006 C 
ENDBRANCH   8  11
ENDBRANCH   7   8
ENDBRANCH   1   7
BRANCH   6  13
ATOM     13  N   LIG d   1      -5.823  77.574 116.678  0.00  0.00    -0.311 N 
ATOM     14  C   LIG d   1      -4.541  77.726 117.005  0.00  0.00     0.210 C 
ATOM     15  C   LIG d   1      -3.836  78.905 116.325  0.00  0.00     0.109 C 
ATOM     16  O   LIG d   1      -3.912  76.979 117.769  0.00  0.00    -0.276 OA
ATOM     17  H   LIG d   1      -6.244  78.207 116.026  0.00  0.00     0.149 HD
ENDBRANCH   6  13
BRANCH   5  18
ATOM     18  N   LIG d   1      -5.465  74.585 116.159  0.00  0.00     0.381 N 
ATOM     19  H   LIG d   1      -5.580  73.598 116.282  0.00  0.00    -0.090 HD
ATOM     20  H   LIG d   1      -4.833  74.919 116.865  0.00  0.00    -0.090 HD
ATOM     21  H   LIG d   1      -5.093  74.772 115.254  0.00  0.00    -0.090 HD
ENDBRANCH   5  18
BRANCH   3  22
ATOM     22  C   LIG d   1     -10.103  73.999 117.198  0.00  0.00     0.382 C 
ATOM     23  O   LIG d   1     -11.249  74.500 117.295  0.00  0.00    -0.241 OA
ATOM     24  O   LIG d   1      -9.981  72.763 117.099  0.00  0.00    -0.241 OA
ENDBRANCH   3  22
TORSDOF 7
ENDMDL
