MODEL 1
REMARK VINA RESULT:      -5.8      0.000      0.000
REMARK  7 active torsions:
REMARK  status: ('A' for Active; 'I' for Inactive)
REMARK    1  A    between atoms: C_2  and  C_3 
REMARK    2  A    between atoms: C_3  and  O_6 
REMARK    3  A    between atoms: C_3  and  C_4 
REMARK    4  A    between atoms: C_7  and  O_6 
REMARK    5  A    between atoms: C_9  and  C_10 
REMARK    6  A    between atoms: N_15  and  C_14 
REMARK    7  A    between atoms: N_20  and  C_19 
REMARK       I    between atoms: C_22  and  N_20 
ROOT
ATOM      1  C   LIG d   1      -5.263  93.862 118.028  0.00  0.00     0.161 C 
ATOM      2  C   LIG d   1      -5.718  95.080 118.559  0.00  0.00     0.016 C 
ATOM      3  C   LIG d   1      -6.962  95.660 118.221  0.00  0.00     0.038 C 
ATOM      4  C   LIG d   1      -7.908  94.982 117.438  0.00  0.00     0.028 C 
ATOM      5  C   LIG d   1      -7.287  93.977 116.473  0.00  0.00    -0.047 C 
ATOM      6  C   LIG d   1      -6.328  93.053 117.259  0.00  0.00     0.091 C 
ENDROOT
BRANCH   1   7
ATOM      7  O   LIG d   1      -4.683  93.059 119.075  0.00  0.00    -0.368 OA
BRANCH   7   8
ATOM      8  C   LIG d   1      -3.253  92.841 118.994  0.00  0.00     0.119 C 
BRANCH   8   9
ATOM      9  C   LIG d   1      -2.716  93.715 117.844  0.00  0.00     0.028 C 
ATOM     10  C   LIG d   1      -1.236  94.089 118.033  0.00  0.00     0.006 C 
ENDBRANCH   8   9
BRANCH   8  11
ATOM     11  C   LIG d   1      -2.931  91.399 118.592  0.00  0.00     0.028 C 
ATOM     12  C   LIG d   1      -3.859  90.372 119.260  0.00  0.00     0.006 C 
ENDBRANCH   8  11
ENDBRANCH   7   8
ENDBRANCH   1   7
BRANCH   6  13
ATOM     13  N   LIG d   1      -5.614  92.095 116.375  0.00  0.00    -0.311 N 
ATOM     14  C   LIG d   1      -5.998  90.831 116.203  0.00  0.00     0.210 C 
ATOM     15  C   LIG d   1      -5.110  90.007 115.265  0.00  0.00     0.109 C 
ATOM     16  O   LIG d   1      -7.009  90.323 116.712  0.00  0.00    -0.276 OA
ATOM     17  H   LIG d   1      -4.801  92.432 115.899  0.00  0.00     0.149 HD
ENDBRANCH   6  13
BRANCH   5  18
ATOM     18  N   LIG d   1      -8.390  93.245 115.821  0.00  0.00     0.381 N 
ATOM     19  H   LIG d   1      -8.615  92.428 116.352  0.00  0.00    -0.090 HD
ATOM     20  H   LIG d   1      -8.091  92.954 114.907  0.00  0.00    -0.090 HD
ATOM     21  H   LIG d   1      -9.191  93.833 115.745  0.00  0.00    -0.090 HD
ENDBRANCH   5  18
BRANCH   3  22
ATOM     22  C   LIG d   1      -7.254  96.951 118.635  0.00  0.00     0.382 C 
ATOM     23  O   LIG d   1      -7.319  97.880 117.794  0.00  0.00    -0.241 OA
ATOM     24  O   LIG d   1      -7.410  97.206 119.844  0.00  0.00    -0.241 OA
ENDBRANCH   3  22
TORSDOF 7
ENDMDL
MODEL 2
REMARK VINA RESULT:      -5.1     16.058     19.522
REMARK  7 active torsions:
REMARK  status: ('A' for Active; 'I' for Inactive)
REMARK    1  A    between atoms: C_2  and  C_3 
REMARK    2  A    between atoms: C_3  and  O_6 
REMARK    3  A    between atoms: C_3  and  C_4 
REMARK    4  A    between atoms: C_7  and  O_6 
REMARK    5  A    between atoms: C_9  and  C_10 
REMARK    6  A    between atoms: N_15  and  C_14 
REMARK    7  A    between atoms: N_20  and  C_19 
REMARK       I    between atoms: C_22  and  N_20 
ROOT
ATOM      1  C   LIG d   1      -4.509  74.649 117.915  0.00  0.00     0.161 C 
ATOM      2  C   LIG d   1      -4.955  73.321 117.806  0.00  0.00     0.016 C 
ATOM      3  C   LIG d   1      -5.882  72.889 116.830  0.00  0.00     0.038 C 
ATOM      4  C   LIG d   1      -6.315  73.730 115.795  0.00  0.00     0.028 C 
ATOM      5  C   LIG d   1      -6.282  75.210 116.163  0.00  0.00    -0.047 C 
ATOM      6  C   LIG d   1      -4.885  75.557 116.725  0.00  0.00     0.091 C 
ENDROOT
BRANCH   1   7
ATOM      7  O   LIG d   1      -3.084  74.670 118.131  0.00  0.00    -0.368 OA
BRANCH   7   8
ATOM      8  C   LIG d   1      -2.342  73.546 117.596  0.00  0.00     0.119 C 
BRANCH   8   9
ATOM      9  C   LIG d   1      -1.307  73.128 118.658  0.00  0.00     0.028 C 
ATOM     10  C   LIG d   1      -1.254  74.106 119.843  0.00  0.00     0.006 C 
ENDBRANCH   8   9
BRANCH   8  11
ATOM     11  C   LIG d   1      -1.522  73.954 116.368  0.00  0.00     0.028 C 
ATOM     12  C   LIG d   1      -1.216  75.460 116.329  0.00  0.00     0.006 C 
ENDBRANCH   8  11
ENDBRANCH   7   8
ENDBRANCH   1   7
BRANCH   6  13
ATOM     13  N   LIG d   1      -4.794  76.966 117.188  0.00  0.00    -0.311 N 
ATOM     14  C   LIG d   1      -4.406  77.971 116.404  0.00  0.00     0.210 C 
ATOM     15  C   LIG d   1      -4.363  79.342 117.086  0.00  0.00     0.109 C 
ATOM     16  O   LIG d   1      -4.126  77.863 115.201  0.00  0.00    -0.276 OA
ATOM     17  H   LIG d   1      -5.033  77.149 118.142  0.00  0.00     0.149 HD
ENDBRANCH   6  13
BRANCH   5  18
ATOM     18  N   LIG d   1      -6.625  75.978 114.951  0.00  0.00     0.381 N 
ATOM     19  H   LIG d   1      -5.788  76.256 114.478  0.00  0.00    -0.090 HD
ATOM     20  H   LIG d   1      -7.124  76.807 115.222  0.00  0.00    -0.090 HD
ATOM     21  H   LIG d   1      -7.190  75.425 114.345  0.00  0.00    -0.090 HD
ENDBRANCH   5  18
BRANCH   3  22
ATOM     22  C   LIG d   1      -6.418  71.612 116.909  0.00  0.00     0.382 C 
ATOM     23  O   LIG d   1      -6.747  71.005 115.862  0.00  0.00    -0.241 OA
ATOM     24  O   LIG d   1      -6.617  71.078 118.016  0.00  0.00    -0.241 OA
ENDBRANCH   3  22
TORSDOF 7
ENDMDL
MODEL 3
REMARK VINA RESULT:      -5.0     11.597     14.664
REMARK  7 active torsions:
REMARK  status: ('A' for Active; 'I' for Inactive)
REMARK    1  A    between atoms: C_2  and  C_3 
REMARK    2  A    between atoms: C_3  and  O_6 
REMARK    3  A    between atoms: C_3  and  C_4 
REMARK    4  A    between atoms: C_7  and  O_6 
REMARK    5  A    between atoms: C_9  and  C_10 
REMARK    6  A    between atoms: N_15  and  C_14 
REMARK    7  A    between atoms: N_20  and  C_19 
REMARK       I    between atoms: C_22  and  N_20 
ROOT
ATOM      1  C   LIG d   1      -6.648  79.315 117.905  0.00  0.00     0.161 C 
ATOM      2  C   LIG d   1      -7.948  78.891 118.225  0.00  0.00     0.016 C 
ATOM      3  C   LIG d   1      -8.967  79.768 118.664  0.00  0.00     0.038 C 
ATOM      4  C   LIG d   1      -8.796  81.160 118.667  0.00  0.00     0.028 C 
ATOM      5  C   LIG d   1      -7.343  81.591 118.835  0.00  0.00    -0.047 C 
ATOM      6  C   LIG d   1      -6.475  80.845 117.797  0.00  0.00     0.091 C 
ENDROOT
BRANCH   1   7
ATOM      7  O   LIG d   1      -6.210  78.674 116.691  0.00  0.00    -0.368 OA
BRANCH   7   8
ATOM      8  C   LIG d   1      -5.992  77.244 116.768  0.00  0.00     0.119 C 
BRANCH   8   9
ATOM      9  C   LIG d   1      -4.527  76.976 116.374  0.00  0.00     0.028 C 
ATOM     10  C   LIG d   1      -4.402  76.314 114.992  0.00  0.00     0.006 C 
ENDBRANCH   8   9
BRANCH   8  11
ATOM     11  C   LIG d   1      -6.834  76.495 115.730  0.00  0.00     0.028 C 
ATOM     12  C   LIG d   1      -7.937  75.635 116.366  0.00  0.00     0.006 C 
ENDBRANCH   8  11
ENDBRANCH   7   8
ENDBRANCH   1   7
BRANCH   6  13
ATOM     13  N   LIG d   1      -5.027  81.145 117.947  0.00  0.00    -0.311 N 
ATOM     14  C   LIG d   1      -4.412  82.132 117.297  0.00  0.00     0.210 C 
ATOM     15  C   LIG d   1      -2.912  82.256 117.581  0.00  0.00     0.109 C 
ATOM     16  O   LIG d   1      -4.972  82.936 116.537  0.00  0.00    -0.276 OA
ATOM     17  H   LIG d   1      -4.502  80.561 118.568  0.00  0.00     0.149 HD
ENDBRANCH   6  13
BRANCH   5  18
ATOM     18  N   LIG d   1      -7.293  83.058 118.683  0.00  0.00     0.381 N 
ATOM     19  H   LIG d   1      -7.247  83.490 119.584  0.00  0.00    -0.090 HD
ATOM     20  H   LIG d   1      -8.133  83.366 118.227  0.00  0.00    -0.090 HD
ATOM     21  H   LIG d   1      -6.498  83.318 118.141  0.00  0.00    -0.090 HD
ENDBRANCH   5  18
BRANCH   3  22
ATOM     22  C   LIG d   1     -10.161  79.250 119.143  0.00  0.00     0.382 C 
ATOM     23  O   LIG d   1     -10.804  79.869 120.024  0.00  0.00    -0.241 OA
ATOM     24  O   LIG d   1     -10.580  78.149 118.737  0.00  0.00    -0.241 OA
ENDBRANCH   3  22
TORSDOF 7
ENDMDL
MODEL 4
REMARK VINA RESULT:      -4.7     16.222     18.859
REMARK  7 active torsions:
REMARK  status: ('A' for Active; 'I' for Inactive)
REMARK    1  A    between atoms: C_2  and  C_3 
REMARK    2  A    between atoms: C_3  and  O_6 
REMARK    3  A    between atoms: C_3  and  C_4 
REMARK    4  A    between atoms: C_7  and  O_6 
REMARK    5  A    between atoms: C_9  and  C_10 
REMARK    6  A    between atoms: N_15  and  C_14 
REMARK    7  A    between atoms: N_20  and  C_19 
REMARK       I    between atoms: C_22  and  N_20 
ROOT
ATOM      1  C   LIG d   1      -3.833  74.403 116.003  0.00  0.00     0.161 C 
ATOM      2  C   LIG d   1      -3.165  75.617 115.772  0.00  0.00     0.016 C 
ATOM      3  C   LIG d   1      -3.833  76.838 115.523  0.00  0.00     0.038 C 
ATOM      4  C   LIG d   1      -5.226  76.958 115.639  0.00  0.00     0.028 C 
ATOM      5  C   LIG d   1      -5.970  75.654 115.373  0.00  0.00    -0.047 C 
ATOM      6  C   LIG d   1      -5.351  74.536 116.244  0.00  0.00     0.091 C 
ENDROOT
BRANCH   1   7
ATOM      7  O   LIG d   1      -3.211  73.705 117.100  0.00  0.00    -0.368 OA
BRANCH   7   8
ATOM      8  C   LIG d   1      -2.240  74.459 117.867  0.00  0.00     0.119 C 
BRANCH   8   9
ATOM      9  C   LIG d   1      -0.972  73.591 117.989  0.00  0.00     0.028 C 
ATOM     10  C   LIG d   1      -0.696  73.157 119.439  0.00  0.00     0.006 C 
ENDBRANCH   8   9
BRANCH   8  11
ATOM     11  C   LIG d   1      -2.718  74.683 119.305  0.00  0.00     0.028 C 
ATOM     12  C   LIG d   1      -3.819  75.750 119.406  0.00  0.00     0.006 C 
ENDBRANCH   8  11
ENDBRANCH   7   8
ENDBRANCH   1   7
BRANCH   6  13
ATOM     13  N   LIG d   1      -5.966  73.209 115.983  0.00  0.00    -0.311 N 
ATOM     14  C   LIG d   1      -6.269  72.340 116.946  0.00  0.00     0.210 C 
ATOM     15  C   LIG d   1      -6.877  71.021 116.458  0.00  0.00     0.109 C 
ATOM     16  O   LIG d   1      -6.123  72.549 118.159  0.00  0.00    -0.276 OA
ATOM     17  H   LIG d   1      -6.147  72.970 115.028  0.00  0.00     0.149 HD
ENDBRANCH   6  13
BRANCH   5  18
ATOM     18  N   LIG d   1      -7.397  75.888 115.662  0.00  0.00     0.381 N 
ATOM     19  H   LIG d   1      -7.883  75.014 115.703  0.00  0.00    -0.090 HD
ATOM     20  H   LIG d   1      -7.794  76.435 114.919  0.00  0.00    -0.090 HD
ATOM     21  H   LIG d   1      -7.495  76.371 116.528  0.00  0.00    -0.090 HD
ENDBRANCH   5  18
BRANCH   3  22
ATOM     22  C   LIG d   1      -3.108  77.947 115.114  0.00  0.00     0.382 C 
ATOM     23  O   LIG d   1      -1.898  77.827 114.805  0.00  0.00    -0.241 OA
ATOM     24  O   LIG d   1      -3.637  79.075 115.092  0.00  0.00    -0.241 OA
ENDBRANCH   3  22
TORSDOF 7
ENDMDL
MODEL 5
REMARK VINA RESULT:      -4.4     13.738     16.061
REMARK  7 active torsions:
REMARK  status: ('A' for Active; 'I' for Inactive)
REMARK    1  A    between atoms: C_2  and  C_3 
REMARK    2  A    between atoms: C_3  and  O_6 
REMARK    3  A    between atoms: C_3  and  C_4 
REMARK    4  A    between atoms: C_7  and  O_6 
REMARK    5  A    between atoms: C_9  and  C_10 
REMARK    6  A    between atoms: N_15  and  C_14 
REMARK    7  A    between atoms: N_20  and  C_19 
REMARK       I    between atoms: C_22  and  N_20 
ROOT
ATOM      1  C   LIG d   1      -6.542  77.672 117.518  0.00  0.00     0.161 C 
ATOM      2  C   LIG d   1      -7.874  77.792 117.950  0.00  0.00     0.016 C 
ATOM      3  C   LIG d   1      -8.460  79.021 118.331  0.00  0.00     0.038 C 
ATOM      4  C   LIG d   1      -7.795  80.244 118.161  0.00  0.00     0.028 C 
ATOM      5  C   LIG d   1      -6.276  80.119 118.204  0.00  0.00    -0.047 C 
ATOM      6  C   LIG d   1      -5.836  79.011 117.221  0.00  0.00     0.091 C 
ENDROOT
BRANCH   1   7
ATOM      7  O   LIG d   1      -6.478  76.805 116.369  0.00  0.00    -0.368 OA
BRANCH   7   8
ATOM      8  C   LIG d   1      -5.984  75.464 116.609  0.00  0.00     0.119 C 
BRANCH   8   9
ATOM      9  C   LIG d   1      -7.199  74.517 116.616  0.00  0.00     0.028 C 
ATOM     10  C   LIG d   1      -6.832  73.095 117.071  0.00  0.00     0.006 C 
ENDBRANCH   8   9
BRANCH   8  11
ATOM     11  C   LIG d   1      -5.364  75.340 118.004  0.00  0.00     0.028 C 
ATOM     12  C   LIG d   1      -3.834  75.203 117.966  0.00  0.00     0.006 C 
ENDBRANCH   8  11
ENDBRANCH   7   8
ENDBRANCH   1   7
BRANCH   6  13
ATOM     13  N   LIG d   1      -4.371  78.766 117.263  0.00  0.00    -0.311 N 
ATOM     14  C   LIG d   1      -3.509  79.324 116.414  0.00  0.00     0.210 C 
ATOM     15  C   LIG d   1      -2.046  78.921 116.619  0.00  0.00     0.109 C 
ATOM     16  O   LIG d   1      -3.814  80.140 115.531  0.00  0.00    -0.276 OA
ATOM     17  H   LIG d   1      -4.033  78.140 117.968  0.00  0.00     0.149 HD
ENDBRANCH   6  13
BRANCH   5  18
ATOM     18  N   LIG d   1      -5.711  81.442 117.877  0.00  0.00     0.381 N 
ATOM     19  H   LIG d   1      -4.861  81.328 117.361  0.00  0.00    -0.090 HD
ATOM     20  H   LIG d   1      -5.498  81.925 118.732  0.00  0.00    -0.090 HD
ATOM     21  H   LIG d   1      -6.365  81.969 117.342  0.00  0.00    -0.090 HD
ENDBRANCH   5  18
BRANCH   3  22
ATOM     22  C   LIG d   1      -9.713  79.029 118.927  0.00  0.00     0.382 C 
ATOM     23  O   LIG d   1     -10.548  78.137 118.642  0.00  0.00    -0.241 OA
ATOM     24  O   LIG d   1     -10.033  79.942 119.711  0.00  0.00    -0.241 OA
ENDBRANCH   3  22
TORSDOF 7
ENDMDL
MODEL 6
REMARK VINA RESULT:      -4.2     15.380     18.305
REMARK  7 active torsions:
REMARK  status: ('A' for Active; 'I' for Inactive)
REMARK    1  A    between atoms: C_2  and  C_3 
REMARK    2  A    between atoms: C_3  and  O_6 
REMARK    3  A    between atoms: C_3  and  C_4 
REMARK    4  A    between atoms: C_7  and  O_6 
REMARK    5  A    between atoms: C_9  and  C_10 
REMARK    6  A    between atoms: N_15  and  C_14 
REMARK    7  A    between atoms: N_20  and  C_19 
REMARK       I    between atoms: C_22  and  N_20 
ROOT
ATOM      1  C   LIG d   1      -4.645  75.293 116.905  0.00  0.00     0.161 C 
ATOM      2  C   LIG d   1      -4.376  76.664 117.049  0.00  0.00     0.016 C 
ATOM      3  C   LIG d   1      -5.376  77.663 116.995  0.00  0.00     0.038 C 
ATOM      4  C   LIG d   1      -6.741  77.344 116.944  0.00  0.00     0.028 C 
ATOM      5  C   LIG d   1      -7.023  75.996 116.290  0.00  0.00    -0.047 C 
ATOM      6  C   LIG d   1      -6.141  74.918 116.960  0.00  0.00     0.091 C 
ENDROOT
BRANCH   1   7
ATOM      7  O   LIG d   1      -3.905  74.544 117.889  0.00  0.00    -0.368 OA
BRANCH   7   8
ATOM      8  C   LIG d   1      -2.468  74.498 117.707  0.00  0.00     0.119 C 
BRANCH   8   9
ATOM      9  C   LIG d   1      -2.198  74.279 116.206  0.00  0.00     0.028 C 
ATOM     10  C   LIG d   1      -0.992  75.089 115.702  0.00  0.00     0.006 C 
ENDBRANCH   8   9
BRANCH   8  11
ATOM     11  C   LIG d   1      -1.855  73.284 118.411  0.00  0.00     0.028 C 
ATOM     12  C   LIG d   1      -0.759  73.669 119.417  0.00  0.00     0.006 C 
ENDBRANCH   8  11
ENDBRANCH   7   8
ENDBRANCH   1   7
BRANCH   6  13
ATOM     13  N   LIG d   1      -6.294  73.584 116.323  0.00  0.00    -0.311 N 
ATOM     14  C   LIG d   1      -6.328  72.443 117.010  0.00  0.00     0.210 C 
ATOM     15  C   LIG d   1      -6.471  71.179 116.157  0.00  0.00     0.109 C 
ATOM     16  O   LIG d   1      -6.285  72.360 118.246  0.00  0.00    -0.276 OA
ATOM     17  H   LIG d   1      -6.367  73.561 115.325  0.00  0.00     0.149 HD
ENDBRANCH   6  13
BRANCH   5  18
ATOM     18  N   LIG d   1      -8.468  75.728 116.427  0.00  0.00     0.381 N 
ATOM     19  H   LIG d   1      -8.639  74.746 116.344  0.00  0.00    -0.090 HD
ATOM     20  H   LIG d   1      -8.957  76.198 115.686  0.00  0.00    -0.090 HD
ATOM     21  H   LIG d   1      -8.793  76.056 117.310  0.00  0.00    -0.090 HD
ENDBRANCH   5  18
BRANCH   3  22
ATOM     22  C   LIG d   1      -5.009  79.000 116.952  0.00  0.00     0.382 C 
ATOM     23  O   LIG d   1      -5.892  79.890 116.910  0.00  0.00    -0.241 OA
ATOM     24  O   LIG d   1      -3.808  79.324 116.910  0.00  0.00    -0.241 OA
ENDBRANCH   3  22
TORSDOF 7
ENDMDL
MODEL 7
REMARK VINA RESULT:      -4.1     13.514     16.141
REMARK  7 active torsions:
REMARK  status: ('A' for Active; 'I' for Inactive)
REMARK    1  A    between atoms: C_2  and  C_3 
REMARK    2  A    between atoms: C_3  and  O_6 
REMARK    3  A    between atoms: C_3  and  C_4 
REMARK    4  A    between atoms: C_7  and  O_6 
REMARK    5  A    between atoms: C_9  and  C_10 
REMARK    6  A    between atoms: N_15  and  C_14 
REMARK    7  A    between atoms: N_20  and  C_19 
REMARK       I    between atoms: C_22  and  N_20 
ROOT
ATOM      1  C   LIG d   1     -20.788  96.101 119.799  0.00  0.00     0.161 C 
ATOM      2  C   LIG d   1     -20.157  94.892 120.135  0.00  0.00     0.016 C 
ATOM      3  C   LIG d   1     -20.733  93.622 119.902  0.00  0.00     0.038 C 
ATOM      4  C   LIG d   1     -21.922  93.470 119.174  0.00  0.00     0.028 C 
ATOM      5  C   LIG d   1     -22.843  94.683 119.259  0.00  0.00    -0.047 C 
ATOM      6  C   LIG d   1     -22.036  95.952 118.904  0.00  0.00     0.091 C 
ENDROOT
BRANCH   1   7
ATOM      7  O   LIG d   1     -19.837  96.995 119.188  0.00  0.00    -0.368 OA
BRANCH   7   8
ATOM      8  C   LIG d   1     -18.737  96.370 118.482  0.00  0.00     0.119 C 
BRANCH   8   9
ATOM      9  C   LIG d   1     -17.457  97.153 118.833  0.00  0.00     0.028 C 
ATOM     10  C   LIG d   1     -16.272  96.777 117.928  0.00  0.00     0.006 C 
ENDBRANCH   8   9
BRANCH   8  11
ATOM     11  C   LIG d   1     -18.895  96.513 116.965  0.00  0.00     0.028 C 
ATOM     12  C   LIG d   1     -19.567  97.834 116.558  0.00  0.00     0.006 C 
ENDBRANCH   8  11
ENDBRANCH   7   8
ENDBRANCH   1   7
BRANCH   6  13
ATOM     13  N   LIG d   1     -22.840  97.194 119.044  0.00  0.00    -0.311 N 
ATOM     14  C   LIG d   1     -23.456  97.787 118.022  0.00  0.00     0.210 C 
ATOM     15  C   LIG d   1     -24.216  99.068 118.382  0.00  0.00     0.109 C 
ATOM     16  O   LIG d   1     -23.472  97.357 116.859  0.00  0.00    -0.276 OA
ATOM     17  H   LIG d   1     -22.907  97.594 119.959  0.00  0.00     0.149 HD
ENDBRANCH   6  13
BRANCH   5  18
ATOM     18  N   LIG d   1     -23.978  94.445 118.346  0.00  0.00     0.381 N 
ATOM     19  H   LIG d   1     -24.681  93.908 118.813  0.00  0.00    -0.090 HD
ATOM     20  H   LIG d   1     -23.653  93.919 117.554  0.00  0.00    -0.090 HD
ATOM     21  H   LIG d   1     -24.359  95.314 118.043  0.00  0.00    -0.090 HD
ENDBRANCH   5  18
BRANCH   3  22
ATOM     22  C   LIG d   1     -20.137  92.489 120.435  0.00  0.00     0.382 C 
ATOM     23  O   LIG d   1     -20.513  91.351 120.065  0.00  0.00    -0.241 OA
ATOM     24  O   LIG d   1     -19.260  92.590 121.314  0.00  0.00    -0.241 OA
ENDBRANCH   3  22
TORSDOF 7
ENDMDL
MODEL 8
REMARK VINA RESULT:      -3.9      5.673      8.152
REMARK  7 active torsions:
REMARK  status: ('A' for Active; 'I' for Inactive)
REMARK    1  A    between atoms: C_2  and  C_3 
REMARK    2  A    between atoms: C_3  and  O_6 
REMARK    3  A    between atoms: C_3  and  C_4 
REMARK    4  A    between atoms: C_7  and  O_6 
REMARK    5  A    between atoms: C_9  and  C_10 
REMARK    6  A    between atoms: N_15  and  C_14 
REMARK    7  A    between atoms: N_20  and  C_19 
REMARK       I    between atoms: C_22  and  N_20 
ROOT
ATOM      1  C   LIG d   1       0.596  89.949 120.050  0.00  0.00     0.161 C 
ATOM      2  C   LIG d   1      -0.750  89.699 120.364  0.00  0.00     0.016 C 
ATOM      3  C   LIG d   1      -1.833  90.210 119.611  0.00  0.00     0.038 C 
ATOM      4  C   LIG d   1      -1.638  90.885 118.397  0.00  0.00     0.028 C 
ATOM      5  C   LIG d   1      -0.291  91.594 118.308  0.00  0.00    -0.047 C 
ATOM      6  C   LIG d   1       0.829  90.591 118.667  0.00  0.00     0.091 C 
ENDROOT
BRANCH   1   7
ATOM      7  O   LIG d   1       1.360  88.734 120.174  0.00  0.00    -0.368 OA
BRANCH   7   8
ATOM      8  C   LIG d   1       1.100  87.713 119.179  0.00  0.00     0.119 C 
BRANCH   8   9
ATOM      9  C   LIG d   1       0.762  86.410 119.929  0.00  0.00     0.028 C 
ATOM     10  C   LIG d   1       0.450  85.247 118.973  0.00  0.00     0.006 C 
ENDBRANCH   8   9
BRANCH   8  11
ATOM     11  C   LIG d   1       2.358  87.396 118.364  0.00  0.00     0.028 C 
ATOM     12  C   LIG d   1       3.649  87.856 119.058  0.00  0.00     0.006 C 
ENDBRANCH   8  11
ENDBRANCH   7   8
ENDBRANCH   1   7
BRANCH   6  13
ATOM     13  N   LIG d   1       2.173  91.225 118.685  0.00  0.00    -0.311 N 
ATOM     14  C   LIG d   1       2.997  91.227 117.639  0.00  0.00     0.210 C 
ATOM     15  C   LIG d   1       4.343  91.918 117.878  0.00  0.00     0.109 C 
ATOM     16  O   LIG d   1       2.729  90.750 116.526  0.00  0.00    -0.276 OA
ATOM     17  H   LIG d   1       2.459  91.662 119.539  0.00  0.00     0.149 HD
ENDBRANCH   6  13
BRANCH   5  18
ATOM     18  N   LIG d   1      -0.164  92.139 116.943  0.00  0.00     0.381 N 
ATOM     19  H   LIG d   1       0.301  91.476 116.355  0.00  0.00    -0.090 HD
ATOM     20  H   LIG d   1       0.393  92.975 116.977  0.00  0.00    -0.090 HD
ATOM     21  H   LIG d   1      -1.065  92.346 116.573  0.00  0.00    -0.090 HD
ENDBRANCH   5  18
BRANCH   3  22
ATOM     22  C   LIG d   1      -3.126  90.081 120.093  0.00  0.00     0.382 C 
ATOM     23  O   LIG d   1      -4.051  89.732 119.321  0.00  0.00    -0.241 OA
ATOM     24  O   LIG d   1      -3.388  90.352 121.281  0.00  0.00    -0.241 OA
ENDBRANCH   3  22
TORSDOF 7
ENDMDL
MODEL 9
REMARK VINA RESULT:      -3.9     11.268     13.527
REMARK  7 active torsions:
REMARK  status: ('A' for Active; 'I' for Inactive)
REMARK    1  A    between atoms: C_2  and  C_3 
REMARK    2  A    between atoms: C_3  and  O_6 
REMARK    3  A    between atoms: C_3  and  C_4 
REMARK    4  A    between atoms: C_7  and  O_6 
REMARK    5  A    between atoms: C_9  and  C_10 
REMARK    6  A    between atoms: N_15  and  C_14 
REMARK    7  A    between atoms: N_20  and  C_19 
REMARK       I    between atoms: C_22  and  N_20 
ROOT
ATOM      1  C   LIG d   1      -6.035  80.452 117.868  0.00  0.00     0.161 C 
ATOM      2  C   LIG d   1      -7.106  79.543 117.921  0.00  0.00     0.016 C 
ATOM      3  C   LIG d   1      -8.423  79.913 118.278  0.00  0.00     0.038 C 
ATOM      4  C   LIG d   1      -8.793  81.253 118.461  0.00  0.00     0.028 C 
ATOM      5  C   LIG d   1      -7.640  82.144 118.911  0.00  0.00    -0.047 C 
ATOM      6  C   LIG d   1      -6.443  81.937 117.956  0.00  0.00     0.091 C 
ENDROOT
BRANCH   1   7
ATOM      7  O   LIG d   1      -5.253  80.216 116.680  0.00  0.00    -0.368 OA
BRANCH   7   8
ATOM      8  C   LIG d   1      -3.868  79.849 116.892  0.00  0.00     0.119 C 
BRANCH   8   9
ATOM      9  C   LIG d   1      -3.019  80.638 115.876  0.00  0.00     0.028 C 
ATOM     10  C   LIG d   1      -2.291  81.829 116.520  0.00  0.00     0.006 C 
ENDBRANCH   8   9
BRANCH   8  11
ATOM     11  C   LIG d   1      -3.627  78.373 116.562  0.00  0.00     0.028 C 
ATOM     12  C   LIG d   1      -3.431  77.506 117.816  0.00  0.00     0.006 C 
ENDBRANCH   8  11
ENDBRANCH   7   8
ENDBRANCH   1   7
BRANCH   6  13
ATOM     13  N   LIG d   1      -5.244  82.709 118.374  0.00  0.00    -0.311 N 
ATOM     14  C   LIG d   1      -4.615  82.515 119.532  0.00  0.00     0.210 C 
ATOM     15  C   LIG d   1      -3.412  83.431 119.776  0.00  0.00     0.109 C 
ATOM     16  O   LIG d   1      -4.919  81.649 120.366  0.00  0.00    -0.276 OA
ATOM     17  H   LIG d   1      -4.910  83.411 117.743  0.00  0.00     0.149 HD
ENDBRANCH   6  13
BRANCH   5  18
ATOM     18  N   LIG d   1      -8.132  83.535 118.930  0.00  0.00     0.381 N 
ATOM     19  H   LIG d   1      -7.574  84.083 119.553  0.00  0.00    -0.090 HD
ATOM     20  H   LIG d   1      -9.079  83.540 119.266  0.00  0.00    -0.090 HD
ATOM     21  H   LIG d   1      -8.096  83.921 118.012  0.00  0.00    -0.090 HD
ENDBRANCH   5  18
BRANCH   3  22
ATOM     22  C   LIG d   1      -9.377  78.930 118.494  0.00  0.00     0.382 C 
ATOM     23  O   LIG d   1      -9.133  77.740 118.183  0.00  0.00    -0.241 OA
ATOM     24  O   LIG d   1     -10.496  79.227 118.956  0.00  0.00    -0.241 OA
ENDBRANCH   3  22
TORSDOF 7
ENDMDL
