MODEL 1
REMARK VINA RESULT:      -5.9      0.000      0.000
REMARK  7 active torsions:
REMARK  status: ('A' for Active; 'I' for Inactive)
REMARK    1  A    between atoms: C_2  and  C_3 
REMARK    2  A    between atoms: C_3  and  O_6 
REMARK    3  A    between atoms: C_3  and  C_4 
REMARK    4  A    between atoms: C_7  and  O_6 
REMARK    5  A    between atoms: C_9  and  C_10 
REMARK    6  A    between atoms: N_15  and  C_14 
REMARK    7  A    between atoms: N_20  and  C_19 
REMARK       I    between atoms: C_22  and  N_20 
ROOT
ATOM      1  C   LIG d   1      -5.779  92.702 117.434  0.00  0.00     0.161 C 
ATOM      2  C   LIG d   1      -6.865  91.915 117.016  0.00  0.00     0.016 C 
ATOM      3  C   LIG d   1      -6.737  90.571 116.597  0.00  0.00     0.038 C 
ATOM      4  C   LIG d   1      -5.527  89.871 116.712  0.00  0.00     0.028 C 
ATOM      5  C   LIG d   1      -4.298  90.771 116.653  0.00  0.00    -0.047 C 
ATOM      6  C   LIG d   1      -4.469  91.921 117.672  0.00  0.00     0.091 C 
ENDROOT
BRANCH   1   7
ATOM      7  O   LIG d   1      -6.140  93.446 118.615  0.00  0.00    -0.368 OA
BRANCH   7   8
ATOM      8  C   LIG d   1      -6.256  94.881 118.453  0.00  0.00     0.119 C 
BRANCH   8   9
ATOM      9  C   LIG d   1      -5.122  95.532 119.269  0.00  0.00     0.028 C 
ATOM     10  C   LIG d   1      -4.727  94.694 120.496  0.00  0.00     0.006 C 
ENDBRANCH   8   9
BRANCH   8  11
ATOM     11  C   LIG d   1      -7.555  95.408 119.070  0.00  0.00     0.028 C 
ATOM     12  C   LIG d   1      -8.797  95.053 118.238  0.00  0.00     0.006 C 
ENDBRANCH   8  11
ENDBRANCH   7   8
ENDBRANCH   1   7
BRANCH   6  13
ATOM     13  N   LIG d   1      -3.349  92.896 117.619  0.00  0.00    -0.311 N 
ATOM     14  C   LIG d   1      -2.286  92.836 118.420  0.00  0.00     0.210 C 
ATOM     15  C   LIG d   1      -1.257  93.951 118.213  0.00  0.00     0.109 C 
ATOM     16  O   LIG d   1      -2.083  91.947 119.260  0.00  0.00    -0.276 OA
ATOM     17  H   LIG d   1      -3.417  93.634 116.945  0.00  0.00     0.149 HD
ENDBRANCH   6  13
BRANCH   5  18
ATOM     18  N   LIG d   1      -3.116  89.931 116.923  0.00  0.00     0.381 N 
ATOM     19  H   LIG d   1      -3.382  89.140 117.475  0.00  0.00    -0.090 HD
ATOM     20  H   LIG d   1      -2.447  90.469 117.444  0.00  0.00    -0.090 HD
ATOM     21  H   LIG d   1      -2.712  89.626 116.065  0.00  0.00    -0.090 HD
ENDBRANCH   5  18
BRANCH   3  22
ATOM     22  C   LIG d   1      -7.819  89.925 116.019  0.00  0.00     0.382 C 
ATOM     23  O   LIG d   1      -8.309  88.908 116.567  0.00  0.00    -0.241 OA
ATOM     24  O   LIG d   1      -8.285  90.321 114.933  0.00  0.00    -0.241 OA
ENDBRANCH   3  22
TORSDOF 7
ENDMDL
MODEL 2
REMARK VINA RESULT:      -5.7      1.174      2.060
REMARK  7 active torsions:
REMARK  status: ('A' for Active; 'I' for Inactive)
REMARK    1  A    between atoms: C_2  and  C_3 
REMARK    2  A    between atoms: C_3  and  O_6 
REMARK    3  A    between atoms: C_3  and  C_4 
REMARK    4  A    between atoms: C_7  and  O_6 
REMARK    5  A    between atoms: C_9  and  C_10 
REMARK    6  A    between atoms: N_15  and  C_14 
REMARK    7  A    between atoms: N_20  and  C_19 
REMARK       I    between atoms: C_22  and  N_20 
ROOT
ATOM      1  C   LIG d   1      -5.782  92.679 117.229  0.00  0.00     0.161 C 
ATOM      2  C   LIG d   1      -6.870  91.887 116.824  0.00  0.00     0.016 C 
ATOM      3  C   LIG d   1      -6.757  90.514 116.508  0.00  0.00     0.038 C 
ATOM      4  C   LIG d   1      -5.570  89.798 116.723  0.00  0.00     0.028 C 
ATOM      5  C   LIG d   1      -4.318  90.666 116.652  0.00  0.00    -0.047 C 
ATOM      6  C   LIG d   1      -4.503  91.890 117.577  0.00  0.00     0.091 C 
ENDROOT
BRANCH   1   7
ATOM      7  O   LIG d   1      -6.173  93.514 118.337  0.00  0.00    -0.368 OA
BRANCH   7   8
ATOM      8  C   LIG d   1      -7.136  92.944 119.257  0.00  0.00     0.119 C 
BRANCH   8   9
ATOM      9  C   LIG d   1      -8.249  93.988 119.469  0.00  0.00     0.028 C 
ATOM     10  C   LIG d   1      -8.370  94.965 118.287  0.00  0.00     0.006 C 
ENDBRANCH   8   9
BRANCH   8  11
ATOM     11  C   LIG d   1      -6.520  92.721 120.642  0.00  0.00     0.028 C 
ATOM     12  C   LIG d   1      -5.882  91.331 120.793  0.00  0.00     0.006 C 
ENDBRANCH   8  11
ENDBRANCH   7   8
ENDBRANCH   1   7
BRANCH   6  13
ATOM     13  N   LIG d   1      -3.358  92.835 117.502  0.00  0.00    -0.311 N 
ATOM     14  C   LIG d   1      -2.339  92.822 118.360  0.00  0.00     0.210 C 
ATOM     15  C   LIG d   1      -1.273  93.895 118.115  0.00  0.00     0.109 C 
ATOM     16  O   LIG d   1      -2.200  92.003 119.281  0.00  0.00    -0.276 OA
ATOM     17  H   LIG d   1      -3.374  93.513 116.766  0.00  0.00     0.149 HD
ENDBRANCH   6  13
BRANCH   5  18
ATOM     18  N   LIG d   1      -3.169  89.822 117.031  0.00  0.00     0.381 N 
ATOM     19  H   LIG d   1      -3.372  88.863 116.830  0.00  0.00    -0.090 HD
ATOM     20  H   LIG d   1      -3.012  89.912 118.019  0.00  0.00    -0.090 HD
ATOM     21  H   LIG d   1      -2.356  90.109 116.531  0.00  0.00    -0.090 HD
ENDBRANCH   5  18
BRANCH   3  22
ATOM     22  C   LIG d   1      -7.830  89.851 115.932  0.00  0.00     0.382 C 
ATOM     23  O   LIG d   1      -8.329  90.276 114.862  0.00  0.00    -0.241 OA
ATOM     24  O   LIG d   1      -8.334  88.859 116.492  0.00  0.00    -0.241 OA
ENDBRANCH   3  22
TORSDOF 7
ENDMDL
MODEL 3
REMARK VINA RESULT:      -5.3      1.946      4.778
REMARK  7 active torsions:
REMARK  status: ('A' for Active; 'I' for Inactive)
REMARK    1  A    between atoms: C_2  and  C_3 
REMARK    2  A    between atoms: C_3  and  O_6 
REMARK    3  A    between atoms: C_3  and  C_4 
REMARK    4  A    between atoms: C_7  and  O_6 
REMARK    5  A    between atoms: C_9  and  C_10 
REMARK    6  A    between atoms: N_15  and  C_14 
REMARK    7  A    between atoms: N_20  and  C_19 
REMARK       I    between atoms: C_22  and  N_20 
ROOT
ATOM      1  C   LIG d   1      -6.618  91.907 118.619  0.00  0.00     0.161 C 
ATOM      2  C   LIG d   1      -7.791  92.679 118.584  0.00  0.00     0.016 C 
ATOM      3  C   LIG d   1      -7.795  94.092 118.642  0.00  0.00     0.038 C 
ATOM      4  C   LIG d   1      -6.609  94.839 118.587  0.00  0.00     0.028 C 
ATOM      5  C   LIG d   1      -5.396  94.092 119.132  0.00  0.00    -0.047 C 
ATOM      6  C   LIG d   1      -5.311  92.709 118.447  0.00  0.00     0.091 C 
ENDROOT
BRANCH   1   7
ATOM      7  O   LIG d   1      -6.695  90.857 117.636  0.00  0.00    -0.368 OA
BRANCH   7   8
ATOM      8  C   LIG d   1      -6.733  91.281 116.251  0.00  0.00     0.119 C 
BRANCH   8   9
ATOM      9  C   LIG d   1      -7.724  90.362 115.512  0.00  0.00     0.028 C 
ATOM     10  C   LIG d   1      -8.395  89.346 116.451  0.00  0.00     0.006 C 
ENDBRANCH   8   9
BRANCH   8  11
ATOM     11  C   LIG d   1      -5.383  91.059 115.562  0.00  0.00     0.028 C 
ATOM     12  C   LIG d   1      -4.701  89.752 115.997  0.00  0.00     0.006 C 
ENDBRANCH   8  11
ENDBRANCH   7   8
ENDBRANCH   1   7
BRANCH   6  13
ATOM     13  N   LIG d   1      -4.201  91.879 118.984  0.00  0.00    -0.311 N 
ATOM     14  C   LIG d   1      -2.975  91.868 118.462  0.00  0.00     0.210 C 
ATOM     15  C   LIG d   1      -1.986  90.926 119.155  0.00  0.00     0.109 C 
ATOM     16  O   LIG d   1      -2.605  92.573 117.511  0.00  0.00    -0.276 OA
ATOM     17  H   LIG d   1      -4.405  91.299 119.774  0.00  0.00     0.149 HD
ENDBRANCH   6  13
BRANCH   5  18
ATOM     18  N   LIG d   1      -4.209  94.932 118.888  0.00  0.00     0.381 N 
ATOM     19  H   LIG d   1      -3.773  94.662 118.029  0.00  0.00    -0.090 HD
ATOM     20  H   LIG d   1      -3.551  94.790 119.634  0.00  0.00    -0.090 HD
ATOM     21  H   LIG d   1      -4.473  95.892 118.846  0.00  0.00    -0.090 HD
ENDBRANCH   5  18
BRANCH   3  22
ATOM     22  C   LIG d   1      -8.994  94.770 118.796  0.00  0.00     0.382 C 
ATOM     23  O   LIG d   1     -10.012  94.160 119.204  0.00  0.00    -0.241 OA
ATOM     24  O   LIG d   1      -9.083  95.974 118.491  0.00  0.00    -0.241 OA
ENDBRANCH   3  22
TORSDOF 7
ENDMDL
MODEL 4
REMARK VINA RESULT:      -5.1      2.336      4.589
REMARK  7 active torsions:
REMARK  status: ('A' for Active; 'I' for Inactive)
REMARK    1  A    between atoms: C_2  and  C_3 
REMARK    2  A    between atoms: C_3  and  O_6 
REMARK    3  A    between atoms: C_3  and  C_4 
REMARK    4  A    between atoms: C_7  and  O_6 
REMARK    5  A    between atoms: C_9  and  C_10 
REMARK    6  A    between atoms: N_15  and  C_14 
REMARK    7  A    between atoms: N_20  and  C_19 
REMARK       I    between atoms: C_22  and  N_20 
ROOT
ATOM      1  C   LIG d   1      -4.352  90.687 117.872  0.00  0.00     0.161 C 
ATOM      2  C   LIG d   1      -5.357  90.096 117.090  0.00  0.00     0.016 C 
ATOM      3  C   LIG d   1      -6.463  90.810 116.574  0.00  0.00     0.038 C 
ATOM      4  C   LIG d   1      -6.559  92.206 116.680  0.00  0.00     0.028 C 
ATOM      5  C   LIG d   1      -5.828  92.773 117.892  0.00  0.00    -0.047 C 
ATOM      6  C   LIG d   1      -4.381  92.229 117.905  0.00  0.00     0.091 C 
ENDROOT
BRANCH   1   7
ATOM      7  O   LIG d   1      -3.058  90.219 117.441  0.00  0.00    -0.368 OA
BRANCH   7   8
ATOM      8  C   LIG d   1      -2.334  89.390 118.382  0.00  0.00     0.119 C 
BRANCH   8   9
ATOM      9  C   LIG d   1      -2.273  87.967 117.793  0.00  0.00     0.028 C 
ATOM     10  C   LIG d   1      -0.839  87.541 117.434  0.00  0.00     0.006 C 
ENDBRANCH   8   9
BRANCH   8  11
ATOM     11  C   LIG d   1      -3.096  89.250 119.703  0.00  0.00     0.028 C 
ATOM     12  C   LIG d   1      -3.258  87.787 120.145  0.00  0.00     0.006 C 
ENDBRANCH   8  11
ENDBRANCH   7   8
ENDBRANCH   1   7
BRANCH   6  13
ATOM     13  N   LIG d   1      -3.621  92.668 119.105  0.00  0.00    -0.311 N 
ATOM     14  C   LIG d   1      -2.390  93.173 119.049  0.00  0.00     0.210 C 
ATOM     15  C   LIG d   1      -1.781  93.543 120.405  0.00  0.00     0.109 C 
ATOM     16  O   LIG d   1      -1.757  93.380 118.002  0.00  0.00    -0.276 OA
ATOM     17  H   LIG d   1      -4.072  92.565 119.993  0.00  0.00     0.149 HD
ENDBRANCH   6  13
BRANCH   5  18
ATOM     18  N   LIG d   1      -5.893  94.244 117.804  0.00  0.00     0.381 N 
ATOM     19  H   LIG d   1      -5.498  94.650 118.629  0.00  0.00    -0.090 HD
ATOM     20  H   LIG d   1      -6.856  94.524 117.745  0.00  0.00    -0.090 HD
ATOM     21  H   LIG d   1      -5.397  94.559 117.000  0.00  0.00    -0.090 HD
ENDBRANCH   5  18
BRANCH   3  22
ATOM     22  C   LIG d   1      -7.508  90.122 115.977  0.00  0.00     0.382 C 
ATOM     23  O   LIG d   1      -7.921  89.049 116.481  0.00  0.00    -0.241 OA
ATOM     24  O   LIG d   1      -8.014  90.536 114.917  0.00  0.00    -0.241 OA
ENDBRANCH   3  22
TORSDOF 7
ENDMDL
MODEL 5
REMARK VINA RESULT:      -4.4     10.588     13.267
REMARK  7 active torsions:
REMARK  status: ('A' for Active; 'I' for Inactive)
REMARK    1  A    between atoms: C_2  and  C_3 
REMARK    2  A    between atoms: C_3  and  O_6 
REMARK    3  A    between atoms: C_3  and  C_4 
REMARK    4  A    between atoms: C_7  and  O_6 
REMARK    5  A    between atoms: C_9  and  C_10 
REMARK    6  A    between atoms: N_15  and  C_14 
REMARK    7  A    between atoms: N_20  and  C_19 
REMARK       I    between atoms: C_22  and  N_20 
ROOT
ATOM      1  C   LIG d   1     -16.954  96.509 117.610  0.00  0.00     0.161 C 
ATOM      2  C   LIG d   1     -18.228  96.559 117.019  0.00  0.00     0.016 C 
ATOM      3  C   LIG d   1     -19.421  96.258 117.714  0.00  0.00     0.038 C 
ATOM      4  C   LIG d   1     -19.435  96.030 119.098  0.00  0.00     0.028 C 
ATOM      5  C   LIG d   1     -18.121  95.474 119.634  0.00  0.00    -0.047 C 
ATOM      6  C   LIG d   1     -16.960  96.371 119.147  0.00  0.00     0.091 C 
ENDROOT
BRANCH   1   7
ATOM      7  O   LIG d   1     -16.186  97.662 117.214  0.00  0.00    -0.368 OA
BRANCH   7   8
ATOM      8  C   LIG d   1     -16.945  98.812 116.767  0.00  0.00     0.119 C 
BRANCH   8   9
ATOM      9  C   LIG d   1     -16.159  99.467 115.615  0.00  0.00     0.028 C 
ATOM     10  C   LIG d   1     -14.658  99.592 115.926  0.00  0.00     0.006 C 
ENDBRANCH   8   9
BRANCH   8  11
ATOM     11  C   LIG d   1     -17.032  99.881 117.859  0.00  0.00     0.028 C 
ATOM     12  C   LIG d   1     -18.462 100.082 118.385  0.00  0.00     0.006 C 
ENDBRANCH   8  11
ENDBRANCH   7   8
ENDBRANCH   1   7
BRANCH   6  13
ATOM     13  N   LIG d   1     -15.630  95.850 119.557  0.00  0.00    -0.311 N 
ATOM     14  C   LIG d   1     -15.026  96.194 120.693  0.00  0.00     0.210 C 
ATOM     15  C   LIG d   1     -13.650  95.557 120.912  0.00  0.00     0.109 C 
ATOM     16  O   LIG d   1     -15.513  96.942 121.554  0.00  0.00    -0.276 OA
ATOM     17  H   LIG d   1     -15.177  95.213 118.931  0.00  0.00     0.149 HD
ENDBRANCH   6  13
BRANCH   5  18
ATOM     18  N   LIG d   1     -18.228  95.414 121.104  0.00  0.00     0.381 N 
ATOM     19  H   LIG d   1     -18.840  94.669 121.370  0.00  0.00    -0.090 HD
ATOM     20  H   LIG d   1     -18.620  96.278 121.437  0.00  0.00    -0.090 HD
ATOM     21  H   LIG d   1     -17.327  95.274 121.506  0.00  0.00    -0.090 HD
ENDBRANCH   5  18
BRANCH   3  22
ATOM     22  C   LIG d   1     -20.613  96.142 117.015  0.00  0.00     0.382 C 
ATOM     23  O   LIG d   1     -20.700  96.587 115.845  0.00  0.00    -0.241 OA
ATOM     24  O   LIG d   1     -21.616  95.639 117.556  0.00  0.00    -0.241 OA
ENDBRANCH   3  22
TORSDOF 7
ENDMDL
MODEL 6
REMARK VINA RESULT:      -4.4      2.819      4.835
REMARK  7 active torsions:
REMARK  status: ('A' for Active; 'I' for Inactive)
REMARK    1  A    between atoms: C_2  and  C_3 
REMARK    2  A    between atoms: C_3  and  O_6 
REMARK    3  A    between atoms: C_3  and  C_4 
REMARK    4  A    between atoms: C_7  and  O_6 
REMARK    5  A    between atoms: C_9  and  C_10 
REMARK    6  A    between atoms: N_15  and  C_14 
REMARK    7  A    between atoms: N_20  and  C_19 
REMARK       I    between atoms: C_22  and  N_20 
ROOT
ATOM      1  C   LIG d   1      -5.749  93.473 119.206  0.00  0.00     0.161 C 
ATOM      2  C   LIG d   1      -4.504  93.012 118.748  0.00  0.00     0.016 C 
ATOM      3  C   LIG d   1      -4.341  91.824 117.999  0.00  0.00     0.038 C 
ATOM      4  C   LIG d   1      -5.439  91.091 117.524  0.00  0.00     0.028 C 
ATOM      5  C   LIG d   1      -6.686  91.241 118.387  0.00  0.00    -0.047 C 
ATOM      6  C   LIG d   1      -6.969  92.745 118.604  0.00  0.00     0.091 C 
ENDROOT
BRANCH   1   7
ATOM      7  O   LIG d   1      -5.855  94.893 118.988  0.00  0.00    -0.368 OA
BRANCH   7   8
ATOM      8  C   LIG d   1      -5.423  95.740 120.082  0.00  0.00     0.119 C 
BRANCH   8   9
ATOM      9  C   LIG d   1      -6.644  95.978 120.993  0.00  0.00     0.028 C 
ATOM     10  C   LIG d   1      -7.634  96.991 120.394  0.00  0.00     0.006 C 
ENDBRANCH   8   9
BRANCH   8  11
ATOM     11  C   LIG d   1      -5.013  97.129 119.584  0.00  0.00     0.028 C 
ATOM     12  C   LIG d   1      -3.596  97.526 120.026  0.00  0.00     0.006 C 
ENDBRANCH   8  11
ENDBRANCH   7   8
ENDBRANCH   1   7
BRANCH   6  13
ATOM     13  N   LIG d   1      -8.125  92.981 119.508  0.00  0.00    -0.311 N 
ATOM     14  C   LIG d   1      -9.131  93.802 119.213  0.00  0.00     0.210 C 
ATOM     15  C   LIG d   1     -10.211  93.915 120.293  0.00  0.00     0.109 C 
ATOM     16  O   LIG d   1      -9.248  94.423 118.146  0.00  0.00    -0.276 OA
ATOM     17  H   LIG d   1      -8.127  92.493 120.382  0.00  0.00     0.149 HD
ENDBRANCH   6  13
BRANCH   5  18
ATOM     18  N   LIG d   1      -7.789  90.538 117.704  0.00  0.00     0.381 N 
ATOM     19  H   LIG d   1      -7.902  89.625 118.096  0.00  0.00    -0.090 HD
ATOM     20  H   LIG d   1      -7.556  90.437 116.732  0.00  0.00    -0.090 HD
ATOM     21  H   LIG d   1      -8.634  91.056 117.799  0.00  0.00    -0.090 HD
ENDBRANCH   5  18
BRANCH   3  22
ATOM     22  C   LIG d   1      -3.067  91.337 117.750  0.00  0.00     0.382 C 
ATOM     23  O   LIG d   1      -2.076  92.103 117.833  0.00  0.00    -0.241 OA
ATOM     24  O   LIG d   1      -2.900  90.153 117.401  0.00  0.00    -0.241 OA
ENDBRANCH   3  22
TORSDOF 7
ENDMDL
MODEL 7
REMARK VINA RESULT:      -4.3     11.409     13.948
REMARK  7 active torsions:
REMARK  status: ('A' for Active; 'I' for Inactive)
REMARK    1  A    between atoms: C_2  and  C_3 
REMARK    2  A    between atoms: C_3  and  O_6 
REMARK    3  A    between atoms: C_3  and  C_4 
REMARK    4  A    between atoms: C_7  and  O_6 
REMARK    5  A    between atoms: C_9  and  C_10 
REMARK    6  A    between atoms: N_15  and  C_14 
REMARK    7  A    between atoms: N_20  and  C_19 
REMARK       I    between atoms: C_22  and  N_20 
ROOT
ATOM      1  C   LIG d   1      -6.851  79.327 118.891  0.00  0.00     0.161 C 
ATOM      2  C   LIG d   1      -5.693  78.867 118.242  0.00  0.00     0.016 C 
ATOM      3  C   LIG d   1      -5.664  77.713 117.427  0.00  0.00     0.038 C 
ATOM      4  C   LIG d   1      -6.833  77.020 117.081  0.00  0.00     0.028 C 
ATOM      5  C   LIG d   1      -7.944  77.150 118.118  0.00  0.00    -0.047 C 
ATOM      6  C   LIG d   1      -8.159  78.647 118.437  0.00  0.00     0.091 C 
ENDROOT
BRANCH   1   7
ATOM      7  O   LIG d   1      -6.954  80.758 118.752  0.00  0.00    -0.368 OA
BRANCH   7   8
ATOM      8  C   LIG d   1      -7.213  81.500 119.969  0.00  0.00     0.119 C 
BRANCH   8   9
ATOM      9  C   LIG d   1      -8.225  82.611 119.627  0.00  0.00     0.028 C 
ATOM     10  C   LIG d   1      -9.175  82.919 120.796  0.00  0.00     0.006 C 
ENDBRANCH   8   9
BRANCH   8  11
ATOM     11  C   LIG d   1      -5.958  82.230 120.454  0.00  0.00     0.028 C 
ATOM     12  C   LIG d   1      -5.099  81.375 121.400  0.00  0.00     0.006 C 
ENDBRANCH   8  11
ENDBRANCH   7   8
ENDBRANCH   1   7
BRANCH   6  13
ATOM     13  N   LIG d   1      -9.171  78.860 119.505  0.00  0.00    -0.311 N 
ATOM     14  C   LIG d   1     -10.259  79.611 119.345  0.00  0.00     0.210 C 
ATOM     15  C   LIG d   1     -11.161  79.714 120.578  0.00  0.00     0.109 C 
ATOM     16  O   LIG d   1     -10.579  80.176 118.288  0.00  0.00    -0.276 OA
ATOM     17  H   LIG d   1      -9.006  78.412 120.385  0.00  0.00     0.149 HD
ENDBRANCH   6  13
BRANCH   5  18
ATOM     18  N   LIG d   1      -9.146  76.497 117.568  0.00  0.00     0.381 N 
ATOM     19  H   LIG d   1      -8.939  76.106 116.671  0.00  0.00    -0.090 HD
ATOM     20  H   LIG d   1      -9.867  77.187 117.452  0.00  0.00    -0.090 HD
ATOM     21  H   LIG d   1      -9.458  75.781 118.187  0.00  0.00    -0.090 HD
ENDBRANCH   5  18
BRANCH   3  22
ATOM     22  C   LIG d   1      -4.448  77.217 116.981  0.00  0.00     0.382 C 
ATOM     23  O   LIG d   1      -3.686  76.615 117.776  0.00  0.00    -0.241 OA
ATOM     24  O   LIG d   1      -4.084  77.403 115.804  0.00  0.00    -0.241 OA
ENDBRANCH   3  22
TORSDOF 7
ENDMDL
MODEL 8
REMARK VINA RESULT:      -4.2     26.391     29.733
REMARK  7 active torsions:
REMARK  status: ('A' for Active; 'I' for Inactive)
REMARK    1  A    between atoms: C_2  and  C_3 
REMARK    2  A    between atoms: C_3  and  O_6 
REMARK    3  A    between atoms: C_3  and  C_4 
REMARK    4  A    between atoms: C_7  and  O_6 
REMARK    5  A    between atoms: C_9  and  C_10 
REMARK    6  A    between atoms: N_15  and  C_14 
REMARK    7  A    between atoms: N_20  and  C_19 
REMARK       I    between atoms: C_22  and  N_20 
ROOT
ATOM      1  C   LIG d   1     -16.226  65.076 117.864  0.00  0.00     0.161 C 
ATOM      2  C   LIG d   1     -16.480  66.418 117.540  0.00  0.00     0.016 C 
ATOM      3  C   LIG d   1     -15.957  67.509 118.273  0.00  0.00     0.038 C 
ATOM      4  C   LIG d   1     -15.014  67.330 119.296  0.00  0.00     0.028 C 
ATOM      5  C   LIG d   1     -15.117  65.973 119.984  0.00  0.00    -0.047 C 
ATOM      6  C   LIG d   1     -15.110  64.863 118.909  0.00  0.00     0.091 C 
ENDROOT
BRANCH   1   7
ATOM      7  O   LIG d   1     -15.938  64.330 116.665  0.00  0.00    -0.368 OA
BRANCH   7   8
ATOM      8  C   LIG d   1     -16.960  63.399 116.233  0.00  0.00     0.119 C 
BRANCH   8   9
ATOM      9  C   LIG d   1     -17.649  64.009 114.997  0.00  0.00     0.028 C 
ATOM     10  C   LIG d   1     -19.009  64.642 115.335  0.00  0.00     0.006 C 
ENDBRANCH   8   9
BRANCH   8  11
ATOM     11  C   LIG d   1     -18.065  63.257 117.284  0.00  0.00     0.028 C 
ATOM     12  C   LIG d   1     -18.150  61.839 117.871  0.00  0.00     0.006 C 
ENDBRANCH   8  11
ENDBRANCH   7   8
ENDBRANCH   1   7
BRANCH   6  13
ATOM     13  N   LIG d   1     -15.292  63.508 119.492  0.00  0.00    -0.311 N 
ATOM     14  C   LIG d   1     -14.520  62.467 119.184  0.00  0.00     0.210 C 
ATOM     15  C   LIG d   1     -14.892  61.156 119.883  0.00  0.00     0.109 C 
ATOM     16  O   LIG d   1     -13.542  62.513 118.423  0.00  0.00    -0.276 OA
ATOM     17  H   LIG d   1     -16.044  63.389 120.143  0.00  0.00     0.149 HD
ENDBRANCH   6  13
BRANCH   5  18
ATOM     18  N   LIG d   1     -13.992  65.867 120.932  0.00  0.00     0.381 N 
ATOM     19  H   LIG d   1     -14.335  65.624 121.840  0.00  0.00    -0.090 HD
ATOM     20  H   LIG d   1     -13.536  66.761 120.996  0.00  0.00    -0.090 HD
ATOM     21  H   LIG d   1     -13.345  65.178 120.618  0.00  0.00    -0.090 HD
ENDBRANCH   5  18
BRANCH   3  22
ATOM     22  C   LIG d   1     -16.408  68.793 118.010  0.00  0.00     0.382 C 
ATOM     23  O   LIG d   1     -16.935  69.472 118.924  0.00  0.00    -0.241 OA
ATOM     24  O   LIG d   1     -16.335  69.265 116.859  0.00  0.00    -0.241 OA
ENDBRANCH   3  22
TORSDOF 7
ENDMDL
MODEL 9
REMARK VINA RESULT:      -4.0      2.231      4.627
REMARK  7 active torsions:
REMARK  status: ('A' for Active; 'I' for Inactive)
REMARK    1  A    between atoms: C_2  and  C_3 
REMARK    2  A    between atoms: C_3  and  O_6 
REMARK    3  A    between atoms: C_3  and  C_4 
REMARK    4  A    between atoms: C_7  and  O_6 
REMARK    5  A    between atoms: C_9  and  C_10 
REMARK    6  A    between atoms: N_15  and  C_14 
REMARK    7  A    between atoms: N_20  and  C_19 
REMARK       I    between atoms: C_22  and  N_20 
ROOT
ATOM      1  C   LIG d   1      -4.350  92.130 119.213  0.00  0.00     0.161 C 
ATOM      2  C   LIG d   1      -3.769  90.857 119.328  0.00  0.00     0.016 C 
ATOM      3  C   LIG d   1      -3.780  89.899 118.288  0.00  0.00     0.038 C 
ATOM      4  C   LIG d   1      -4.244  90.208 117.001  0.00  0.00     0.028 C 
ATOM      5  C   LIG d   1      -5.297  91.311 116.985  0.00  0.00    -0.047 C 
ATOM      6  C   LIG d   1      -4.763  92.525 117.779  0.00  0.00     0.091 C 
ENDROOT
BRANCH   1   7
ATOM      7  O   LIG d   1      -3.466  93.123 119.771  0.00  0.00    -0.368 OA
BRANCH   7   8
ATOM      8  C   LIG d   1      -2.483  93.682 118.865  0.00  0.00     0.119 C 
BRANCH   8   9
ATOM      9  C   LIG d   1      -1.119  93.059 119.221  0.00  0.00     0.028 C 
ATOM     10  C   LIG d   1      -0.589  92.136 118.111  0.00  0.00     0.006 C 
ENDBRANCH   8   9
BRANCH   8  11
ATOM     11  C   LIG d   1      -2.312  95.188 119.090  0.00  0.00     0.028 C 
ATOM     12  C   LIG d   1      -1.119  95.773 118.317  0.00  0.00     0.006 C 
ENDBRANCH   8  11
ENDBRANCH   7   8
ENDBRANCH   1   7
BRANCH   6  13
ATOM     13  N   LIG d   1      -5.764  93.618 117.885  0.00  0.00    -0.311 N 
ATOM     14  C   LIG d   1      -7.075  93.404 117.986  0.00  0.00     0.210 C 
ATOM     15  C   LIG d   1      -7.933  94.671 118.063  0.00  0.00     0.109 C 
ATOM     16  O   LIG d   1      -7.606  92.285 118.052  0.00  0.00    -0.276 OA
ATOM     17  H   LIG d   1      -5.418  94.557 117.870  0.00  0.00     0.149 HD
ENDBRANCH   6  13
BRANCH   5  18
ATOM     18  N   LIG d   1      -5.591  91.626 115.574  0.00  0.00     0.381 N 
ATOM     19  H   LIG d   1      -4.842  92.164 115.185  0.00  0.00    -0.090 HD
ATOM     20  H   LIG d   1      -6.430  92.178 115.533  0.00  0.00    -0.090 HD
ATOM     21  H   LIG d   1      -5.711  90.785 115.055  0.00  0.00    -0.090 HD
ENDBRANCH   5  18
BRANCH   3  22
ATOM     22  C   LIG d   1      -3.359  88.603 118.543  0.00  0.00     0.382 C 
ATOM     23  O   LIG d   1      -2.662  87.992 117.697  0.00  0.00    -0.241 OA
ATOM     24  O   LIG d   1      -3.704  88.021 119.589  0.00  0.00    -0.241 OA
ENDBRANCH   3  22
TORSDOF 7
ENDMDL
