MODEL 1
REMARK VINA RESULT:      -5.4      0.000      0.000
REMARK  7 active torsions:
REMARK  status: ('A' for Active; 'I' for Inactive)
REMARK    1  A    between atoms: C_2  and  C_3 
REMARK    2  A    between atoms: C_3  and  O_6 
REMARK    3  A    between atoms: C_3  and  C_4 
REMARK    4  A    between atoms: C_7  and  O_6 
REMARK    5  A    between atoms: C_9  and  C_10 
REMARK    6  A    between atoms: N_15  and  C_14 
REMARK    7  A    between atoms: N_20  and  C_19 
REMARK       I    between atoms: C_22  and  N_20 
ROOT
ATOM      1  C   LIG d   1      -4.157  77.207 115.554  0.00  0.00     0.161 C 
ATOM      2  C   LIG d   1      -3.311  76.100 115.373  0.00  0.00     0.016 C 
ATOM      3  C   LIG d   1      -2.406  75.644 116.358  0.00  0.00     0.038 C 
ATOM      4  C   LIG d   1      -2.393  76.175 117.657  0.00  0.00     0.028 C 
ATOM      5  C   LIG d   1      -2.874  77.621 117.724  0.00  0.00    -0.047 C 
ATOM      6  C   LIG d   1      -4.237  77.731 117.003  0.00  0.00     0.091 C 
ENDROOT
BRANCH   1   7
ATOM      7  O   LIG d   1      -5.476  76.901 115.059  0.00  0.00    -0.368 OA
BRANCH   7   8
ATOM      8  C   LIG d   1      -6.299  76.067 115.911  0.00  0.00     0.119 C 
BRANCH   8   9
ATOM      9  C   LIG d   1      -6.356  74.666 115.273  0.00  0.00     0.028 C 
ATOM     10  C   LIG d   1      -6.952  73.612 116.222  0.00  0.00     0.006 C 
ENDBRANCH   8   9
BRANCH   8  11
ATOM     11  C   LIG d   1      -7.749  76.559 115.940  0.00  0.00     0.028 C 
ATOM     12  C   LIG d   1      -8.088  77.338 117.220  0.00  0.00     0.006 C 
ENDBRANCH   8  11
ENDBRANCH   7   8
ENDBRANCH   1   7
BRANCH   6  13
ATOM     13  N   LIG d   1      -4.738  79.129 116.949  0.00  0.00    -0.311 N 
ATOM     14  C   LIG d   1      -5.464  79.685 117.918  0.00  0.00     0.210 C 
ATOM     15  C   LIG d   1      -5.896  81.131 117.654  0.00  0.00     0.109 C 
ATOM     16  O   LIG d   1      -5.762  79.129 118.986  0.00  0.00    -0.276 OA
ATOM     17  H   LIG d   1      -4.515  79.662 116.132  0.00  0.00     0.149 HD
ENDBRANCH   6  13
BRANCH   5  18
ATOM     18  N   LIG d   1      -2.941  78.002 119.148  0.00  0.00     0.381 N 
ATOM     19  H   LIG d   1      -3.828  78.419 119.345  0.00  0.00    -0.090 HD
ATOM     20  H   LIG d   1      -2.224  78.681 119.336  0.00  0.00    -0.090 HD
ATOM     21  H   LIG d   1      -2.807  77.200 119.722  0.00  0.00    -0.090 HD
ENDBRANCH   5  18
BRANCH   3  22
ATOM     22  C   LIG d   1      -1.473  74.671 116.036  0.00  0.00     0.382 C 
ATOM     23  O   LIG d   1      -1.119  74.512 114.843  0.00  0.00    -0.241 OA
ATOM     24  O   LIG d   1      -1.013  73.920 116.917  0.00  0.00    -0.241 OA
ENDBRANCH   3  22
TORSDOF 7
ENDMDL
MODEL 2
REMARK VINA RESULT:      -5.3      2.482      5.776
REMARK  7 active torsions:
REMARK  status: ('A' for Active; 'I' for Inactive)
REMARK    1  A    between atoms: C_2  and  C_3 
REMARK    2  A    between atoms: C_3  and  O_6 
REMARK    3  A    between atoms: C_3  and  C_4 
REMARK    4  A    between atoms: C_7  and  O_6 
REMARK    5  A    between atoms: C_9  and  C_10 
REMARK    6  A    between atoms: N_15  and  C_14 
REMARK    7  A    between atoms: N_20  and  C_19 
REMARK       I    between atoms: C_22  and  N_20 
ROOT
ATOM      1  C   LIG d   1      -6.809  78.458 117.330  0.00  0.00     0.161 C 
ATOM      2  C   LIG d   1      -8.170  78.762 117.507  0.00  0.00     0.016 C 
ATOM      3  C   LIG d   1      -8.632  80.005 117.996  0.00  0.00     0.038 C 
ATOM      4  C   LIG d   1      -7.766  81.090 118.200  0.00  0.00     0.028 C 
ATOM      5  C   LIG d   1      -6.334  80.671 118.516  0.00  0.00    -0.047 C 
ATOM      6  C   LIG d   1      -5.857  79.666 117.442  0.00  0.00     0.091 C 
ENDROOT
BRANCH   1   7
ATOM      7  O   LIG d   1      -6.619  77.785 116.070  0.00  0.00    -0.368 OA
BRANCH   7   8
ATOM      8  C   LIG d   1      -6.140  76.419 116.142  0.00  0.00     0.119 C 
BRANCH   8   9
ATOM      9  C   LIG d   1      -5.443  76.102 114.805  0.00  0.00     0.028 C 
ATOM     10  C   LIG d   1      -3.938  75.832 114.978  0.00  0.00     0.006 C 
ENDBRANCH   8   9
BRANCH   8  11
ATOM     11  C   LIG d   1      -7.302  75.426 116.240  0.00  0.00     0.028 C 
ATOM     12  C   LIG d   1      -6.831  73.967 116.343  0.00  0.00     0.006 C 
ENDBRANCH   8  11
ENDBRANCH   7   8
ENDBRANCH   1   7
BRANCH   6  13
ATOM     13  N   LIG d   1      -4.495  79.141 117.723  0.00  0.00    -0.311 N 
ATOM     14  C   LIG d   1      -3.538  79.055 116.801  0.00  0.00     0.210 C 
ATOM     15  C   LIG d   1      -2.214  78.466 117.296  0.00  0.00     0.109 C 
ATOM     16  O   LIG d   1      -3.650  79.441 115.627  0.00  0.00    -0.276 OA
ATOM     17  H   LIG d   1      -4.308  78.835 118.658  0.00  0.00     0.149 HD
ENDBRANCH   6  13
BRANCH   5  18
ATOM     18  N   LIG d   1      -5.513  81.895 118.569  0.00  0.00     0.381 N 
ATOM     19  H   LIG d   1      -4.573  81.662 118.822  0.00  0.00    -0.090 HD
ATOM     20  H   LIG d   1      -5.886  82.507 119.273  0.00  0.00    -0.090 HD
ATOM     21  H   LIG d   1      -5.522  82.350 117.683  0.00  0.00    -0.090 HD
ENDBRANCH   5  18
BRANCH   3  22
ATOM     22  C   LIG d   1      -9.970  80.160 118.324  0.00  0.00     0.382 C 
ATOM     23  O   LIG d   1     -10.584  81.199 117.980  0.00  0.00    -0.241 OA
ATOM     24  O   LIG d   1     -10.560  79.294 118.997  0.00  0.00    -0.241 OA
ENDBRANCH   3  22
TORSDOF 7
ENDMDL
MODEL 3
REMARK VINA RESULT:      -5.3      2.315      4.707
REMARK  7 active torsions:
REMARK  status: ('A' for Active; 'I' for Inactive)
REMARK    1  A    between atoms: C_2  and  C_3 
REMARK    2  A    between atoms: C_3  and  O_6 
REMARK    3  A    between atoms: C_3  and  C_4 
REMARK    4  A    between atoms: C_7  and  O_6 
REMARK    5  A    between atoms: C_9  and  C_10 
REMARK    6  A    between atoms: N_15  and  C_14 
REMARK    7  A    between atoms: N_20  and  C_19 
REMARK       I    between atoms: C_22  and  N_20 
ROOT
ATOM      1  C   LIG d   1      -4.598  75.626 116.508  0.00  0.00     0.161 C 
ATOM      2  C   LIG d   1      -5.304  74.468 116.141  0.00  0.00     0.016 C 
ATOM      3  C   LIG d   1      -6.715  74.380 116.157  0.00  0.00     0.038 C 
ATOM      4  C   LIG d   1      -7.526  75.499 116.399  0.00  0.00     0.028 C 
ATOM      5  C   LIG d   1      -6.853  76.558 117.266  0.00  0.00    -0.047 C 
ATOM      6  C   LIG d   1      -5.468  76.890 116.667  0.00  0.00     0.091 C 
ENDROOT
BRANCH   1   7
ATOM      7  O   LIG d   1      -3.532  75.866 115.568  0.00  0.00    -0.368 OA
BRANCH   7   8
ATOM      8  C   LIG d   1      -2.265  75.229 115.865  0.00  0.00     0.119 C 
BRANCH   8   9
ATOM      9  C   LIG d   1      -2.004  75.399 117.374  0.00  0.00     0.028 C 
ATOM     10  C   LIG d   1      -1.141  74.265 117.952  0.00  0.00     0.006 C 
ENDBRANCH   8   9
BRANCH   8  11
ATOM     11  C   LIG d   1      -1.104  75.946 115.170  0.00  0.00     0.028 C 
ATOM     12  C   LIG d   1      -1.117  77.465 115.403  0.00  0.00     0.006 C 
ENDBRANCH   8  11
ENDBRANCH   7   8
ENDBRANCH   1   7
BRANCH   6  13
ATOM     13  N   LIG d   1      -4.707  77.857 117.502  0.00  0.00    -0.311 N 
ATOM     14  C   LIG d   1      -4.121  78.947 117.011  0.00  0.00     0.210 C 
ATOM     15  C   LIG d   1      -3.371  79.798 118.040  0.00  0.00     0.109 C 
ATOM     16  O   LIG d   1      -4.178  79.308 115.825  0.00  0.00    -0.276 OA
ATOM     17  H   LIG d   1      -4.637  77.658 118.481  0.00  0.00     0.149 HD
ENDBRANCH   6  13
BRANCH   5  18
ATOM     18  N   LIG d   1      -7.754  77.725 117.324  0.00  0.00     0.381 N 
ATOM     19  H   LIG d   1      -7.978  77.933 118.276  0.00  0.00    -0.090 HD
ATOM     20  H   LIG d   1      -8.606  77.501 116.841  0.00  0.00    -0.090 HD
ATOM     21  H   LIG d   1      -7.318  78.513 116.897  0.00  0.00    -0.090 HD
ENDBRANCH   5  18
BRANCH   3  22
ATOM     22  C   LIG d   1      -7.329  73.150 115.969  0.00  0.00     0.382 C 
ATOM     23  O   LIG d   1      -6.664  72.177 115.540  0.00  0.00    -0.241 OA
ATOM     24  O   LIG d   1      -8.549  73.015 116.180  0.00  0.00    -0.241 OA
ENDBRANCH   3  22
TORSDOF 7
ENDMDL
MODEL 4
REMARK VINA RESULT:      -5.2     14.845     17.291
REMARK  7 active torsions:
REMARK  status: ('A' for Active; 'I' for Inactive)
REMARK    1  A    between atoms: C_2  and  C_3 
REMARK    2  A    between atoms: C_3  and  O_6 
REMARK    3  A    between atoms: C_3  and  C_4 
REMARK    4  A    between atoms: C_7  and  O_6 
REMARK    5  A    between atoms: C_9  and  C_10 
REMARK    6  A    between atoms: N_15  and  C_14 
REMARK    7  A    between atoms: N_20  and  C_19 
REMARK       I    between atoms: C_22  and  N_20 
ROOT
ATOM      1  C   LIG d   1      -5.854  93.670 118.331  0.00  0.00     0.161 C 
ATOM      2  C   LIG d   1      -6.465  92.885 117.339  0.00  0.00     0.016 C 
ATOM      3  C   LIG d   1      -5.763  91.952 116.543  0.00  0.00     0.038 C 
ATOM      4  C   LIG d   1      -4.420  91.630 116.788  0.00  0.00     0.028 C 
ATOM      5  C   LIG d   1      -3.636  92.761 117.446  0.00  0.00    -0.047 C 
ATOM      6  C   LIG d   1      -4.412  93.253 118.689  0.00  0.00     0.091 C 
ENDROOT
BRANCH   1   7
ATOM      7  O   LIG d   1      -6.678  93.692 119.514  0.00  0.00    -0.368 OA
BRANCH   7   8
ATOM      8  C   LIG d   1      -7.369  94.936 119.786  0.00  0.00     0.119 C 
BRANCH   8   9
ATOM      9  C   LIG d   1      -8.815  94.783 119.275  0.00  0.00     0.028 C 
ATOM     10  C   LIG d   1      -9.840  94.729 120.420  0.00  0.00     0.006 C 
ENDBRANCH   8   9
BRANCH   8  11
ATOM     11  C   LIG d   1      -6.774  96.093 118.978  0.00  0.00     0.028 C 
ATOM     12  C   LIG d   1      -7.841  96.915 118.239  0.00  0.00     0.006 C 
ENDBRANCH   8  11
ENDBRANCH   7   8
ENDBRANCH   1   7
BRANCH   6  13
ATOM     13  N   LIG d   1      -3.757  94.415 119.343  0.00  0.00    -0.311 N 
ATOM     14  C   LIG d   1      -2.868  94.296 120.328  0.00  0.00     0.210 C 
ATOM     15  C   LIG d   1      -2.328  95.622 120.875  0.00  0.00     0.109 C 
ATOM     16  O   LIG d   1      -2.450  93.219 120.778  0.00  0.00    -0.276 OA
ATOM     17  H   LIG d   1      -4.014  95.326 119.019  0.00  0.00     0.149 HD
ENDBRANCH   6  13
BRANCH   5  18
ATOM     18  N   LIG d   1      -2.294  92.243 117.770  0.00  0.00     0.381 N 
ATOM     19  H   LIG d   1      -2.265  91.255 117.615  0.00  0.00    -0.090 HD
ATOM     20  H   LIG d   1      -2.105  92.415 118.742  0.00  0.00    -0.090 HD
ATOM     21  H   LIG d   1      -1.608  92.695 117.206  0.00  0.00    -0.090 HD
ENDBRANCH   5  18
BRANCH   3  22
ATOM     22  C   LIG d   1      -6.395  91.359 115.460  0.00  0.00     0.382 C 
ATOM     23  O   LIG d   1      -7.251  92.002 114.805  0.00  0.00    -0.241 OA
ATOM     24  O   LIG d   1      -6.152  90.176 115.157  0.00  0.00    -0.241 OA
ENDBRANCH   3  22
TORSDOF 7
ENDMDL
MODEL 5
REMARK VINA RESULT:      -5.2     14.501     17.311
REMARK  7 active torsions:
REMARK  status: ('A' for Active; 'I' for Inactive)
REMARK    1  A    between atoms: C_2  and  C_3 
REMARK    2  A    between atoms: C_3  and  O_6 
REMARK    3  A    between atoms: C_3  and  C_4 
REMARK    4  A    between atoms: C_7  and  O_6 
REMARK    5  A    between atoms: C_9  and  C_10 
REMARK    6  A    between atoms: N_15  and  C_14 
REMARK    7  A    between atoms: N_20  and  C_19 
REMARK       I    between atoms: C_22  and  N_20 
ROOT
ATOM      1  C   LIG d   1      -5.302  92.867 119.574  0.00  0.00     0.161 C 
ATOM      2  C   LIG d   1      -4.177  92.161 119.118  0.00  0.00     0.016 C 
ATOM      3  C   LIG d   1      -4.028  91.712 117.785  0.00  0.00     0.038 C 
ATOM      4  C   LIG d   1      -4.932  92.073 116.775  0.00  0.00     0.028 C 
ATOM      5  C   LIG d   1      -6.337  92.358 117.294  0.00  0.00    -0.047 C 
ATOM      6  C   LIG d   1      -6.247  93.367 118.461  0.00  0.00     0.091 C 
ENDROOT
BRANCH   1   7
ATOM      7  O   LIG d   1      -4.884  93.967 120.407  0.00  0.00    -0.368 OA
BRANCH   7   8
ATOM      8  C   LIG d   1      -4.379  95.135 119.715  0.00  0.00     0.119 C 
BRANCH   8   9
ATOM      9  C   LIG d   1      -2.885  95.272 120.067  0.00  0.00     0.028 C 
ATOM     10  C   LIG d   1      -1.973  95.076 118.844  0.00  0.00     0.006 C 
ENDBRANCH   8   9
BRANCH   8  11
ATOM     11  C   LIG d   1      -5.036  96.417 120.233  0.00  0.00     0.028 C 
ATOM     12  C   LIG d   1      -5.886  96.184 121.492  0.00  0.00     0.006 C 
ENDBRANCH   8  11
ENDBRANCH   7   8
ENDBRANCH   1   7
BRANCH   6  13
ATOM     13  N   LIG d   1      -7.570  93.637 119.081  0.00  0.00    -0.311 N 
ATOM     14  C   LIG d   1      -8.216  94.794 118.957  0.00  0.00     0.210 C 
ATOM     15  C   LIG d   1      -9.557  94.869 119.693  0.00  0.00     0.109 C 
ATOM     16  O   LIG d   1      -7.821  95.755 118.280  0.00  0.00    -0.276 OA
ATOM     17  H   LIG d   1      -7.978  92.900 119.623  0.00  0.00     0.149 HD
ENDBRANCH   6  13
BRANCH   5  18
ATOM     18  N   LIG d   1      -7.139  92.855 116.160  0.00  0.00     0.381 N 
ATOM     19  H   LIG d   1      -6.603  93.513 115.629  0.00  0.00    -0.090 HD
ATOM     20  H   LIG d   1      -7.951  93.325 116.517  0.00  0.00    -0.090 HD
ATOM     21  H   LIG d   1      -7.415  92.095 115.578  0.00  0.00    -0.090 HD
ENDBRANCH   5  18
BRANCH   3  22
ATOM     22  C   LIG d   1      -2.984  90.858 117.461  0.00  0.00     0.382 C 
ATOM     23  O   LIG d   1      -1.802  91.276 117.482  0.00  0.00    -0.241 OA
ATOM     24  O   LIG d   1      -3.214  89.686 117.104  0.00  0.00    -0.241 OA
ENDBRANCH   3  22
TORSDOF 7
ENDMDL
MODEL 6
REMARK VINA RESULT:      -4.8      2.469      5.585
REMARK  7 active torsions:
REMARK  status: ('A' for Active; 'I' for Inactive)
REMARK    1  A    between atoms: C_2  and  C_3 
REMARK    2  A    between atoms: C_3  and  O_6 
REMARK    3  A    between atoms: C_3  and  C_4 
REMARK    4  A    between atoms: C_7  and  O_6 
REMARK    5  A    between atoms: C_9  and  C_10 
REMARK    6  A    between atoms: N_15  and  C_14 
REMARK    7  A    between atoms: N_20  and  C_19 
REMARK       I    between atoms: C_22  and  N_20 
ROOT
ATOM      1  C   LIG d   1      -6.764  77.898 117.321  0.00  0.00     0.161 C 
ATOM      2  C   LIG d   1      -8.023  78.519 117.346  0.00  0.00     0.016 C 
ATOM      3  C   LIG d   1      -8.350  79.581 118.221  0.00  0.00     0.038 C 
ATOM      4  C   LIG d   1      -7.385  80.198 119.030  0.00  0.00     0.028 C 
ATOM      5  C   LIG d   1      -6.229  79.277 119.405  0.00  0.00    -0.047 C 
ATOM      6  C   LIG d   1      -5.665  78.631 118.118  0.00  0.00     0.091 C 
ENDROOT
BRANCH   1   7
ATOM      7  O   LIG d   1      -6.344  77.699 115.956  0.00  0.00    -0.368 OA
BRANCH   7   8
ATOM      8  C   LIG d   1      -6.300  76.326 115.496  0.00  0.00     0.119 C 
BRANCH   8   9
ATOM      9  C   LIG d   1      -6.878  75.443 116.619  0.00  0.00     0.028 C 
ATOM     10  C   LIG d   1      -6.921  73.955 116.233  0.00  0.00     0.006 C 
ENDBRANCH   8   9
BRANCH   8  11
ATOM     11  C   LIG d   1      -4.858  75.848 115.306  0.00  0.00     0.028 C 
ATOM     12  C   LIG d   1      -3.923  76.960 114.806  0.00  0.00     0.006 C 
ENDBRANCH   8  11
ENDBRANCH   7   8
ENDBRANCH   1   7
BRANCH   6  13
ATOM     13  N   LIG d   1      -4.585  77.650 118.403  0.00  0.00    -0.311 N 
ATOM     14  C   LIG d   1      -3.288  77.946 118.331  0.00  0.00     0.210 C 
ATOM     15  C   LIG d   1      -2.341  76.784 118.644  0.00  0.00     0.109 C 
ATOM     16  O   LIG d   1      -2.833  79.070 118.070  0.00  0.00    -0.276 OA
ATOM     17  H   LIG d   1      -4.866  76.723 118.653  0.00  0.00     0.149 HD
ENDBRANCH   6  13
BRANCH   5  18
ATOM     18  N   LIG d   1      -5.231  80.085 120.131  0.00  0.00     0.381 N 
ATOM     19  H   LIG d   1      -4.943  80.857 119.564  0.00  0.00    -0.090 HD
ATOM     20  H   LIG d   1      -4.426  79.515 120.320  0.00  0.00    -0.090 HD
ATOM     21  H   LIG d   1      -5.620  80.418 120.986  0.00  0.00    -0.090 HD
ENDBRANCH   5  18
BRANCH   3  22
ATOM     22  C   LIG d   1      -9.665  80.009 118.321  0.00  0.00     0.382 C 
ATOM     23  O   LIG d   1     -10.563  79.202 118.661  0.00  0.00    -0.241 OA
ATOM     24  O   LIG d   1      -9.971  81.181 118.032  0.00  0.00    -0.241 OA
ENDBRANCH   3  22
TORSDOF 7
ENDMDL
MODEL 7
REMARK VINA RESULT:      -4.7      2.530      4.772
REMARK  7 active torsions:
REMARK  status: ('A' for Active; 'I' for Inactive)
REMARK    1  A    between atoms: C_2  and  C_3 
REMARK    2  A    between atoms: C_3  and  O_6 
REMARK    3  A    between atoms: C_3  and  C_4 
REMARK    4  A    between atoms: C_7  and  O_6 
REMARK    5  A    between atoms: C_9  and  C_10 
REMARK    6  A    between atoms: N_15  and  C_14 
REMARK    7  A    between atoms: N_20  and  C_19 
REMARK       I    between atoms: C_22  and  N_20 
ROOT
ATOM      1  C   LIG d   1      -5.033  77.945 116.866  0.00  0.00     0.161 C 
ATOM      2  C   LIG d   1      -5.216  76.617 116.448  0.00  0.00     0.016 C 
ATOM      3  C   LIG d   1      -6.470  75.965 116.453  0.00  0.00     0.038 C 
ATOM      4  C   LIG d   1      -7.661  76.651 116.736  0.00  0.00     0.028 C 
ATOM      5  C   LIG d   1      -7.464  77.856 117.649  0.00  0.00    -0.047 C 
ATOM      6  C   LIG d   1      -6.337  78.744 117.072  0.00  0.00     0.091 C 
ENDROOT
BRANCH   1   7
ATOM      7  O   LIG d   1      -4.165  78.633 115.943  0.00  0.00    -0.368 OA
BRANCH   7   8
ATOM      8  C   LIG d   1      -2.746  78.381 116.094  0.00  0.00     0.119 C 
BRANCH   8   9
ATOM      9  C   LIG d   1      -2.026  79.742 116.038  0.00  0.00     0.028 C 
ATOM     10  C   LIG d   1      -1.196  80.020 117.303  0.00  0.00     0.006 C 
ENDBRANCH   8   9
BRANCH   8  11
ATOM     11  C   LIG d   1      -2.193  77.581 114.911  0.00  0.00     0.028 C 
ATOM     12  C   LIG d   1      -0.991  76.704 115.296  0.00  0.00     0.006 C 
ENDBRANCH   8  11
ENDBRANCH   7   8
ENDBRANCH   1   7
BRANCH   6  13
ATOM     13  N   LIG d   1      -6.022  79.901 117.949  0.00  0.00    -0.311 N 
ATOM     14  C   LIG d   1      -6.644  81.076 117.864  0.00  0.00     0.210 C 
ATOM     15  C   LIG d   1      -6.152  82.141 118.850  0.00  0.00     0.109 C 
ATOM     16  O   LIG d   1      -7.578  81.327 117.089  0.00  0.00    -0.276 OA
ATOM     17  H   LIG d   1      -5.298  79.775 118.629  0.00  0.00     0.149 HD
ENDBRANCH   6  13
BRANCH   5  18
ATOM     18  N   LIG d   1      -8.758  78.557 117.748  0.00  0.00     0.381 N 
ATOM     19  H   LIG d   1      -8.767  79.138 118.563  0.00  0.00    -0.090 HD
ATOM     20  H   LIG d   1      -9.490  77.875 117.840  0.00  0.00    -0.090 HD
ATOM     21  H   LIG d   1      -8.909  79.111 116.934  0.00  0.00    -0.090 HD
ENDBRANCH   5  18
BRANCH   3  22
ATOM     22  C   LIG d   1      -6.538  74.601 116.211  0.00  0.00     0.382 C 
ATOM     23  O   LIG d   1      -6.368  74.162 115.049  0.00  0.00    -0.241 OA
ATOM     24  O   LIG d   1      -6.809  73.809 117.133  0.00  0.00    -0.241 OA
ENDBRANCH   3  22
TORSDOF 7
ENDMDL
MODEL 8
REMARK VINA RESULT:      -4.6     13.246     15.879
REMARK  7 active torsions:
REMARK  status: ('A' for Active; 'I' for Inactive)
REMARK    1  A    between atoms: C_2  and  C_3 
REMARK    2  A    between atoms: C_3  and  O_6 
REMARK    3  A    between atoms: C_3  and  C_4 
REMARK    4  A    between atoms: C_7  and  O_6 
REMARK    5  A    between atoms: C_9  and  C_10 
REMARK    6  A    between atoms: N_15  and  C_14 
REMARK    7  A    between atoms: N_20  and  C_19 
REMARK       I    between atoms: C_22  and  N_20 
ROOT
ATOM      1  C   LIG d   1      -1.437  91.561 117.622  0.00  0.00     0.161 C 
ATOM      2  C   LIG d   1      -0.198  91.881 118.202  0.00  0.00     0.016 C 
ATOM      3  C   LIG d   1       0.035  93.067 118.936  0.00  0.00     0.038 C 
ATOM      4  C   LIG d   1      -1.004  93.949 119.269  0.00  0.00     0.028 C 
ATOM      5  C   LIG d   1      -2.163  93.922 118.277  0.00  0.00    -0.047 C 
ATOM      6  C   LIG d   1      -2.611  92.457 118.069  0.00  0.00     0.091 C 
ENDROOT
BRANCH   1   7
ATOM      7  O   LIG d   1      -1.746  90.174 117.862  0.00  0.00    -0.368 OA
BRANCH   7   8
ATOM      8  C   LIG d   1      -1.250  89.617 119.104  0.00  0.00     0.119 C 
BRANCH   8   9
ATOM      9  C   LIG d   1      -0.740  88.194 118.802  0.00  0.00     0.028 C 
ATOM     10  C   LIG d   1       0.409  88.188 117.780  0.00  0.00     0.006 C 
ENDBRANCH   8   9
BRANCH   8  11
ATOM     11  C   LIG d   1      -2.379  89.435 120.123  0.00  0.00     0.028 C 
ATOM     12  C   LIG d   1      -2.331  90.470 121.258  0.00  0.00     0.006 C 
ENDBRANCH   8  11
ENDBRANCH   7   8
ENDBRANCH   1   7
BRANCH   6  13
ATOM     13  N   LIG d   1      -3.685  92.333 117.049  0.00  0.00    -0.311 N 
ATOM     14  C   LIG d   1      -4.982  92.303 117.350  0.00  0.00     0.210 C 
ATOM     15  C   LIG d   1      -5.921  92.150 116.150  0.00  0.00     0.109 C 
ATOM     16  O   LIG d   1      -5.445  92.421 118.495  0.00  0.00    -0.276 OA
ATOM     17  H   LIG d   1      -3.399  92.263 116.092  0.00  0.00     0.149 HD
ENDBRANCH   6  13
BRANCH   5  18
ATOM     18  N   LIG d   1      -3.232  94.782 118.818  0.00  0.00     0.381 N 
ATOM     19  H   LIG d   1      -3.148  95.705 118.439  0.00  0.00    -0.090 HD
ATOM     20  H   LIG d   1      -3.129  94.841 119.815  0.00  0.00    -0.090 HD
ATOM     21  H   LIG d   1      -4.124  94.402 118.590  0.00  0.00    -0.090 HD
ENDBRANCH   5  18
BRANCH   3  22
ATOM     22  C   LIG d   1       1.327  93.401 119.310  0.00  0.00     0.382 C 
ATOM     23  O   LIG d   1       1.519  94.199 120.259  0.00  0.00    -0.241 OA
ATOM     24  O   LIG d   1       2.304  92.948 118.683  0.00  0.00    -0.241 OA
ENDBRANCH   3  22
TORSDOF 7
ENDMDL
MODEL 9
REMARK VINA RESULT:      -4.6      1.584      2.123
REMARK  7 active torsions:
REMARK  status: ('A' for Active; 'I' for Inactive)
REMARK    1  A    between atoms: C_2  and  C_3 
REMARK    2  A    between atoms: C_3  and  O_6 
REMARK    3  A    between atoms: C_3  and  C_4 
REMARK    4  A    between atoms: C_7  and  O_6 
REMARK    5  A    between atoms: C_9  and  C_10 
REMARK    6  A    between atoms: N_15  and  C_14 
REMARK    7  A    between atoms: N_20  and  C_19 
REMARK       I    between atoms: C_22  and  N_20 
ROOT
ATOM      1  C   LIG d   1      -4.469  78.536 116.785  0.00  0.00     0.161 C 
ATOM      2  C   LIG d   1      -4.077  77.304 116.236  0.00  0.00     0.016 C 
ATOM      3  C   LIG d   1      -3.197  76.408 116.886  0.00  0.00     0.038 C 
ATOM      4  C   LIG d   1      -2.765  76.617 118.204  0.00  0.00     0.028 C 
ATOM      5  C   LIG d   1      -2.731  78.089 118.604  0.00  0.00    -0.047 C 
ATOM      6  C   LIG d   1      -4.096  78.731 118.269  0.00  0.00     0.091 C 
ENDROOT
BRANCH   1   7
ATOM      7  O   LIG d   1      -5.885  78.727 116.594  0.00  0.00    -0.368 OA
BRANCH   7   8
ATOM      8  C   LIG d   1      -6.754  77.868 117.371  0.00  0.00     0.119 C 
BRANCH   8   9
ATOM      9  C   LIG d   1      -7.557  77.003 116.380  0.00  0.00     0.028 C 
ATOM     10  C   LIG d   1      -7.240  75.505 116.518  0.00  0.00     0.006 C 
ENDBRANCH   8   9
BRANCH   8  11
ATOM     11  C   LIG d   1      -7.800  78.681 118.139  0.00  0.00     0.028 C 
ATOM     12  C   LIG d   1      -7.737  80.184 117.822  0.00  0.00     0.006 C 
ENDBRANCH   8  11
ENDBRANCH   7   8
ENDBRANCH   1   7
BRANCH   6  13
ATOM     13  N   LIG d   1      -4.120  80.190 118.551  0.00  0.00    -0.311 N 
ATOM     14  C   LIG d   1      -4.627  80.713 119.667  0.00  0.00     0.210 C 
ATOM     15  C   LIG d   1      -4.570  82.242 119.748  0.00  0.00     0.109 C 
ATOM     16  O   LIG d   1      -5.089  80.054 120.610  0.00  0.00    -0.276 OA
ATOM     17  H   LIG d   1      -3.737  80.796 117.852  0.00  0.00     0.149 HD
ENDBRANCH   6  13
BRANCH   5  18
ATOM     18  N   LIG d   1      -2.397  78.153 120.039  0.00  0.00     0.381 N 
ATOM     19  H   LIG d   1      -3.231  78.063 120.585  0.00  0.00    -0.090 HD
ATOM     20  H   LIG d   1      -1.985  79.048 120.237  0.00  0.00    -0.090 HD
ATOM     21  H   LIG d   1      -1.758  77.426 120.273  0.00  0.00    -0.090 HD
ENDBRANCH   5  18
BRANCH   3  22
ATOM     22  C   LIG d   1      -2.707  75.307 116.200  0.00  0.00     0.382 C 
ATOM     23  O   LIG d   1      -2.105  74.398 116.821  0.00  0.00    -0.241 OA
ATOM     24  O   LIG d   1      -2.821  75.232 114.962  0.00  0.00    -0.241 OA
ENDBRANCH   3  22
TORSDOF 7
ENDMDL
