MODEL 1
REMARK VINA RESULT:      -5.9      0.000      0.000
REMARK  7 active torsions:
REMARK  status: ('A' for Active; 'I' for Inactive)
REMARK    1  A    between atoms: C_2  and  C_3 
REMARK    2  A    between atoms: C_3  and  O_6 
REMARK    3  A    between atoms: C_3  and  C_4 
REMARK    4  A    between atoms: C_7  and  O_6 
REMARK    5  A    between atoms: C_9  and  C_10 
REMARK    6  A    between atoms: N_15  and  C_14 
REMARK    7  A    between atoms: N_20  and  C_19 
REMARK       I    between atoms: C_22  and  N_20 
ROOT
ATOM      1  C   LIG d   1      -7.639  74.940 118.616  0.00  0.00     0.161 C 
ATOM      2  C   LIG d   1      -7.504  73.714 117.942  0.00  0.00     0.016 C 
ATOM      3  C   LIG d   1      -8.515  73.159 117.125  0.00  0.00     0.038 C 
ATOM      4  C   LIG d   1      -9.680  73.870 116.802  0.00  0.00     0.028 C 
ATOM      5  C   LIG d   1     -10.080  74.892 117.861  0.00  0.00    -0.047 C 
ATOM      6  C   LIG d   1      -8.859  75.782 118.186  0.00  0.00     0.091 C 
ENDROOT
BRANCH   1   7
ATOM      7  O   LIG d   1      -6.427  75.708 118.480  0.00  0.00    -0.368 OA
BRANCH   7   8
ATOM      8  C   LIG d   1      -5.570  75.355 117.367  0.00  0.00     0.119 C 
BRANCH   8   9
ATOM      9  C   LIG d   1      -4.113  75.414 117.868  0.00  0.00     0.028 C 
ATOM     10  C   LIG d   1      -3.339  74.118 117.574  0.00  0.00     0.006 C 
ENDBRANCH   8   9
BRANCH   8  11
ATOM     11  C   LIG d   1      -5.655  76.395 116.246  0.00  0.00     0.028 C 
ATOM     12  C   LIG d   1      -6.623  75.984 115.125  0.00  0.00     0.006 C 
ENDBRANCH   8  11
ENDBRANCH   7   8
ENDBRANCH   1   7
BRANCH   6  13
ATOM     13  N   LIG d   1      -9.140  76.754 119.275  0.00  0.00    -0.311 N 
ATOM     14  C   LIG d   1      -9.659  77.962 119.063  0.00  0.00     0.210 C 
ATOM     15  C   LIG d   1      -9.850  78.814 120.322  0.00  0.00     0.109 C 
ATOM     16  O   LIG d   1     -10.010  78.397 117.956  0.00  0.00    -0.276 OA
ATOM     17  H   LIG d   1      -8.914  76.471 120.209  0.00  0.00     0.149 HD
ENDBRANCH   6  13
BRANCH   5  18
ATOM     18  N   LIG d   1     -11.228  75.654 117.335  0.00  0.00     0.381 N 
ATOM     19  H   LIG d   1     -11.692  76.128 118.084  0.00  0.00    -0.090 HD
ATOM     20  H   LIG d   1     -11.879  75.014 116.915  0.00  0.00    -0.090 HD
ATOM     21  H   LIG d   1     -10.916  76.314 116.657  0.00  0.00    -0.090 HD
ENDBRANCH   5  18
BRANCH   3  22
ATOM     22  C   LIG d   1      -8.383  71.862 116.653  0.00  0.00     0.382 C 
ATOM     23  O   LIG d   1      -9.225  70.990 116.973  0.00  0.00    -0.241 OA
ATOM     24  O   LIG d   1      -7.407  71.543 115.947  0.00  0.00    -0.241 OA
ENDBRANCH   3  22
TORSDOF 7
ENDMDL
MODEL 2
REMARK VINA RESULT:      -5.7      2.217      4.821
REMARK  7 active torsions:
REMARK  status: ('A' for Active; 'I' for Inactive)
REMARK    1  A    between atoms: C_2  and  C_3 
REMARK    2  A    between atoms: C_3  and  O_6 
REMARK    3  A    between atoms: C_3  and  C_4 
REMARK    4  A    between atoms: C_7  and  O_6 
REMARK    5  A    between atoms: C_9  and  C_10 
REMARK    6  A    between atoms: N_15  and  C_14 
REMARK    7  A    between atoms: N_20  and  C_19 
REMARK       I    between atoms: C_22  and  N_20 
ROOT
ATOM      1  C   LIG d   1      -6.516  74.751 117.341  0.00  0.00     0.161 C 
ATOM      2  C   LIG d   1      -5.281  74.108 117.153  0.00  0.00     0.016 C 
ATOM      3  C   LIG d   1      -4.052  74.634 117.611  0.00  0.00     0.038 C 
ATOM      4  C   LIG d   1      -3.991  75.774 118.427  0.00  0.00     0.028 C 
ATOM      5  C   LIG d   1      -5.160  76.731 118.218  0.00  0.00    -0.047 C 
ATOM      6  C   LIG d   1      -6.483  75.939 118.325  0.00  0.00     0.091 C 
ENDROOT
BRANCH   1   7
ATOM      7  O   LIG d   1      -7.510  73.790 117.749  0.00  0.00    -0.368 OA
BRANCH   7   8
ATOM      8  C   LIG d   1      -8.281  73.180 116.685  0.00  0.00     0.119 C 
BRANCH   8   9
ATOM      9  C   LIG d   1      -9.772  73.371 117.025  0.00  0.00     0.028 C 
ATOM     10  C   LIG d   1     -10.356  74.651 116.404  0.00  0.00     0.006 C 
ENDBRANCH   8   9
BRANCH   8  11
ATOM     11  C   LIG d   1      -8.067  71.664 116.640  0.00  0.00     0.028 C 
ATOM     12  C   LIG d   1      -9.277  70.875 117.165  0.00  0.00     0.006 C 
ENDBRANCH   8  11
ENDBRANCH   7   8
ENDBRANCH   1   7
BRANCH   6  13
ATOM     13  N   LIG d   1      -7.674  76.784 118.050  0.00  0.00    -0.311 N 
ATOM     14  C   LIG d   1      -8.720  76.866 118.870  0.00  0.00     0.210 C 
ATOM     15  C   LIG d   1      -9.851  77.780 118.387  0.00  0.00     0.109 C 
ATOM     16  O   LIG d   1      -8.805  76.293 119.967  0.00  0.00    -0.276 OA
ATOM     17  H   LIG d   1      -7.674  77.307 117.196  0.00  0.00     0.149 HD
ENDBRANCH   6  13
BRANCH   5  18
ATOM     18  N   LIG d   1      -5.044  77.802 119.225  0.00  0.00     0.381 N 
ATOM     19  H   LIG d   1      -5.238  77.434 120.135  0.00  0.00    -0.090 HD
ATOM     20  H   LIG d   1      -5.723  78.515 119.022  0.00  0.00    -0.090 HD
ATOM     21  H   LIG d   1      -4.127  78.192 119.205  0.00  0.00    -0.090 HD
ENDBRANCH   5  18
BRANCH   3  22
ATOM     22  C   LIG d   1      -2.861  74.041 117.219  0.00  0.00     0.382 C 
ATOM     23  O   LIG d   1      -2.245  73.289 118.012  0.00  0.00    -0.241 OA
ATOM     24  O   LIG d   1      -2.373  74.283 116.099  0.00  0.00    -0.241 OA
ENDBRANCH   3  22
TORSDOF 7
ENDMDL
MODEL 3
REMARK VINA RESULT:      -5.5      2.411      4.996
REMARK  7 active torsions:
REMARK  status: ('A' for Active; 'I' for Inactive)
REMARK    1  A    between atoms: C_2  and  C_3 
REMARK    2  A    between atoms: C_3  and  O_6 
REMARK    3  A    between atoms: C_3  and  C_4 
REMARK    4  A    between atoms: C_7  and  O_6 
REMARK    5  A    between atoms: C_9  and  C_10 
REMARK    6  A    between atoms: N_15  and  C_14 
REMARK    7  A    between atoms: N_20  and  C_19 
REMARK       I    between atoms: C_22  and  N_20 
ROOT
ATOM      1  C   LIG d   1      -8.091  75.722 117.947  0.00  0.00     0.161 C 
ATOM      2  C   LIG d   1      -9.448  75.975 118.212  0.00  0.00     0.016 C 
ATOM      3  C   LIG d   1      -9.970  77.271 118.428  0.00  0.00     0.038 C 
ATOM      4  C   LIG d   1      -9.192  78.424 118.243  0.00  0.00     0.028 C 
ATOM      5  C   LIG d   1      -7.702  78.192 118.471  0.00  0.00    -0.047 C 
ATOM      6  C   LIG d   1      -7.249  76.976 117.632  0.00  0.00     0.091 C 
ENDROOT
BRANCH   1   7
ATOM      7  O   LIG d   1      -7.973  74.758 116.882  0.00  0.00    -0.368 OA
BRANCH   7   8
ATOM      8  C   LIG d   1      -7.935  73.366 117.283  0.00  0.00     0.119 C 
BRANCH   8   9
ATOM      9  C   LIG d   1      -6.768  72.699 116.530  0.00  0.00     0.028 C 
ATOM     10  C   LIG d   1      -5.912  73.715 115.755  0.00  0.00     0.006 C 
ENDBRANCH   8   9
BRANCH   8  11
ATOM     11  C   LIG d   1      -9.192  72.620 116.826  0.00  0.00     0.028 C 
ATOM     12  C   LIG d   1      -9.085  71.099 117.021  0.00  0.00     0.006 C 
ENDBRANCH   8  11
ENDBRANCH   7   8
ENDBRANCH   1   7
BRANCH   6  13
ATOM     13  N   LIG d   1      -5.822  76.628 117.861  0.00  0.00    -0.311 N 
ATOM     14  C   LIG d   1      -4.822  77.122 117.134  0.00  0.00     0.210 C 
ATOM     15  C   LIG d   1      -3.429  76.618 117.524  0.00  0.00     0.109 C 
ATOM     16  O   LIG d   1      -4.952  77.954 116.224  0.00  0.00    -0.276 OA
ATOM     17  H   LIG d   1      -5.623  75.983 118.600  0.00  0.00     0.149 HD
ENDBRANCH   6  13
BRANCH   5  18
ATOM     18  N   LIG d   1      -6.997  79.437 118.111  0.00  0.00     0.381 N 
ATOM     19  H   LIG d   1      -7.330  79.772 117.229  0.00  0.00    -0.090 HD
ATOM     20  H   LIG d   1      -6.015  79.242 118.024  0.00  0.00    -0.090 HD
ATOM     21  H   LIG d   1      -7.145  80.128 118.814  0.00  0.00    -0.090 HD
ENDBRANCH   5  18
BRANCH   3  22
ATOM     22  C   LIG d   1     -11.274  77.421 118.873  0.00  0.00     0.382 C 
ATOM     23  O   LIG d   1     -11.512  78.100 119.901  0.00  0.00    -0.241 OA
ATOM     24  O   LIG d   1     -12.212  76.849 118.285  0.00  0.00    -0.241 OA
ENDBRANCH   3  22
TORSDOF 7
ENDMDL
MODEL 4
REMARK VINA RESULT:      -5.5      1.720      4.962
REMARK  7 active torsions:
REMARK  status: ('A' for Active; 'I' for Inactive)
REMARK    1  A    between atoms: C_2  and  C_3 
REMARK    2  A    between atoms: C_3  and  O_6 
REMARK    3  A    between atoms: C_3  and  C_4 
REMARK    4  A    between atoms: C_7  and  O_6 
REMARK    5  A    between atoms: C_9  and  C_10 
REMARK    6  A    between atoms: N_15  and  C_14 
REMARK    7  A    between atoms: N_20  and  C_19 
REMARK       I    between atoms: C_22  and  N_20 
ROOT
ATOM      1  C   LIG d   1      -7.170  76.146 117.351  0.00  0.00     0.161 C 
ATOM      2  C   LIG d   1      -7.493  77.483 117.636  0.00  0.00     0.016 C 
ATOM      3  C   LIG d   1      -8.799  77.916 117.961  0.00  0.00     0.038 C 
ATOM      4  C   LIG d   1      -9.849  77.011 118.172  0.00  0.00     0.028 C 
ATOM      5  C   LIG d   1      -9.686  75.704 117.402  0.00  0.00    -0.047 C 
ATOM      6  C   LIG d   1      -8.280  75.128 117.685  0.00  0.00     0.091 C 
ENDROOT
BRANCH   1   7
ATOM      7  O   LIG d   1      -5.943  75.787 118.017  0.00  0.00    -0.368 OA
BRANCH   7   8
ATOM      8  C   LIG d   1      -4.783  75.617 117.167  0.00  0.00     0.119 C 
BRANCH   8   9
ATOM      9  C   LIG d   1      -5.253  75.763 115.707  0.00  0.00     0.028 C 
ATOM     10  C   LIG d   1      -5.038  74.477 114.890  0.00  0.00     0.006 C 
ENDBRANCH   8   9
BRANCH   8  11
ATOM     11  C   LIG d   1      -4.218  74.197 117.271  0.00  0.00     0.028 C 
ATOM     12  C   LIG d   1      -2.772  74.167 117.791  0.00  0.00     0.006 C 
ENDBRANCH   8  11
ENDBRANCH   7   8
ENDBRANCH   1   7
BRANCH   6  13
ATOM     13  N   LIG d   1      -8.007  73.893 116.904  0.00  0.00    -0.311 N 
ATOM     14  C   LIG d   1      -7.463  72.797 117.432  0.00  0.00     0.210 C 
ATOM     15  C   LIG d   1      -7.249  71.643 116.448  0.00  0.00     0.109 C 
ATOM     16  O   LIG d   1      -7.168  72.660 118.629  0.00  0.00    -0.276 OA
ATOM     17  H   LIG d   1      -8.245  73.906 115.932  0.00  0.00     0.149 HD
ENDBRANCH   6  13
BRANCH   5  18
ATOM     18  N   LIG d   1     -10.776  74.802 117.820  0.00  0.00     0.381 N 
ATOM     19  H   LIG d   1     -11.454  75.312 118.350  0.00  0.00    -0.090 HD
ATOM     20  H   LIG d   1     -10.394  74.081 118.407  0.00  0.00    -0.090 HD
ATOM     21  H   LIG d   1     -11.207  74.395 117.020  0.00  0.00    -0.090 HD
ENDBRANCH   5  18
BRANCH   3  22
ATOM     22  C   LIG d   1      -9.073  79.273 118.039  0.00  0.00     0.382 C 
ATOM     23  O   LIG d   1      -8.142  80.108 117.943  0.00  0.00    -0.241 OA
ATOM     24  O   LIG d   1     -10.235  79.672 118.249  0.00  0.00    -0.241 OA
ENDBRANCH   3  22
TORSDOF 7
ENDMDL
MODEL 5
REMARK VINA RESULT:      -5.4      2.613      4.685
REMARK  7 active torsions:
REMARK  status: ('A' for Active; 'I' for Inactive)
REMARK    1  A    between atoms: C_2  and  C_3 
REMARK    2  A    between atoms: C_3  and  O_6 
REMARK    3  A    between atoms: C_3  and  C_4 
REMARK    4  A    between atoms: C_7  and  O_6 
REMARK    5  A    between atoms: C_9  and  C_10 
REMARK    6  A    between atoms: N_15  and  C_14 
REMARK    7  A    between atoms: N_20  and  C_19 
REMARK       I    between atoms: C_22  and  N_20 
ROOT
ATOM      1  C   LIG d   1      -7.162  75.786 116.174  0.00  0.00     0.161 C 
ATOM      2  C   LIG d   1      -8.117  74.780 116.395  0.00  0.00     0.016 C 
ATOM      3  C   LIG d   1      -7.800  73.511 116.932  0.00  0.00     0.038 C 
ATOM      4  C   LIG d   1      -6.522  73.214 117.428  0.00  0.00     0.028 C 
ATOM      5  C   LIG d   1      -5.411  74.020 116.763  0.00  0.00    -0.047 C 
ATOM      6  C   LIG d   1      -5.782  75.520 116.812  0.00  0.00     0.091 C 
ENDROOT
BRANCH   1   7
ATOM      7  O   LIG d   1      -7.680  77.057 116.613  0.00  0.00    -0.368 OA
BRANCH   7   8
ATOM      8  C   LIG d   1      -8.017  77.156 118.019  0.00  0.00     0.119 C 
BRANCH   8   9
ATOM      9  C   LIG d   1      -9.441  77.736 118.114  0.00  0.00     0.028 C 
ATOM     10  C   LIG d   1     -10.508  76.644 118.296  0.00  0.00     0.006 C 
ENDBRANCH   8   9
BRANCH   8  11
ATOM     11  C   LIG d   1      -7.118  78.168 118.737  0.00  0.00     0.028 C 
ATOM     12  C   LIG d   1      -6.582  79.260 117.798  0.00  0.00     0.006 C 
ENDBRANCH   8  11
ENDBRANCH   7   8
ENDBRANCH   1   7
BRANCH   6  13
ATOM     13  N   LIG d   1      -4.789  76.372 116.108  0.00  0.00    -0.311 N 
ATOM     14  C   LIG d   1      -3.799  77.010 116.730  0.00  0.00     0.210 C 
ATOM     15  C   LIG d   1      -2.899  77.852 115.820  0.00  0.00     0.109 C 
ATOM     16  O   LIG d   1      -3.561  76.933 117.945  0.00  0.00    -0.276 OA
ATOM     17  H   LIG d   1      -4.889  76.465 115.116  0.00  0.00     0.149 HD
ENDBRANCH   6  13
BRANCH   5  18
ATOM     18  N   LIG d   1      -4.153  73.712 117.469  0.00  0.00     0.381 N 
ATOM     19  H   LIG d   1      -4.355  73.290 118.353  0.00  0.00    -0.090 HD
ATOM     20  H   LIG d   1      -3.655  74.569 117.635  0.00  0.00    -0.090 HD
ATOM     21  H   LIG d   1      -3.595  73.097 116.919  0.00  0.00    -0.090 HD
ENDBRANCH   5  18
BRANCH   3  22
ATOM     22  C   LIG d   1      -8.759  72.509 116.940  0.00  0.00     0.382 C 
ATOM     23  O   LIG d   1      -9.977  72.807 116.970  0.00  0.00    -0.241 OA
ATOM     24  O   LIG d   1      -8.420  71.311 116.961  0.00  0.00    -0.241 OA
ENDBRANCH   3  22
TORSDOF 7
ENDMDL
MODEL 6
REMARK VINA RESULT:      -5.2     14.925     17.560
REMARK  7 active torsions:
REMARK  status: ('A' for Active; 'I' for Inactive)
REMARK    1  A    between atoms: C_2  and  C_3 
REMARK    2  A    between atoms: C_3  and  O_6 
REMARK    3  A    between atoms: C_3  and  C_4 
REMARK    4  A    between atoms: C_7  and  O_6 
REMARK    5  A    between atoms: C_9  and  C_10 
REMARK    6  A    between atoms: N_15  and  C_14 
REMARK    7  A    between atoms: N_20  and  C_19 
REMARK       I    between atoms: C_22  and  N_20 
ROOT
ATOM      1  C   LIG d   1      -5.129  92.558 117.270  0.00  0.00     0.161 C 
ATOM      2  C   LIG d   1      -6.145  91.649 116.928  0.00  0.00     0.016 C 
ATOM      3  C   LIG d   1      -5.903  90.289 116.627  0.00  0.00     0.038 C 
ATOM      4  C   LIG d   1      -4.639  89.706 116.795  0.00  0.00     0.028 C 
ATOM      5  C   LIG d   1      -3.490  90.698 116.652  0.00  0.00    -0.047 C 
ATOM      6  C   LIG d   1      -3.759  91.914 117.568  0.00  0.00     0.091 C 
ENDROOT
BRANCH   1   7
ATOM      7  O   LIG d   1      -5.554  93.369 118.384  0.00  0.00    -0.368 OA
BRANCH   7   8
ATOM      8  C   LIG d   1      -6.432  92.727 119.342  0.00  0.00     0.119 C 
BRANCH   8   9
ATOM      9  C   LIG d   1      -7.538  93.736 119.705  0.00  0.00     0.028 C 
ATOM     10  C   LIG d   1      -8.557  93.157 120.700  0.00  0.00     0.006 C 
ENDBRANCH   8   9
BRANCH   8  11
ATOM     11  C   LIG d   1      -5.702  92.433 120.656  0.00  0.00     0.028 C 
ATOM     12  C   LIG d   1      -5.259  90.967 120.777  0.00  0.00     0.006 C 
ENDBRANCH   8  11
ENDBRANCH   7   8
ENDBRANCH   1   7
BRANCH   6  13
ATOM     13  N   LIG d   1      -2.725  92.971 117.425  0.00  0.00    -0.311 N 
ATOM     14  C   LIG d   1      -2.071  93.501 118.457  0.00  0.00     0.210 C 
ATOM     15  C   LIG d   1      -1.060  94.592 118.091  0.00  0.00     0.109 C 
ATOM     16  O   LIG d   1      -2.209  93.149 119.638  0.00  0.00    -0.276 OA
ATOM     17  H   LIG d   1      -2.527  93.294 116.498  0.00  0.00     0.149 HD
ENDBRANCH   6  13
BRANCH   5  18
ATOM     18  N   LIG d   1      -2.242  89.987 116.987  0.00  0.00     0.381 N 
ATOM     19  H   LIG d   1      -2.456  89.080 117.351  0.00  0.00    -0.090 HD
ATOM     20  H   LIG d   1      -1.753  90.504 117.697  0.00  0.00    -0.090 HD
ATOM     21  H   LIG d   1      -1.670  89.900 116.176  0.00  0.00    -0.090 HD
ENDBRANCH   5  18
BRANCH   3  22
ATOM     22  C   LIG d   1      -6.926  89.507 116.112  0.00  0.00     0.382 C 
ATOM     23  O   LIG d   1      -7.601  88.776 116.876  0.00  0.00    -0.241 OA
ATOM     24  O   LIG d   1      -7.153  89.489 114.888  0.00  0.00    -0.241 OA
ENDBRANCH   3  22
TORSDOF 7
ENDMDL
MODEL 7
REMARK VINA RESULT:      -5.1      1.757      2.283
REMARK  7 active torsions:
REMARK  status: ('A' for Active; 'I' for Inactive)
REMARK    1  A    between atoms: C_2  and  C_3 
REMARK    2  A    between atoms: C_3  and  O_6 
REMARK    3  A    between atoms: C_3  and  C_4 
REMARK    4  A    between atoms: C_7  and  O_6 
REMARK    5  A    between atoms: C_9  and  C_10 
REMARK    6  A    between atoms: N_15  and  C_14 
REMARK    7  A    between atoms: N_20  and  C_19 
REMARK       I    between atoms: C_22  and  N_20 
ROOT
ATOM      1  C   LIG d   1      -7.658  76.314 117.772  0.00  0.00     0.161 C 
ATOM      2  C   LIG d   1      -7.675  75.008 117.254  0.00  0.00     0.016 C 
ATOM      3  C   LIG d   1      -8.853  74.236 117.128  0.00  0.00     0.038 C 
ATOM      4  C   LIG d   1     -10.124  74.777 117.373  0.00  0.00     0.028 C 
ATOM      5  C   LIG d   1     -10.110  75.925 118.377  0.00  0.00    -0.047 C 
ATOM      6  C   LIG d   1      -9.048  76.961 117.941  0.00  0.00     0.091 C 
ENDROOT
BRANCH   1   7
ATOM      7  O   LIG d   1      -6.811  77.151 116.960  0.00  0.00    -0.368 OA
BRANCH   7   8
ATOM      8  C   LIG d   1      -5.600  77.636 117.591  0.00  0.00     0.119 C 
BRANCH   8   9
ATOM      9  C   LIG d   1      -5.772  79.150 117.819  0.00  0.00     0.028 C 
ATOM     10  C   LIG d   1      -5.588  79.546 119.293  0.00  0.00     0.006 C 
ENDBRANCH   8   9
BRANCH   8  11
ATOM     11  C   LIG d   1      -4.393  77.501 116.658  0.00  0.00     0.028 C 
ATOM     12  C   LIG d   1      -4.498  76.288 115.719  0.00  0.00     0.006 C 
ENDBRANCH   8  11
ENDBRANCH   7   8
ENDBRANCH   1   7
BRANCH   6  13
ATOM     13  N   LIG d   1      -8.911  78.076 118.914  0.00  0.00    -0.311 N 
ATOM     14  C   LIG d   1      -9.606  79.208 118.834  0.00  0.00     0.210 C 
ATOM     15  C   LIG d   1      -9.297  80.236 119.928  0.00  0.00     0.109 C 
ATOM     16  O   LIG d   1     -10.474  79.447 117.980  0.00  0.00    -0.276 OA
ATOM     17  H   LIG d   1      -8.251  77.953 119.657  0.00  0.00     0.149 HD
ENDBRANCH   6  13
BRANCH   5  18
ATOM     18  N   LIG d   1     -11.474  76.484 118.434  0.00  0.00     0.381 N 
ATOM     19  H   LIG d   1     -12.142  75.768 118.230  0.00  0.00    -0.090 HD
ATOM     20  H   LIG d   1     -11.560  77.203 117.738  0.00  0.00    -0.090 HD
ATOM     21  H   LIG d   1     -11.649  76.864 119.338  0.00  0.00    -0.090 HD
ENDBRANCH   5  18
BRANCH   3  22
ATOM     22  C   LIG d   1      -8.763  72.894 116.791  0.00  0.00     0.382 C 
ATOM     23  O   LIG d   1      -7.677  72.425 116.372  0.00  0.00    -0.241 OA
ATOM     24  O   LIG d   1      -9.765  72.157 116.857  0.00  0.00    -0.241 OA
ENDBRANCH   3  22
TORSDOF 7
ENDMDL
MODEL 8
REMARK VINA RESULT:      -5.0     15.240     18.214
REMARK  7 active torsions:
REMARK  status: ('A' for Active; 'I' for Inactive)
REMARK    1  A    between atoms: C_2  and  C_3 
REMARK    2  A    between atoms: C_3  and  O_6 
REMARK    3  A    between atoms: C_3  and  C_4 
REMARK    4  A    between atoms: C_7  and  O_6 
REMARK    5  A    between atoms: C_9  and  C_10 
REMARK    6  A    between atoms: N_15  and  C_14 
REMARK    7  A    between atoms: N_20  and  C_19 
REMARK       I    between atoms: C_22  and  N_20 
ROOT
ATOM      1  C   LIG d   1      -5.569  92.603 118.378  0.00  0.00     0.161 C 
ATOM      2  C   LIG d   1      -6.105  91.462 117.759  0.00  0.00     0.016 C 
ATOM      3  C   LIG d   1      -5.322  90.517 117.056  0.00  0.00     0.038 C 
ATOM      4  C   LIG d   1      -3.920  90.572 117.054  0.00  0.00     0.028 C 
ATOM      5  C   LIG d   1      -3.369  91.981 117.238  0.00  0.00    -0.047 C 
ATOM      6  C   LIG d   1      -4.030  92.620 118.481  0.00  0.00     0.091 C 
ENDROOT
BRANCH   1   7
ATOM      7  O   LIG d   1      -6.160  92.775 119.681  0.00  0.00    -0.368 OA
BRANCH   7   8
ATOM      8  C   LIG d   1      -6.939  93.981 119.874  0.00  0.00     0.119 C 
BRANCH   8   9
ATOM      9  C   LIG d   1      -8.336  93.557 120.366  0.00  0.00     0.028 C 
ATOM     10  C   LIG d   1      -8.334  92.156 121.001  0.00  0.00     0.006 C 
ENDBRANCH   8   9
BRANCH   8  11
ATOM     11  C   LIG d   1      -7.180  94.707 118.547  0.00  0.00     0.028 C 
ATOM     12  C   LIG d   1      -6.710  96.170 118.573  0.00  0.00     0.006 C 
ENDBRANCH   8  11
ENDBRANCH   7   8
ENDBRANCH   1   7
BRANCH   6  13
ATOM     13  N   LIG d   1      -3.608  94.031 118.684  0.00  0.00    -0.311 N 
ATOM     14  C   LIG d   1      -3.170  94.504 119.850  0.00  0.00     0.210 C 
ATOM     15  C   LIG d   1      -2.806  95.992 119.848  0.00  0.00     0.109 C 
ATOM     16  O   LIG d   1      -3.016  93.825 120.876  0.00  0.00    -0.276 OA
ATOM     17  H   LIG d   1      -3.671  94.644 117.895  0.00  0.00     0.149 HD
ENDBRANCH   6  13
BRANCH   5  18
ATOM     18  N   LIG d   1      -1.902  91.874 117.354  0.00  0.00     0.381 N 
ATOM     19  H   LIG d   1      -1.473  92.159 116.497  0.00  0.00    -0.090 HD
ATOM     20  H   LIG d   1      -1.659  90.914 117.525  0.00  0.00    -0.090 HD
ATOM     21  H   LIG d   1      -1.577  92.445 118.103  0.00  0.00    -0.090 HD
ENDBRANCH   5  18
BRANCH   3  22
ATOM     22  C   LIG d   1      -5.944  89.526 116.312  0.00  0.00     0.382 C 
ATOM     23  O   LIG d   1      -5.487  89.205 115.189  0.00  0.00    -0.241 OA
ATOM     24  O   LIG d   1      -6.982  88.980 116.731  0.00  0.00    -0.241 OA
ENDBRANCH   3  22
TORSDOF 7
ENDMDL
MODEL 9
REMARK VINA RESULT:      -4.9      2.597      4.137
REMARK  7 active torsions:
REMARK  status: ('A' for Active; 'I' for Inactive)
REMARK    1  A    between atoms: C_2  and  C_3 
REMARK    2  A    between atoms: C_3  and  O_6 
REMARK    3  A    between atoms: C_3  and  C_4 
REMARK    4  A    between atoms: C_7  and  O_6 
REMARK    5  A    between atoms: C_9  and  C_10 
REMARK    6  A    between atoms: N_15  and  C_14 
REMARK    7  A    between atoms: N_20  and  C_19 
REMARK       I    between atoms: C_22  and  N_20 
ROOT
ATOM      1  C   LIG d   1      -7.749  78.200 117.873  0.00  0.00     0.161 C 
ATOM      2  C   LIG d   1      -6.908  77.514 116.981  0.00  0.00     0.016 C 
ATOM      3  C   LIG d   1      -7.280  76.317 116.326  0.00  0.00     0.038 C 
ATOM      4  C   LIG d   1      -8.583  75.803 116.403  0.00  0.00     0.028 C 
ATOM      5  C   LIG d   1      -9.309  76.185 117.689  0.00  0.00    -0.047 C 
ATOM      6  C   LIG d   1      -9.214  77.715 117.884  0.00  0.00     0.091 C 
ENDROOT
BRANCH   1   7
ATOM      7  O   LIG d   1      -7.692  79.616 117.607  0.00  0.00    -0.368 OA
BRANCH   7   8
ATOM      8  C   LIG d   1      -6.746  80.375 118.400  0.00  0.00     0.119 C 
BRANCH   8   9
ATOM      9  C   LIG d   1      -6.497  79.590 119.702  0.00  0.00     0.028 C 
ATOM     10  C   LIG d   1      -5.000  79.435 120.016  0.00  0.00     0.006 C 
ENDBRANCH   8   9
BRANCH   8  11
ATOM     11  C   LIG d   1      -7.340  81.716 118.842  0.00  0.00     0.028 C 
ATOM     12  C   LIG d   1      -7.900  81.676 120.272  0.00  0.00     0.006 C 
ENDBRANCH   8  11
ENDBRANCH   7   8
ENDBRANCH   1   7
BRANCH   6  13
ATOM     13  N   LIG d   1      -9.826  78.163 119.162  0.00  0.00    -0.311 N 
ATOM     14  C   LIG d   1     -10.496  79.307 119.292  0.00  0.00     0.210 C 
ATOM     15  C   LIG d   1     -11.029  79.587 120.701  0.00  0.00     0.109 C 
ATOM     16  O   LIG d   1     -10.728  80.101 118.368  0.00  0.00    -0.276 OA
ATOM     17  H   LIG d   1      -9.713  77.564 119.956  0.00  0.00     0.149 HD
ENDBRANCH   6  13
BRANCH   5  18
ATOM     18  N   LIG d   1     -10.698  75.702 117.576  0.00  0.00     0.381 N 
ATOM     19  H   LIG d   1     -11.182  75.859 118.438  0.00  0.00    -0.090 HD
ATOM     20  H   LIG d   1     -10.685  74.713 117.398  0.00  0.00    -0.090 HD
ATOM     21  H   LIG d   1     -11.164  76.174 116.833  0.00  0.00    -0.090 HD
ENDBRANCH   5  18
BRANCH   3  22
ATOM     22  C   LIG d   1      -6.330  75.599 115.615  0.00  0.00     0.382 C 
ATOM     23  O   LIG d   1      -5.570  76.191 114.811  0.00  0.00    -0.241 OA
ATOM     24  O   LIG d   1      -6.254  74.362 115.734  0.00  0.00    -0.241 OA
ENDBRANCH   3  22
TORSDOF 7
ENDMDL
