MODEL 1
REMARK VINA RESULT:      -5.8      0.000      0.000
REMARK  7 active torsions:
REMARK  status: ('A' for Active; 'I' for Inactive)
REMARK    1  A    between atoms: C_2  and  C_3 
REMARK    2  A    between atoms: C_3  and  O_6 
REMARK    3  A    between atoms: C_3  and  C_4 
REMARK    4  A    between atoms: C_7  and  O_6 
REMARK    5  A    between atoms: C_9  and  C_10 
REMARK    6  A    between atoms: N_15  and  C_14 
REMARK    7  A    between atoms: N_20  and  C_19 
REMARK       I    between atoms: C_22  and  N_20 
ROOT
ATOM      1  C   LIG d   1      -6.989  75.656 115.871  0.00  0.00     0.161 C 
ATOM      2  C   LIG d   1      -8.346  75.532 116.212  0.00  0.00     0.016 C 
ATOM      3  C   LIG d   1      -8.950  74.304 116.569  0.00  0.00     0.038 C 
ATOM      4  C   LIG d   1      -8.197  73.135 116.757  0.00  0.00     0.028 C 
ATOM      5  C   LIG d   1      -6.913  73.102 115.935  0.00  0.00    -0.047 C 
ATOM      6  C   LIG d   1      -6.129  74.412 116.178  0.00  0.00     0.091 C 
ENDROOT
BRANCH   1   7
ATOM      7  O   LIG d   1      -6.430  76.821 116.509  0.00  0.00    -0.368 OA
BRANCH   7   8
ATOM      8  C   LIG d   1      -7.065  77.240 117.742  0.00  0.00     0.119 C 
BRANCH   8   9
ATOM      9  C   LIG d   1      -6.936  78.773 117.831  0.00  0.00     0.028 C 
ATOM     10  C   LIG d   1      -8.304  79.477 117.841  0.00  0.00     0.006 C 
ENDBRANCH   8   9
BRANCH   8  11
ATOM     11  C   LIG d   1      -6.319  76.698 118.965  0.00  0.00     0.028 C 
ATOM     12  C   LIG d   1      -7.183  75.758 119.821  0.00  0.00     0.006 C 
ENDBRANCH   8  11
ENDBRANCH   7   8
ENDBRANCH   1   7
BRANCH   6  13
ATOM     13  N   LIG d   1      -4.900  74.499 115.347  0.00  0.00    -0.311 N 
ATOM     14  C   LIG d   1      -3.701  74.808 115.841  0.00  0.00     0.210 C 
ATOM     15  C   LIG d   1      -2.571  74.863 114.808  0.00  0.00     0.109 C 
ATOM     16  O   LIG d   1      -3.461  75.010 117.040  0.00  0.00    -0.276 OA
ATOM     17  H   LIG d   1      -4.998  74.320 114.367  0.00  0.00     0.149 HD
ENDBRANCH   6  13
BRANCH   5  18
ATOM     18  N   LIG d   1      -6.161  71.896 116.330  0.00  0.00     0.381 N 
ATOM     19  H   LIG d   1      -5.264  72.158 116.688  0.00  0.00    -0.090 HD
ATOM     20  H   LIG d   1      -6.022  71.320 115.519  0.00  0.00    -0.090 HD
ATOM     21  H   LIG d   1      -6.668  71.391 117.023  0.00  0.00    -0.090 HD
ENDBRANCH   5  18
BRANCH   3  22
ATOM     22  C   LIG d   1     -10.328  74.229 116.703  0.00  0.00     0.382 C 
ATOM     23  O   LIG d   1     -10.942  75.103 117.360  0.00  0.00    -0.241 OA
ATOM     24  O   LIG d   1     -10.959  73.274 116.212  0.00  0.00    -0.241 OA
ENDBRANCH   3  22
TORSDOF 7
ENDMDL
MODEL 2
REMARK VINA RESULT:      -5.7      2.435      5.811
REMARK  7 active torsions:
REMARK  status: ('A' for Active; 'I' for Inactive)
REMARK    1  A    between atoms: C_2  and  C_3 
REMARK    2  A    between atoms: C_3  and  O_6 
REMARK    3  A    between atoms: C_3  and  C_4 
REMARK    4  A    between atoms: C_7  and  O_6 
REMARK    5  A    between atoms: C_9  and  C_10 
REMARK    6  A    between atoms: N_15  and  C_14 
REMARK    7  A    between atoms: N_20  and  C_19 
REMARK       I    between atoms: C_22  and  N_20 
ROOT
ATOM      1  C   LIG d   1      -6.404  75.258 116.678  0.00  0.00     0.161 C 
ATOM      2  C   LIG d   1      -5.213  74.614 116.307  0.00  0.00     0.016 C 
ATOM      3  C   LIG d   1      -3.928  75.092 116.656  0.00  0.00     0.038 C 
ATOM      4  C   LIG d   1      -3.752  76.171 117.534  0.00  0.00     0.028 C 
ATOM      5  C   LIG d   1      -4.917  77.156 117.524  0.00  0.00    -0.047 C 
ATOM      6  C   LIG d   1      -6.236  76.375 117.729  0.00  0.00     0.091 C 
ENDROOT
BRANCH   1   7
ATOM      7  O   LIG d   1      -7.366  74.285 117.131  0.00  0.00    -0.368 OA
BRANCH   7   8
ATOM      8  C   LIG d   1      -8.385  73.902 116.175  0.00  0.00     0.119 C 
BRANCH   8   9
ATOM      9  C   LIG d   1      -9.707  74.556 116.622  0.00  0.00     0.028 C 
ATOM     10  C   LIG d   1     -10.878  73.559 116.639  0.00  0.00     0.006 C 
ENDBRANCH   8   9
BRANCH   8  11
ATOM     11  C   LIG d   1      -8.645  72.393 116.213  0.00  0.00     0.028 C 
ATOM     12  C   LIG d   1      -7.416  71.566 115.805  0.00  0.00     0.006 C 
ENDBRANCH   8  11
ENDBRANCH   7   8
ENDBRANCH   1   7
BRANCH   6  13
ATOM     13  N   LIG d   1      -7.432  77.253 117.649  0.00  0.00    -0.311 N 
ATOM     14  C   LIG d   1      -8.287  77.421 118.657  0.00  0.00     0.210 C 
ATOM     15  C   LIG d   1      -9.465  78.353 118.357  0.00  0.00     0.109 C 
ATOM     16  O   LIG d   1      -8.164  76.911 119.780  0.00  0.00    -0.276 OA
ATOM     17  H   LIG d   1      -7.591  77.730 116.783  0.00  0.00     0.149 HD
ENDBRANCH   6  13
BRANCH   5  18
ATOM     18  N   LIG d   1      -4.666  78.154 118.581  0.00  0.00     0.381 N 
ATOM     19  H   LIG d   1      -3.936  77.831 119.185  0.00  0.00    -0.090 HD
ATOM     20  H   LIG d   1      -5.501  78.265 119.128  0.00  0.00    -0.090 HD
ATOM     21  H   LIG d   1      -4.408  79.025 118.173  0.00  0.00    -0.090 HD
ENDBRANCH   5  18
BRANCH   3  22
ATOM     22  C   LIG d   1      -2.803  74.511 116.092  0.00  0.00     0.382 C 
ATOM     23  O   LIG d   1      -2.518  74.733 114.890  0.00  0.00    -0.241 OA
ATOM     24  O   LIG d   1      -2.093  73.733 116.757  0.00  0.00    -0.241 OA
ENDBRANCH   3  22
TORSDOF 7
ENDMDL
MODEL 3
REMARK VINA RESULT:      -5.5      1.982      2.467
REMARK  7 active torsions:
REMARK  status: ('A' for Active; 'I' for Inactive)
REMARK    1  A    between atoms: C_2  and  C_3 
REMARK    2  A    between atoms: C_3  and  O_6 
REMARK    3  A    between atoms: C_3  and  C_4 
REMARK    4  A    between atoms: C_7  and  O_6 
REMARK    5  A    between atoms: C_9  and  C_10 
REMARK    6  A    between atoms: N_15  and  C_14 
REMARK    7  A    between atoms: N_20  and  C_19 
REMARK       I    between atoms: C_22  and  N_20 
ROOT
ATOM      1  C   LIG d   1      -7.407  75.668 116.098  0.00  0.00     0.161 C 
ATOM      2  C   LIG d   1      -8.202  74.510 116.122  0.00  0.00     0.016 C 
ATOM      3  C   LIG d   1      -7.670  73.203 116.213  0.00  0.00     0.038 C 
ATOM      4  C   LIG d   1      -6.305  72.972 116.440  0.00  0.00     0.028 C 
ATOM      5  C   LIG d   1      -5.407  74.088 115.918  0.00  0.00    -0.047 C 
ATOM      6  C   LIG d   1      -5.923  75.442 116.457  0.00  0.00     0.091 C 
ENDROOT
BRANCH   1   7
ATOM      7  O   LIG d   1      -7.982  76.673 116.957  0.00  0.00    -0.368 OA
BRANCH   7   8
ATOM      8  C   LIG d   1      -8.577  76.195 118.189  0.00  0.00     0.119 C 
BRANCH   8   9
ATOM      9  C   LIG d   1      -9.937  76.899 118.350  0.00  0.00     0.028 C 
ATOM     10  C   LIG d   1      -9.878  78.070 119.346  0.00  0.00     0.006 C 
ENDBRANCH   8   9
BRANCH   8  11
ATOM     11  C   LIG d   1      -7.752  76.621 119.407  0.00  0.00     0.028 C 
ATOM     12  C   LIG d   1      -7.176  75.426 120.184  0.00  0.00     0.006 C 
ENDBRANCH   8  11
ENDBRANCH   7   8
ENDBRANCH   1   7
BRANCH   6  13
ATOM     13  N   LIG d   1      -5.151  76.595 115.926  0.00  0.00    -0.311 N 
ATOM     14  C   LIG d   1      -4.605  77.531 116.701  0.00  0.00     0.210 C 
ATOM     15  C   LIG d   1      -3.868  78.644 115.950  0.00  0.00     0.109 C 
ATOM     16  O   LIG d   1      -4.633  77.527 117.941  0.00  0.00    -0.276 OA
ATOM     17  H   LIG d   1      -5.052  76.659 114.932  0.00  0.00     0.149 HD
ENDBRANCH   6  13
BRANCH   5  18
ATOM     18  N   LIG d   1      -4.027  73.785 116.343  0.00  0.00     0.381 N 
ATOM     19  H   LIG d   1      -3.926  72.801 116.490  0.00  0.00    -0.090 HD
ATOM     20  H   LIG d   1      -3.844  74.255 117.212  0.00  0.00    -0.090 HD
ATOM     21  H   LIG d   1      -3.381  74.092 115.649  0.00  0.00    -0.090 HD
ENDBRANCH   5  18
BRANCH   3  22
ATOM     22  C   LIG d   1      -8.503  72.108 116.036  0.00  0.00     0.382 C 
ATOM     23  O   LIG d   1      -9.746  72.244 116.136  0.00  0.00    -0.241 OA
ATOM     24  O   LIG d   1      -8.024  70.979 115.821  0.00  0.00    -0.241 OA
ENDBRANCH   3  22
TORSDOF 7
ENDMDL
MODEL 4
REMARK VINA RESULT:      -5.4     14.591     17.203
REMARK  7 active torsions:
REMARK  status: ('A' for Active; 'I' for Inactive)
REMARK    1  A    between atoms: C_2  and  C_3 
REMARK    2  A    between atoms: C_3  and  O_6 
REMARK    3  A    between atoms: C_3  and  C_4 
REMARK    4  A    between atoms: C_7  and  O_6 
REMARK    5  A    between atoms: C_9  and  C_10 
REMARK    6  A    between atoms: N_15  and  C_14 
REMARK    7  A    between atoms: N_20  and  C_19 
REMARK       I    between atoms: C_22  and  N_20 
ROOT
ATOM      1  C   LIG d   1      -6.167  92.463 117.708  0.00  0.00     0.161 C 
ATOM      2  C   LIG d   1      -7.117  91.580 117.170  0.00  0.00     0.016 C 
ATOM      3  C   LIG d   1      -6.782  90.334 116.592  0.00  0.00     0.038 C 
ATOM      4  C   LIG d   1      -5.480  89.816 116.650  0.00  0.00     0.028 C 
ATOM      5  C   LIG d   1      -4.403  90.893 116.733  0.00  0.00    -0.047 C 
ATOM      6  C   LIG d   1      -4.754  91.866 117.881  0.00  0.00     0.091 C 
ENDROOT
BRANCH   1   7
ATOM      7  O   LIG d   1      -6.645  92.990 118.962  0.00  0.00    -0.368 OA
BRANCH   7   8
ATOM      8  C   LIG d   1      -7.799  93.862 118.889  0.00  0.00     0.119 C 
BRANCH   8   9
ATOM      9  C   LIG d   1      -7.313  95.232 118.376  0.00  0.00     0.028 C 
ATOM     10  C   LIG d   1      -6.187  95.817 119.245  0.00  0.00     0.006 C 
ENDBRANCH   8   9
BRANCH   8  11
ATOM     11  C   LIG d   1      -8.383  94.133 120.279  0.00  0.00     0.028 C 
ATOM     12  C   LIG d   1      -9.909  93.965 120.327  0.00  0.00     0.006 C 
ENDBRANCH   8  11
ENDBRANCH   7   8
ENDBRANCH   1   7
BRANCH   6  13
ATOM     13  N   LIG d   1      -3.796  92.999 117.977  0.00  0.00    -0.311 N 
ATOM     14  C   LIG d   1      -2.770  93.021 118.826  0.00  0.00     0.210 C 
ATOM     15  C   LIG d   1      -1.917  94.292 118.776  0.00  0.00     0.109 C 
ATOM     16  O   LIG d   1      -2.467  92.095 119.592  0.00  0.00    -0.276 OA
ATOM     17  H   LIG d   1      -3.950  93.779 117.368  0.00  0.00     0.149 HD
ENDBRANCH   6  13
BRANCH   5  18
ATOM     18  N   LIG d   1      -3.108  90.214 116.926  0.00  0.00     0.381 N 
ATOM     19  H   LIG d   1      -3.233  89.223 116.867  0.00  0.00    -0.090 HD
ATOM     20  H   LIG d   1      -2.759  90.434 117.843  0.00  0.00    -0.090 HD
ATOM     21  H   LIG d   1      -2.458  90.516 116.234  0.00  0.00    -0.090 HD
ENDBRANCH   5  18
BRANCH   3  22
ATOM     22  C   LIG d   1      -7.749  89.610 115.911  0.00  0.00     0.382 C 
ATOM     23  O   LIG d   1      -8.128  88.499 116.355  0.00  0.00    -0.241 OA
ATOM     24  O   LIG d   1      -8.216  90.033 114.837  0.00  0.00    -0.241 OA
ENDBRANCH   3  22
TORSDOF 7
ENDMDL
MODEL 5
REMARK VINA RESULT:      -5.4      1.225      1.961
REMARK  7 active torsions:
REMARK  status: ('A' for Active; 'I' for Inactive)
REMARK    1  A    between atoms: C_2  and  C_3 
REMARK    2  A    between atoms: C_3  and  O_6 
REMARK    3  A    between atoms: C_3  and  C_4 
REMARK    4  A    between atoms: C_7  and  O_6 
REMARK    5  A    between atoms: C_9  and  C_10 
REMARK    6  A    between atoms: N_15  and  C_14 
REMARK    7  A    between atoms: N_20  and  C_19 
REMARK       I    between atoms: C_22  and  N_20 
ROOT
ATOM      1  C   LIG d   1      -7.189  76.077 116.502  0.00  0.00     0.161 C 
ATOM      2  C   LIG d   1      -8.532  75.848 116.844  0.00  0.00     0.016 C 
ATOM      3  C   LIG d   1      -9.145  74.575 116.785  0.00  0.00     0.038 C 
ATOM      4  C   LIG d   1      -8.410  73.410 116.522  0.00  0.00     0.028 C 
ATOM      5  C   LIG d   1      -7.164  73.658 115.678  0.00  0.00    -0.047 C 
ATOM      6  C   LIG d   1      -6.342  74.800 116.320  0.00  0.00     0.091 C 
ENDROOT
BRANCH   1   7
ATOM      7  O   LIG d   1      -6.579  76.948 117.474  0.00  0.00    -0.368 OA
BRANCH   7   8
ATOM      8  C   LIG d   1      -6.273  78.291 117.024  0.00  0.00     0.119 C 
BRANCH   8   9
ATOM      9  C   LIG d   1      -4.778  78.543 117.300  0.00  0.00     0.028 C 
ATOM     10  C   LIG d   1      -3.944  78.598 116.010  0.00  0.00     0.006 C 
ENDBRANCH   8   9
BRANCH   8  11
ATOM     11  C   LIG d   1      -7.021  79.340 117.851  0.00  0.00     0.028 C 
ATOM     12  C   LIG d   1      -6.641  80.780 117.472  0.00  0.00     0.006 C 
ENDBRANCH   8  11
ENDBRANCH   7   8
ENDBRANCH   1   7
BRANCH   6  13
ATOM     13  N   LIG d   1      -5.149  75.163 115.512  0.00  0.00    -0.311 N 
ATOM     14  C   LIG d   1      -3.930  74.679 115.745  0.00  0.00     0.210 C 
ATOM     15  C   LIG d   1      -2.837  75.199 114.806  0.00  0.00     0.109 C 
ATOM     16  O   LIG d   1      -3.657  73.844 116.620  0.00  0.00    -0.276 OA
ATOM     17  H   LIG d   1      -5.287  75.811 114.761  0.00  0.00     0.149 HD
ENDBRANCH   6  13
BRANCH   5  18
ATOM     18  N   LIG d   1      -6.420  72.386 115.597  0.00  0.00     0.381 N 
ATOM     19  H   LIG d   1      -7.063  71.622 115.534  0.00  0.00    -0.090 HD
ATOM     20  H   LIG d   1      -5.877  72.273 116.435  0.00  0.00    -0.090 HD
ATOM     21  H   LIG d   1      -5.820  72.392 114.802  0.00  0.00    -0.090 HD
ENDBRANCH   5  18
BRANCH   3  22
ATOM     22  C   LIG d   1     -10.517  74.465 116.951  0.00  0.00     0.382 C 
ATOM     23  O   LIG d   1     -11.158  75.389 117.508  0.00  0.00    -0.241 OA
ATOM     24  O   LIG d   1     -11.116  73.434 116.591  0.00  0.00    -0.241 OA
ENDBRANCH   3  22
TORSDOF 7
ENDMDL
MODEL 6
REMARK VINA RESULT:      -5.3     15.628     17.992
REMARK  7 active torsions:
REMARK  status: ('A' for Active; 'I' for Inactive)
REMARK    1  A    between atoms: C_2  and  C_3 
REMARK    2  A    between atoms: C_3  and  O_6 
REMARK    3  A    between atoms: C_3  and  C_4 
REMARK    4  A    between atoms: C_7  and  O_6 
REMARK    5  A    between atoms: C_9  and  C_10 
REMARK    6  A    between atoms: N_15  and  C_14 
REMARK    7  A    between atoms: N_20  and  C_19 
REMARK       I    between atoms: C_22  and  N_20 
ROOT
ATOM      1  C   LIG d   1      -5.085  92.175 118.576  0.00  0.00     0.161 C 
ATOM      2  C   LIG d   1      -6.369  92.529 118.130  0.00  0.00     0.016 C 
ATOM      3  C   LIG d   1      -6.986  93.764 118.435  0.00  0.00     0.038 C 
ATOM      4  C   LIG d   1      -6.295  94.797 119.085  0.00  0.00     0.028 C 
ATOM      5  C   LIG d   1      -5.175  94.300 119.993  0.00  0.00    -0.047 C 
ATOM      6  C   LIG d   1      -4.273  93.333 119.192  0.00  0.00     0.091 C 
ENDROOT
BRANCH   1   7
ATOM      7  O   LIG d   1      -4.346  91.562 117.501  0.00  0.00    -0.368 OA
BRANCH   7   8
ATOM      8  C   LIG d   1      -4.491  90.126 117.366  0.00  0.00     0.119 C 
BRANCH   8   9
ATOM      9  C   LIG d   1      -3.091  89.502 117.530  0.00  0.00     0.028 C 
ATOM     10  C   LIG d   1      -2.755  89.193 118.999  0.00  0.00     0.006 C 
ENDBRANCH   8   9
BRANCH   8  11
ATOM     11  C   LIG d   1      -4.943  89.742 115.954  0.00  0.00     0.028 C 
ATOM     12  C   LIG d   1      -6.472  89.650 115.823  0.00  0.00     0.006 C 
ENDBRANCH   8  11
ENDBRANCH   7   8
ENDBRANCH   1   7
BRANCH   6  13
ATOM     13  N   LIG d   1      -3.200  92.735 120.030  0.00  0.00    -0.311 N 
ATOM     14  C   LIG d   1      -1.909  92.778 119.708  0.00  0.00     0.210 C 
ATOM     15  C   LIG d   1      -0.972  92.082 120.700  0.00  0.00     0.109 C 
ATOM     16  O   LIG d   1      -1.447  93.355 118.712  0.00  0.00    -0.276 OA
ATOM     17  H   LIG d   1      -3.484  92.274 120.872  0.00  0.00     0.149 HD
ENDBRANCH   6  13
BRANCH   5  18
ATOM     18  N   LIG d   1      -4.452  95.482 120.497  0.00  0.00     0.381 N 
ATOM     19  H   LIG d   1      -3.488  95.427 120.235  0.00  0.00    -0.090 HD
ATOM     20  H   LIG d   1      -4.506  95.492 121.500  0.00  0.00    -0.090 HD
ATOM     21  H   LIG d   1      -4.858  96.314 120.127  0.00  0.00    -0.090 HD
ENDBRANCH   5  18
BRANCH   3  22
ATOM     22  C   LIG d   1      -8.323  93.960 118.123  0.00  0.00     0.382 C 
ATOM     23  O   LIG d   1      -9.147  94.220 119.032  0.00  0.00    -0.241 OA
ATOM     24  O   LIG d   1      -8.722  93.836 116.949  0.00  0.00    -0.241 OA
ENDBRANCH   3  22
TORSDOF 7
ENDMDL
MODEL 7
REMARK VINA RESULT:      -5.1      1.794      2.307
REMARK  7 active torsions:
REMARK  status: ('A' for Active; 'I' for Inactive)
REMARK    1  A    between atoms: C_2  and  C_3 
REMARK    2  A    between atoms: C_3  and  O_6 
REMARK    3  A    between atoms: C_3  and  C_4 
REMARK    4  A    between atoms: C_7  and  O_6 
REMARK    5  A    between atoms: C_9  and  C_10 
REMARK    6  A    between atoms: N_15  and  C_14 
REMARK    7  A    between atoms: N_20  and  C_19 
REMARK       I    between atoms: C_22  and  N_20 
ROOT
ATOM      1  C   LIG d   1      -7.985  76.378 117.480  0.00  0.00     0.161 C 
ATOM      2  C   LIG d   1      -9.038  75.447 117.495  0.00  0.00     0.016 C 
ATOM      3  C   LIG d   1      -9.062  74.287 116.687  0.00  0.00     0.038 C 
ATOM      4  C   LIG d   1      -7.957  73.898 115.915  0.00  0.00     0.028 C 
ATOM      5  C   LIG d   1      -7.078  75.067 115.483  0.00  0.00    -0.047 C 
ATOM      6  C   LIG d   1      -6.721  75.913 116.727  0.00  0.00     0.091 C 
ENDROOT
BRANCH   1   7
ATOM      7  O   LIG d   1      -7.652  76.760 118.829  0.00  0.00    -0.368 OA
BRANCH   7   8
ATOM      8  C   LIG d   1      -8.220  78.008 119.297  0.00  0.00     0.119 C 
BRANCH   8   9
ATOM      9  C   LIG d   1      -8.401  78.922 118.070  0.00  0.00     0.028 C 
ATOM     10  C   LIG d   1      -9.629  79.840 118.199  0.00  0.00     0.006 C 
ENDBRANCH   8   9
BRANCH   8  11
ATOM     11  C   LIG d   1      -7.247  78.752 120.217  0.00  0.00     0.028 C 
ATOM     12  C   LIG d   1      -6.111  79.445 119.447  0.00  0.00     0.006 C 
ENDBRANCH   8  11
ENDBRANCH   7   8
ENDBRANCH   1   7
BRANCH   6  13
ATOM     13  N   LIG d   1      -5.932  77.124 116.381  0.00  0.00    -0.311 N 
ATOM     14  C   LIG d   1      -4.602  77.170 116.427  0.00  0.00     0.210 C 
ATOM     15  C   LIG d   1      -3.989  78.522 116.051  0.00  0.00     0.109 C 
ATOM     16  O   LIG d   1      -3.871  76.210 116.712  0.00  0.00    -0.276 OA
ATOM     17  H   LIG d   1      -6.445  77.940 116.109  0.00  0.00     0.149 HD
ENDBRANCH   6  13
BRANCH   5  18
ATOM     18  N   LIG d   1      -5.894  74.507 114.805  0.00  0.00     0.381 N 
ATOM     19  H   LIG d   1      -6.105  73.596 114.451  0.00  0.00    -0.090 HD
ATOM     20  H   LIG d   1      -5.148  74.420 115.473  0.00  0.00    -0.090 HD
ATOM     21  H   LIG d   1      -5.613  75.105 114.059  0.00  0.00    -0.090 HD
ENDBRANCH   5  18
BRANCH   3  22
ATOM     22  C   LIG d   1     -10.217  73.524 116.615  0.00  0.00     0.382 C 
ATOM     23  O   LIG d   1     -10.159  72.334 116.222  0.00  0.00    -0.241 OA
ATOM     24  O   LIG d   1     -11.323  74.023 116.897  0.00  0.00    -0.241 OA
ENDBRANCH   3  22
TORSDOF 7
ENDMDL
MODEL 8
REMARK VINA RESULT:      -5.0      2.779      4.836
REMARK  7 active torsions:
REMARK  status: ('A' for Active; 'I' for Inactive)
REMARK    1  A    between atoms: C_2  and  C_3 
REMARK    2  A    between atoms: C_3  and  O_6 
REMARK    3  A    between atoms: C_3  and  C_4 
REMARK    4  A    between atoms: C_7  and  O_6 
REMARK    5  A    between atoms: C_9  and  C_10 
REMARK    6  A    between atoms: N_15  and  C_14 
REMARK    7  A    between atoms: N_20  and  C_19 
REMARK       I    between atoms: C_22  and  N_20 
ROOT
ATOM      1  C   LIG d   1      -6.350  77.025 116.719  0.00  0.00     0.161 C 
ATOM      2  C   LIG d   1      -7.649  76.984 117.252  0.00  0.00     0.016 C 
ATOM      3  C   LIG d   1      -8.248  78.073 117.925  0.00  0.00     0.038 C 
ATOM      4  C   LIG d   1      -7.641  79.336 117.980  0.00  0.00     0.028 C 
ATOM      5  C   LIG d   1      -6.119  79.281 117.897  0.00  0.00    -0.047 C 
ATOM      6  C   LIG d   1      -5.714  78.430 116.671  0.00  0.00     0.091 C 
ENDROOT
BRANCH   1   7
ATOM      7  O   LIG d   1      -6.340  76.426 115.408  0.00  0.00    -0.368 OA
BRANCH   7   8
ATOM      8  C   LIG d   1      -5.668  75.148 115.296  0.00  0.00     0.119 C 
BRANCH   8   9
ATOM      9  C   LIG d   1      -6.755  74.059 115.217  0.00  0.00     0.028 C 
ATOM     10  C   LIG d   1      -6.953  73.329 116.557  0.00  0.00     0.006 C 
ENDBRANCH   8   9
BRANCH   8  11
ATOM     11  C   LIG d   1      -4.864  74.828 116.560  0.00  0.00     0.028 C 
ATOM     12  C   LIG d   1      -3.387  74.525 116.266  0.00  0.00     0.006 C 
ENDBRANCH   8  11
ENDBRANCH   7   8
ENDBRANCH   1   7
BRANCH   6  13
ATOM     13  N   LIG d   1      -4.242  78.255 116.565  0.00  0.00    -0.311 N 
ATOM     14  C   LIG d   1      -3.469  79.008 115.785  0.00  0.00     0.210 C 
ATOM     15  C   LIG d   1      -1.980  78.647 115.807  0.00  0.00     0.109 C 
ATOM     16  O   LIG d   1      -3.869  79.963 115.102  0.00  0.00    -0.276 OA
ATOM     17  H   LIG d   1      -3.829  77.523 117.109  0.00  0.00     0.149 HD
ENDBRANCH   6  13
BRANCH   5  18
ATOM     18  N   LIG d   1      -5.626  80.669 117.826  0.00  0.00     0.381 N 
ATOM     19  H   LIG d   1      -5.273  80.857 116.909  0.00  0.00    -0.090 HD
ATOM     20  H   LIG d   1      -4.872  80.780 118.482  0.00  0.00    -0.090 HD
ATOM     21  H   LIG d   1      -6.362  81.304 118.044  0.00  0.00    -0.090 HD
ENDBRANCH   5  18
BRANCH   3  22
ATOM     22  C   LIG d   1      -9.453  77.892 118.588  0.00  0.00     0.382 C 
ATOM     23  O   LIG d   1     -10.219  76.958 118.252  0.00  0.00    -0.241 OA
ATOM     24  O   LIG d   1      -9.802  78.679 119.489  0.00  0.00    -0.241 OA
ENDBRANCH   3  22
TORSDOF 7
ENDMDL
MODEL 9
REMARK VINA RESULT:      -5.0      2.400      4.348
REMARK  7 active torsions:
REMARK  status: ('A' for Active; 'I' for Inactive)
REMARK    1  A    between atoms: C_2  and  C_3 
REMARK    2  A    between atoms: C_3  and  O_6 
REMARK    3  A    between atoms: C_3  and  C_4 
REMARK    4  A    between atoms: C_7  and  O_6 
REMARK    5  A    between atoms: C_9  and  C_10 
REMARK    6  A    between atoms: N_15  and  C_14 
REMARK    7  A    between atoms: N_20  and  C_19 
REMARK       I    between atoms: C_22  and  N_20 
ROOT
ATOM      1  C   LIG d   1      -6.717  75.970 117.069  0.00  0.00     0.161 C 
ATOM      2  C   LIG d   1      -7.179  77.225 117.500  0.00  0.00     0.016 C 
ATOM      3  C   LIG d   1      -8.536  77.496 117.790  0.00  0.00     0.038 C 
ATOM      4  C   LIG d   1      -9.506  76.484 117.815  0.00  0.00     0.028 C 
ATOM      5  C   LIG d   1      -9.180  75.309 116.898  0.00  0.00    -0.047 C 
ATOM      6  C   LIG d   1      -7.743  74.824 117.197  0.00  0.00     0.091 C 
ENDROOT
BRANCH   1   7
ATOM      7  O   LIG d   1      -5.500  75.633 117.764  0.00  0.00    -0.368 OA
BRANCH   7   8
ATOM      8  C   LIG d   1      -4.265  75.954 117.078  0.00  0.00     0.119 C 
BRANCH   8   9
ATOM      9  C   LIG d   1      -3.808  74.687 116.329  0.00  0.00     0.028 C 
ATOM     10  C   LIG d   1      -3.767  74.889 114.805  0.00  0.00     0.006 C 
ENDBRANCH   8   9
BRANCH   8  11
ATOM     11  C   LIG d   1      -3.141  76.266 118.071  0.00  0.00     0.028 C 
ATOM     12  C   LIG d   1      -1.969  75.276 117.975  0.00  0.00     0.006 C 
ENDBRANCH   8  11
ENDBRANCH   7   8
ENDBRANCH   1   7
BRANCH   6  13
ATOM     13  N   LIG d   1      -7.312  73.731 116.286  0.00  0.00    -0.311 N 
ATOM     14  C   LIG d   1      -7.133  72.473 116.684  0.00  0.00     0.210 C 
ATOM     15  C   LIG d   1      -6.668  71.509 115.589  0.00  0.00     0.109 C 
ATOM     16  O   LIG d   1      -7.345  72.058 117.833  0.00  0.00    -0.276 OA
ATOM     17  H   LIG d   1      -7.148  73.974 115.329  0.00  0.00     0.149 HD
ENDBRANCH   6  13
BRANCH   5  18
ATOM     18  N   LIG d   1     -10.200  74.269 117.126  0.00  0.00     0.381 N 
ATOM     19  H   LIG d   1      -9.897  73.404 116.725  0.00  0.00    -0.090 HD
ATOM     20  H   LIG d   1     -11.053  74.545 116.671  0.00  0.00    -0.090 HD
ATOM     21  H   LIG d   1     -10.358  74.154 118.103  0.00  0.00    -0.090 HD
ENDBRANCH   5  18
BRANCH   3  22
ATOM     22  C   LIG d   1      -8.941  78.802 118.021  0.00  0.00     0.382 C 
ATOM     23  O   LIG d   1     -10.054  79.028 118.555  0.00  0.00    -0.241 OA
ATOM     24  O   LIG d   1      -8.227  79.758 117.663  0.00  0.00    -0.241 OA
ENDBRANCH   3  22
TORSDOF 7
ENDMDL
