MODEL 1
REMARK VINA RESULT:      -5.2      0.000      0.000
REMARK  7 active torsions:
REMARK  status: ('A' for Active; 'I' for Inactive)
REMARK    1  A    between atoms: C_2  and  C_3 
REMARK    2  A    between atoms: C_3  and  O_6 
REMARK    3  A    between atoms: C_3  and  C_4 
REMARK    4  A    between atoms: C_7  and  O_6 
REMARK    5  A    between atoms: C_9  and  C_10 
REMARK    6  A    between atoms: N_15  and  C_14 
REMARK    7  A    between atoms: N_20  and  C_19 
REMARK       I    between atoms: C_22  and  N_20 
ROOT
ATOM      1  C   LIG d   1      -6.868  77.209 117.533  0.00  0.00     0.161 C 
ATOM      2  C   LIG d   1      -8.150  77.645 117.907  0.00  0.00     0.016 C 
ATOM      3  C   LIG d   1      -8.513  79.008 117.999  0.00  0.00     0.038 C 
ATOM      4  C   LIG d   1      -7.655  80.034 117.574  0.00  0.00     0.028 C 
ATOM      5  C   LIG d   1      -6.178  79.666 117.668  0.00  0.00    -0.047 C 
ATOM      6  C   LIG d   1      -5.952  78.311 116.959  0.00  0.00     0.091 C 
ENDROOT
BRANCH   1   7
ATOM      7  O   LIG d   1      -6.976  76.113 116.604  0.00  0.00    -0.368 OA
BRANCH   7   8
ATOM      8  C   LIG d   1      -6.595  74.809 117.109  0.00  0.00     0.119 C 
BRANCH   8   9
ATOM      9  C   LIG d   1      -5.672  74.158 116.061  0.00  0.00     0.028 C 
ATOM     10  C   LIG d   1      -5.486  75.039 114.815  0.00  0.00     0.006 C 
ENDBRANCH   8   9
BRANCH   8  11
ATOM     11  C   LIG d   1      -7.807  73.879 117.218  0.00  0.00     0.028 C 
ATOM     12  C   LIG d   1      -7.460  72.412 116.915  0.00  0.00     0.006 C 
ENDBRANCH   8  11
ENDBRANCH   7   8
ENDBRANCH   1   7
BRANCH   6  13
ATOM     13  N   LIG d   1      -4.549  77.836 117.078  0.00  0.00    -0.311 N 
ATOM     14  C   LIG d   1      -3.657  77.932 116.093  0.00  0.00     0.210 C 
ATOM     15  C   LIG d   1      -2.272  77.363 116.417  0.00  0.00     0.109 C 
ATOM     16  O   LIG d   1      -3.872  78.464 114.993  0.00  0.00    -0.276 OA
ATOM     17  H   LIG d   1      -4.280  77.420 117.948  0.00  0.00     0.149 HD
ENDBRANCH   6  13
BRANCH   5  18
ATOM     18  N   LIG d   1      -5.405  80.769 117.067  0.00  0.00     0.381 N 
ATOM     19  H   LIG d   1      -4.911  80.437 116.262  0.00  0.00    -0.090 HD
ATOM     20  H   LIG d   1      -4.732  81.097 117.736  0.00  0.00    -0.090 HD
ATOM     21  H   LIG d   1      -6.016  81.512 116.807  0.00  0.00    -0.090 HD
ENDBRANCH   5  18
BRANCH   3  22
ATOM     22  C   LIG d   1      -9.732  79.359 118.558  0.00  0.00     0.382 C 
ATOM     23  O   LIG d   1      -9.919  80.528 118.973  0.00  0.00    -0.241 OA
ATOM     24  O   LIG d   1     -10.633  78.509 118.692  0.00  0.00    -0.241 OA
ENDBRANCH   3  22
TORSDOF 7
ENDMDL
MODEL 2
REMARK VINA RESULT:      -4.9      1.900      2.890
REMARK  7 active torsions:
REMARK  status: ('A' for Active; 'I' for Inactive)
REMARK    1  A    between atoms: C_2  and  C_3 
REMARK    2  A    between atoms: C_3  and  O_6 
REMARK    3  A    between atoms: C_3  and  C_4 
REMARK    4  A    between atoms: C_7  and  O_6 
REMARK    5  A    between atoms: C_9  and  C_10 
REMARK    6  A    between atoms: N_15  and  C_14 
REMARK    7  A    between atoms: N_20  and  C_19 
REMARK       I    between atoms: C_22  and  N_20 
ROOT
ATOM      1  C   LIG d   1      -6.378  79.268 117.602  0.00  0.00     0.161 C 
ATOM      2  C   LIG d   1      -7.717  78.958 117.890  0.00  0.00     0.016 C 
ATOM      3  C   LIG d   1      -8.651  79.907 118.364  0.00  0.00     0.038 C 
ATOM      4  C   LIG d   1      -8.346  81.275 118.438  0.00  0.00     0.028 C 
ATOM      5  C   LIG d   1      -6.860  81.553 118.638  0.00  0.00    -0.047 C 
ATOM      6  C   LIG d   1      -6.055  80.776 117.571  0.00  0.00     0.091 C 
ENDROOT
BRANCH   1   7
ATOM      7  O   LIG d   1      -5.989  78.646 116.361  0.00  0.00    -0.368 OA
BRANCH   7   8
ATOM      8  C   LIG d   1      -5.343  77.354 116.470  0.00  0.00     0.119 C 
BRANCH   8   9
ATOM      9  C   LIG d   1      -3.821  77.590 116.404  0.00  0.00     0.028 C 
ATOM     10  C   LIG d   1      -3.388  78.255 115.087  0.00  0.00     0.006 C 
ENDBRANCH   8   9
BRANCH   8  11
ATOM     11  C   LIG d   1      -5.668  76.465 115.266  0.00  0.00     0.028 C 
ATOM     12  C   LIG d   1      -5.443  74.972 115.550  0.00  0.00     0.006 C 
ENDBRANCH   8  11
ENDBRANCH   7   8
ENDBRANCH   1   7
BRANCH   6  13
ATOM     13  N   LIG d   1      -4.587  80.926 117.747  0.00  0.00    -0.311 N 
ATOM     14  C   LIG d   1      -3.794  81.489 116.838  0.00  0.00     0.210 C 
ATOM     15  C   LIG d   1      -2.308  81.525 117.209  0.00  0.00     0.109 C 
ATOM     16  O   LIG d   1      -4.183  81.991 115.772  0.00  0.00    -0.276 OA
ATOM     17  H   LIG d   1      -4.191  80.574 118.597  0.00  0.00     0.149 HD
ENDBRANCH   6  13
BRANCH   5  18
ATOM     18  N   LIG d   1      -6.665  83.013 118.559  0.00  0.00     0.381 N 
ATOM     19  H   LIG d   1      -5.742  83.215 118.230  0.00  0.00    -0.090 HD
ATOM     20  H   LIG d   1      -6.765  83.405 119.479  0.00  0.00    -0.090 HD
ATOM     21  H   LIG d   1      -7.340  83.414 117.945  0.00  0.00    -0.090 HD
ENDBRANCH   5  18
BRANCH   3  22
ATOM     22  C   LIG d   1      -9.895  79.486 118.808  0.00  0.00     0.382 C 
ATOM     23  O   LIG d   1     -10.430  78.470 118.301  0.00  0.00    -0.241 OA
ATOM     24  O   LIG d   1     -10.509  80.133 119.677  0.00  0.00    -0.241 OA
ENDBRANCH   3  22
TORSDOF 7
ENDMDL
MODEL 3
REMARK VINA RESULT:      -4.7     19.505     21.201
REMARK  7 active torsions:
REMARK  status: ('A' for Active; 'I' for Inactive)
REMARK    1  A    between atoms: C_2  and  C_3 
REMARK    2  A    between atoms: C_3  and  O_6 
REMARK    3  A    between atoms: C_3  and  C_4 
REMARK    4  A    between atoms: C_7  and  O_6 
REMARK    5  A    between atoms: C_9  and  C_10 
REMARK    6  A    between atoms: N_15  and  C_14 
REMARK    7  A    between atoms: N_20  and  C_19 
REMARK       I    between atoms: C_22  and  N_20 
ROOT
ATOM      1  C   LIG d   1      -0.870  58.821 119.347  0.00  0.00     0.161 C 
ATOM      2  C   LIG d   1       0.283  59.447 118.843  0.00  0.00     0.016 C 
ATOM      3  C   LIG d   1       1.550  58.822 118.797  0.00  0.00     0.038 C 
ATOM      4  C   LIG d   1       1.721  57.467 119.115  0.00  0.00     0.028 C 
ATOM      5  C   LIG d   1       0.687  56.943 120.106  0.00  0.00    -0.047 C 
ATOM      6  C   LIG d   1      -0.726  57.305 119.596  0.00  0.00     0.091 C 
ENDROOT
BRANCH   1   7
ATOM      7  O   LIG d   1      -1.988  59.083 118.477  0.00  0.00    -0.368 OA
BRANCH   7   8
ATOM      8  C   LIG d   1      -2.128  58.200 117.337  0.00  0.00     0.119 C 
BRANCH   8   9
ATOM      9  C   LIG d   1      -2.115  59.076 116.069  0.00  0.00     0.028 C 
ATOM     10  C   LIG d   1      -0.689  59.358 115.566  0.00  0.00     0.006 C 
ENDBRANCH   8   9
BRANCH   8  11
ATOM     11  C   LIG d   1      -3.493  57.505 117.334  0.00  0.00     0.028 C 
ATOM     12  C   LIG d   1      -4.451  58.069 118.395  0.00  0.00     0.006 C 
ENDBRANCH   8  11
ENDBRANCH   7   8
ENDBRANCH   1   7
BRANCH   6  13
ATOM     13  N   LIG d   1      -1.794  56.903 120.549  0.00  0.00    -0.311 N 
ATOM     14  C   LIG d   1      -2.460  55.753 120.460  0.00  0.00     0.210 C 
ATOM     15  C   LIG d   1      -3.534  55.544 121.532  0.00  0.00     0.109 C 
ATOM     16  O   LIG d   1      -2.243  54.873 119.614  0.00  0.00    -0.276 OA
ATOM     17  H   LIG d   1      -2.013  57.545 121.285  0.00  0.00     0.149 HD
ENDBRANCH   6  13
BRANCH   5  18
ATOM     18  N   LIG d   1       0.897  55.489 120.243  0.00  0.00     0.381 N 
ATOM     19  H   LIG d   1       0.016  55.028 120.351  0.00  0.00    -0.090 HD
ATOM     20  H   LIG d   1       1.447  55.316 121.066  0.00  0.00    -0.090 HD
ATOM     21  H   LIG d   1       1.368  55.136 119.439  0.00  0.00    -0.090 HD
ENDBRANCH   5  18
BRANCH   3  22
ATOM     22  C   LIG d   1       2.672  59.567 118.467  0.00  0.00     0.382 C 
ATOM     23  O   LIG d   1       2.777  60.069 117.321  0.00  0.00    -0.241 OA
ATOM     24  O   LIG d   1       3.601  59.707 119.285  0.00  0.00    -0.241 OA
ENDBRANCH   3  22
TORSDOF 7
ENDMDL
MODEL 4
REMARK VINA RESULT:      -4.4     18.969     21.535
REMARK  7 active torsions:
REMARK  status: ('A' for Active; 'I' for Inactive)
REMARK    1  A    between atoms: C_2  and  C_3 
REMARK    2  A    between atoms: C_3  and  O_6 
REMARK    3  A    between atoms: C_3  and  C_4 
REMARK    4  A    between atoms: C_7  and  O_6 
REMARK    5  A    between atoms: C_9  and  C_10 
REMARK    6  A    between atoms: N_15  and  C_14 
REMARK    7  A    between atoms: N_20  and  C_19 
REMARK       I    between atoms: C_22  and  N_20 
ROOT
ATOM      1  C   LIG d   1      -1.387  57.452 118.906  0.00  0.00     0.161 C 
ATOM      2  C   LIG d   1      -2.329  56.441 119.156  0.00  0.00     0.016 C 
ATOM      3  C   LIG d   1      -1.995  55.070 119.244  0.00  0.00     0.038 C 
ATOM      4  C   LIG d   1      -0.663  54.630 119.238  0.00  0.00     0.028 C 
ATOM      5  C   LIG d   1       0.279  55.561 118.483  0.00  0.00    -0.047 C 
ATOM      6  C   LIG d   1       0.086  57.003 119.007  0.00  0.00     0.091 C 
ENDROOT
BRANCH   1   7
ATOM      7  O   LIG d   1      -1.629  58.574 119.779  0.00  0.00    -0.368 OA
BRANCH   7   8
ATOM      8  C   LIG d   1      -2.274  59.722 119.176  0.00  0.00     0.119 C 
BRANCH   8   9
ATOM      9  C   LIG d   1      -3.721  59.771 119.704  0.00  0.00     0.028 C 
ATOM     10  C   LIG d   1      -3.788  60.111 121.202  0.00  0.00     0.006 C 
ENDBRANCH   8   9
BRANCH   8  11
ATOM     11  C   LIG d   1      -2.401  59.558 117.659  0.00  0.00     0.028 C 
ATOM     12  C   LIG d   1      -3.861  59.453 117.191  0.00  0.00     0.006 C 
ENDBRANCH   8  11
ENDBRANCH   7   8
ENDBRANCH   1   7
BRANCH   6  13
ATOM     13  N   LIG d   1       0.910  57.991 118.263  0.00  0.00    -0.311 N 
ATOM     14  C   LIG d   1       1.765  58.825 118.854  0.00  0.00     0.210 C 
ATOM     15  C   LIG d   1       2.499  59.777 117.904  0.00  0.00     0.109 C 
ATOM     16  O   LIG d   1       2.008  58.845 120.070  0.00  0.00    -0.276 OA
ATOM     17  H   LIG d   1       0.799  58.022 117.269  0.00  0.00     0.149 HD
ENDBRANCH   6  13
BRANCH   5  18
ATOM     18  N   LIG d   1       1.652  55.056 118.673  0.00  0.00     0.381 N 
ATOM     19  H   LIG d   1       2.145  55.081 117.803  0.00  0.00    -0.090 HD
ATOM     20  H   LIG d   1       1.607  54.101 118.983  0.00  0.00    -0.090 HD
ATOM     21  H   LIG d   1       2.129  55.610 119.350  0.00  0.00    -0.090 HD
ENDBRANCH   5  18
BRANCH   3  22
ATOM     22  C   LIG d   1      -3.003  54.120 119.300  0.00  0.00     0.382 C 
ATOM     23  O   LIG d   1      -3.788  53.980 118.331  0.00  0.00    -0.241 OA
ATOM     24  O   LIG d   1      -3.165  53.430 120.325  0.00  0.00    -0.241 OA
ENDBRANCH   3  22
TORSDOF 7
ENDMDL
MODEL 5
REMARK VINA RESULT:      -4.2      2.900      6.892
REMARK  7 active torsions:
REMARK  status: ('A' for Active; 'I' for Inactive)
REMARK    1  A    between atoms: C_2  and  C_3 
REMARK    2  A    between atoms: C_3  and  O_6 
REMARK    3  A    between atoms: C_3  and  C_4 
REMARK    4  A    between atoms: C_7  and  O_6 
REMARK    5  A    between atoms: C_9  and  C_10 
REMARK    6  A    between atoms: N_15  and  C_14 
REMARK    7  A    between atoms: N_20  and  C_19 
REMARK       I    between atoms: C_22  and  N_20 
ROOT
ATOM      1  C   LIG d   1      -6.815  80.624 118.279  0.00  0.00     0.161 C 
ATOM      2  C   LIG d   1      -5.627  80.533 117.535  0.00  0.00     0.016 C 
ATOM      3  C   LIG d   1      -5.162  79.330 116.956  0.00  0.00     0.038 C 
ATOM      4  C   LIG d   1      -5.935  78.159 116.955  0.00  0.00     0.028 C 
ATOM      5  C   LIG d   1      -6.907  78.074 118.128  0.00  0.00    -0.047 C 
ATOM      6  C   LIG d   1      -7.728  79.382 118.194  0.00  0.00     0.091 C 
ENDROOT
BRANCH   1   7
ATOM      7  O   LIG d   1      -7.543  81.807 117.895  0.00  0.00    -0.368 OA
BRANCH   7   8
ATOM      8  C   LIG d   1      -7.680  82.829 118.913  0.00  0.00     0.119 C 
BRANCH   8   9
ATOM      9  C   LIG d   1      -7.015  82.296 120.197  0.00  0.00     0.028 C 
ATOM     10  C   LIG d   1      -5.958  83.262 120.756  0.00  0.00     0.006 C 
ENDBRANCH   8   9
BRANCH   8  11
ATOM     11  C   LIG d   1      -9.149  83.055 119.282  0.00  0.00     0.028 C 
ATOM     12  C   LIG d   1     -10.119  82.562 118.195  0.00  0.00     0.006 C 
ENDBRANCH   8  11
ENDBRANCH   7   8
ENDBRANCH   1   7
BRANCH   6  13
ATOM     13  N   LIG d   1      -8.644  79.417 119.364  0.00  0.00    -0.311 N 
ATOM     14  C   LIG d   1      -9.918  79.030 119.309  0.00  0.00     0.210 C 
ATOM     15  C   LIG d   1     -10.692  79.167 120.624  0.00  0.00     0.109 C 
ATOM     16  O   LIG d   1     -10.471  78.557 118.305  0.00  0.00    -0.276 OA
ATOM     17  H   LIG d   1      -8.269  79.758 120.227  0.00  0.00     0.149 HD
ENDBRANCH   6  13
BRANCH   5  18
ATOM     18  N   LIG d   1      -7.743  76.876 117.928  0.00  0.00     0.381 N 
ATOM     19  H   LIG d   1      -8.069  76.539 118.811  0.00  0.00    -0.090 HD
ATOM     20  H   LIG d   1      -7.184  76.157 117.502  0.00  0.00    -0.090 HD
ATOM     21  H   LIG d   1      -8.518  77.095 117.341  0.00  0.00    -0.090 HD
ENDBRANCH   5  18
BRANCH   3  22
ATOM     22  C   LIG d   1      -3.890  79.279 116.405  0.00  0.00     0.382 C 
ATOM     23  O   LIG d   1      -3.123  78.326 116.683  0.00  0.00    -0.241 OA
ATOM     24  O   LIG d   1      -3.485  80.198 115.667  0.00  0.00    -0.241 OA
ENDBRANCH   3  22
TORSDOF 7
ENDMDL
MODEL 6
REMARK VINA RESULT:      -4.2     15.254     17.494
REMARK  7 active torsions:
REMARK  status: ('A' for Active; 'I' for Inactive)
REMARK    1  A    between atoms: C_2  and  C_3 
REMARK    2  A    between atoms: C_3  and  O_6 
REMARK    3  A    between atoms: C_3  and  C_4 
REMARK    4  A    between atoms: C_7  and  O_6 
REMARK    5  A    between atoms: C_9  and  C_10 
REMARK    6  A    between atoms: N_15  and  C_14 
REMARK    7  A    between atoms: N_20  and  C_19 
REMARK       I    between atoms: C_22  and  N_20 
ROOT
ATOM      1  C   LIG d   1       3.823  90.929 117.299  0.00  0.00     0.161 C 
ATOM      2  C   LIG d   1       2.664  91.591 117.739  0.00  0.00     0.016 C 
ATOM      3  C   LIG d   1       2.636  92.449 118.862  0.00  0.00     0.038 C 
ATOM      4  C   LIG d   1       3.807  92.825 119.536  0.00  0.00     0.028 C 
ATOM      5  C   LIG d   1       4.921  91.788 119.441  0.00  0.00    -0.047 C 
ATOM      6  C   LIG d   1       5.133  91.414 117.956  0.00  0.00     0.091 C 
ENDROOT
BRANCH   1   7
ATOM      7  O   LIG d   1       3.920  91.015 115.864  0.00  0.00    -0.368 OA
BRANCH   7   8
ATOM      8  C   LIG d   1       3.704  89.782 115.135  0.00  0.00     0.119 C 
BRANCH   8   9
ATOM      9  C   LIG d   1       2.961  88.813 116.076  0.00  0.00     0.028 C 
ATOM     10  C   LIG d   1       1.598  88.377 115.512  0.00  0.00     0.006 C 
ENDBRANCH   8   9
BRANCH   8  11
ATOM     11  C   LIG d   1       5.030  89.090 114.805  0.00  0.00     0.028 C 
ATOM     12  C   LIG d   1       5.224  87.774 115.576  0.00  0.00     0.006 C 
ENDBRANCH   8  11
ENDBRANCH   7   8
ENDBRANCH   1   7
BRANCH   6  13
ATOM     13  N   LIG d   1       6.148  90.343 117.780  0.00  0.00    -0.311 N 
ATOM     14  C   LIG d   1       7.434  90.585 117.532  0.00  0.00     0.210 C 
ATOM     15  C   LIG d   1       8.306  89.337 117.365  0.00  0.00     0.109 C 
ATOM     16  O   LIG d   1       7.941  91.715 117.467  0.00  0.00    -0.276 OA
ATOM     17  H   LIG d   1       5.828  89.397 117.848  0.00  0.00     0.149 HD
ENDBRANCH   6  13
BRANCH   5  18
ATOM     18  N   LIG d   1       6.124  92.367 120.068  0.00  0.00     0.381 N 
ATOM     19  H   LIG d   1       5.945  92.558 121.033  0.00  0.00    -0.090 HD
ATOM     20  H   LIG d   1       6.344  93.235 119.610  0.00  0.00    -0.090 HD
ATOM     21  H   LIG d   1       6.890  91.736 119.984  0.00  0.00    -0.090 HD
ENDBRANCH   5  18
BRANCH   3  22
ATOM     22  C   LIG d   1       1.421  92.909 119.345  0.00  0.00     0.382 C 
ATOM     23  O   LIG d   1       1.389  93.655 120.354  0.00  0.00    -0.241 OA
ATOM     24  O   LIG d   1       0.353  92.553 118.812  0.00  0.00    -0.241 OA
ENDBRANCH   3  22
TORSDOF 7
ENDMDL
MODEL 7
REMARK VINA RESULT:      -4.2     19.495     21.808
REMARK  7 active torsions:
REMARK  status: ('A' for Active; 'I' for Inactive)
REMARK    1  A    between atoms: C_2  and  C_3 
REMARK    2  A    between atoms: C_3  and  O_6 
REMARK    3  A    between atoms: C_3  and  C_4 
REMARK    4  A    between atoms: C_7  and  O_6 
REMARK    5  A    between atoms: C_9  and  C_10 
REMARK    6  A    between atoms: N_15  and  C_14 
REMARK    7  A    between atoms: N_20  and  C_19 
REMARK       I    between atoms: C_22  and  N_20 
ROOT
ATOM      1  C   LIG d   1      -0.778  57.849 119.440  0.00  0.00     0.161 C 
ATOM      2  C   LIG d   1       0.174  58.759 118.950  0.00  0.00     0.016 C 
ATOM      3  C   LIG d   1       1.552  58.463 118.846  0.00  0.00     0.038 C 
ATOM      4  C   LIG d   1       2.054  57.175 119.086  0.00  0.00     0.028 C 
ATOM      5  C   LIG d   1       1.208  56.368 120.065  0.00  0.00    -0.047 C 
ATOM      6  C   LIG d   1      -0.266  56.402 119.601  0.00  0.00     0.091 C 
ENDROOT
BRANCH   1   7
ATOM      7  O   LIG d   1      -1.953  57.874 118.605  0.00  0.00    -0.368 OA
BRANCH   7   8
ATOM      8  C   LIG d   1      -3.106  58.562 119.150  0.00  0.00     0.119 C 
BRANCH   8   9
ATOM      9  C   LIG d   1      -4.070  57.489 119.693  0.00  0.00     0.028 C 
ATOM     10  C   LIG d   1      -4.146  57.492 121.229  0.00  0.00     0.006 C 
ENDBRANCH   8   9
BRANCH   8  11
ATOM     11  C   LIG d   1      -3.888  59.292 118.054  0.00  0.00     0.028 C 
ATOM     12  C   LIG d   1      -3.311  59.053 116.650  0.00  0.00     0.006 C 
ENDBRANCH   8  11
ENDBRANCH   7   8
ENDBRANCH   1   7
BRANCH   6  13
ATOM     13  N   LIG d   1      -1.175  55.707 120.550  0.00  0.00    -0.311 N 
ATOM     14  C   LIG d   1      -1.573  54.446 120.392  0.00  0.00     0.210 C 
ATOM     15  C   LIG d   1      -2.526  53.929 121.474  0.00  0.00     0.109 C 
ATOM     16  O   LIG d   1      -1.203  53.696 119.476  0.00  0.00    -0.276 OA
ATOM     17  H   LIG d   1      -1.499  56.232 121.338  0.00  0.00     0.149 HD
ENDBRANCH   6  13
BRANCH   5  18
ATOM     18  N   LIG d   1       1.766  55.003 120.117  0.00  0.00     0.381 N 
ATOM     19  H   LIG d   1       2.745  55.045 120.321  0.00  0.00    -0.090 HD
ATOM     20  H   LIG d   1       1.650  54.571 119.217  0.00  0.00    -0.090 HD
ATOM     21  H   LIG d   1       1.297  54.469 120.814  0.00  0.00    -0.090 HD
ENDBRANCH   5  18
BRANCH   3  22
ATOM     22  C   LIG d   1       2.451  59.473 118.537  0.00  0.00     0.382 C 
ATOM     23  O   LIG d   1       2.595  59.841 117.347  0.00  0.00    -0.241 OA
ATOM     24  O   LIG d   1       3.151  59.990 119.429  0.00  0.00    -0.241 OA
ENDBRANCH   3  22
TORSDOF 7
ENDMDL
MODEL 8
REMARK VINA RESULT:      -4.2     20.611     22.983
REMARK  7 active torsions:
REMARK  status: ('A' for Active; 'I' for Inactive)
REMARK    1  A    between atoms: C_2  and  C_3 
REMARK    2  A    between atoms: C_3  and  O_6 
REMARK    3  A    between atoms: C_3  and  C_4 
REMARK    4  A    between atoms: C_7  and  O_6 
REMARK    5  A    between atoms: C_9  and  C_10 
REMARK    6  A    between atoms: N_15  and  C_14 
REMARK    7  A    between atoms: N_20  and  C_19 
REMARK       I    between atoms: C_22  and  N_20 
ROOT
ATOM      1  C   LIG d   1     -16.758  97.039 118.078  0.00  0.00     0.161 C 
ATOM      2  C   LIG d   1     -15.735  97.919 117.690  0.00  0.00     0.016 C 
ATOM      3  C   LIG d   1     -15.945  99.030 116.841  0.00  0.00     0.038 C 
ATOM      4  C   LIG d   1     -17.230  99.426 116.442  0.00  0.00     0.028 C 
ATOM      5  C   LIG d   1     -18.231  98.276 116.396  0.00  0.00    -0.047 C 
ATOM      6  C   LIG d   1     -18.186  97.519 117.743  0.00  0.00     0.091 C 
ENDROOT
BRANCH   1   7
ATOM      7  O   LIG d   1     -16.645  96.749 119.486  0.00  0.00    -0.368 OA
BRANCH   7   8
ATOM      8  C   LIG d   1     -16.365  95.370 119.832  0.00  0.00     0.119 C 
BRANCH   8   9
ATOM      9  C   LIG d   1     -17.528  94.867 120.708  0.00  0.00     0.028 C 
ATOM     10  C   LIG d   1     -17.442  93.358 120.989  0.00  0.00     0.006 C 
ENDBRANCH   8   9
BRANCH   8  11
ATOM     11  C   LIG d   1     -15.117  95.258 120.712  0.00  0.00     0.028 C 
ATOM     12  C   LIG d   1     -14.316  96.569 120.778  0.00  0.00     0.006 C 
ENDBRANCH   8  11
ENDBRANCH   7   8
ENDBRANCH   1   7
BRANCH   6  13
ATOM     13  N   LIG d   1     -19.075  96.327 117.753  0.00  0.00    -0.311 N 
ATOM     14  C   LIG d   1     -20.141  96.215 118.543  0.00  0.00     0.210 C 
ATOM     15  C   LIG d   1     -20.908  94.896 118.409  0.00  0.00     0.109 C 
ATOM     16  O   LIG d   1     -20.543  97.095 119.319  0.00  0.00    -0.276 OA
ATOM     17  H   LIG d   1     -18.840  95.578 117.132  0.00  0.00     0.149 HD
ENDBRANCH   6  13
BRANCH   5  18
ATOM     18  N   LIG d   1     -19.557  98.851 116.101  0.00  0.00     0.381 N 
ATOM     19  H   LIG d   1     -19.960  98.385 115.312  0.00  0.00    -0.090 HD
ATOM     20  H   LIG d   1     -19.446  99.823 115.869  0.00  0.00    -0.090 HD
ATOM     21  H   LIG d   1     -20.154  98.757 116.892  0.00  0.00    -0.090 HD
ENDBRANCH   5  18
BRANCH   3  22
ATOM     22  C   LIG d   1     -14.856  99.735 116.350  0.00  0.00     0.382 C 
ATOM     23  O   LIG d   1     -15.011 100.553 115.410  0.00  0.00    -0.241 OA
ATOM     24  O   LIG d   1     -13.715  99.531 116.804  0.00  0.00    -0.241 OA
ENDBRANCH   3  22
TORSDOF 7
ENDMDL
MODEL 9
REMARK VINA RESULT:      -4.1      2.325      5.573
REMARK  7 active torsions:
REMARK  status: ('A' for Active; 'I' for Inactive)
REMARK    1  A    between atoms: C_2  and  C_3 
REMARK    2  A    between atoms: C_3  and  O_6 
REMARK    3  A    between atoms: C_3  and  C_4 
REMARK    4  A    between atoms: C_7  and  O_6 
REMARK    5  A    between atoms: C_9  and  C_10 
REMARK    6  A    between atoms: N_15  and  C_14 
REMARK    7  A    between atoms: N_20  and  C_19 
REMARK       I    between atoms: C_22  and  N_20 
ROOT
ATOM      1  C   LIG d   1      -5.774  78.646 117.312  0.00  0.00     0.161 C 
ATOM      2  C   LIG d   1      -5.637  77.279 117.022  0.00  0.00     0.016 C 
ATOM      3  C   LIG d   1      -6.708  76.358 117.088  0.00  0.00     0.038 C 
ATOM      4  C   LIG d   1      -8.031  76.774 117.305  0.00  0.00     0.028 C 
ATOM      5  C   LIG d   1      -8.136  78.070 118.101  0.00  0.00    -0.047 C 
ATOM      6  C   LIG d   1      -7.231  79.137 117.442  0.00  0.00     0.091 C 
ENDROOT
BRANCH   1   7
ATOM      7  O   LIG d   1      -5.068  79.428 116.329  0.00  0.00    -0.368 OA
BRANCH   7   8
ATOM      8  C   LIG d   1      -3.793  79.976 116.745  0.00  0.00     0.119 C 
BRANCH   8   9
ATOM      9  C   LIG d   1      -3.969  81.501 116.886  0.00  0.00     0.028 C 
ATOM     10  C   LIG d   1      -3.193  82.282 115.813  0.00  0.00     0.006 C 
ENDBRANCH   8   9
BRANCH   8  11
ATOM     11  C   LIG d   1      -2.726  79.789 115.663  0.00  0.00     0.028 C 
ATOM     12  C   LIG d   1      -2.201  78.347 115.586  0.00  0.00     0.006 C 
ENDBRANCH   8  11
ENDBRANCH   7   8
ENDBRANCH   1   7
BRANCH   6  13
ATOM     13  N   LIG d   1      -7.210  80.412 118.207  0.00  0.00    -0.311 N 
ATOM     14  C   LIG d   1      -7.536  81.590 117.677  0.00  0.00     0.210 C 
ATOM     15  C   LIG d   1      -7.427  82.781 118.634  0.00  0.00     0.109 C 
ATOM     16  O   LIG d   1      -7.937  81.756 116.515  0.00  0.00    -0.276 OA
ATOM     17  H   LIG d   1      -6.927  80.364 119.166  0.00  0.00     0.149 HD
ENDBRANCH   6  13
BRANCH   5  18
ATOM     18  N   LIG d   1      -9.558  78.459 118.134  0.00  0.00     0.381 N 
ATOM     19  H   LIG d   1      -9.974  78.299 117.238  0.00  0.00    -0.090 HD
ATOM     20  H   LIG d   1      -9.622  79.440 118.341  0.00  0.00    -0.090 HD
ATOM     21  H   LIG d   1     -10.039  77.933 118.830  0.00  0.00    -0.090 HD
ENDBRANCH   5  18
BRANCH   3  22
ATOM     22  C   LIG d   1      -6.455  75.000 116.976  0.00  0.00     0.382 C 
ATOM     23  O   LIG d   1      -5.374  74.603 116.479  0.00  0.00    -0.241 OA
ATOM     24  O   LIG d   1      -7.312  74.166 117.325  0.00  0.00    -0.241 OA
ENDBRANCH   3  22
TORSDOF 7
ENDMDL
