MODEL 1
REMARK VINA RESULT:      -5.5      0.000      0.000
REMARK  7 active torsions:
REMARK  status: ('A' for Active; 'I' for Inactive)
REMARK    1  A    between atoms: C_2  and  C_3 
REMARK    2  A    between atoms: C_3  and  O_6 
REMARK    3  A    between atoms: C_3  and  C_4 
REMARK    4  A    between atoms: C_7  and  O_6 
REMARK    5  A    between atoms: C_9  and  C_10 
REMARK    6  A    between atoms: N_15  and  C_14 
REMARK    7  A    between atoms: N_20  and  C_19 
REMARK       I    between atoms: C_22  and  N_20 
ROOT
ATOM      1  C   LIG d   1      -7.166  78.681 118.009  0.00  0.00     0.161 C 
ATOM      2  C   LIG d   1      -5.946  78.143 118.452  0.00  0.00     0.016 C 
ATOM      3  C   LIG d   1      -5.217  78.664 119.546  0.00  0.00     0.038 C 
ATOM      4  C   LIG d   1      -5.738  79.671 120.371  0.00  0.00     0.028 C 
ATOM      5  C   LIG d   1      -6.734  80.582 119.660  0.00  0.00    -0.047 C 
ATOM      6  C   LIG d   1      -7.804  79.710 118.965  0.00  0.00     0.091 C 
ENDROOT
BRANCH   1   7
ATOM      7  O   LIG d   1      -8.095  77.616 117.726  0.00  0.00    -0.368 OA
BRANCH   7   8
ATOM      8  C   LIG d   1      -7.664  76.281 118.087  0.00  0.00     0.119 C 
BRANCH   8   9
ATOM      9  C   LIG d   1      -7.890  75.374 116.862  0.00  0.00     0.028 C 
ATOM     10  C   LIG d   1      -6.779  75.522 115.809  0.00  0.00     0.006 C 
ENDBRANCH   8   9
BRANCH   8  11
ATOM     11  C   LIG d   1      -8.543  75.692 119.195  0.00  0.00     0.028 C 
ATOM     12  C   LIG d   1      -9.788  76.545 119.484  0.00  0.00     0.006 C 
ENDBRANCH   8  11
ENDBRANCH   7   8
ENDBRANCH   1   7
BRANCH   6  13
ATOM     13  N   LIG d   1      -8.769  80.519 118.176  0.00  0.00    -0.311 N 
ATOM     14  C   LIG d   1     -10.071  80.578 118.449  0.00  0.00     0.210 C 
ATOM     15  C   LIG d   1     -10.892  81.455 117.498  0.00  0.00     0.109 C 
ATOM     16  O   LIG d   1     -10.620  80.013 119.407  0.00  0.00    -0.276 OA
ATOM     17  H   LIG d   1      -8.404  81.034 117.399  0.00  0.00     0.149 HD
ENDBRANCH   6  13
BRANCH   5  18
ATOM     18  N   LIG d   1      -7.300  81.497 120.669  0.00  0.00     0.381 N 
ATOM     19  H   LIG d   1      -7.948  82.122 120.234  0.00  0.00    -0.090 HD
ATOM     20  H   LIG d   1      -6.556  82.042 121.068  0.00  0.00    -0.090 HD
ATOM     21  H   LIG d   1      -7.758  80.976 121.384  0.00  0.00    -0.090 HD
ENDBRANCH   5  18
BRANCH   3  22
ATOM     22  C   LIG d   1      -3.935  78.202 119.800  0.00  0.00     0.382 C 
ATOM     23  O   LIG d   1      -3.530  78.094 120.983  0.00  0.00    -0.241 OA
ATOM     24  O   LIG d   1      -3.162  77.934 118.860  0.00  0.00    -0.241 OA
ENDBRANCH   3  22
TORSDOF 7
ENDMDL
MODEL 2
REMARK VINA RESULT:      -5.1     12.051     14.608
REMARK  7 active torsions:
REMARK  status: ('A' for Active; 'I' for Inactive)
REMARK    1  A    between atoms: C_2  and  C_3 
REMARK    2  A    between atoms: C_3  and  O_6 
REMARK    3  A    between atoms: C_3  and  C_4 
REMARK    4  A    between atoms: C_7  and  O_6 
REMARK    5  A    between atoms: C_9  and  C_10 
REMARK    6  A    between atoms: N_15  and  C_14 
REMARK    7  A    between atoms: N_20  and  C_19 
REMARK       I    between atoms: C_22  and  N_20 
ROOT
ATOM      1  C   LIG d   1      -4.621  92.422 117.076  0.00  0.00     0.161 C 
ATOM      2  C   LIG d   1      -5.768  91.785 116.573  0.00  0.00     0.016 C 
ATOM      3  C   LIG d   1      -5.829  90.400 116.293  0.00  0.00     0.038 C 
ATOM      4  C   LIG d   1      -4.788  89.527 116.641  0.00  0.00     0.028 C 
ATOM      5  C   LIG d   1      -3.420  90.201 116.684  0.00  0.00    -0.047 C 
ATOM      6  C   LIG d   1      -3.513  91.467 117.566  0.00  0.00     0.091 C 
ENDROOT
BRANCH   1   7
ATOM      7  O   LIG d   1      -4.992  93.340 118.124  0.00  0.00    -0.368 OA
BRANCH   7   8
ATOM      8  C   LIG d   1      -6.409  93.445 118.407  0.00  0.00     0.119 C 
BRANCH   8   9
ATOM      9  C   LIG d   1      -6.817  94.915 118.186  0.00  0.00     0.028 C 
ATOM     10  C   LIG d   1      -8.300  95.166 118.506  0.00  0.00     0.006 C 
ENDBRANCH   8   9
BRANCH   8  11
ATOM     11  C   LIG d   1      -6.705  93.160 119.882  0.00  0.00     0.028 C 
ATOM     12  C   LIG d   1      -6.217  91.773 120.331  0.00  0.00     0.006 C 
ENDBRANCH   8  11
ENDBRANCH   7   8
ENDBRANCH   1   7
BRANCH   6  13
ATOM     13  N   LIG d   1      -2.239  92.233 117.594  0.00  0.00    -0.311 N 
ATOM     14  C   LIG d   1      -1.308  92.073 118.532  0.00  0.00     0.210 C 
ATOM     15  C   LIG d   1      -0.080  92.976 118.385  0.00  0.00     0.109 C 
ATOM     16  O   LIG d   1      -1.367  91.245 119.454  0.00  0.00    -0.276 OA
ATOM     17  H   LIG d   1      -2.095  92.904 116.865  0.00  0.00     0.149 HD
ENDBRANCH   6  13
BRANCH   5  18
ATOM     18  N   LIG d   1      -2.452  89.212 117.193  0.00  0.00     0.381 N 
ATOM     19  H   LIG d   1      -2.849  88.295 117.148  0.00  0.00    -0.090 HD
ATOM     20  H   LIG d   1      -2.248  89.421 118.154  0.00  0.00    -0.090 HD
ATOM     21  H   LIG d   1      -1.615  89.246 116.653  0.00  0.00    -0.090 HD
ENDBRANCH   5  18
BRANCH   3  22
ATOM     22  C   LIG d   1      -6.926  89.883 115.621  0.00  0.00     0.382 C 
ATOM     23  O   LIG d   1      -7.615  90.625 114.882  0.00  0.00    -0.241 OA
ATOM     24  O   LIG d   1      -7.260  88.694 115.780  0.00  0.00    -0.241 OA
ENDBRANCH   3  22
TORSDOF 7
ENDMDL
MODEL 3
REMARK VINA RESULT:      -5.1      2.171      4.430
REMARK  7 active torsions:
REMARK  status: ('A' for Active; 'I' for Inactive)
REMARK    1  A    between atoms: C_2  and  C_3 
REMARK    2  A    between atoms: C_3  and  O_6 
REMARK    3  A    between atoms: C_3  and  C_4 
REMARK    4  A    between atoms: C_7  and  O_6 
REMARK    5  A    between atoms: C_9  and  C_10 
REMARK    6  A    between atoms: N_15  and  C_14 
REMARK    7  A    between atoms: N_20  and  C_19 
REMARK       I    between atoms: C_22  and  N_20 
ROOT
ATOM      1  C   LIG d   1      -7.220  77.643 119.196  0.00  0.00     0.161 C 
ATOM      2  C   LIG d   1      -5.909  77.783 118.710  0.00  0.00     0.016 C 
ATOM      3  C   LIG d   1      -5.451  77.171 117.521  0.00  0.00     0.038 C 
ATOM      4  C   LIG d   1      -6.321  76.496 116.651  0.00  0.00     0.028 C 
ATOM      5  C   LIG d   1      -7.538  75.903 117.353  0.00  0.00    -0.047 C 
ATOM      6  C   LIG d   1      -8.213  77.002 118.204  0.00  0.00     0.091 C 
ENDROOT
BRANCH   1   7
ATOM      7  O   LIG d   1      -7.714  78.921 119.645  0.00  0.00    -0.368 OA
BRANCH   7   8
ATOM      8  C   LIG d   1      -7.237  80.079 118.917  0.00  0.00     0.119 C 
BRANCH   8   9
ATOM      9  C   LIG d   1      -7.044  81.219 119.935  0.00  0.00     0.028 C 
ATOM     10  C   LIG d   1      -5.683  81.145 120.648  0.00  0.00     0.006 C 
ENDBRANCH   8   9
BRANCH   8  11
ATOM     11  C   LIG d   1      -8.292  80.591 117.931  0.00  0.00     0.028 C 
ATOM     12  C   LIG d   1      -9.189  81.685 118.532  0.00  0.00     0.006 C 
ENDBRANCH   8  11
ENDBRANCH   7   8
ENDBRANCH   1   7
BRANCH   6  13
ATOM     13  N   LIG d   1      -9.363  76.485 118.990  0.00  0.00    -0.311 N 
ATOM     14  C   LIG d   1     -10.484  77.176 119.191  0.00  0.00     0.210 C 
ATOM     15  C   LIG d   1     -11.537  76.466 120.047  0.00  0.00     0.109 C 
ATOM     16  O   LIG d   1     -10.719  78.296 118.713  0.00  0.00    -0.276 OA
ATOM     17  H   LIG d   1      -9.270  75.571 119.388  0.00  0.00     0.149 HD
ENDBRANCH   6  13
BRANCH   5  18
ATOM     18  N   LIG d   1      -8.427  75.350 116.313  0.00  0.00     0.381 N 
ATOM     19  H   LIG d   1      -8.152  74.413 116.095  0.00  0.00    -0.090 HD
ATOM     20  H   LIG d   1      -8.338  75.906 115.481  0.00  0.00    -0.090 HD
ATOM     21  H   LIG d   1      -9.371  75.361 116.630  0.00  0.00    -0.090 HD
ENDBRANCH   5  18
BRANCH   3  22
ATOM     22  C   LIG d   1      -4.100  77.197 117.210  0.00  0.00     0.382 C 
ATOM     23  O   LIG d   1      -3.264  77.542 118.080  0.00  0.00    -0.241 OA
ATOM     24  O   LIG d   1      -3.711  76.924 116.059  0.00  0.00    -0.241 OA
ENDBRANCH   3  22
TORSDOF 7
ENDMDL
MODEL 4
REMARK VINA RESULT:      -4.9     11.931     13.985
REMARK  7 active torsions:
REMARK  status: ('A' for Active; 'I' for Inactive)
REMARK    1  A    between atoms: C_2  and  C_3 
REMARK    2  A    between atoms: C_3  and  O_6 
REMARK    3  A    between atoms: C_3  and  C_4 
REMARK    4  A    between atoms: C_7  and  O_6 
REMARK    5  A    between atoms: C_9  and  C_10 
REMARK    6  A    between atoms: N_15  and  C_14 
REMARK    7  A    between atoms: N_20  and  C_19 
REMARK       I    between atoms: C_22  and  N_20 
ROOT
ATOM      1  C   LIG d   1      -3.576  91.047 117.680  0.00  0.00     0.161 C 
ATOM      2  C   LIG d   1      -3.948  89.992 116.829  0.00  0.00     0.016 C 
ATOM      3  C   LIG d   1      -5.038  90.062 115.933  0.00  0.00     0.038 C 
ATOM      4  C   LIG d   1      -5.744  91.255 115.716  0.00  0.00     0.028 C 
ATOM      5  C   LIG d   1      -5.727  92.196 116.916  0.00  0.00    -0.047 C 
ATOM      6  C   LIG d   1      -4.265  92.394 117.377  0.00  0.00     0.091 C 
ENDROOT
BRANCH   1   7
ATOM      7  O   LIG d   1      -2.144  91.203 117.668  0.00  0.00    -0.368 OA
BRANCH   7   8
ATOM      8  C   LIG d   1      -1.449  90.801 118.874  0.00  0.00     0.119 C 
BRANCH   8   9
ATOM      9  C   LIG d   1      -0.765  89.450 118.586  0.00  0.00     0.028 C 
ATOM     10  C   LIG d   1      -1.532  88.263 119.193  0.00  0.00     0.006 C 
ENDBRANCH   8   9
BRANCH   8  11
ATOM     11  C   LIG d   1      -2.430  90.524 120.016  0.00  0.00     0.028 C 
ATOM     12  C   LIG d   1      -2.209  91.442 121.229  0.00  0.00     0.006 C 
ENDBRANCH   8  11
ENDBRANCH   7   8
ENDBRANCH   1   7
BRANCH   6  13
ATOM     13  N   LIG d   1      -4.166  93.234 118.599  0.00  0.00    -0.311 N 
ATOM     14  C   LIG d   1      -3.214  94.147 118.786  0.00  0.00     0.210 C 
ATOM     15  C   LIG d   1      -3.283  94.889 120.124  0.00  0.00     0.109 C 
ATOM     16  O   LIG d   1      -2.339  94.436 117.956  0.00  0.00    -0.276 OA
ATOM     17  H   LIG d   1      -4.854  93.087 119.311  0.00  0.00     0.149 HD
ENDBRANCH   6  13
BRANCH   5  18
ATOM     18  N   LIG d   1      -6.379  93.453 116.506  0.00  0.00     0.381 N 
ATOM     19  H   LIG d   1      -5.942  94.227 116.965  0.00  0.00    -0.090 HD
ATOM     20  H   LIG d   1      -7.344  93.425 116.785  0.00  0.00    -0.090 HD
ATOM     21  H   LIG d   1      -6.315  93.564 115.518  0.00  0.00    -0.090 HD
ENDBRANCH   5  18
BRANCH   3  22
ATOM     22  C   LIG d   1      -5.458  88.919 115.270  0.00  0.00     0.382 C 
ATOM     23  O   LIG d   1      -6.622  88.855 114.806  0.00  0.00    -0.241 OA
ATOM     24  O   LIG d   1      -4.703  87.933 115.171  0.00  0.00    -0.241 OA
ENDBRANCH   3  22
TORSDOF 7
ENDMDL
MODEL 5
REMARK VINA RESULT:      -4.8     12.138     14.301
REMARK  7 active torsions:
REMARK  status: ('A' for Active; 'I' for Inactive)
REMARK    1  A    between atoms: C_2  and  C_3 
REMARK    2  A    between atoms: C_3  and  O_6 
REMARK    3  A    between atoms: C_3  and  C_4 
REMARK    4  A    between atoms: C_7  and  O_6 
REMARK    5  A    between atoms: C_9  and  C_10 
REMARK    6  A    between atoms: N_15  and  C_14 
REMARK    7  A    between atoms: N_20  and  C_19 
REMARK       I    between atoms: C_22  and  N_20 
ROOT
ATOM      1  C   LIG d   1      -3.581  90.985 117.623  0.00  0.00     0.161 C 
ATOM      2  C   LIG d   1      -3.991  89.942 116.775  0.00  0.00     0.016 C 
ATOM      3  C   LIG d   1      -5.107  90.035 115.912  0.00  0.00     0.038 C 
ATOM      4  C   LIG d   1      -5.803  91.238 115.727  0.00  0.00     0.028 C 
ATOM      5  C   LIG d   1      -5.738  92.168 116.934  0.00  0.00    -0.047 C 
ATOM      6  C   LIG d   1      -4.261  92.343 117.353  0.00  0.00     0.091 C 
ENDROOT
BRANCH   1   7
ATOM      7  O   LIG d   1      -2.147  91.123 117.570  0.00  0.00    -0.368 OA
BRANCH   7   8
ATOM      8  C   LIG d   1      -1.394  90.332 118.522  0.00  0.00     0.119 C 
BRANCH   8   9
ATOM      9  C   LIG d   1      -0.986  91.265 119.678  0.00  0.00     0.028 C 
ATOM     10  C   LIG d   1      -1.897  91.111 120.908  0.00  0.00     0.006 C 
ENDBRANCH   8   9
BRANCH   8  11
ATOM     11  C   LIG d   1      -0.078  89.835 117.918  0.00  0.00     0.028 C 
ATOM     12  C   LIG d   1       0.685  90.936 117.165  0.00  0.00     0.006 C 
ENDBRANCH   8  11
ENDBRANCH   7   8
ENDBRANCH   1   7
BRANCH   6  13
ATOM     13  N   LIG d   1      -4.114  93.171 118.579  0.00  0.00    -0.311 N 
ATOM     14  C   LIG d   1      -3.161  94.089 118.734  0.00  0.00     0.210 C 
ATOM     15  C   LIG d   1      -3.177  94.816 120.082  0.00  0.00     0.109 C 
ATOM     16  O   LIG d   1      -2.324  94.392 117.870  0.00  0.00    -0.276 OA
ATOM     17  H   LIG d   1      -4.770  93.012 119.318  0.00  0.00     0.149 HD
ENDBRANCH   6  13
BRANCH   5  18
ATOM     18  N   LIG d   1      -6.386  93.437 116.554  0.00  0.00     0.381 N 
ATOM     19  H   LIG d   1      -6.441  93.504 115.557  0.00  0.00    -0.090 HD
ATOM     20  H   LIG d   1      -5.827  94.201 116.891  0.00  0.00    -0.090 HD
ATOM     21  H   LIG d   1      -7.299  93.485 116.949  0.00  0.00    -0.090 HD
ENDBRANCH   5  18
BRANCH   3  22
ATOM     22  C   LIG d   1      -5.561  88.902 115.253  0.00  0.00     0.382 C 
ATOM     23  O   LIG d   1      -6.733  88.865 114.807  0.00  0.00    -0.241 OA
ATOM     24  O   LIG d   1      -4.828  87.902 115.137  0.00  0.00    -0.241 OA
ENDBRANCH   3  22
TORSDOF 7
ENDMDL
MODEL 6
REMARK VINA RESULT:      -4.6     12.362     14.478
REMARK  7 active torsions:
REMARK  status: ('A' for Active; 'I' for Inactive)
REMARK    1  A    between atoms: C_2  and  C_3 
REMARK    2  A    between atoms: C_3  and  O_6 
REMARK    3  A    between atoms: C_3  and  C_4 
REMARK    4  A    between atoms: C_7  and  O_6 
REMARK    5  A    between atoms: C_9  and  C_10 
REMARK    6  A    between atoms: N_15  and  C_14 
REMARK    7  A    between atoms: N_20  and  C_19 
REMARK       I    between atoms: C_22  and  N_20 
ROOT
ATOM      1  C   LIG d   1      -4.116  91.820 117.736  0.00  0.00     0.161 C 
ATOM      2  C   LIG d   1      -3.825  90.538 117.240  0.00  0.00     0.016 C 
ATOM      3  C   LIG d   1      -4.508  89.951 116.150  0.00  0.00     0.038 C 
ATOM      4  C   LIG d   1      -5.433  90.673 115.380  0.00  0.00     0.028 C 
ATOM      5  C   LIG d   1      -6.122  91.793 116.152  0.00  0.00    -0.047 C 
ATOM      6  C   LIG d   1      -5.045  92.664 116.839  0.00  0.00     0.091 C 
ENDROOT
BRANCH   1   7
ATOM      7  O   LIG d   1      -2.891  92.532 117.999  0.00  0.00    -0.368 OA
BRANCH   7   8
ATOM      8  C   LIG d   1      -2.473  92.591 119.385  0.00  0.00     0.119 C 
BRANCH   8   9
ATOM      9  C   LIG d   1      -2.664  94.043 119.864  0.00  0.00     0.028 C 
ATOM     10  C   LIG d   1      -2.505  95.063 118.724  0.00  0.00     0.006 C 
ENDBRANCH   8   9
BRANCH   8  11
ATOM     11  C   LIG d   1      -0.974  92.311 119.527  0.00  0.00     0.028 C 
ATOM     12  C   LIG d   1      -0.302  91.967 118.188  0.00  0.00     0.006 C 
ENDBRANCH   8  11
ENDBRANCH   7   8
ENDBRANCH   1   7
BRANCH   6  13
ATOM     13  N   LIG d   1      -5.636  93.734 117.684  0.00  0.00    -0.311 N 
ATOM     14  C   LIG d   1      -6.511  93.498 118.660  0.00  0.00     0.210 C 
ATOM     15  C   LIG d   1      -7.011  94.744 119.396  0.00  0.00     0.109 C 
ATOM     16  O   LIG d   1      -6.895  92.371 119.008  0.00  0.00    -0.276 OA
ATOM     17  H   LIG d   1      -5.355  94.676 117.491  0.00  0.00     0.149 HD
ENDBRANCH   6  13
BRANCH   5  18
ATOM     18  N   LIG d   1      -6.953  92.547 115.196  0.00  0.00     0.381 N 
ATOM     19  H   LIG d   1      -7.403  93.308 115.665  0.00  0.00    -0.090 HD
ATOM     20  H   LIG d   1      -7.664  91.938 114.832  0.00  0.00    -0.090 HD
ATOM     21  H   LIG d   1      -6.389  92.893 114.452  0.00  0.00    -0.090 HD
ENDBRANCH   5  18
BRANCH   3  22
ATOM     22  C   LIG d   1      -4.297  88.615 115.845  0.00  0.00     0.382 C 
ATOM     23  O   LIG d   1      -5.084  88.016 115.073  0.00  0.00    -0.241 OA
ATOM     24  O   LIG d   1      -3.355  87.990 116.367  0.00  0.00    -0.241 OA
ENDBRANCH   3  22
TORSDOF 7
ENDMDL
MODEL 7
REMARK VINA RESULT:      -4.6      2.061      4.469
REMARK  7 active torsions:
REMARK  status: ('A' for Active; 'I' for Inactive)
REMARK    1  A    between atoms: C_2  and  C_3 
REMARK    2  A    between atoms: C_3  and  O_6 
REMARK    3  A    between atoms: C_3  and  C_4 
REMARK    4  A    between atoms: C_7  and  O_6 
REMARK    5  A    between atoms: C_9  and  C_10 
REMARK    6  A    between atoms: N_15  and  C_14 
REMARK    7  A    between atoms: N_20  and  C_19 
REMARK       I    between atoms: C_22  and  N_20 
ROOT
ATOM      1  C   LIG d   1      -6.608  78.533 120.513  0.00  0.00     0.161 C 
ATOM      2  C   LIG d   1      -5.274  78.511 120.074  0.00  0.00     0.016 C 
ATOM      3  C   LIG d   1      -4.871  77.957 118.838  0.00  0.00     0.038 C 
ATOM      4  C   LIG d   1      -5.801  77.520 117.883  0.00  0.00     0.028 C 
ATOM      5  C   LIG d   1      -7.121  77.059 118.490  0.00  0.00    -0.047 C 
ATOM      6  C   LIG d   1      -7.649  78.161 119.437  0.00  0.00     0.091 C 
ENDROOT
BRANCH   1   7
ATOM      7  O   LIG d   1      -6.914  79.821 121.082  0.00  0.00    -0.368 OA
BRANCH   7   8
ATOM      8  C   LIG d   1      -6.706  80.966 120.218  0.00  0.00     0.119 C 
BRANCH   8   9
ATOM      9  C   LIG d   1      -5.700  81.898 120.919  0.00  0.00     0.028 C 
ATOM     10  C   LIG d   1      -6.313  83.264 121.272  0.00  0.00     0.006 C 
ENDBRANCH   8   9
BRANCH   8  11
ATOM     11  C   LIG d   1      -7.988  81.791 120.068  0.00  0.00     0.028 C 
ATOM     12  C   LIG d   1      -8.652  81.616 118.693  0.00  0.00     0.006 C 
ENDBRANCH   8  11
ENDBRANCH   7   8
ENDBRANCH   1   7
BRANCH   6  13
ATOM     13  N   LIG d   1      -8.896  77.757 120.138  0.00  0.00    -0.311 N 
ATOM     14  C   LIG d   1     -10.116  78.000 119.662  0.00  0.00     0.210 C 
ATOM     15  C   LIG d   1     -11.265  77.516 120.553  0.00  0.00     0.109 C 
ATOM     16  O   LIG d   1     -10.356  78.541 118.573  0.00  0.00    -0.276 OA
ATOM     17  H   LIG d   1      -8.794  77.284 121.014  0.00  0.00     0.149 HD
ENDBRANCH   6  13
BRANCH   5  18
ATOM     18  N   LIG d   1      -8.044  76.762 117.378  0.00  0.00     0.381 N 
ATOM     19  H   LIG d   1      -8.539  75.914 117.566  0.00  0.00    -0.090 HD
ATOM     20  H   LIG d   1      -7.509  76.634 116.537  0.00  0.00    -0.090 HD
ATOM     21  H   LIG d   1      -8.688  77.512 117.259  0.00  0.00    -0.090 HD
ENDBRANCH   5  18
BRANCH   3  22
ATOM     22  C   LIG d   1      -3.521  77.799 118.563  0.00  0.00     0.382 C 
ATOM     23  O   LIG d   1      -3.158  77.121 117.572  0.00  0.00    -0.241 OA
ATOM     24  O   LIG d   1      -2.661  78.290 119.319  0.00  0.00    -0.241 OA
ENDBRANCH   3  22
TORSDOF 7
ENDMDL
MODEL 8
REMARK VINA RESULT:      -4.4     20.558     22.759
REMARK  7 active torsions:
REMARK  status: ('A' for Active; 'I' for Inactive)
REMARK    1  A    between atoms: C_2  and  C_3 
REMARK    2  A    between atoms: C_3  and  O_6 
REMARK    3  A    between atoms: C_3  and  C_4 
REMARK    4  A    between atoms: C_7  and  O_6 
REMARK    5  A    between atoms: C_9  and  C_10 
REMARK    6  A    between atoms: N_15  and  C_14 
REMARK    7  A    between atoms: N_20  and  C_19 
REMARK       I    between atoms: C_22  and  N_20 
ROOT
ATOM      1  C   LIG d   1       1.300  58.146 120.538  0.00  0.00     0.161 C 
ATOM      2  C   LIG d   1       0.086  58.848 120.452  0.00  0.00     0.016 C 
ATOM      3  C   LIG d   1      -0.155  59.873 119.508  0.00  0.00     0.038 C 
ATOM      4  C   LIG d   1       0.755  60.164 118.480  0.00  0.00     0.028 C 
ATOM      5  C   LIG d   1       2.199  59.828 118.837  0.00  0.00    -0.047 C 
ATOM      6  C   LIG d   1       2.263  58.372 119.354  0.00  0.00     0.091 C 
ENDROOT
BRANCH   1   7
ATOM      7  O   LIG d   1       1.039  56.739 120.709  0.00  0.00    -0.368 OA
BRANCH   7   8
ATOM      8  C   LIG d   1      -0.200  56.246 120.141  0.00  0.00     0.119 C 
BRANCH   8   9
ATOM      9  C   LIG d   1      -0.820  55.269 121.158  0.00  0.00     0.028 C 
ATOM     10  C   LIG d   1      -1.211  53.926 120.518  0.00  0.00     0.006 C 
ENDBRANCH   8   9
BRANCH   8  11
ATOM     11  C   LIG d   1       0.058  55.413 118.882  0.00  0.00     0.028 C 
ATOM     12  C   LIG d   1      -0.148  56.212 117.586  0.00  0.00     0.006 C 
ENDBRANCH   8  11
ENDBRANCH   7   8
ENDBRANCH   1   7
BRANCH   6  13
ATOM     13  N   LIG d   1       3.627  57.990 119.804  0.00  0.00    -0.311 N 
ATOM     14  C   LIG d   1       4.162  56.790 119.584  0.00  0.00     0.210 C 
ATOM     15  C   LIG d   1       5.572  56.598 120.150  0.00  0.00     0.109 C 
ATOM     16  O   LIG d   1       3.615  55.878 118.946  0.00  0.00    -0.276 OA
ATOM     17  H   LIG d   1       4.153  58.680 120.303  0.00  0.00     0.149 HD
ENDBRANCH   6  13
BRANCH   5  18
ATOM     18  N   LIG d   1       3.019  60.050 117.631  0.00  0.00     0.381 N 
ATOM     19  H   LIG d   1       3.720  59.339 117.562  0.00  0.00    -0.090 HD
ATOM     20  H   LIG d   1       3.480  60.939 117.711  0.00  0.00    -0.090 HD
ATOM     21  H   LIG d   1       2.442  60.037 116.819  0.00  0.00    -0.090 HD
ENDBRANCH   5  18
BRANCH   3  22
ATOM     22  C   LIG d   1      -1.300  60.648 119.612  0.00  0.00     0.382 C 
ATOM     23  O   LIG d   1      -1.446  61.653 118.875  0.00  0.00    -0.241 OA
ATOM     24  O   LIG d   1      -2.169  60.379 120.463  0.00  0.00    -0.241 OA
ENDBRANCH   3  22
TORSDOF 7
ENDMDL
MODEL 9
REMARK VINA RESULT:      -4.4     13.461     15.998
REMARK  7 active torsions:
REMARK  status: ('A' for Active; 'I' for Inactive)
REMARK    1  A    between atoms: C_2  and  C_3 
REMARK    2  A    between atoms: C_3  and  O_6 
REMARK    3  A    between atoms: C_3  and  C_4 
REMARK    4  A    between atoms: C_7  and  O_6 
REMARK    5  A    between atoms: C_9  and  C_10 
REMARK    6  A    between atoms: N_15  and  C_14 
REMARK    7  A    between atoms: N_20  and  C_19 
REMARK       I    between atoms: C_22  and  N_20 
ROOT
ATOM      1  C   LIG d   1     -16.752  66.328 118.180  0.00  0.00     0.161 C 
ATOM      2  C   LIG d   1     -17.002  67.674 117.867  0.00  0.00     0.016 C 
ATOM      3  C   LIG d   1     -16.304  68.753 118.456  0.00  0.00     0.038 C 
ATOM      4  C   LIG d   1     -15.196  68.550 119.293  0.00  0.00     0.028 C 
ATOM      5  C   LIG d   1     -15.230  67.216 120.030  0.00  0.00    -0.047 C 
ATOM      6  C   LIG d   1     -15.472  66.083 119.006  0.00  0.00     0.091 C 
ENDROOT
BRANCH   1   7
ATOM      7  O   LIG d   1     -16.725  65.542 116.971  0.00  0.00    -0.368 OA
BRANCH   7   8
ATOM      8  C   LIG d   1     -17.925  64.785 116.677  0.00  0.00     0.119 C 
BRANCH   8   9
ATOM      9  C   LIG d   1     -17.689  63.339 117.156  0.00  0.00     0.028 C 
ATOM     10  C   LIG d   1     -18.568  62.970 118.363  0.00  0.00     0.006 C 
ENDBRANCH   8   9
BRANCH   8  11
ATOM     11  C   LIG d   1     -18.160  64.678 115.168  0.00  0.00     0.028 C 
ATOM     12  C   LIG d   1     -19.646  64.527 114.806  0.00  0.00     0.006 C 
ENDBRANCH   8  11
ENDBRANCH   7   8
ENDBRANCH   1   7
BRANCH   6  13
ATOM     13  N   LIG d   1     -15.603  64.752 119.655  0.00  0.00    -0.311 N 
ATOM     14  C   LIG d   1     -14.593  63.891 119.772  0.00  0.00     0.210 C 
ATOM     15  C   LIG d   1     -14.948  62.567 120.455  0.00  0.00     0.109 C 
ATOM     16  O   LIG d   1     -13.430  64.112 119.403  0.00  0.00    -0.276 OA
ATOM     17  H   LIG d   1     -16.506  64.504 120.010  0.00  0.00     0.149 HD
ENDBRANCH   6  13
BRANCH   5  18
ATOM     18  N   LIG d   1     -13.954  67.076 120.756  0.00  0.00     0.381 N 
ATOM     19  H   LIG d   1     -13.194  67.332 120.158  0.00  0.00    -0.090 HD
ATOM     20  H   LIG d   1     -13.835  66.114 121.022  0.00  0.00    -0.090 HD
ATOM     21  H   LIG d   1     -13.958  67.654 121.567  0.00  0.00    -0.090 HD
ENDBRANCH   5  18
BRANCH   3  22
ATOM     22  C   LIG d   1     -16.738  70.052 118.241  0.00  0.00     0.382 C 
ATOM     23  O   LIG d   1     -17.546  70.583 119.041  0.00  0.00    -0.241 OA
ATOM     24  O   LIG d   1     -16.368  70.684 117.234  0.00  0.00    -0.241 OA
ENDBRANCH   3  22
TORSDOF 7
ENDMDL
