MODEL 1
REMARK VINA RESULT:      -5.5      0.000      0.000
REMARK  7 active torsions:
REMARK  status: ('A' for Active; 'I' for Inactive)
REMARK    1  A    between atoms: C_2  and  C_3 
REMARK    2  A    between atoms: C_3  and  O_6 
REMARK    3  A    between atoms: C_3  and  C_4 
REMARK    4  A    between atoms: C_7  and  O_6 
REMARK    5  A    between atoms: C_9  and  C_10 
REMARK    6  A    between atoms: N_15  and  C_14 
REMARK    7  A    between atoms: N_20  and  C_19 
REMARK       I    between atoms: C_22  and  N_20 
ROOT
ATOM      1  C   LIG d   1      -4.061  91.998 117.781  0.00  0.00     0.161 C 
ATOM      2  C   LIG d   1      -4.485  91.205 116.702  0.00  0.00     0.016 C 
ATOM      3  C   LIG d   1      -5.796  91.246 116.175  0.00  0.00     0.038 C 
ATOM      4  C   LIG d   1      -6.736  92.198 116.597  0.00  0.00     0.028 C 
ATOM      5  C   LIG d   1      -6.512  92.678 118.027  0.00  0.00    -0.047 C 
ATOM      6  C   LIG d   1      -5.039  93.122 118.182  0.00  0.00     0.091 C 
ENDROOT
BRANCH   1   7
ATOM      7  O   LIG d   1      -2.756  92.545 117.503  0.00  0.00    -0.368 OA
BRANCH   7   8
ATOM      8  C   LIG d   1      -1.664  92.025 118.300  0.00  0.00     0.119 C 
BRANCH   8   9
ATOM      9  C   LIG d   1      -2.251  90.968 119.256  0.00  0.00     0.028 C 
ATOM     10  C   LIG d   1      -1.958  91.285 120.732  0.00  0.00     0.006 C 
ENDBRANCH   8   9
BRANCH   8  11
ATOM     11  C   LIG d   1      -1.072  93.108 119.207  0.00  0.00     0.028 C 
ATOM     12  C   LIG d   1      -1.257  94.525 118.642  0.00  0.00     0.006 C 
ENDBRANCH   8  11
ENDBRANCH   7   8
ENDBRANCH   1   7
BRANCH   6  13
ATOM     13  N   LIG d   1      -4.713  93.527 119.574  0.00  0.00    -0.311 N 
ATOM     14  C   LIG d   1      -4.845  94.773 120.025  0.00  0.00     0.210 C 
ATOM     15  C   LIG d   1      -4.434  94.979 121.486  0.00  0.00     0.109 C 
ATOM     16  O   LIG d   1      -5.294  95.721 119.363  0.00  0.00    -0.276 OA
ATOM     17  H   LIG d   1      -4.371  92.814 120.189  0.00  0.00     0.149 HD
ENDBRANCH   6  13
BRANCH   5  18
ATOM     18  N   LIG d   1      -7.474  93.765 118.288  0.00  0.00     0.381 N 
ATOM     19  H   LIG d   1      -8.288  93.640 117.721  0.00  0.00    -0.090 HD
ATOM     20  H   LIG d   1      -7.049  94.642 118.042  0.00  0.00    -0.090 HD
ATOM     21  H   LIG d   1      -7.729  93.770 119.251  0.00  0.00    -0.090 HD
ENDBRANCH   5  18
BRANCH   3  22
ATOM     22  C   LIG d   1      -6.191  90.299 115.241  0.00  0.00     0.382 C 
ATOM     23  O   LIG d   1      -7.387  90.252 114.864  0.00  0.00    -0.241 OA
ATOM     24  O   LIG d   1      -5.377  89.464 114.805  0.00  0.00    -0.241 OA
ENDBRANCH   3  22
TORSDOF 7
ENDMDL
MODEL 2
REMARK VINA RESULT:      -5.3     13.815     16.200
REMARK  7 active torsions:
REMARK  status: ('A' for Active; 'I' for Inactive)
REMARK    1  A    between atoms: C_2  and  C_3 
REMARK    2  A    between atoms: C_3  and  O_6 
REMARK    3  A    between atoms: C_3  and  C_4 
REMARK    4  A    between atoms: C_7  and  O_6 
REMARK    5  A    between atoms: C_9  and  C_10 
REMARK    6  A    between atoms: N_15  and  C_14 
REMARK    7  A    between atoms: N_20  and  C_19 
REMARK       I    between atoms: C_22  and  N_20 
ROOT
ATOM      1  C   LIG d   1      -7.026  76.900 117.237  0.00  0.00     0.161 C 
ATOM      2  C   LIG d   1      -8.310  77.244 117.690  0.00  0.00     0.016 C 
ATOM      3  C   LIG d   1      -8.668  78.551 118.095  0.00  0.00     0.038 C 
ATOM      4  C   LIG d   1      -7.802  79.642 117.930  0.00  0.00     0.028 C 
ATOM      5  C   LIG d   1      -6.328  79.253 117.949  0.00  0.00    -0.047 C 
ATOM      6  C   LIG d   1      -6.100  78.099 116.945  0.00  0.00     0.091 C 
ENDROOT
BRANCH   1   7
ATOM      7  O   LIG d   1      -7.128  76.052 116.076  0.00  0.00    -0.368 OA
BRANCH   7   8
ATOM      8  C   LIG d   1      -6.520  74.742 116.188  0.00  0.00     0.119 C 
BRANCH   8   9
ATOM      9  C   LIG d   1      -5.891  74.405 114.822  0.00  0.00     0.028 C 
ATOM     10  C   LIG d   1      -4.369  74.629 114.806  0.00  0.00     0.006 C 
ENDBRANCH   8   9
BRANCH   8  11
ATOM     11  C   LIG d   1      -7.575  73.657 116.427  0.00  0.00     0.028 C 
ATOM     12  C   LIG d   1      -7.113  72.265 115.966  0.00  0.00     0.006 C 
ENDBRANCH   8  11
ENDBRANCH   7   8
ENDBRANCH   1   7
BRANCH   6  13
ATOM     13  N   LIG d   1      -4.700  77.601 116.962  0.00  0.00    -0.311 N 
ATOM     14  C   LIG d   1      -3.748  78.060 116.151  0.00  0.00     0.210 C 
ATOM     15  C   LIG d   1      -2.378  77.396 116.320  0.00  0.00     0.109 C 
ATOM     16  O   LIG d   1      -3.901  78.977 115.329  0.00  0.00    -0.276 OA
ATOM     17  H   LIG d   1      -4.480  76.879 117.620  0.00  0.00     0.149 HD
ENDBRANCH   6  13
BRANCH   5  18
ATOM     18  N   LIG d   1      -5.544  80.461 117.630  0.00  0.00     0.381 N 
ATOM     19  H   LIG d   1      -5.910  80.894 116.806  0.00  0.00    -0.090 HD
ATOM     20  H   LIG d   1      -4.593  80.192 117.449  0.00  0.00    -0.090 HD
ATOM     21  H   LIG d   1      -5.577  81.100 118.393  0.00  0.00    -0.090 HD
ENDBRANCH   5  18
BRANCH   3  22
ATOM     22  C   LIG d   1      -9.892  78.768 118.709  0.00  0.00     0.382 C 
ATOM     23  O   LIG d   1     -10.794  77.899 118.636  0.00  0.00    -0.241 OA
ATOM     24  O   LIG d   1     -10.122  79.842 119.298  0.00  0.00    -0.241 OA
ENDBRANCH   3  22
TORSDOF 7
ENDMDL
MODEL 3
REMARK VINA RESULT:      -5.3      2.431      5.827
REMARK  7 active torsions:
REMARK  status: ('A' for Active; 'I' for Inactive)
REMARK    1  A    between atoms: C_2  and  C_3 
REMARK    2  A    between atoms: C_3  and  O_6 
REMARK    3  A    between atoms: C_3  and  C_4 
REMARK    4  A    between atoms: C_7  and  O_6 
REMARK    5  A    between atoms: C_9  and  C_10 
REMARK    6  A    between atoms: N_15  and  C_14 
REMARK    7  A    between atoms: N_20  and  C_19 
REMARK       I    between atoms: C_22  and  N_20 
ROOT
ATOM      1  C   LIG d   1      -5.184  93.101 118.832  0.00  0.00     0.161 C 
ATOM      2  C   LIG d   1      -4.099  93.550 119.603  0.00  0.00     0.016 C 
ATOM      3  C   LIG d   1      -2.776  93.083 119.430  0.00  0.00     0.038 C 
ATOM      4  C   LIG d   1      -2.420  92.241 118.366  0.00  0.00     0.028 C 
ATOM      5  C   LIG d   1      -3.570  91.369 117.872  0.00  0.00    -0.047 C 
ATOM      6  C   LIG d   1      -4.797  92.267 117.593  0.00  0.00     0.091 C 
ENDROOT
BRANCH   1   7
ATOM      7  O   LIG d   1      -6.004  94.222 118.445  0.00  0.00    -0.368 OA
BRANCH   7   8
ATOM      8  C   LIG d   1      -6.384  95.131 119.507  0.00  0.00     0.119 C 
BRANCH   8   9
ATOM      9  C   LIG d   1      -7.912  95.031 119.678  0.00  0.00     0.028 C 
ATOM     10  C   LIG d   1      -8.666  96.085 118.851  0.00  0.00     0.006 C 
ENDBRANCH   8   9
BRANCH   8  11
ATOM     11  C   LIG d   1      -6.115  96.587 119.116  0.00  0.00     0.028 C 
ATOM     12  C   LIG d   1      -4.942  97.206 119.894  0.00  0.00     0.006 C 
ENDBRANCH   8  11
ENDBRANCH   7   8
ENDBRANCH   1   7
BRANCH   6  13
ATOM     13  N   LIG d   1      -5.992  91.483 117.187  0.00  0.00    -0.311 N 
ATOM     14  C   LIG d   1      -6.389  91.354 115.922  0.00  0.00     0.210 C 
ATOM     15  C   LIG d   1      -7.658  90.519 115.725  0.00  0.00     0.109 C 
ATOM     16  O   LIG d   1      -5.791  91.824 114.942  0.00  0.00    -0.276 OA
ATOM     17  H   LIG d   1      -6.518  91.042 117.916  0.00  0.00     0.149 HD
ENDBRANCH   6  13
BRANCH   5  18
ATOM     18  N   LIG d   1      -3.099  90.645 116.676  0.00  0.00     0.381 N 
ATOM     19  H   LIG d   1      -3.273  91.194 115.858  0.00  0.00    -0.090 HD
ATOM     20  H   LIG d   1      -3.611  89.785 116.595  0.00  0.00    -0.090 HD
ATOM     21  H   LIG d   1      -2.124  90.454 116.755  0.00  0.00    -0.090 HD
ENDBRANCH   5  18
BRANCH   3  22
ATOM     22  C   LIG d   1      -1.799  93.426 120.353  0.00  0.00     0.382 C 
ATOM     23  O   LIG d   1      -2.034  94.307 121.215  0.00  0.00    -0.241 OA
ATOM     24  O   LIG d   1      -0.672  92.899 120.305  0.00  0.00    -0.241 OA
ENDBRANCH   3  22
TORSDOF 7
ENDMDL
MODEL 4
REMARK VINA RESULT:      -4.9     14.777     17.001
REMARK  7 active torsions:
REMARK  status: ('A' for Active; 'I' for Inactive)
REMARK    1  A    between atoms: C_2  and  C_3 
REMARK    2  A    between atoms: C_3  and  O_6 
REMARK    3  A    between atoms: C_3  and  C_4 
REMARK    4  A    between atoms: C_7  and  O_6 
REMARK    5  A    between atoms: C_9  and  C_10 
REMARK    6  A    between atoms: N_15  and  C_14 
REMARK    7  A    between atoms: N_20  and  C_19 
REMARK       I    between atoms: C_22  and  N_20 
ROOT
ATOM      1  C   LIG d   1      -4.561  76.483 115.839  0.00  0.00     0.161 C 
ATOM      2  C   LIG d   1      -3.467  75.619 115.669  0.00  0.00     0.016 C 
ATOM      3  C   LIG d   1      -2.353  75.591 116.540  0.00  0.00     0.038 C 
ATOM      4  C   LIG d   1      -2.329  76.326 117.734  0.00  0.00     0.028 C 
ATOM      5  C   LIG d   1      -3.185  77.587 117.688  0.00  0.00    -0.047 C 
ATOM      6  C   LIG d   1      -4.603  77.213 117.198  0.00  0.00     0.091 C 
ENDROOT
BRANCH   1   7
ATOM      7  O   LIG d   1      -5.790  75.764 115.619  0.00  0.00    -0.368 OA
BRANCH   7   8
ATOM      8  C   LIG d   1      -5.967  74.552 116.392  0.00  0.00     0.119 C 
BRANCH   8   9
ATOM      9  C   LIG d   1      -6.313  73.420 115.405  0.00  0.00     0.028 C 
ATOM     10  C   LIG d   1      -6.972  72.216 116.100  0.00  0.00     0.006 C 
ENDBRANCH   8   9
BRANCH   8  11
ATOM     11  C   LIG d   1      -7.176  74.658 117.327  0.00  0.00     0.028 C 
ATOM     12  C   LIG d   1      -8.167  75.752 116.897  0.00  0.00     0.006 C 
ENDBRANCH   8  11
ENDBRANCH   7   8
ENDBRANCH   1   7
BRANCH   6  13
ATOM     13  N   LIG d   1      -5.481  78.402 117.043  0.00  0.00    -0.311 N 
ATOM     14  C   LIG d   1      -6.300  78.838 117.998  0.00  0.00     0.210 C 
ATOM     15  C   LIG d   1      -7.132  80.068 117.624  0.00  0.00     0.109 C 
ATOM     16  O   LIG d   1      -6.394  78.341 119.131  0.00  0.00    -0.276 OA
ATOM     17  H   LIG d   1      -5.445  78.884 116.166  0.00  0.00     0.149 HD
ENDBRANCH   6  13
BRANCH   5  18
ATOM     18  N   LIG d   1      -3.178  78.181 119.038  0.00  0.00     0.381 N 
ATOM     19  H   LIG d   1      -3.229  79.178 118.970  0.00  0.00    -0.090 HD
ATOM     20  H   LIG d   1      -2.315  77.940 119.494  0.00  0.00    -0.090 HD
ATOM     21  H   LIG d   1      -3.949  77.837 119.566  0.00  0.00    -0.090 HD
ENDBRANCH   5  18
BRANCH   3  22
ATOM     22  C   LIG d   1      -1.232  74.851 116.198  0.00  0.00     0.382 C 
ATOM     23  O   LIG d   1      -0.859  73.903 116.930  0.00  0.00    -0.241 OA
ATOM     24  O   LIG d   1      -0.561  75.149 115.191  0.00  0.00    -0.241 OA
ENDBRANCH   3  22
TORSDOF 7
ENDMDL
MODEL 5
REMARK VINA RESULT:      -4.8     13.076     15.299
REMARK  7 active torsions:
REMARK  status: ('A' for Active; 'I' for Inactive)
REMARK    1  A    between atoms: C_2  and  C_3 
REMARK    2  A    between atoms: C_3  and  O_6 
REMARK    3  A    between atoms: C_3  and  C_4 
REMARK    4  A    between atoms: C_7  and  O_6 
REMARK    5  A    between atoms: C_9  and  C_10 
REMARK    6  A    between atoms: N_15  and  C_14 
REMARK    7  A    between atoms: N_20  and  C_19 
REMARK       I    between atoms: C_22  and  N_20 
ROOT
ATOM      1  C   LIG d   1      -5.887  77.556 116.629  0.00  0.00     0.161 C 
ATOM      2  C   LIG d   1      -7.165  77.446 117.201  0.00  0.00     0.016 C 
ATOM      3  C   LIG d   1      -7.765  78.472 117.968  0.00  0.00     0.038 C 
ATOM      4  C   LIG d   1      -7.185  79.744 118.088  0.00  0.00     0.028 C 
ATOM      5  C   LIG d   1      -5.666  79.732 117.949  0.00  0.00    -0.047 C 
ATOM      6  C   LIG d   1      -5.286  78.977 116.655  0.00  0.00     0.091 C 
ENDROOT
BRANCH   1   7
ATOM      7  O   LIG d   1      -5.911  77.047 115.280  0.00  0.00    -0.368 OA
BRANCH   7   8
ATOM      8  C   LIG d   1      -5.152  75.836 115.043  0.00  0.00     0.119 C 
BRANCH   8   9
ATOM      9  C   LIG d   1      -6.162  74.696 114.805  0.00  0.00     0.028 C 
ATOM     10  C   LIG d   1      -6.409  73.858 116.071  0.00  0.00     0.006 C 
ENDBRANCH   8   9
BRANCH   8  11
ATOM     11  C   LIG d   1      -4.359  75.422 116.286  0.00  0.00     0.028 C 
ATOM     12  C   LIG d   1      -2.847  75.328 116.025  0.00  0.00     0.006 C 
ENDBRANCH   8  11
ENDBRANCH   7   8
ENDBRANCH   1   7
BRANCH   6  13
ATOM     13  N   LIG d   1      -3.815  78.846 116.487  0.00  0.00    -0.311 N 
ATOM     14  C   LIG d   1      -3.089  79.665 115.728  0.00  0.00     0.210 C 
ATOM     15  C   LIG d   1      -1.592  79.341 115.677  0.00  0.00     0.109 C 
ATOM     16  O   LIG d   1      -3.536  80.648 115.119  0.00  0.00    -0.276 OA
ATOM     17  H   LIG d   1      -3.366  78.094 116.971  0.00  0.00     0.149 HD
ENDBRANCH   6  13
BRANCH   5  18
ATOM     18  N   LIG d   1      -5.207  81.134 117.956  0.00  0.00     0.381 N 
ATOM     19  H   LIG d   1      -4.451  81.240 118.603  0.00  0.00    -0.090 HD
ATOM     20  H   LIG d   1      -5.964  81.722 118.257  0.00  0.00    -0.090 HD
ATOM     21  H   LIG d   1      -4.912  81.401 117.043  0.00  0.00    -0.090 HD
ENDBRANCH   5  18
BRANCH   3  22
ATOM     22  C   LIG d   1      -8.940  78.217 118.658  0.00  0.00     0.382 C 
ATOM     23  O   LIG d   1      -8.977  78.348 119.905  0.00  0.00    -0.241 OA
ATOM     24  O   LIG d   1      -9.952  77.814 118.054  0.00  0.00    -0.241 OA
ENDBRANCH   3  22
TORSDOF 7
ENDMDL
MODEL 6
REMARK VINA RESULT:      -4.7     12.093     14.187
REMARK  7 active torsions:
REMARK  status: ('A' for Active; 'I' for Inactive)
REMARK    1  A    between atoms: C_2  and  C_3 
REMARK    2  A    between atoms: C_3  and  O_6 
REMARK    3  A    between atoms: C_3  and  C_4 
REMARK    4  A    between atoms: C_7  and  O_6 
REMARK    5  A    between atoms: C_9  and  C_10 
REMARK    6  A    between atoms: N_15  and  C_14 
REMARK    7  A    between atoms: N_20  and  C_19 
REMARK       I    between atoms: C_22  and  N_20 
ROOT
ATOM      1  C   LIG d   1      -6.653  78.794 117.847  0.00  0.00     0.161 C 
ATOM      2  C   LIG d   1      -7.991  78.511 118.169  0.00  0.00     0.016 C 
ATOM      3  C   LIG d   1      -8.937  79.506 118.508  0.00  0.00     0.038 C 
ATOM      4  C   LIG d   1      -8.646  80.874 118.399  0.00  0.00     0.028 C 
ATOM      5  C   LIG d   1      -7.164  81.193 118.566  0.00  0.00    -0.047 C 
ATOM      6  C   LIG d   1      -6.346  80.288 117.615  0.00  0.00     0.091 C 
ENDROOT
BRANCH   1   7
ATOM      7  O   LIG d   1      -6.251  78.016 116.702  0.00  0.00    -0.368 OA
BRANCH   7   8
ATOM      8  C   LIG d   1      -6.077  76.595 116.926  0.00  0.00     0.119 C 
BRANCH   8   9
ATOM      9  C   LIG d   1      -4.623  76.243 116.557  0.00  0.00     0.028 C 
ATOM     10  C   LIG d   1      -3.598  77.019 117.401  0.00  0.00     0.006 C 
ENDBRANCH   8   9
BRANCH   8  11
ATOM     11  C   LIG d   1      -6.949  75.770 115.975  0.00  0.00     0.028 C 
ATOM     12  C   LIG d   1      -7.079  74.302 116.409  0.00  0.00     0.006 C 
ENDBRANCH   8  11
ENDBRANCH   7   8
ENDBRANCH   1   7
BRANCH   6  13
ATOM     13  N   LIG d   1      -4.881  80.476 117.776  0.00  0.00    -0.311 N 
ATOM     14  C   LIG d   1      -4.176  81.368 117.082  0.00  0.00     0.210 C 
ATOM     15  C   LIG d   1      -2.674  81.385 117.387  0.00  0.00     0.109 C 
ATOM     16  O   LIG d   1      -4.656  82.169 116.266  0.00  0.00    -0.276 OA
ATOM     17  H   LIG d   1      -4.415  79.889 118.440  0.00  0.00     0.149 HD
ENDBRANCH   6  13
BRANCH   5  18
ATOM     18  N   LIG d   1      -6.984  82.631 118.292  0.00  0.00     0.381 N 
ATOM     19  H   LIG d   1      -7.839  83.119 118.469  0.00  0.00    -0.090 HD
ATOM     20  H   LIG d   1      -6.747  82.751 117.323  0.00  0.00    -0.090 HD
ATOM     21  H   LIG d   1      -6.258  82.999 118.867  0.00  0.00    -0.090 HD
ENDBRANCH   5  18
BRANCH   3  22
ATOM     22  C   LIG d   1     -10.179  79.134 118.999  0.00  0.00     0.382 C 
ATOM     23  O   LIG d   1     -10.751  79.845 119.860  0.00  0.00    -0.241 OA
ATOM     24  O   LIG d   1     -10.715  78.074 118.624  0.00  0.00    -0.241 OA
ENDBRANCH   3  22
TORSDOF 7
ENDMDL
MODEL 7
REMARK VINA RESULT:      -4.7     27.073     29.640
REMARK  7 active torsions:
REMARK  status: ('A' for Active; 'I' for Inactive)
REMARK    1  A    between atoms: C_2  and  C_3 
REMARK    2  A    between atoms: C_3  and  O_6 
REMARK    3  A    between atoms: C_3  and  C_4 
REMARK    4  A    between atoms: C_7  and  O_6 
REMARK    5  A    between atoms: C_9  and  C_10 
REMARK    6  A    between atoms: N_15  and  C_14 
REMARK    7  A    between atoms: N_20  and  C_19 
REMARK       I    between atoms: C_22  and  N_20 
ROOT
ATOM      1  C   LIG d   1     -15.235  65.284 118.533  0.00  0.00     0.161 C 
ATOM      2  C   LIG d   1     -15.653  66.570 118.154  0.00  0.00     0.016 C 
ATOM      3  C   LIG d   1     -15.051  67.757 118.632  0.00  0.00     0.038 C 
ATOM      4  C   LIG d   1     -13.884  67.734 119.410  0.00  0.00     0.028 C 
ATOM      5  C   LIG d   1     -13.726  66.458 120.229  0.00  0.00    -0.047 C 
ATOM      6  C   LIG d   1     -13.893  65.238 119.294  0.00  0.00     0.091 C 
ENDROOT
BRANCH   1   7
ATOM      7  O   LIG d   1     -15.185  64.425 117.377  0.00  0.00    -0.368 OA
BRANCH   7   8
ATOM      8  C   LIG d   1     -16.343  63.582 117.158  0.00  0.00     0.119 C 
BRANCH   8   9
ATOM      9  C   LIG d   1     -15.920  62.130 117.449  0.00  0.00     0.028 C 
ATOM     10  C   LIG d   1     -16.482  61.137 116.418  0.00  0.00     0.006 C 
ENDBRANCH   8   9
BRANCH   8  11
ATOM     11  C   LIG d   1     -16.770  63.593 115.687  0.00  0.00     0.028 C 
ATOM     12  C   LIG d   1     -16.335  64.870 114.950  0.00  0.00     0.006 C 
ENDBRANCH   8  11
ENDBRANCH   7   8
ENDBRANCH   1   7
BRANCH   6  13
ATOM     13  N   LIG d   1     -13.837  63.948 120.030  0.00  0.00    -0.311 N 
ATOM     14  C   LIG d   1     -13.075  62.922 119.654  0.00  0.00     0.210 C 
ATOM     15  C   LIG d   1     -13.181  61.678 120.542  0.00  0.00     0.109 C 
ATOM     16  O   LIG d   1     -12.296  62.936 118.689  0.00  0.00    -0.276 OA
ATOM     17  H   LIG d   1     -14.414  63.861 120.843  0.00  0.00     0.149 HD
ENDBRANCH   6  13
BRANCH   5  18
ATOM     18  N   LIG d   1     -12.405  66.508 120.883  0.00  0.00     0.381 N 
ATOM     19  H   LIG d   1     -11.921  67.338 120.604  0.00  0.00    -0.090 HD
ATOM     20  H   LIG d   1     -11.865  65.714 120.587  0.00  0.00    -0.090 HD
ATOM     21  H   LIG d   1     -12.514  66.495 121.873  0.00  0.00    -0.090 HD
ENDBRANCH   5  18
BRANCH   3  22
ATOM     22  C   LIG d   1     -15.641  68.983 118.364  0.00  0.00     0.382 C 
ATOM     23  O   LIG d   1     -15.571  69.474 117.212  0.00  0.00    -0.241 OA
ATOM     24  O   LIG d   1     -16.204  69.624 119.271  0.00  0.00    -0.241 OA
ENDBRANCH   3  22
TORSDOF 7
ENDMDL
MODEL 8
REMARK VINA RESULT:      -4.6     14.442     16.534
REMARK  7 active torsions:
REMARK  status: ('A' for Active; 'I' for Inactive)
REMARK    1  A    between atoms: C_2  and  C_3 
REMARK    2  A    between atoms: C_3  and  O_6 
REMARK    3  A    between atoms: C_3  and  C_4 
REMARK    4  A    between atoms: C_7  and  O_6 
REMARK    5  A    between atoms: C_9  and  C_10 
REMARK    6  A    between atoms: N_15  and  C_14 
REMARK    7  A    between atoms: N_20  and  C_19 
REMARK       I    between atoms: C_22  and  N_20 
ROOT
ATOM      1  C   LIG d   1      -5.235  77.019 116.633  0.00  0.00     0.161 C 
ATOM      2  C   LIG d   1      -5.589  78.285 117.128  0.00  0.00     0.016 C 
ATOM      3  C   LIG d   1      -6.899  78.621 117.542  0.00  0.00     0.038 C 
ATOM      4  C   LIG d   1      -7.917  77.660 117.633  0.00  0.00     0.028 C 
ATOM      5  C   LIG d   1      -7.736  76.493 116.668  0.00  0.00    -0.047 C 
ATOM      6  C   LIG d   1      -6.307  75.926 116.829  0.00  0.00     0.091 C 
ENDROOT
BRANCH   1   7
ATOM      7  O   LIG d   1      -3.983  76.601 117.211  0.00  0.00    -0.368 OA
BRANCH   7   8
ATOM      8  C   LIG d   1      -2.840  76.598 116.320  0.00  0.00     0.119 C 
BRANCH   8   9
ATOM      9  C   LIG d   1      -2.469  75.127 116.050  0.00  0.00     0.028 C 
ATOM     10  C   LIG d   1      -1.168  74.710 116.758  0.00  0.00     0.006 C 
ENDBRANCH   8   9
BRANCH   8  11
ATOM     11  C   LIG d   1      -1.608  77.210 116.992  0.00  0.00     0.028 C 
ATOM     12  C   LIG d   1      -1.956  78.022 118.250  0.00  0.00     0.006 C 
ENDBRANCH   8  11
ENDBRANCH   7   8
ENDBRANCH   1   7
BRANCH   6  13
ATOM     13  N   LIG d   1      -6.018  74.835 115.862  0.00  0.00    -0.311 N 
ATOM     14  C   LIG d   1      -6.151  73.542 116.155  0.00  0.00     0.210 C 
ATOM     15  C   LIG d   1      -5.781  72.581 115.021  0.00  0.00     0.109 C 
ATOM     16  O   LIG d   1      -6.570  73.101 117.235  0.00  0.00    -0.276 OA
ATOM     17  H   LIG d   1      -5.702  75.104 114.951  0.00  0.00     0.149 HD
ENDBRANCH   6  13
BRANCH   5  18
ATOM     18  N   LIG d   1      -8.788  75.503 116.964  0.00  0.00     0.381 N 
ATOM     19  H   LIG d   1      -8.770  75.270 117.937  0.00  0.00    -0.090 HD
ATOM     20  H   LIG d   1      -8.606  74.667 116.436  0.00  0.00    -0.090 HD
ATOM     21  H   LIG d   1      -9.681  75.870 116.720  0.00  0.00    -0.090 HD
ENDBRANCH   5  18
BRANCH   3  22
ATOM     22  C   LIG d   1      -7.210  79.940 117.834  0.00  0.00     0.382 C 
ATOM     23  O   LIG d   1      -6.801  80.861 117.086  0.00  0.00    -0.241 OA
ATOM     24  O   LIG d   1      -7.858  80.225 118.859  0.00  0.00    -0.241 OA
ENDBRANCH   3  22
TORSDOF 7
ENDMDL
MODEL 9
REMARK VINA RESULT:      -4.6     14.340     16.532
REMARK  7 active torsions:
REMARK  status: ('A' for Active; 'I' for Inactive)
REMARK    1  A    between atoms: C_2  and  C_3 
REMARK    2  A    between atoms: C_3  and  O_6 
REMARK    3  A    between atoms: C_3  and  C_4 
REMARK    4  A    between atoms: C_7  and  O_6 
REMARK    5  A    between atoms: C_9  and  C_10 
REMARK    6  A    between atoms: N_15  and  C_14 
REMARK    7  A    between atoms: N_20  and  C_19 
REMARK       I    between atoms: C_22  and  N_20 
ROOT
ATOM      1  C   LIG d   1      -6.642  76.602 116.783  0.00  0.00     0.161 C 
ATOM      2  C   LIG d   1      -7.263  75.343 116.803  0.00  0.00     0.016 C 
ATOM      3  C   LIG d   1      -6.628  74.154 116.375  0.00  0.00     0.038 C 
ATOM      4  C   LIG d   1      -5.266  74.122 116.038  0.00  0.00     0.028 C 
ATOM      5  C   LIG d   1      -4.738  75.456 115.522  0.00  0.00    -0.047 C 
ATOM      6  C   LIG d   1      -5.121  76.569 116.524  0.00  0.00     0.091 C 
ENDROOT
BRANCH   1   7
ATOM      7  O   LIG d   1      -6.926  77.306 118.008  0.00  0.00    -0.368 OA
BRANCH   7   8
ATOM      8  C   LIG d   1      -7.797  78.458 117.894  0.00  0.00     0.119 C 
BRANCH   8   9
ATOM      9  C   LIG d   1      -7.111  79.632 118.619  0.00  0.00     0.028 C 
ATOM     10  C   LIG d   1      -6.556  80.681 117.641  0.00  0.00     0.006 C 
ENDBRANCH   8   9
BRANCH   8  11
ATOM     11  C   LIG d   1      -9.116  78.235 118.642  0.00  0.00     0.028 C 
ATOM     12  C   LIG d   1      -9.961  79.514 118.752  0.00  0.00     0.006 C 
ENDBRANCH   8  11
ENDBRANCH   7   8
ENDBRANCH   1   7
BRANCH   6  13
ATOM     13  N   LIG d   1      -4.715  77.919 116.054  0.00  0.00    -0.311 N 
ATOM     14  C   LIG d   1      -3.577  78.510 116.414  0.00  0.00     0.210 C 
ATOM     15  C   LIG d   1      -3.362  79.910 115.831  0.00  0.00     0.109 C 
ATOM     16  O   LIG d   1      -2.710  77.994 117.136  0.00  0.00    -0.276 OA
ATOM     17  H   LIG d   1      -5.346  78.397 115.440  0.00  0.00     0.149 HD
ENDBRANCH   6  13
BRANCH   5  18
ATOM     18  N   LIG d   1      -3.280  75.318 115.341  0.00  0.00     0.381 N 
ATOM     19  H   LIG d   1      -2.868  76.221 115.211  0.00  0.00    -0.090 HD
ATOM     20  H   LIG d   1      -3.106  74.771 114.516  0.00  0.00    -0.090 HD
ATOM     21  H   LIG d   1      -2.878  74.872 116.136  0.00  0.00    -0.090 HD
ENDBRANCH   5  18
BRANCH   3  22
ATOM     22  C   LIG d   1      -7.367  72.989 116.243  0.00  0.00     0.382 C 
ATOM     23  O   LIG d   1      -8.615  73.021 116.362  0.00  0.00    -0.241 OA
ATOM     24  O   LIG d   1      -6.797  71.898 116.050  0.00  0.00    -0.241 OA
ENDBRANCH   3  22
TORSDOF 7
ENDMDL
