MODEL 1
REMARK VINA RESULT:      -5.3      0.000      0.000
REMARK  7 active torsions:
REMARK  status: ('A' for Active; 'I' for Inactive)
REMARK    1  A    between atoms: C_2  and  C_3 
REMARK    2  A    between atoms: C_3  and  O_6 
REMARK    3  A    between atoms: C_3  and  C_4 
REMARK    4  A    between atoms: C_7  and  O_6 
REMARK    5  A    between atoms: C_9  and  C_10 
REMARK    6  A    between atoms: N_15  and  C_14 
REMARK    7  A    between atoms: N_20  and  C_19 
REMARK       I    between atoms: C_22  and  N_20 
ROOT
ATOM      1  C   LIG d   1      -6.270  93.306 118.452  0.00  0.00     0.161 C 
ATOM      2  C   LIG d   1      -7.016  92.349 117.744  0.00  0.00     0.016 C 
ATOM      3  C   LIG d   1      -6.432  91.268 117.046  0.00  0.00     0.038 C 
ATOM      4  C   LIG d   1      -5.061  90.981 117.135  0.00  0.00     0.028 C 
ATOM      5  C   LIG d   1      -4.204  92.209 117.424  0.00  0.00    -0.047 C 
ATOM      6  C   LIG d   1      -4.782  92.948 118.652  0.00  0.00     0.091 C 
ENDROOT
BRANCH   1   7
ATOM      7  O   LIG d   1      -6.896  93.573 119.722  0.00  0.00    -0.368 OA
BRANCH   7   8
ATOM      8  C   LIG d   1      -7.547  94.861 119.854  0.00  0.00     0.119 C 
BRANCH   8   9
ATOM      9  C   LIG d   1      -9.062  94.634 119.690  0.00  0.00     0.028 C 
ATOM     10  C   LIG d   1      -9.656  93.796 120.835  0.00  0.00     0.006 C 
ENDBRANCH   8   9
BRANCH   8  11
ATOM     11  C   LIG d   1      -7.153  95.804 118.713  0.00  0.00     0.028 C 
ATOM     12  C   LIG d   1      -8.330  96.654 118.209  0.00  0.00     0.006 C 
ENDBRANCH   8  11
ENDBRANCH   7   8
ENDBRANCH   1   7
BRANCH   6  13
ATOM     13  N   LIG d   1      -4.052  94.207 118.952  0.00  0.00    -0.311 N 
ATOM     14  C   LIG d   1      -3.602  94.522 120.165  0.00  0.00     0.210 C 
ATOM     15  C   LIG d   1      -2.894  95.877 120.260  0.00  0.00     0.109 C 
ATOM     16  O   LIG d   1      -3.693  93.794 121.165  0.00  0.00    -0.276 OA
ATOM     17  H   LIG d   1      -3.907  94.842 118.192  0.00  0.00     0.149 HD
ENDBRANCH   6  13
BRANCH   5  18
ATOM     18  N   LIG d   1      -2.818  91.746 117.627  0.00  0.00     0.381 N 
ATOM     19  H   LIG d   1      -2.250  92.507 117.944  0.00  0.00    -0.090 HD
ATOM     20  H   LIG d   1      -2.451  91.423 116.750  0.00  0.00    -0.090 HD
ATOM     21  H   LIG d   1      -2.799  91.008 118.296  0.00  0.00    -0.090 HD
ENDBRANCH   5  18
BRANCH   3  22
ATOM     22  C   LIG d   1      -7.216  90.481 116.216  0.00  0.00     0.382 C 
ATOM     23  O   LIG d   1      -8.278  89.975 116.652  0.00  0.00    -0.241 OA
ATOM     24  O   LIG d   1      -6.853  90.235 115.050  0.00  0.00    -0.241 OA
ENDBRANCH   3  22
TORSDOF 7
ENDMDL
MODEL 2
REMARK VINA RESULT:      -5.0     11.593     13.895
REMARK  7 active torsions:
REMARK  status: ('A' for Active; 'I' for Inactive)
REMARK    1  A    between atoms: C_2  and  C_3 
REMARK    2  A    between atoms: C_3  and  O_6 
REMARK    3  A    between atoms: C_3  and  C_4 
REMARK    4  A    between atoms: C_7  and  O_6 
REMARK    5  A    between atoms: C_9  and  C_10 
REMARK    6  A    between atoms: N_15  and  C_14 
REMARK    7  A    between atoms: N_20  and  C_19 
REMARK       I    between atoms: C_22  and  N_20 
ROOT
ATOM      1  C   LIG d   1      -6.989  80.448 118.104  0.00  0.00     0.161 C 
ATOM      2  C   LIG d   1      -5.779  80.279 117.410  0.00  0.00     0.016 C 
ATOM      3  C   LIG d   1      -5.182  79.017 117.183  0.00  0.00     0.038 C 
ATOM      4  C   LIG d   1      -5.836  77.819 117.506  0.00  0.00     0.028 C 
ATOM      5  C   LIG d   1      -6.824  77.959 118.659  0.00  0.00    -0.047 C 
ATOM      6  C   LIG d   1      -7.772  79.145 118.367  0.00  0.00     0.091 C 
ENDROOT
BRANCH   1   7
ATOM      7  O   LIG d   1      -7.819  81.402 117.413  0.00  0.00    -0.368 OA
BRANCH   7   8
ATOM      8  C   LIG d   1      -8.041  82.663 118.090  0.00  0.00     0.119 C 
BRANCH   8   9
ATOM      9  C   LIG d   1      -7.233  82.633 119.401  0.00  0.00     0.028 C 
ATOM     10  C   LIG d   1      -8.094  82.976 120.629  0.00  0.00     0.006 C 
ENDBRANCH   8   9
BRANCH   8  11
ATOM     11  C   LIG d   1      -9.504  82.816 118.518  0.00  0.00     0.028 C 
ATOM     12  C   LIG d   1     -10.475  82.055 117.602  0.00  0.00     0.006 C 
ENDBRANCH   8  11
ENDBRANCH   7   8
ENDBRANCH   1   7
BRANCH   6  13
ATOM     13  N   LIG d   1      -8.716  79.405 119.484  0.00  0.00    -0.311 N 
ATOM     14  C   LIG d   1      -9.961  78.931 119.518  0.00  0.00     0.210 C 
ATOM     15  C   LIG d   1     -10.773  79.334 120.752  0.00  0.00     0.109 C 
ATOM     16  O   LIG d   1     -10.458  78.189 118.658  0.00  0.00    -0.276 OA
ATOM     17  H   LIG d   1      -8.385  79.973 120.239  0.00  0.00     0.149 HD
ENDBRANCH   6  13
BRANCH   5  18
ATOM     18  N   LIG d   1      -7.533  76.673 118.798  0.00  0.00     0.381 N 
ATOM     19  H   LIG d   1      -8.461  76.757 118.434  0.00  0.00    -0.090 HD
ATOM     20  H   LIG d   1      -7.597  76.441 119.774  0.00  0.00    -0.090 HD
ATOM     21  H   LIG d   1      -7.040  75.958 118.311  0.00  0.00    -0.090 HD
ENDBRANCH   5  18
BRANCH   3  22
ATOM     22  C   LIG d   1      -3.899  78.948 116.663  0.00  0.00     0.382 C 
ATOM     23  O   LIG d   1      -3.607  79.591 115.626  0.00  0.00    -0.241 OA
ATOM     24  O   LIG d   1      -3.042  78.215 117.192  0.00  0.00    -0.241 OA
ENDBRANCH   3  22
TORSDOF 7
ENDMDL
MODEL 3
REMARK VINA RESULT:      -5.0      2.448      5.023
REMARK  7 active torsions:
REMARK  status: ('A' for Active; 'I' for Inactive)
REMARK    1  A    between atoms: C_2  and  C_3 
REMARK    2  A    between atoms: C_3  and  O_6 
REMARK    3  A    between atoms: C_3  and  C_4 
REMARK    4  A    between atoms: C_7  and  O_6 
REMARK    5  A    between atoms: C_9  and  C_10 
REMARK    6  A    between atoms: N_15  and  C_14 
REMARK    7  A    between atoms: N_20  and  C_19 
REMARK       I    between atoms: C_22  and  N_20 
ROOT
ATOM      1  C   LIG d   1      -4.297  91.416 117.936  0.00  0.00     0.161 C 
ATOM      2  C   LIG d   1      -5.190  90.734 117.093  0.00  0.00     0.016 C 
ATOM      3  C   LIG d   1      -6.430  91.271 116.676  0.00  0.00     0.038 C 
ATOM      4  C   LIG d   1      -6.795  92.597 116.954  0.00  0.00     0.028 C 
ATOM      5  C   LIG d   1      -6.153  93.149 118.222  0.00  0.00    -0.047 C 
ATOM      6  C   LIG d   1      -4.627  92.907 118.159  0.00  0.00     0.091 C 
ENDROOT
BRANCH   1   7
ATOM      7  O   LIG d   1      -2.951  91.270 117.442  0.00  0.00    -0.368 OA
BRANCH   7   8
ATOM      8  C   LIG d   1      -2.011  90.620 118.333  0.00  0.00     0.119 C 
BRANCH   8   9
ATOM      9  C   LIG d   1      -0.592  90.989 117.859  0.00  0.00     0.028 C 
ATOM     10  C   LIG d   1       0.140  91.902 118.857  0.00  0.00     0.006 C 
ENDBRANCH   8   9
BRANCH   8  11
ATOM     11  C   LIG d   1      -2.094  89.095 118.214  0.00  0.00     0.028 C 
ATOM     12  C   LIG d   1      -2.634  88.427 119.489  0.00  0.00     0.006 C 
ENDBRANCH   8  11
ENDBRANCH   7   8
ENDBRANCH   1   7
BRANCH   6  13
ATOM     13  N   LIG d   1      -3.932  93.342 119.398  0.00  0.00    -0.311 N 
ATOM     14  C   LIG d   1      -2.843  94.109 119.397  0.00  0.00     0.210 C 
ATOM     15  C   LIG d   1      -2.273  94.424 120.784  0.00  0.00     0.109 C 
ATOM     16  O   LIG d   1      -2.314  94.584 118.382  0.00  0.00    -0.276 OA
ATOM     17  H   LIG d   1      -4.313  93.027 120.269  0.00  0.00     0.149 HD
ENDBRANCH   6  13
BRANCH   5  18
ATOM     18  N   LIG d   1      -6.508  94.577 118.316  0.00  0.00     0.381 N 
ATOM     19  H   LIG d   1      -5.748  95.090 118.716  0.00  0.00    -0.090 HD
ATOM     20  H   LIG d   1      -7.306  94.675 118.919  0.00  0.00    -0.090 HD
ATOM     21  H   LIG d   1      -6.720  94.936 117.411  0.00  0.00    -0.090 HD
ENDBRANCH   5  18
BRANCH   3  22
ATOM     22  C   LIG d   1      -7.337  90.464 116.007  0.00  0.00     0.382 C 
ATOM     23  O   LIG d   1      -8.315  89.975 116.623  0.00  0.00    -0.241 OA
ATOM     24  O   LIG d   1      -7.167  90.184 114.805  0.00  0.00    -0.241 OA
ENDBRANCH   3  22
TORSDOF 7
ENDMDL
MODEL 4
REMARK VINA RESULT:      -4.7     12.226     14.954
REMARK  7 active torsions:
REMARK  status: ('A' for Active; 'I' for Inactive)
REMARK    1  A    between atoms: C_2  and  C_3 
REMARK    2  A    between atoms: C_3  and  O_6 
REMARK    3  A    between atoms: C_3  and  C_4 
REMARK    4  A    between atoms: C_7  and  O_6 
REMARK    5  A    between atoms: C_9  and  C_10 
REMARK    6  A    between atoms: N_15  and  C_14 
REMARK    7  A    between atoms: N_20  and  C_19 
REMARK       I    between atoms: C_22  and  N_20 
ROOT
ATOM      1  C   LIG d   1      -6.588  78.774 117.878  0.00  0.00     0.161 C 
ATOM      2  C   LIG d   1      -6.733  77.402 117.616  0.00  0.00     0.016 C 
ATOM      3  C   LIG d   1      -7.942  76.695 117.813  0.00  0.00     0.038 C 
ATOM      4  C   LIG d   1      -9.138  77.349 118.145  0.00  0.00     0.028 C 
ATOM      5  C   LIG d   1      -8.924  78.652 118.908  0.00  0.00    -0.047 C 
ATOM      6  C   LIG d   1      -7.911  79.527 118.134  0.00  0.00     0.091 C 
ENDROOT
BRANCH   1   7
ATOM      7  O   LIG d   1      -5.854  79.401 116.808  0.00  0.00    -0.368 OA
BRANCH   7   8
ATOM      8  C   LIG d   1      -4.500  79.810 117.118  0.00  0.00     0.119 C 
BRANCH   8   9
ATOM      9  C   LIG d   1      -3.546  78.875 116.348  0.00  0.00     0.028 C 
ATOM     10  C   LIG d   1      -2.721  79.623 115.288  0.00  0.00     0.006 C 
ENDBRANCH   8   9
BRANCH   8  11
ATOM     11  C   LIG d   1      -4.176  79.589 118.599  0.00  0.00     0.028 C 
ATOM     12  C   LIG d   1      -3.871  80.898 119.344  0.00  0.00     0.006 C 
ENDBRANCH   8  11
ENDBRANCH   7   8
ENDBRANCH   1   7
BRANCH   6  13
ATOM     13  N   LIG d   1      -7.581  80.784 118.855  0.00  0.00    -0.311 N 
ATOM     14  C   LIG d   1      -7.537  81.977 118.265  0.00  0.00     0.210 C 
ATOM     15  C   LIG d   1      -7.156  83.140 119.187  0.00  0.00     0.109 C 
ATOM     16  O   LIG d   1      -7.807  82.187 117.073  0.00  0.00    -0.276 OA
ATOM     17  H   LIG d   1      -7.378  80.709 119.833  0.00  0.00     0.149 HD
ENDBRANCH   6  13
BRANCH   5  18
ATOM     18  N   LIG d   1     -10.241  79.296 119.068  0.00  0.00     0.381 N 
ATOM     19  H   LIG d   1     -10.123  80.283 119.186  0.00  0.00    -0.090 HD
ATOM     20  H   LIG d   1     -10.684  78.930 119.892  0.00  0.00    -0.090 HD
ATOM     21  H   LIG d   1     -10.808  79.115 118.269  0.00  0.00    -0.090 HD
ENDBRANCH   5  18
BRANCH   3  22
ATOM     22  C   LIG d   1      -7.953  75.312 117.717  0.00  0.00     0.382 C 
ATOM     23  O   LIG d   1      -7.192  74.734 116.903  0.00  0.00    -0.241 OA
ATOM     24  O   LIG d   1      -8.744  74.637 118.402  0.00  0.00    -0.241 OA
ENDBRANCH   3  22
TORSDOF 7
ENDMDL
MODEL 5
REMARK VINA RESULT:      -4.6      1.989      4.644
REMARK  7 active torsions:
REMARK  status: ('A' for Active; 'I' for Inactive)
REMARK    1  A    between atoms: C_2  and  C_3 
REMARK    2  A    between atoms: C_3  and  O_6 
REMARK    3  A    between atoms: C_3  and  C_4 
REMARK    4  A    between atoms: C_7  and  O_6 
REMARK    5  A    between atoms: C_9  and  C_10 
REMARK    6  A    between atoms: N_15  and  C_14 
REMARK    7  A    between atoms: N_20  and  C_19 
REMARK       I    between atoms: C_22  and  N_20 
ROOT
ATOM      1  C   LIG d   1      -6.545  92.945 119.570  0.00  0.00     0.161 C 
ATOM      2  C   LIG d   1      -7.833  93.424 119.279  0.00  0.00     0.016 C 
ATOM      3  C   LIG d   1      -8.115  94.782 119.005  0.00  0.00     0.038 C 
ATOM      4  C   LIG d   1      -7.097  95.735 118.855  0.00  0.00     0.028 C 
ATOM      5  C   LIG d   1      -5.831  95.398 119.637  0.00  0.00    -0.047 C 
ATOM      6  C   LIG d   1      -5.405  93.950 119.301  0.00  0.00     0.091 C 
ENDROOT
BRANCH   1   7
ATOM      7  O   LIG d   1      -6.308  91.716 118.855  0.00  0.00    -0.368 OA
BRANCH   7   8
ATOM      8  C   LIG d   1      -5.980  91.849 117.450  0.00  0.00     0.119 C 
BRANCH   8   9
ATOM      9  C   LIG d   1      -6.948  90.946 116.662  0.00  0.00     0.028 C 
ATOM     10  C   LIG d   1      -6.513  90.754 115.199  0.00  0.00     0.006 C 
ENDBRANCH   8   9
BRANCH   8  11
ATOM     11  C   LIG d   1      -4.581  91.302 117.150  0.00  0.00     0.028 C 
ATOM     12  C   LIG d   1      -4.064  90.355 118.245  0.00  0.00     0.006 C 
ENDBRANCH   8  11
ENDBRANCH   7   8
ENDBRANCH   1   7
BRANCH   6  13
ATOM     13  N   LIG d   1      -4.223  93.511 120.088  0.00  0.00    -0.311 N 
ATOM     14  C   LIG d   1      -2.972  93.591 119.638  0.00  0.00     0.210 C 
ATOM     15  C   LIG d   1      -1.904  93.064 120.600  0.00  0.00     0.109 C 
ATOM     16  O   LIG d   1      -2.643  94.078 118.546  0.00  0.00    -0.276 OA
ATOM     17  H   LIG d   1      -4.396  93.131 120.998  0.00  0.00     0.149 HD
ENDBRANCH   6  13
BRANCH   5  18
ATOM     18  N   LIG d   1      -4.808  96.399 119.282  0.00  0.00     0.381 N 
ATOM     19  H   LIG d   1      -4.114  96.444 120.001  0.00  0.00    -0.090 HD
ATOM     20  H   LIG d   1      -5.246  97.300 119.210  0.00  0.00    -0.090 HD
ATOM     21  H   LIG d   1      -4.382  96.158 118.414  0.00  0.00    -0.090 HD
ENDBRANCH   5  18
BRANCH   3  22
ATOM     22  C   LIG d   1      -9.432  95.207 118.919  0.00  0.00     0.382 C 
ATOM     23  O   LIG d   1     -10.285  94.774 119.731  0.00  0.00    -0.241 OA
ATOM     24  O   LIG d   1      -9.787  95.983 118.012  0.00  0.00    -0.241 OA
ENDBRANCH   3  22
TORSDOF 7
ENDMDL
MODEL 6
REMARK VINA RESULT:      -4.4     12.860     16.020
REMARK  7 active torsions:
REMARK  status: ('A' for Active; 'I' for Inactive)
REMARK    1  A    between atoms: C_2  and  C_3 
REMARK    2  A    between atoms: C_3  and  O_6 
REMARK    3  A    between atoms: C_3  and  C_4 
REMARK    4  A    between atoms: C_7  and  O_6 
REMARK    5  A    between atoms: C_9  and  C_10 
REMARK    6  A    between atoms: N_15  and  C_14 
REMARK    7  A    between atoms: N_20  and  C_19 
REMARK       I    between atoms: C_22  and  N_20 
ROOT
ATOM      1  C   LIG d   1      -6.719  78.476 117.702  0.00  0.00     0.161 C 
ATOM      2  C   LIG d   1      -6.583  79.874 117.706  0.00  0.00     0.016 C 
ATOM      3  C   LIG d   1      -7.591  80.753 118.163  0.00  0.00     0.038 C 
ATOM      4  C   LIG d   1      -8.754  80.284 118.792  0.00  0.00     0.028 C 
ATOM      5  C   LIG d   1      -9.157  78.881 118.352  0.00  0.00    -0.047 C 
ATOM      6  C   LIG d   1      -7.936  77.943 118.487  0.00  0.00     0.091 C 
ENDROOT
BRANCH   1   7
ATOM      7  O   LIG d   1      -5.506  77.865 118.183  0.00  0.00    -0.368 OA
BRANCH   7   8
ATOM      8  C   LIG d   1      -4.736  77.121 117.207  0.00  0.00     0.119 C 
BRANCH   8   9
ATOM      9  C   LIG d   1      -3.484  77.953 116.872  0.00  0.00     0.028 C 
ATOM     10  C   LIG d   1      -2.186  77.138 116.998  0.00  0.00     0.006 C 
ENDBRANCH   8   9
BRANCH   8  11
ATOM     11  C   LIG d   1      -5.497  76.984 115.884  0.00  0.00     0.028 C 
ATOM     12  C   LIG d   1      -5.751  75.520 115.491  0.00  0.00     0.006 C 
ENDBRANCH   8  11
ENDBRANCH   7   8
ENDBRANCH   1   7
BRANCH   6  13
ATOM     13  N   LIG d   1      -8.220  76.569 117.997  0.00  0.00    -0.311 N 
ATOM     14  C   LIG d   1      -8.199  75.492 118.781  0.00  0.00     0.210 C 
ATOM     15  C   LIG d   1      -8.502  74.169 118.071  0.00  0.00     0.109 C 
ATOM     16  O   LIG d   1      -7.991  75.511 120.004  0.00  0.00    -0.276 OA
ATOM     17  H   LIG d   1      -8.430  76.465 117.024  0.00  0.00     0.149 HD
ENDBRANCH   6  13
BRANCH   5  18
ATOM     18  N   LIG d   1     -10.301  78.464 119.184  0.00  0.00     0.381 N 
ATOM     19  H   LIG d   1     -10.068  78.558 120.153  0.00  0.00    -0.090 HD
ATOM     20  H   LIG d   1     -10.502  77.497 119.000  0.00  0.00    -0.090 HD
ATOM     21  H   LIG d   1     -11.099  79.022 118.972  0.00  0.00    -0.090 HD
ENDBRANCH   5  18
BRANCH   3  22
ATOM     22  C   LIG d   1      -7.459  82.118 117.957  0.00  0.00     0.382 C 
ATOM     23  O   LIG d   1      -7.240  82.881 118.928  0.00  0.00    -0.241 OA
ATOM     24  O   LIG d   1      -7.600  82.601 116.817  0.00  0.00    -0.241 OA
ENDBRANCH   3  22
TORSDOF 7
ENDMDL
MODEL 7
REMARK VINA RESULT:      -4.3      2.251      4.052
REMARK  7 active torsions:
REMARK  status: ('A' for Active; 'I' for Inactive)
REMARK    1  A    between atoms: C_2  and  C_3 
REMARK    2  A    between atoms: C_3  and  O_6 
REMARK    3  A    between atoms: C_3  and  C_4 
REMARK    4  A    between atoms: C_7  and  O_6 
REMARK    5  A    between atoms: C_9  and  C_10 
REMARK    6  A    between atoms: N_15  and  C_14 
REMARK    7  A    between atoms: N_20  and  C_19 
REMARK       I    between atoms: C_22  and  N_20 
ROOT
ATOM      1  C   LIG d   1      -5.952  92.232 119.313  0.00  0.00     0.161 C 
ATOM      2  C   LIG d   1      -6.261  91.277 118.329  0.00  0.00     0.016 C 
ATOM      3  C   LIG d   1      -6.916  91.593 117.117  0.00  0.00     0.038 C 
ATOM      4  C   LIG d   1      -7.175  92.918 116.737  0.00  0.00     0.028 C 
ATOM      5  C   LIG d   1      -7.337  93.867 117.920  0.00  0.00    -0.047 C 
ATOM      6  C   LIG d   1      -6.127  93.699 118.867  0.00  0.00     0.091 C 
ENDROOT
BRANCH   1   7
ATOM      7  O   LIG d   1      -4.615  92.014 119.804  0.00  0.00    -0.368 OA
BRANCH   7   8
ATOM      8  C   LIG d   1      -3.542  92.545 118.988  0.00  0.00     0.119 C 
BRANCH   8   9
ATOM      9  C   LIG d   1      -2.691  91.353 118.509  0.00  0.00     0.028 C 
ATOM     10  C   LIG d   1      -2.869  90.110 119.397  0.00  0.00     0.006 C 
ENDBRANCH   8   9
BRANCH   8  11
ATOM     11  C   LIG d   1      -2.591  93.415 119.816  0.00  0.00     0.028 C 
ATOM     12  C   LIG d   1      -2.940  93.421 121.313  0.00  0.00     0.006 C 
ENDBRANCH   8  11
ENDBRANCH   7   8
ENDBRANCH   1   7
BRANCH   6  13
ATOM     13  N   LIG d   1      -6.247  94.530 120.093  0.00  0.00    -0.311 N 
ATOM     14  C   LIG d   1      -5.747  95.761 120.197  0.00  0.00     0.210 C 
ATOM     15  C   LIG d   1      -5.965  96.435 121.555  0.00  0.00     0.109 C 
ATOM     16  O   LIG d   1      -5.172  96.370 119.282  0.00  0.00    -0.276 OA
ATOM     17  H   LIG d   1      -6.727  94.126 120.873  0.00  0.00     0.149 HD
ENDBRANCH   6  13
BRANCH   5  18
ATOM     18  N   LIG d   1      -7.464  95.234 117.380  0.00  0.00     0.381 N 
ATOM     19  H   LIG d   1      -7.940  95.816 118.040  0.00  0.00    -0.090 HD
ATOM     20  H   LIG d   1      -8.009  95.201 116.537  0.00  0.00    -0.090 HD
ATOM     21  H   LIG d   1      -6.562  95.609 117.187  0.00  0.00    -0.090 HD
ENDBRANCH   5  18
BRANCH   3  22
ATOM     22  C   LIG d   1      -7.357  90.572 116.288  0.00  0.00     0.382 C 
ATOM     23  O   LIG d   1      -6.833  90.411 115.160  0.00  0.00    -0.241 OA
ATOM     24  O   LIG d   1      -8.301  89.838 116.637  0.00  0.00    -0.241 OA
ENDBRANCH   3  22
TORSDOF 7
ENDMDL
MODEL 8
REMARK VINA RESULT:      -4.3      4.591      7.634
REMARK  7 active torsions:
REMARK  status: ('A' for Active; 'I' for Inactive)
REMARK    1  A    between atoms: C_2  and  C_3 
REMARK    2  A    between atoms: C_3  and  O_6 
REMARK    3  A    between atoms: C_3  and  C_4 
REMARK    4  A    between atoms: C_7  and  O_6 
REMARK    5  A    between atoms: C_9  and  C_10 
REMARK    6  A    between atoms: N_15  and  C_14 
REMARK    7  A    between atoms: N_20  and  C_19 
REMARK       I    between atoms: C_22  and  N_20 
ROOT
ATOM      1  C   LIG d   1      -0.693  91.363 118.249  0.00  0.00     0.161 C 
ATOM      2  C   LIG d   1       0.678  91.579 118.462  0.00  0.00     0.016 C 
ATOM      3  C   LIG d   1       1.286  92.853 118.389  0.00  0.00     0.038 C 
ATOM      4  C   LIG d   1       0.532  94.027 118.245  0.00  0.00     0.028 C 
ATOM      5  C   LIG d   1      -0.793  93.811 117.523  0.00  0.00    -0.047 C 
ATOM      6  C   LIG d   1      -1.550  92.646 118.201  0.00  0.00     0.091 C 
ENDROOT
BRANCH   1   7
ATOM      7  O   LIG d   1      -1.206  90.456 119.244  0.00  0.00    -0.368 OA
BRANCH   7   8
ATOM      8  C   LIG d   1      -1.481  89.106 118.795  0.00  0.00     0.119 C 
BRANCH   8   9
ATOM      9  C   LIG d   1      -3.012  88.937 118.748  0.00  0.00     0.028 C 
ATOM     10  C   LIG d   1      -3.697  89.439 120.031  0.00  0.00     0.006 C 
ENDBRANCH   8   9
BRANCH   8  11
ATOM     11  C   LIG d   1      -0.990  88.070 119.810  0.00  0.00     0.028 C 
ATOM     12  C   LIG d   1      -0.855  86.663 119.206  0.00  0.00     0.006 C 
ENDBRANCH   8  11
ENDBRANCH   7   8
ENDBRANCH   1   7
BRANCH   6  13
ATOM     13  N   LIG d   1      -2.820  92.313 117.504  0.00  0.00    -0.311 N 
ATOM     14  C   LIG d   1      -4.024  92.532 118.030  0.00  0.00     0.210 C 
ATOM     15  C   LIG d   1      -5.201  92.097 117.153  0.00  0.00     0.109 C 
ATOM     16  O   LIG d   1      -4.228  93.075 119.126  0.00  0.00    -0.276 OA
ATOM     17  H   LIG d   1      -2.746  91.898 116.596  0.00  0.00     0.149 HD
ENDBRANCH   6  13
BRANCH   5  18
ATOM     18  N   LIG d   1      -1.536  95.085 117.565  0.00  0.00     0.381 N 
ATOM     19  H   LIG d   1      -2.046  95.208 116.713  0.00  0.00    -0.090 HD
ATOM     20  H   LIG d   1      -0.880  95.841 117.653  0.00  0.00    -0.090 HD
ATOM     21  H   LIG d   1      -2.164  95.089 118.339  0.00  0.00    -0.090 HD
ENDBRANCH   5  18
BRANCH   3  22
ATOM     22  C   LIG d   1       2.669  92.958 118.420  0.00  0.00     0.382 C 
ATOM     23  O   LIG d   1       3.339  92.712 117.389  0.00  0.00    -0.241 OA
ATOM     24  O   LIG d   1       3.256  93.252 119.478  0.00  0.00    -0.241 OA
ENDBRANCH   3  22
TORSDOF 7
ENDMDL
MODEL 9
REMARK VINA RESULT:      -4.3     27.569     30.319
REMARK  7 active torsions:
REMARK  status: ('A' for Active; 'I' for Inactive)
REMARK    1  A    between atoms: C_2  and  C_3 
REMARK    2  A    between atoms: C_3  and  O_6 
REMARK    3  A    between atoms: C_3  and  C_4 
REMARK    4  A    between atoms: C_7  and  O_6 
REMARK    5  A    between atoms: C_9  and  C_10 
REMARK    6  A    between atoms: N_15  and  C_14 
REMARK    7  A    between atoms: N_20  and  C_19 
REMARK       I    between atoms: C_22  and  N_20 
ROOT
ATOM      1  C   LIG d   1     -17.623  65.667 117.491  0.00  0.00     0.161 C 
ATOM      2  C   LIG d   1     -18.355  64.611 118.059  0.00  0.00     0.016 C 
ATOM      3  C   LIG d   1     -18.282  63.277 117.598  0.00  0.00     0.038 C 
ATOM      4  C   LIG d   1     -17.350  62.877 116.628  0.00  0.00     0.028 C 
ATOM      5  C   LIG d   1     -16.949  63.999 115.676  0.00  0.00    -0.047 C 
ATOM      6  C   LIG d   1     -16.518  65.231 116.505  0.00  0.00     0.091 C 
ENDROOT
BRANCH   1   7
ATOM      7  O   LIG d   1     -17.066  66.492 118.533  0.00  0.00    -0.368 OA
BRANCH   7   8
ATOM      8  C   LIG d   1     -16.618  65.799 119.724  0.00  0.00     0.119 C 
BRANCH   8   9
ATOM      9  C   LIG d   1     -17.015  66.660 120.938  0.00  0.00     0.028 C 
ATOM     10  C   LIG d   1     -17.949  67.820 120.555  0.00  0.00     0.006 C 
ENDBRANCH   8   9
BRANCH   8  11
ATOM     11  C   LIG d   1     -15.090  65.708 119.773  0.00  0.00     0.028 C 
ATOM     12  C   LIG d   1     -14.570  64.281 119.537  0.00  0.00     0.006 C 
ENDBRANCH   8  11
ENDBRANCH   7   8
ENDBRANCH   1   7
BRANCH   6  13
ATOM     13  N   LIG d   1     -16.190  66.402 115.651  0.00  0.00    -0.311 N 
ATOM     14  C   LIG d   1     -15.064  67.104 115.771  0.00  0.00     0.210 C 
ATOM     15  C   LIG d   1     -14.932  68.285 114.805  0.00  0.00     0.109 C 
ATOM     16  O   LIG d   1     -14.148  66.841 116.565  0.00  0.00    -0.276 OA
ATOM     17  H   LIG d   1     -16.864  66.666 114.960  0.00  0.00     0.149 HD
ENDBRANCH   6  13
BRANCH   5  18
ATOM     18  N   LIG d   1     -15.874  63.483 114.807  0.00  0.00     0.381 N 
ATOM     19  H   LIG d   1     -15.834  62.485 114.874  0.00  0.00    -0.090 HD
ATOM     20  H   LIG d   1     -14.995  63.855 115.121  0.00  0.00    -0.090 HD
ATOM     21  H   LIG d   1     -16.039  63.753 113.863  0.00  0.00    -0.090 HD
ENDBRANCH   5  18
BRANCH   3  22
ATOM     22  C   LIG d   1     -19.175  62.333 118.081  0.00  0.00     0.382 C 
ATOM     23  O   LIG d   1     -18.755  61.225 118.493  0.00  0.00    -0.241 OA
ATOM     24  O   LIG d   1     -20.400  62.558 118.069  0.00  0.00    -0.241 OA
ENDBRANCH   3  22
TORSDOF 7
ENDMDL
