MODEL 1
REMARK VINA RESULT:      -5.6      0.000      0.000
REMARK  7 active torsions:
REMARK  status: ('A' for Active; 'I' for Inactive)
REMARK    1  A    between atoms: C_2  and  C_3 
REMARK    2  A    between atoms: C_3  and  O_6 
REMARK    3  A    between atoms: C_3  and  C_4 
REMARK    4  A    between atoms: C_7  and  O_6 
REMARK    5  A    between atoms: C_9  and  C_10 
REMARK    6  A    between atoms: N_15  and  C_14 
REMARK    7  A    between atoms: N_20  and  C_19 
REMARK       I    between atoms: C_22  and  N_20 
ROOT
ATOM      1  C   LIG d   1      -6.894  75.322 116.787  0.00  0.00     0.161 C 
ATOM      2  C   LIG d   1      -7.730  74.201 116.660  0.00  0.00     0.016 C 
ATOM      3  C   LIG d   1      -7.245  72.886 116.473  0.00  0.00     0.038 C 
ATOM      4  C   LIG d   1      -5.878  72.581 116.554  0.00  0.00     0.028 C 
ATOM      5  C   LIG d   1      -4.974  73.750 116.177  0.00  0.00    -0.047 C 
ATOM      6  C   LIG d   1      -5.399  74.995 116.989  0.00  0.00     0.091 C 
ENDROOT
BRANCH   1   7
ATOM      7  O   LIG d   1      -7.369  76.168 117.853  0.00  0.00    -0.368 OA
BRANCH   7   8
ATOM      8  C   LIG d   1      -7.691  77.533 117.489  0.00  0.00     0.119 C 
BRANCH   8   9
ATOM      9  C   LIG d   1      -6.811  78.461 118.347  0.00  0.00     0.028 C 
ATOM     10  C   LIG d   1      -6.211  79.619 117.532  0.00  0.00     0.006 C 
ENDBRANCH   8   9
BRANCH   8  11
ATOM     11  C   LIG d   1      -9.135  77.883 117.862  0.00  0.00     0.028 C 
ATOM     12  C   LIG d   1      -9.303  78.205 119.355  0.00  0.00     0.006 C 
ENDBRANCH   8  11
ENDBRANCH   7   8
ENDBRANCH   1   7
BRANCH   6  13
ATOM     13  N   LIG d   1      -4.620  76.206 116.619  0.00  0.00    -0.311 N 
ATOM     14  C   LIG d   1      -3.547  76.620 117.291  0.00  0.00     0.210 C 
ATOM     15  C   LIG d   1      -2.904  77.902 116.754  0.00  0.00     0.109 C 
ATOM     16  O   LIG d   1      -3.048  76.029 118.261  0.00  0.00    -0.276 OA
ATOM     17  H   LIG d   1      -4.937  76.727 115.826  0.00  0.00     0.149 HD
ENDBRANCH   6  13
BRANCH   5  18
ATOM     18  N   LIG d   1      -3.582  73.338 116.437  0.00  0.00     0.381 N 
ATOM     19  H   LIG d   1      -2.955  73.901 115.897  0.00  0.00    -0.090 HD
ATOM     20  H   LIG d   1      -3.468  72.380 116.156  0.00  0.00    -0.090 HD
ATOM     21  H   LIG d   1      -3.373  73.434 117.407  0.00  0.00    -0.090 HD
ENDBRANCH   5  18
BRANCH   3  22
ATOM     22  C   LIG d   1      -8.130  71.865 116.164  0.00  0.00     0.382 C 
ATOM     23  O   LIG d   1      -9.365  72.042 116.300  0.00  0.00    -0.241 OA
ATOM     24  O   LIG d   1      -7.708  70.753 115.792  0.00  0.00    -0.241 OA
ENDBRANCH   3  22
TORSDOF 7
ENDMDL
MODEL 2
REMARK VINA RESULT:      -5.4      2.240      4.527
REMARK  7 active torsions:
REMARK  status: ('A' for Active; 'I' for Inactive)
REMARK    1  A    between atoms: C_2  and  C_3 
REMARK    2  A    between atoms: C_3  and  O_6 
REMARK    3  A    between atoms: C_3  and  C_4 
REMARK    4  A    between atoms: C_7  and  O_6 
REMARK    5  A    between atoms: C_9  and  C_10 
REMARK    6  A    between atoms: N_15  and  C_14 
REMARK    7  A    between atoms: N_20  and  C_19 
REMARK       I    between atoms: C_22  and  N_20 
ROOT
ATOM      1  C   LIG d   1      -4.819  74.185 116.601  0.00  0.00     0.161 C 
ATOM      2  C   LIG d   1      -5.542  73.011 116.334  0.00  0.00     0.016 C 
ATOM      3  C   LIG d   1      -6.954  72.945 116.352  0.00  0.00     0.038 C 
ATOM      4  C   LIG d   1      -7.748  74.093 116.490  0.00  0.00     0.028 C 
ATOM      5  C   LIG d   1      -7.062  75.214 117.264  0.00  0.00    -0.047 C 
ATOM      6  C   LIG d   1      -5.669  75.472 116.645  0.00  0.00     0.091 C 
ENDROOT
BRANCH   1   7
ATOM      7  O   LIG d   1      -3.746  74.326 115.649  0.00  0.00    -0.368 OA
BRANCH   7   8
ATOM      8  C   LIG d   1      -2.426  74.550 116.204  0.00  0.00     0.119 C 
BRANCH   8   9
ATOM      9  C   LIG d   1      -1.697  75.542 115.278  0.00  0.00     0.028 C 
ATOM     10  C   LIG d   1      -0.771  76.496 116.052  0.00  0.00     0.006 C 
ENDBRANCH   8   9
BRANCH   8  11
ATOM     11  C   LIG d   1      -1.584  73.271 116.173  0.00  0.00     0.028 C 
ATOM     12  C   LIG d   1      -0.881  72.988 117.510  0.00  0.00     0.006 C 
ENDBRANCH   8  11
ENDBRANCH   7   8
ENDBRANCH   1   7
BRANCH   6  13
ATOM     13  N   LIG d   1      -4.897  76.497 117.394  0.00  0.00    -0.311 N 
ATOM     14  C   LIG d   1      -4.346  77.565 116.820  0.00  0.00     0.210 C 
ATOM     15  C   LIG d   1      -3.575  78.485 117.772  0.00  0.00     0.109 C 
ATOM     16  O   LIG d   1      -4.449  77.854 115.619  0.00  0.00    -0.276 OA
ATOM     17  H   LIG d   1      -4.790  76.357 118.380  0.00  0.00     0.149 HD
ENDBRANCH   6  13
BRANCH   5  18
ATOM     18  N   LIG d   1      -7.945  76.395 117.214  0.00  0.00     0.381 N 
ATOM     19  H   LIG d   1      -7.504  77.125 116.690  0.00  0.00    -0.090 HD
ATOM     20  H   LIG d   1      -8.097  76.727 118.150  0.00  0.00    -0.090 HD
ATOM     21  H   LIG d   1      -8.815  76.153 116.793  0.00  0.00    -0.090 HD
ENDBRANCH   5  18
BRANCH   3  22
ATOM     22  C   LIG d   1      -7.586  71.714 116.270  0.00  0.00     0.382 C 
ATOM     23  O   LIG d   1      -6.918  70.658 116.383  0.00  0.00    -0.241 OA
ATOM     24  O   LIG d   1      -8.808  71.645 116.039  0.00  0.00    -0.241 OA
ENDBRANCH   3  22
TORSDOF 7
ENDMDL
MODEL 3
REMARK VINA RESULT:      -5.1     15.009     17.404
REMARK  7 active torsions:
REMARK  status: ('A' for Active; 'I' for Inactive)
REMARK    1  A    between atoms: C_2  and  C_3 
REMARK    2  A    between atoms: C_3  and  O_6 
REMARK    3  A    between atoms: C_3  and  C_4 
REMARK    4  A    between atoms: C_7  and  O_6 
REMARK    5  A    between atoms: C_9  and  C_10 
REMARK    6  A    between atoms: N_15  and  C_14 
REMARK    7  A    between atoms: N_20  and  C_19 
REMARK       I    between atoms: C_22  and  N_20 
ROOT
ATOM      1  C   LIG d   1      -3.478  91.490 117.674  0.00  0.00     0.161 C 
ATOM      2  C   LIG d   1      -4.103  90.723 116.676  0.00  0.00     0.016 C 
ATOM      3  C   LIG d   1      -5.346  91.066 116.095  0.00  0.00     0.038 C 
ATOM      4  C   LIG d   1      -5.980  92.287 116.367  0.00  0.00     0.028 C 
ATOM      5  C   LIG d   1      -5.638  92.855 117.741  0.00  0.00    -0.047 C 
ATOM      6  C   LIG d   1      -4.101  92.883 117.903  0.00  0.00     0.091 C 
ENDROOT
BRANCH   1   7
ATOM      7  O   LIG d   1      -2.071  91.611 117.388  0.00  0.00    -0.368 OA
BRANCH   7   8
ATOM      8  C   LIG d   1      -1.177  90.877 118.260  0.00  0.00     0.119 C 
BRANCH   8   9
ATOM      9  C   LIG d   1      -0.102  91.863 118.757  0.00  0.00     0.028 C 
ATOM     10  C   LIG d   1       0.103  93.043 117.793  0.00  0.00     0.006 C 
ENDBRANCH   8   9
BRANCH   8  11
ATOM     11  C   LIG d   1      -0.412  89.796 117.492  0.00  0.00     0.028 C 
ATOM     12  C   LIG d   1      -1.197  88.480 117.374  0.00  0.00     0.006 C 
ENDBRANCH   8  11
ENDBRANCH   7   8
ENDBRANCH   1   7
BRANCH   6  13
ATOM     13  N   LIG d   1      -3.682  93.346 119.252  0.00  0.00    -0.311 N 
ATOM     14  C   LIG d   1      -2.900  94.405 119.454  0.00  0.00     0.210 C 
ATOM     15  C   LIG d   1      -2.573  94.698 120.921  0.00  0.00     0.109 C 
ATOM     16  O   LIG d   1      -2.473  95.150 118.558  0.00  0.00    -0.276 OA
ATOM     17  H   LIG d   1      -4.009  92.818 120.038  0.00  0.00     0.149 HD
ENDBRANCH   6  13
BRANCH   5  18
ATOM     18  N   LIG d   1      -6.254  94.191 117.837  0.00  0.00     0.381 N 
ATOM     19  H   LIG d   1      -5.588  94.847 118.193  0.00  0.00    -0.090 HD
ATOM     20  H   LIG d   1      -7.027  94.147 118.478  0.00  0.00    -0.090 HD
ATOM     21  H   LIG d   1      -6.574  94.485 116.940  0.00  0.00    -0.090 HD
ENDBRANCH   5  18
BRANCH   3  22
ATOM     22  C   LIG d   1      -5.987  90.163 115.261  0.00  0.00     0.382 C 
ATOM     23  O   LIG d   1      -7.204  90.309 114.996  0.00  0.00    -0.241 OA
ATOM     24  O   LIG d   1      -5.374  89.178 114.806  0.00  0.00    -0.241 OA
ENDBRANCH   3  22
TORSDOF 7
ENDMDL
MODEL 4
REMARK VINA RESULT:      -5.1     14.714     17.286
REMARK  7 active torsions:
REMARK  status: ('A' for Active; 'I' for Inactive)
REMARK    1  A    between atoms: C_2  and  C_3 
REMARK    2  A    between atoms: C_3  and  O_6 
REMARK    3  A    between atoms: C_3  and  C_4 
REMARK    4  A    between atoms: C_7  and  O_6 
REMARK    5  A    between atoms: C_9  and  C_10 
REMARK    6  A    between atoms: N_15  and  C_14 
REMARK    7  A    between atoms: N_20  and  C_19 
REMARK       I    between atoms: C_22  and  N_20 
ROOT
ATOM      1  C   LIG d   1      -3.642  91.488 117.715  0.00  0.00     0.161 C 
ATOM      2  C   LIG d   1      -4.244  90.744 116.686  0.00  0.00     0.016 C 
ATOM      3  C   LIG d   1      -5.455  91.121 116.060  0.00  0.00     0.038 C 
ATOM      4  C   LIG d   1      -6.071  92.354 116.319  0.00  0.00     0.028 C 
ATOM      5  C   LIG d   1      -5.771  92.901 117.710  0.00  0.00    -0.047 C 
ATOM      6  C   LIG d   1      -4.241  92.893 117.933  0.00  0.00     0.091 C 
ENDROOT
BRANCH   1   7
ATOM      7  O   LIG d   1      -2.222  91.579 117.485  0.00  0.00    -0.368 OA
BRANCH   7   8
ATOM      8  C   LIG d   1      -1.541  90.332 117.201  0.00  0.00     0.119 C 
BRANCH   8   9
ATOM      9  C   LIG d   1      -1.367  89.586 118.538  0.00  0.00     0.028 C 
ATOM     10  C   LIG d   1      -2.055  88.210 118.536  0.00  0.00     0.006 C 
ENDBRANCH   8   9
BRANCH   8  11
ATOM     11  C   LIG d   1      -0.119  90.578 116.686  0.00  0.00     0.028 C 
ATOM     12  C   LIG d   1       0.765  91.312 117.706  0.00  0.00     0.006 C 
ENDBRANCH   8  11
ENDBRANCH   7   8
ENDBRANCH   1   7
BRANCH   6  13
ATOM     13  N   LIG d   1      -3.865  93.334 119.302  0.00  0.00    -0.311 N 
ATOM     14  C   LIG d   1      -3.073  94.378 119.544  0.00  0.00     0.210 C 
ATOM     15  C   LIG d   1      -2.796  94.649 121.026  0.00  0.00     0.109 C 
ATOM     16  O   LIG d   1      -2.600  95.123 118.673  0.00  0.00    -0.276 OA
ATOM     17  H   LIG d   1      -4.231  92.804 120.068  0.00  0.00     0.149 HD
ENDBRANCH   6  13
BRANCH   5  18
ATOM     18  N   LIG d   1      -6.360  94.251 117.795  0.00  0.00     0.381 N 
ATOM     19  H   LIG d   1      -6.568  94.588 116.877  0.00  0.00    -0.090 HD
ATOM     20  H   LIG d   1      -5.691  94.872 118.215  0.00  0.00    -0.090 HD
ATOM     21  H   LIG d   1      -7.192  94.226 118.344  0.00  0.00    -0.090 HD
ENDBRANCH   5  18
BRANCH   3  22
ATOM     22  C   LIG d   1      -6.083  90.239 115.193  0.00  0.00     0.382 C 
ATOM     23  O   LIG d   1      -7.253  90.469 114.805  0.00  0.00    -0.241 OA
ATOM     24  O   LIG d   1      -5.509  89.195 114.829  0.00  0.00    -0.241 OA
ENDBRANCH   3  22
TORSDOF 7
ENDMDL
MODEL 5
REMARK VINA RESULT:      -4.8      2.615      4.956
REMARK  7 active torsions:
REMARK  status: ('A' for Active; 'I' for Inactive)
REMARK    1  A    between atoms: C_2  and  C_3 
REMARK    2  A    between atoms: C_3  and  O_6 
REMARK    3  A    between atoms: C_3  and  C_4 
REMARK    4  A    between atoms: C_7  and  O_6 
REMARK    5  A    between atoms: C_9  and  C_10 
REMARK    6  A    between atoms: N_15  and  C_14 
REMARK    7  A    between atoms: N_20  and  C_19 
REMARK       I    between atoms: C_22  and  N_20 
ROOT
ATOM      1  C   LIG d   1      -3.689  75.631 117.969  0.00  0.00     0.161 C 
ATOM      2  C   LIG d   1      -2.440  74.990 117.924  0.00  0.00     0.016 C 
ATOM      3  C   LIG d   1      -2.130  73.953 117.014  0.00  0.00     0.038 C 
ATOM      4  C   LIG d   1      -3.005  73.588 115.980  0.00  0.00     0.028 C 
ATOM      5  C   LIG d   1      -4.471  73.859 116.302  0.00  0.00    -0.047 C 
ATOM      6  C   LIG d   1      -4.618  75.323 116.776  0.00  0.00     0.091 C 
ENDROOT
BRANCH   1   7
ATOM      7  O   LIG d   1      -3.503  77.054 118.105  0.00  0.00    -0.368 OA
BRANCH   7   8
ATOM      8  C   LIG d   1      -3.373  77.800 116.870  0.00  0.00     0.119 C 
BRANCH   8   9
ATOM      9  C   LIG d   1      -1.941  78.368 116.821  0.00  0.00     0.028 C 
ATOM     10  C   LIG d   1      -1.132  77.817 115.634  0.00  0.00     0.006 C 
ENDBRANCH   8   9
BRANCH   8  11
ATOM     11  C   LIG d   1      -4.295  79.023 116.858  0.00  0.00     0.028 C 
ATOM     12  C   LIG d   1      -5.217  79.086 118.086  0.00  0.00     0.006 C 
ENDBRANCH   8  11
ENDBRANCH   7   8
ENDBRANCH   1   7
BRANCH   6  13
ATOM     13  N   LIG d   1      -6.007  75.647 117.192  0.00  0.00    -0.311 N 
ATOM     14  C   LIG d   1      -6.895  76.232 116.390  0.00  0.00     0.210 C 
ATOM     15  C   LIG d   1      -8.265  76.495 117.025  0.00  0.00     0.109 C 
ATOM     16  O   LIG d   1      -6.689  76.530 115.204  0.00  0.00    -0.276 OA
ATOM     17  H   LIG d   1      -6.269  75.411 118.129  0.00  0.00     0.149 HD
ENDBRANCH   6  13
BRANCH   5  18
ATOM     18  N   LIG d   1      -5.256  73.561 115.090  0.00  0.00     0.381 N 
ATOM     19  H   LIG d   1      -4.950  72.696 114.691  0.00  0.00    -0.090 HD
ATOM     20  H   LIG d   1      -5.103  74.291 114.416  0.00  0.00    -0.090 HD
ATOM     21  H   LIG d   1      -6.225  73.506 115.316  0.00  0.00    -0.090 HD
ENDBRANCH   5  18
BRANCH   3  22
ATOM     22  C   LIG d   1      -0.948  73.242 117.159  0.00  0.00     0.382 C 
ATOM     23  O   LIG d   1      -0.487  72.588 116.192  0.00  0.00    -0.241 OA
ATOM     24  O   LIG d   1      -0.361  73.210 118.257  0.00  0.00    -0.241 OA
ENDBRANCH   3  22
TORSDOF 7
ENDMDL
MODEL 6
REMARK VINA RESULT:      -4.7     10.192     13.049
REMARK  7 active torsions:
REMARK  status: ('A' for Active; 'I' for Inactive)
REMARK    1  A    between atoms: C_2  and  C_3 
REMARK    2  A    between atoms: C_3  and  O_6 
REMARK    3  A    between atoms: C_3  and  C_4 
REMARK    4  A    between atoms: C_7  and  O_6 
REMARK    5  A    between atoms: C_9  and  C_10 
REMARK    6  A    between atoms: N_15  and  C_14 
REMARK    7  A    between atoms: N_20  and  C_19 
REMARK       I    between atoms: C_22  and  N_20 
ROOT
ATOM      1  C   LIG d   1     -15.375  66.871 118.349  0.00  0.00     0.161 C 
ATOM      2  C   LIG d   1     -14.894  68.068 118.906  0.00  0.00     0.016 C 
ATOM      3  C   LIG d   1     -13.827  68.123 119.831  0.00  0.00     0.038 C 
ATOM      4  C   LIG d   1     -13.064  66.989 120.151  0.00  0.00     0.028 C 
ATOM      5  C   LIG d   1     -13.832  65.680 120.002  0.00  0.00    -0.047 C 
ATOM      6  C   LIG d   1     -14.483  65.637 118.600  0.00  0.00     0.091 C 
ENDROOT
BRANCH   1   7
ATOM      7  O   LIG d   1     -15.603  67.046 116.937  0.00  0.00    -0.368 OA
BRANCH   7   8
ATOM      8  C   LIG d   1     -14.483  66.743 116.069  0.00  0.00     0.119 C 
BRANCH   8   9
ATOM      9  C   LIG d   1     -13.962  68.078 115.503  0.00  0.00     0.028 C 
ATOM     10  C   LIG d   1     -12.623  68.500 116.132  0.00  0.00     0.006 C 
ENDBRANCH   8   9
BRANCH   8  11
ATOM     11  C   LIG d   1     -14.928  65.932 114.848  0.00  0.00     0.028 C 
ATOM     12  C   LIG d   1     -16.306  65.278 115.037  0.00  0.00     0.006 C 
ENDBRANCH   8  11
ENDBRANCH   7   8
ENDBRANCH   1   7
BRANCH   6  13
ATOM     13  N   LIG d   1     -15.324  64.428 118.403  0.00  0.00    -0.311 N 
ATOM     14  C   LIG d   1     -14.847  63.270 117.948  0.00  0.00     0.210 C 
ATOM     15  C   LIG d   1     -15.888  62.156 117.800  0.00  0.00     0.109 C 
ATOM     16  O   LIG d   1     -13.655  63.051 117.685  0.00  0.00    -0.276 OA
ATOM     17  H   LIG d   1     -16.298  64.508 118.622  0.00  0.00     0.149 HD
ENDBRANCH   6  13
BRANCH   5  18
ATOM     18  N   LIG d   1     -12.881  64.577 120.231  0.00  0.00     0.381 N 
ATOM     19  H   LIG d   1     -12.668  64.511 121.207  0.00  0.00    -0.090 HD
ATOM     20  H   LIG d   1     -12.030  64.773 119.735  0.00  0.00    -0.090 HD
ATOM     21  H   LIG d   1     -13.271  63.718 119.910  0.00  0.00    -0.090 HD
ENDBRANCH   5  18
BRANCH   3  22
ATOM     22  C   LIG d   1     -13.539  69.314 120.479  0.00  0.00     0.382 C 
ATOM     23  O   LIG d   1     -14.470  70.025 120.927  0.00  0.00    -0.241 OA
ATOM     24  O   LIG d   1     -12.362  69.709 120.582  0.00  0.00    -0.241 OA
ENDBRANCH   3  22
TORSDOF 7
ENDMDL
MODEL 7
REMARK VINA RESULT:      -4.6     15.310     18.454
REMARK  7 active torsions:
REMARK  status: ('A' for Active; 'I' for Inactive)
REMARK    1  A    between atoms: C_2  and  C_3 
REMARK    2  A    between atoms: C_3  and  O_6 
REMARK    3  A    between atoms: C_3  and  C_4 
REMARK    4  A    between atoms: C_7  and  O_6 
REMARK    5  A    between atoms: C_9  and  C_10 
REMARK    6  A    between atoms: N_15  and  C_14 
REMARK    7  A    between atoms: N_20  and  C_19 
REMARK       I    between atoms: C_22  and  N_20 
ROOT
ATOM      1  C   LIG d   1      -1.677  92.112 117.708  0.00  0.00     0.161 C 
ATOM      2  C   LIG d   1      -0.401  91.695 117.295  0.00  0.00     0.016 C 
ATOM      3  C   LIG d   1       0.728  92.547 117.276  0.00  0.00     0.038 C 
ATOM      4  C   LIG d   1       0.689  93.841 117.814  0.00  0.00     0.028 C 
ATOM      5  C   LIG d   1      -0.699  94.472 117.775  0.00  0.00    -0.047 C 
ATOM      6  C   LIG d   1      -1.714  93.489 118.403  0.00  0.00     0.091 C 
ENDROOT
BRANCH   1   7
ATOM      7  O   LIG d   1      -2.270  91.108 118.554  0.00  0.00    -0.368 OA
BRANCH   7   8
ATOM      8  C   LIG d   1      -3.309  90.298 117.951  0.00  0.00     0.119 C 
BRANCH   8   9
ATOM      9  C   LIG d   1      -2.627  89.085 117.291  0.00  0.00     0.028 C 
ATOM     10  C   LIG d   1      -1.923  88.178 118.314  0.00  0.00     0.006 C 
ENDBRANCH   8   9
BRANCH   8  11
ATOM     11  C   LIG d   1      -4.004  91.045 116.808  0.00  0.00     0.028 C 
ATOM     12  C   LIG d   1      -4.565  90.100 115.733  0.00  0.00     0.006 C 
ENDBRANCH   8  11
ENDBRANCH   7   8
ENDBRANCH   1   7
BRANCH   6  13
ATOM     13  N   LIG d   1      -3.111  93.993 118.329  0.00  0.00    -0.311 N 
ATOM     14  C   LIG d   1      -3.930  94.039 119.378  0.00  0.00     0.210 C 
ATOM     15  C   LIG d   1      -5.333  94.574 119.080  0.00  0.00     0.109 C 
ATOM     16  O   LIG d   1      -3.617  93.717 120.535  0.00  0.00    -0.276 OA
ATOM     17  H   LIG d   1      -3.437  94.304 117.435  0.00  0.00     0.149 HD
ENDBRANCH   6  13
BRANCH   5  18
ATOM     18  N   LIG d   1      -0.624  95.760 118.490  0.00  0.00     0.381 N 
ATOM     19  H   LIG d   1      -1.540  96.152 118.580  0.00  0.00    -0.090 HD
ATOM     20  H   LIG d   1      -0.059  96.396 117.956  0.00  0.00    -0.090 HD
ATOM     21  H   LIG d   1      -0.222  95.626 119.393  0.00  0.00    -0.090 HD
ENDBRANCH   5  18
BRANCH   3  22
ATOM     22  C   LIG d   1       1.902  92.118 116.676  0.00  0.00     0.382 C 
ATOM     23  O   LIG d   1       2.898  92.879 116.632  0.00  0.00    -0.241 OA
ATOM     24  O   LIG d   1       1.964  90.995 116.140  0.00  0.00    -0.241 OA
ENDBRANCH   3  22
TORSDOF 7
ENDMDL
MODEL 8
REMARK VINA RESULT:      -4.6     15.081     18.569
REMARK  7 active torsions:
REMARK  status: ('A' for Active; 'I' for Inactive)
REMARK    1  A    between atoms: C_2  and  C_3 
REMARK    2  A    between atoms: C_3  and  O_6 
REMARK    3  A    between atoms: C_3  and  C_4 
REMARK    4  A    between atoms: C_7  and  O_6 
REMARK    5  A    between atoms: C_9  and  C_10 
REMARK    6  A    between atoms: N_15  and  C_14 
REMARK    7  A    between atoms: N_20  and  C_19 
REMARK       I    between atoms: C_22  and  N_20 
ROOT
ATOM      1  C   LIG d   1      -1.301  91.766 117.564  0.00  0.00     0.161 C 
ATOM      2  C   LIG d   1       0.090  91.881 117.721  0.00  0.00     0.016 C 
ATOM      3  C   LIG d   1       0.765  93.121 117.803  0.00  0.00     0.038 C 
ATOM      4  C   LIG d   1       0.072  94.337 117.887  0.00  0.00     0.028 C 
ATOM      5  C   LIG d   1      -1.302  94.299 117.226  0.00  0.00    -0.047 C 
ATOM      6  C   LIG d   1      -2.085  93.080 117.766  0.00  0.00     0.091 C 
ENDROOT
BRANCH   1   7
ATOM      7  O   LIG d   1      -1.809  90.741 118.441  0.00  0.00    -0.368 OA
BRANCH   7   8
ATOM      8  C   LIG d   1      -0.830  90.075 119.276  0.00  0.00     0.119 C 
BRANCH   8   9
ATOM      9  C   LIG d   1      -0.901  88.568 118.961  0.00  0.00     0.028 C 
ATOM     10  C   LIG d   1      -2.105  88.211 118.073  0.00  0.00     0.006 C 
ENDBRANCH   8   9
BRANCH   8  11
ATOM     11  C   LIG d   1      -1.189  90.196 120.760  0.00  0.00     0.028 C 
ATOM     12  C   LIG d   1      -2.304  91.220 121.022  0.00  0.00     0.006 C 
ENDBRANCH   8  11
ENDBRANCH   7   8
ENDBRANCH   1   7
BRANCH   6  13
ATOM     13  N   LIG d   1      -3.408  92.920 117.108  0.00  0.00    -0.311 N 
ATOM     14  C   LIG d   1      -4.554  92.831 117.780  0.00  0.00     0.210 C 
ATOM     15  C   LIG d   1      -5.802  92.649 116.909  0.00  0.00     0.109 C 
ATOM     16  O   LIG d   1      -4.660  92.917 119.013  0.00  0.00    -0.276 OA
ATOM     17  H   LIG d   1      -3.417  92.872 116.108  0.00  0.00     0.149 HD
ENDBRANCH   6  13
BRANCH   5  18
ATOM     18  N   LIG d   1      -1.968  95.585 117.507  0.00  0.00     0.381 N 
ATOM     19  H   LIG d   1      -1.534  96.026 118.293  0.00  0.00    -0.090 HD
ATOM     20  H   LIG d   1      -2.930  95.409 117.736  0.00  0.00    -0.090 HD
ATOM     21  H   LIG d   1      -1.911  96.179 116.710  0.00  0.00    -0.090 HD
ENDBRANCH   5  18
BRANCH   3  22
ATOM     22  C   LIG d   1       2.150  93.153 117.762  0.00  0.00     0.382 C 
ATOM     23  O   LIG d   1       2.752  92.892 116.693  0.00  0.00    -0.241 OA
ATOM     24  O   LIG d   1       2.807  93.397 118.792  0.00  0.00    -0.241 OA
ENDBRANCH   3  22
TORSDOF 7
ENDMDL
MODEL 9
REMARK VINA RESULT:      -4.6     14.221     16.775
REMARK  7 active torsions:
REMARK  status: ('A' for Active; 'I' for Inactive)
REMARK    1  A    between atoms: C_2  and  C_3 
REMARK    2  A    between atoms: C_3  and  O_6 
REMARK    3  A    between atoms: C_3  and  C_4 
REMARK    4  A    between atoms: C_7  and  O_6 
REMARK    5  A    between atoms: C_9  and  C_10 
REMARK    6  A    between atoms: N_15  and  C_14 
REMARK    7  A    between atoms: N_20  and  C_19 
REMARK       I    between atoms: C_22  and  N_20 
ROOT
ATOM      1  C   LIG d   1      -2.424  90.509 117.579  0.00  0.00     0.161 C 
ATOM      2  C   LIG d   1      -3.531  90.177 116.780  0.00  0.00     0.016 C 
ATOM      3  C   LIG d   1      -4.581  91.079 116.492  0.00  0.00     0.038 C 
ATOM      4  C   LIG d   1      -4.521  92.431 116.864  0.00  0.00     0.028 C 
ATOM      5  C   LIG d   1      -3.665  92.681 118.101  0.00  0.00    -0.047 C 
ATOM      6  C   LIG d   1      -2.286  92.012 117.901  0.00  0.00     0.091 C 
ENDROOT
BRANCH   1   7
ATOM      7  O   LIG d   1      -1.215  90.014 116.971  0.00  0.00    -0.368 OA
BRANCH   7   8
ATOM      8  C   LIG d   1      -0.949  88.600 117.141  0.00  0.00     0.119 C 
BRANCH   8   9
ATOM      9  C   LIG d   1      -0.734  88.347 118.645  0.00  0.00     0.028 C 
ATOM     10  C   LIG d   1      -1.603  87.194 119.177  0.00  0.00     0.006 C 
ENDBRANCH   8   9
BRANCH   8  11
ATOM     11  C   LIG d   1       0.367  88.196 116.470  0.00  0.00     0.028 C 
ATOM     12  C   LIG d   1       1.579  88.332 117.405  0.00  0.00     0.006 C 
ENDBRANCH   8  11
ENDBRANCH   7   8
ENDBRANCH   1   7
BRANCH   6  13
ATOM     13  N   LIG d   1      -1.416  92.137 119.100  0.00  0.00    -0.311 N 
ATOM     14  C   LIG d   1      -0.516  93.105 119.255  0.00  0.00     0.210 C 
ATOM     15  C   LIG d   1       0.290  93.038 120.556  0.00  0.00     0.109 C 
ATOM     16  O   LIG d   1      -0.329  94.033 118.452  0.00  0.00    -0.276 OA
ATOM     17  H   LIG d   1      -1.523  91.444 119.815  0.00  0.00     0.149 HD
ENDBRANCH   6  13
BRANCH   5  18
ATOM     18  N   LIG d   1      -3.577  94.141 118.294  0.00  0.00     0.381 N 
ATOM     19  H   LIG d   1      -4.496  94.532 118.344  0.00  0.00    -0.090 HD
ATOM     20  H   LIG d   1      -3.105  94.545 117.504  0.00  0.00    -0.090 HD
ATOM     21  H   LIG d   1      -3.075  94.345 119.130  0.00  0.00    -0.090 HD
ENDBRANCH   5  18
BRANCH   3  22
ATOM     22  C   LIG d   1      -5.727  90.621 115.860  0.00  0.00     0.382 C 
ATOM     23  O   LIG d   1      -6.801  91.260 115.967  0.00  0.00    -0.241 OA
ATOM     24  O   LIG d   1      -5.710  89.552 115.220  0.00  0.00    -0.241 OA
ENDBRANCH   3  22
TORSDOF 7
ENDMDL
