MODEL 1
REMARK VINA RESULT:      -6.1      0.000      0.000
REMARK  7 active torsions:
REMARK  status: ('A' for Active; 'I' for Inactive)
REMARK    1  A    between atoms: C_2  and  C_3 
REMARK    2  A    between atoms: C_3  and  O_6 
REMARK    3  A    between atoms: C_3  and  C_4 
REMARK    4  A    between atoms: C_7  and  O_6 
REMARK    5  A    between atoms: C_9  and  C_10 
REMARK    6  A    between atoms: N_15  and  C_14 
REMARK    7  A    between atoms: N_20  and  C_19 
REMARK       I    between atoms: C_22  and  N_20 
ROOT
ATOM      1  C   LIG d   1      -6.032  93.037 117.520  0.00  0.00     0.161 C 
ATOM      2  C   LIG d   1      -7.365  92.870 117.109  0.00  0.00     0.016 C 
ATOM      3  C   LIG d   1      -7.820  91.745 116.382  0.00  0.00     0.038 C 
ATOM      4  C   LIG d   1      -6.998  90.633 116.147  0.00  0.00     0.028 C 
ATOM      5  C   LIG d   1      -5.513  90.975 116.103  0.00  0.00    -0.047 C 
ATOM      6  C   LIG d   1      -5.146  91.783 117.369  0.00  0.00     0.091 C 
ENDROOT
BRANCH   1   7
ATOM      7  O   LIG d   1      -5.996  93.515 118.879  0.00  0.00    -0.368 OA
BRANCH   7   8
ATOM      8  C   LIG d   1      -7.271  93.894 119.455  0.00  0.00     0.119 C 
BRANCH   8   9
ATOM      9  C   LIG d   1      -7.176  95.380 119.852  0.00  0.00     0.028 C 
ATOM     10  C   LIG d   1      -7.185  96.315 118.631  0.00  0.00     0.006 C 
ENDBRANCH   8   9
BRANCH   8  11
ATOM     11  C   LIG d   1      -7.537  93.141 120.762  0.00  0.00     0.028 C 
ATOM     12  C   LIG d   1      -6.376  92.219 121.166  0.00  0.00     0.006 C 
ENDBRANCH   8  11
ENDBRANCH   7   8
ENDBRANCH   1   7
BRANCH   6  13
ATOM     13  N   LIG d   1      -3.729  92.230 117.365  0.00  0.00    -0.311 N 
ATOM     14  C   LIG d   1      -2.881  91.986 118.362  0.00  0.00     0.210 C 
ATOM     15  C   LIG d   1      -1.471  92.554 118.166  0.00  0.00     0.109 C 
ATOM     16  O   LIG d   1      -3.152  91.325 119.376  0.00  0.00    -0.276 OA
ATOM     17  H   LIG d   1      -3.416  92.746 116.567  0.00  0.00     0.149 HD
ENDBRANCH   6  13
BRANCH   5  18
ATOM     18  N   LIG d   1      -4.767  89.708 115.990  0.00  0.00     0.381 N 
ATOM     19  H   LIG d   1      -5.276  89.064 115.417  0.00  0.00    -0.090 HD
ATOM     20  H   LIG d   1      -4.668  89.305 116.905  0.00  0.00    -0.090 HD
ATOM     21  H   LIG d   1      -3.868  89.875 115.594  0.00  0.00    -0.090 HD
ENDBRANCH   5  18
BRANCH   3  22
ATOM     22  C   LIG d   1      -9.099  91.744 115.848  0.00  0.00     0.382 C 
ATOM     23  O   LIG d   1      -9.532  90.724 115.259  0.00  0.00    -0.241 OA
ATOM     24  O   LIG d   1      -9.810  92.765 115.908  0.00  0.00    -0.241 OA
ENDBRANCH   3  22
TORSDOF 7
ENDMDL
MODEL 2
REMARK VINA RESULT:      -5.6      1.798      2.647
REMARK  7 active torsions:
REMARK  status: ('A' for Active; 'I' for Inactive)
REMARK    1  A    between atoms: C_2  and  C_3 
REMARK    2  A    between atoms: C_3  and  O_6 
REMARK    3  A    between atoms: C_3  and  C_4 
REMARK    4  A    between atoms: C_7  and  O_6 
REMARK    5  A    between atoms: C_9  and  C_10 
REMARK    6  A    between atoms: N_15  and  C_14 
REMARK    7  A    between atoms: N_20  and  C_19 
REMARK       I    between atoms: C_22  and  N_20 
ROOT
ATOM      1  C   LIG d   1      -5.405  91.780 117.929  0.00  0.00     0.161 C 
ATOM      2  C   LIG d   1      -6.714  92.237 117.704  0.00  0.00     0.016 C 
ATOM      3  C   LIG d   1      -7.509  91.814 116.614  0.00  0.00     0.038 C 
ATOM      4  C   LIG d   1      -7.101  90.784 115.753  0.00  0.00     0.028 C 
ATOM      5  C   LIG d   1      -5.585  90.653 115.643  0.00  0.00    -0.047 C 
ATOM      6  C   LIG d   1      -4.983  90.574 117.064  0.00  0.00     0.091 C 
ENDROOT
BRANCH   1   7
ATOM      7  O   LIG d   1      -5.225  91.481 119.327  0.00  0.00    -0.368 OA
BRANCH   7   8
ATOM      8  C   LIG d   1      -4.273  92.310 120.039  0.00  0.00     0.119 C 
BRANCH   8   9
ATOM      9  C   LIG d   1      -5.016  92.956 121.224  0.00  0.00     0.028 C 
ATOM     10  C   LIG d   1      -6.359  92.267 121.521  0.00  0.00     0.006 C 
ENDBRANCH   8   9
BRANCH   8  11
ATOM     11  C   LIG d   1      -3.796  93.479 119.173  0.00  0.00     0.028 C 
ATOM     12  C   LIG d   1      -2.281  93.449 118.913  0.00  0.00     0.006 C 
ENDBRANCH   8  11
ENDBRANCH   7   8
ENDBRANCH   1   7
BRANCH   6  13
ATOM     13  N   LIG d   1      -3.498  90.528 117.049  0.00  0.00    -0.311 N 
ATOM     14  C   LIG d   1      -2.786  89.607 117.695  0.00  0.00     0.210 C 
ATOM     15  C   LIG d   1      -1.267  89.754 117.564  0.00  0.00     0.109 C 
ATOM     16  O   LIG d   1      -3.268  88.662 118.338  0.00  0.00    -0.276 OA
ATOM     17  H   LIG d   1      -3.025  91.239 116.526  0.00  0.00     0.149 HD
ENDBRANCH   6  13
BRANCH   5  18
ATOM     18  N   LIG d   1      -5.300  89.458 114.826  0.00  0.00     0.381 N 
ATOM     19  H   LIG d   1      -5.035  88.698 115.420  0.00  0.00    -0.090 HD
ATOM     20  H   LIG d   1      -4.532  89.661 114.211  0.00  0.00    -0.090 HD
ATOM     21  H   LIG d   1      -6.104  89.209 114.294  0.00  0.00    -0.090 HD
ENDBRANCH   5  18
BRANCH   3  22
ATOM     22  C   LIG d   1      -8.712  92.452 116.352  0.00  0.00     0.382 C 
ATOM     23  O   LIG d   1      -9.006  93.510 116.960  0.00  0.00    -0.241 OA
ATOM     24  O   LIG d   1      -9.527  91.959 115.550  0.00  0.00    -0.241 OA
ENDBRANCH   3  22
TORSDOF 7
ENDMDL
MODEL 3
REMARK VINA RESULT:      -5.4      2.557      4.266
REMARK  7 active torsions:
REMARK  status: ('A' for Active; 'I' for Inactive)
REMARK    1  A    between atoms: C_2  and  C_3 
REMARK    2  A    between atoms: C_3  and  O_6 
REMARK    3  A    between atoms: C_3  and  C_4 
REMARK    4  A    between atoms: C_7  and  O_6 
REMARK    5  A    between atoms: C_9  and  C_10 
REMARK    6  A    between atoms: N_15  and  C_14 
REMARK    7  A    between atoms: N_20  and  C_19 
REMARK       I    between atoms: C_22  and  N_20 
ROOT
ATOM      1  C   LIG d   1      -6.058  92.497 118.257  0.00  0.00     0.161 C 
ATOM      2  C   LIG d   1      -5.659  91.429 117.436  0.00  0.00     0.016 C 
ATOM      3  C   LIG d   1      -6.413  90.976 116.329  0.00  0.00     0.038 C 
ATOM      4  C   LIG d   1      -7.550  91.661 115.875  0.00  0.00     0.028 C 
ATOM      5  C   LIG d   1      -8.266  92.439 116.974  0.00  0.00    -0.047 C 
ATOM      6  C   LIG d   1      -7.238  93.327 117.712  0.00  0.00     0.091 C 
ENDROOT
BRANCH   1   7
ATOM      7  O   LIG d   1      -4.929  93.351 118.531  0.00  0.00    -0.368 OA
BRANCH   7   8
ATOM      8  C   LIG d   1      -4.284  93.162 119.815  0.00  0.00     0.119 C 
BRANCH   8   9
ATOM      9  C   LIG d   1      -4.514  94.443 120.640  0.00  0.00     0.028 C 
ATOM     10  C   LIG d   1      -4.158  95.718 119.857  0.00  0.00     0.006 C 
ENDBRANCH   8   9
BRANCH   8  11
ATOM     11  C   LIG d   1      -2.765  93.045 119.663  0.00  0.00     0.028 C 
ATOM     12  C   LIG d   1      -2.313  93.022 118.194  0.00  0.00     0.006 C 
ENDBRANCH   8  11
ENDBRANCH   7   8
ENDBRANCH   1   7
BRANCH   6  13
ATOM     13  N   LIG d   1      -7.840  94.059 118.856  0.00  0.00    -0.311 N 
ATOM     14  C   LIG d   1      -7.772  95.382 118.998  0.00  0.00     0.210 C 
ATOM     15  C   LIG d   1      -8.442  95.932 120.261  0.00  0.00     0.109 C 
ATOM     16  O   LIG d   1      -7.247  96.154 118.182  0.00  0.00    -0.276 OA
ATOM     17  H   LIG d   1      -8.312  93.513 119.550  0.00  0.00     0.149 HD
ENDBRANCH   6  13
BRANCH   5  18
ATOM     18  N   LIG d   1      -9.348  93.214 116.337  0.00  0.00     0.381 N 
ATOM     19  H   LIG d   1      -9.210  93.238 115.347  0.00  0.00    -0.090 HD
ATOM     20  H   LIG d   1      -9.319  94.157 116.683  0.00  0.00    -0.090 HD
ATOM     21  H   LIG d   1     -10.231  92.803 116.547  0.00  0.00    -0.090 HD
ENDBRANCH   5  18
BRANCH   3  22
ATOM     22  C   LIG d   1      -6.052  89.800 115.688  0.00  0.00     0.382 C 
ATOM     23  O   LIG d   1      -6.800  89.313 114.806  0.00  0.00    -0.241 OA
ATOM     24  O   LIG d   1      -5.011  89.198 116.011  0.00  0.00    -0.241 OA
ENDBRANCH   3  22
TORSDOF 7
ENDMDL
MODEL 4
REMARK VINA RESULT:      -5.3      2.269      5.260
REMARK  7 active torsions:
REMARK  status: ('A' for Active; 'I' for Inactive)
REMARK    1  A    between atoms: C_2  and  C_3 
REMARK    2  A    between atoms: C_3  and  O_6 
REMARK    3  A    between atoms: C_3  and  C_4 
REMARK    4  A    between atoms: C_7  and  O_6 
REMARK    5  A    between atoms: C_9  and  C_10 
REMARK    6  A    between atoms: N_15  and  C_14 
REMARK    7  A    between atoms: N_20  and  C_19 
REMARK       I    between atoms: C_22  and  N_20 
ROOT
ATOM      1  C   LIG d   1      -5.434  91.869 117.223  0.00  0.00     0.161 C 
ATOM      2  C   LIG d   1      -4.607  90.735 117.162  0.00  0.00     0.016 C 
ATOM      3  C   LIG d   1      -3.532  90.507 118.051  0.00  0.00     0.038 C 
ATOM      4  C   LIG d   1      -3.303  91.330 119.164  0.00  0.00     0.028 C 
ATOM      5  C   LIG d   1      -3.799  92.759 118.973  0.00  0.00    -0.047 C 
ATOM      6  C   LIG d   1      -5.270  92.721 118.499  0.00  0.00     0.091 C 
ENDROOT
BRANCH   1   7
ATOM      7  O   LIG d   1      -6.812  91.478 117.056  0.00  0.00    -0.368 OA
BRANCH   7   8
ATOM      8  C   LIG d   1      -7.297  91.420 115.692  0.00  0.00     0.119 C 
BRANCH   8   9
ATOM      9  C   LIG d   1      -8.687  92.083 115.666  0.00  0.00     0.028 C 
ATOM     10  C   LIG d   1      -8.874  93.100 116.805  0.00  0.00     0.006 C 
ENDBRANCH   8   9
BRANCH   8  11
ATOM     11  C   LIG d   1      -7.529  89.974 115.244  0.00  0.00     0.028 C 
ATOM     12  C   LIG d   1      -8.569  89.243 116.108  0.00  0.00     0.006 C 
ENDBRANCH   8  11
ENDBRANCH   7   8
ENDBRANCH   1   7
BRANCH   6  13
ATOM     13  N   LIG d   1      -5.807  94.076 118.207  0.00  0.00    -0.311 N 
ATOM     14  C   LIG d   1      -6.476  94.807 119.097  0.00  0.00     0.210 C 
ATOM     15  C   LIG d   1      -6.959  96.167 118.584  0.00  0.00     0.109 C 
ATOM     16  O   LIG d   1      -6.686  94.471 120.272  0.00  0.00    -0.276 OA
ATOM     17  H   LIG d   1      -5.654  94.438 117.286  0.00  0.00     0.149 HD
ENDBRANCH   6  13
BRANCH   5  18
ATOM     18  N   LIG d   1      -3.623  93.467 120.255  0.00  0.00     0.381 N 
ATOM     19  H   LIG d   1      -2.718  93.893 120.285  0.00  0.00    -0.090 HD
ATOM     20  H   LIG d   1      -3.684  92.802 121.005  0.00  0.00    -0.090 HD
ATOM     21  H   LIG d   1      -4.328  94.163 120.360  0.00  0.00    -0.090 HD
ENDBRANCH   5  18
BRANCH   3  22
ATOM     22  C   LIG d   1      -2.646  89.468 117.807  0.00  0.00     0.382 C 
ATOM     23  O   LIG d   1      -1.483  89.717 117.406  0.00  0.00    -0.241 OA
ATOM     24  O   LIG d   1      -3.010  88.284 117.940  0.00  0.00    -0.241 OA
ENDBRANCH   3  22
TORSDOF 7
ENDMDL
MODEL 5
REMARK VINA RESULT:      -5.3     14.842     16.806
REMARK  7 active torsions:
REMARK  status: ('A' for Active; 'I' for Inactive)
REMARK    1  A    between atoms: C_2  and  C_3 
REMARK    2  A    between atoms: C_3  and  O_6 
REMARK    3  A    between atoms: C_3  and  C_4 
REMARK    4  A    between atoms: C_7  and  O_6 
REMARK    5  A    between atoms: C_9  and  C_10 
REMARK    6  A    between atoms: N_15  and  C_14 
REMARK    7  A    between atoms: N_20  and  C_19 
REMARK       I    between atoms: C_22  and  N_20 
ROOT
ATOM      1  C   LIG d   1      -6.748  76.597 117.372  0.00  0.00     0.161 C 
ATOM      2  C   LIG d   1      -7.442  77.601 118.067  0.00  0.00     0.016 C 
ATOM      3  C   LIG d   1      -8.823  77.532 118.361  0.00  0.00     0.038 C 
ATOM      4  C   LIG d   1      -9.578  76.376 118.110  0.00  0.00     0.028 C 
ATOM      5  C   LIG d   1      -9.036  75.538 116.957  0.00  0.00    -0.047 C 
ATOM      6  C   LIG d   1      -7.530  75.279 117.188  0.00  0.00     0.091 C 
ENDROOT
BRANCH   1   7
ATOM      7  O   LIG d   1      -5.483  76.343 118.015  0.00  0.00    -0.368 OA
BRANCH   7   8
ATOM      8  C   LIG d   1      -4.327  76.984 117.422  0.00  0.00     0.119 C 
BRANCH   8   9
ATOM      9  C   LIG d   1      -3.649  75.954 116.498  0.00  0.00     0.028 C 
ATOM     10  C   LIG d   1      -3.891  76.253 115.009  0.00  0.00     0.006 C 
ENDBRANCH   8   9
BRANCH   8  11
ATOM     11  C   LIG d   1      -3.277  77.331 118.482  0.00  0.00     0.028 C 
ATOM     12  C   LIG d   1      -3.834  78.222 119.603  0.00  0.00     0.006 C 
ENDBRANCH   8  11
ENDBRANCH   7   8
ENDBRANCH   1   7
BRANCH   6  13
ATOM     13  N   LIG d   1      -6.902  74.538 116.064  0.00  0.00    -0.311 N 
ATOM     14  C   LIG d   1      -6.749  73.215 116.053  0.00  0.00     0.210 C 
ATOM     15  C   LIG d   1      -6.060  72.654 114.805  0.00  0.00     0.109 C 
ATOM     16  O   LIG d   1      -7.147  72.449 116.944  0.00  0.00    -0.276 OA
ATOM     17  H   LIG d   1      -6.579  75.078 115.285  0.00  0.00     0.149 HD
ENDBRANCH   6  13
BRANCH   5  18
ATOM     18  N   LIG d   1      -9.833  74.298 116.894  0.00  0.00     0.381 N 
ATOM     19  H   LIG d   1      -9.396  73.646 116.274  0.00  0.00    -0.090 HD
ATOM     20  H   LIG d   1     -10.745  74.516 116.532  0.00  0.00    -0.090 HD
ATOM     21  H   LIG d   1      -9.915  73.899 117.803  0.00  0.00    -0.090 HD
ENDBRANCH   5  18
BRANCH   3  22
ATOM     22  C   LIG d   1      -9.473  78.643 118.877  0.00  0.00     0.382 C 
ATOM     23  O   LIG d   1     -10.701  78.802 118.674  0.00  0.00    -0.241 OA
ATOM     24  O   LIG d   1      -8.838  79.512 119.504  0.00  0.00    -0.241 OA
ENDBRANCH   3  22
TORSDOF 7
ENDMDL
MODEL 6
REMARK VINA RESULT:      -5.2      2.398      4.793
REMARK  7 active torsions:
REMARK  status: ('A' for Active; 'I' for Inactive)
REMARK    1  A    between atoms: C_2  and  C_3 
REMARK    2  A    between atoms: C_3  and  O_6 
REMARK    3  A    between atoms: C_3  and  C_4 
REMARK    4  A    between atoms: C_7  and  O_6 
REMARK    5  A    between atoms: C_9  and  C_10 
REMARK    6  A    between atoms: N_15  and  C_14 
REMARK    7  A    between atoms: N_20  and  C_19 
REMARK       I    between atoms: C_22  and  N_20 
ROOT
ATOM      1  C   LIG d   1      -5.581  92.460 118.688  0.00  0.00     0.161 C 
ATOM      2  C   LIG d   1      -5.467  91.312 117.886  0.00  0.00     0.016 C 
ATOM      3  C   LIG d   1      -6.383  90.985 116.860  0.00  0.00     0.038 C 
ATOM      4  C   LIG d   1      -7.398  91.868 116.464  0.00  0.00     0.028 C 
ATOM      5  C   LIG d   1      -7.857  92.803 117.578  0.00  0.00    -0.047 C 
ATOM      6  C   LIG d   1      -6.619  93.491 118.196  0.00  0.00     0.091 C 
ENDROOT
BRANCH   1   7
ATOM      7  O   LIG d   1      -4.289  93.082 118.838  0.00  0.00    -0.368 OA
BRANCH   7   8
ATOM      8  C   LIG d   1      -3.141  92.227 118.618  0.00  0.00     0.119 C 
BRANCH   8   9
ATOM      9  C   LIG d   1      -2.600  91.813 120.000  0.00  0.00     0.028 C 
ATOM     10  C   LIG d   1      -2.391  90.294 120.118  0.00  0.00     0.006 C 
ENDBRANCH   8   9
BRANCH   8  11
ATOM     11  C   LIG d   1      -1.996  92.992 117.947  0.00  0.00     0.028 C 
ATOM     12  C   LIG d   1      -1.822  94.413 118.506  0.00  0.00     0.006 C 
ENDBRANCH   8  11
ENDBRANCH   7   8
ENDBRANCH   1   7
BRANCH   6  13
ATOM     13  N   LIG d   1      -6.970  94.359 119.350  0.00  0.00    -0.311 N 
ATOM     14  C   LIG d   1      -7.224  95.662 119.236  0.00  0.00     0.210 C 
ATOM     15  C   LIG d   1      -7.546  96.375 120.553  0.00  0.00     0.109 C 
ATOM     16  O   LIG d   1      -7.243  96.288 118.166  0.00  0.00    -0.276 OA
ATOM     17  H   LIG d   1      -7.008  93.927 120.252  0.00  0.00     0.149 HD
ENDBRANCH   6  13
BRANCH   5  18
ATOM     18  N   LIG d   1      -8.816  93.757 116.991  0.00  0.00     0.381 N 
ATOM     19  H   LIG d   1      -8.332  94.409 116.407  0.00  0.00    -0.090 HD
ATOM     20  H   LIG d   1      -9.260  94.269 117.733  0.00  0.00    -0.090 HD
ATOM     21  H   LIG d   1      -9.502  93.268 116.459  0.00  0.00    -0.090 HD
ENDBRANCH   5  18
BRANCH   3  22
ATOM     22  C   LIG d   1      -6.312  89.744 116.246  0.00  0.00     0.382 C 
ATOM     23  O   LIG d   1      -7.352  89.058 116.096  0.00  0.00    -0.241 OA
ATOM     24  O   LIG d   1      -5.215  89.282 115.879  0.00  0.00    -0.241 OA
ENDBRANCH   3  22
TORSDOF 7
ENDMDL
MODEL 7
REMARK VINA RESULT:      -5.2     14.946     16.521
REMARK  7 active torsions:
REMARK  status: ('A' for Active; 'I' for Inactive)
REMARK    1  A    between atoms: C_2  and  C_3 
REMARK    2  A    between atoms: C_3  and  O_6 
REMARK    3  A    between atoms: C_3  and  C_4 
REMARK    4  A    between atoms: C_7  and  O_6 
REMARK    5  A    between atoms: C_9  and  C_10 
REMARK    6  A    between atoms: N_15  and  C_14 
REMARK    7  A    between atoms: N_20  and  C_19 
REMARK       I    between atoms: C_22  and  N_20 
ROOT
ATOM      1  C   LIG d   1      -6.667  76.663 116.620  0.00  0.00     0.161 C 
ATOM      2  C   LIG d   1      -7.952  76.178 116.919  0.00  0.00     0.016 C 
ATOM      3  C   LIG d   1      -8.344  74.835 116.713  0.00  0.00     0.038 C 
ATOM      4  C   LIG d   1      -7.426  73.845 116.334  0.00  0.00     0.028 C 
ATOM      5  C   LIG d   1      -6.243  74.387 115.538  0.00  0.00    -0.047 C 
ATOM      6  C   LIG d   1      -5.620  75.573 116.311  0.00  0.00     0.091 C 
ENDROOT
BRANCH   1   7
ATOM      7  O   LIG d   1      -6.205  77.512 117.689  0.00  0.00    -0.368 OA
BRANCH   7   8
ATOM      8  C   LIG d   1      -7.166  77.802 118.734  0.00  0.00     0.119 C 
BRANCH   8   9
ATOM      9  C   LIG d   1      -7.607  79.269 118.564  0.00  0.00     0.028 C 
ATOM     10  C   LIG d   1      -9.136  79.429 118.585  0.00  0.00     0.006 C 
ENDBRANCH   8   9
BRANCH   8  11
ATOM     11  C   LIG d   1      -6.521  77.730 120.121  0.00  0.00     0.028 C 
ATOM     12  C   LIG d   1      -7.290  76.819 121.090  0.00  0.00     0.006 C 
ENDBRANCH   8  11
ENDBRANCH   7   8
ENDBRANCH   1   7
BRANCH   6  13
ATOM     13  N   LIG d   1      -4.509  76.216 115.562  0.00  0.00    -0.311 N 
ATOM     14  C   LIG d   1      -3.242  75.815 115.644  0.00  0.00     0.210 C 
ATOM     15  C   LIG d   1      -2.251  76.628 114.805  0.00  0.00     0.109 C 
ATOM     16  O   LIG d   1      -2.849  74.843 116.306  0.00  0.00    -0.276 OA
ATOM     17  H   LIG d   1      -4.744  76.993 114.976  0.00  0.00     0.149 HD
ENDBRANCH   6  13
BRANCH   5  18
ATOM     18  N   LIG d   1      -5.299  73.274 115.328  0.00  0.00     0.381 N 
ATOM     19  H   LIG d   1      -4.910  72.989 116.205  0.00  0.00    -0.090 HD
ATOM     20  H   LIG d   1      -4.549  73.590 114.739  0.00  0.00    -0.090 HD
ATOM     21  H   LIG d   1      -5.767  72.506 114.900  0.00  0.00    -0.090 HD
ENDBRANCH   5  18
BRANCH   3  22
ATOM     22  C   LIG d   1      -9.677  74.480 116.849  0.00  0.00     0.382 C 
ATOM     23  O   LIG d   1     -10.028  73.287 116.685  0.00  0.00    -0.241 OA
ATOM     24  O   LIG d   1     -10.540  75.346 117.089  0.00  0.00    -0.241 OA
ENDBRANCH   3  22
TORSDOF 7
ENDMDL
MODEL 8
REMARK VINA RESULT:      -5.1      2.380      4.322
REMARK  7 active torsions:
REMARK  status: ('A' for Active; 'I' for Inactive)
REMARK    1  A    between atoms: C_2  and  C_3 
REMARK    2  A    between atoms: C_3  and  O_6 
REMARK    3  A    between atoms: C_3  and  C_4 
REMARK    4  A    between atoms: C_7  and  O_6 
REMARK    5  A    between atoms: C_9  and  C_10 
REMARK    6  A    between atoms: N_15  and  C_14 
REMARK    7  A    between atoms: N_20  and  C_19 
REMARK       I    between atoms: C_22  and  N_20 
ROOT
ATOM      1  C   LIG d   1      -5.020  91.159 118.094  0.00  0.00     0.161 C 
ATOM      2  C   LIG d   1      -5.923  90.549 117.208  0.00  0.00     0.016 C 
ATOM      3  C   LIG d   1      -6.996  91.236 116.595  0.00  0.00     0.038 C 
ATOM      4  C   LIG d   1      -7.149  92.626 116.710  0.00  0.00     0.028 C 
ATOM      5  C   LIG d   1      -6.561  93.195 117.996  0.00  0.00    -0.047 C 
ATOM      6  C   LIG d   1      -5.105  92.699 118.145  0.00  0.00     0.091 C 
ENDROOT
BRANCH   1   7
ATOM      7  O   LIG d   1      -3.676  90.740 117.787  0.00  0.00    -0.368 OA
BRANCH   7   8
ATOM      8  C   LIG d   1      -3.148  89.652 118.585  0.00  0.00     0.119 C 
BRANCH   8   9
ATOM      9  C   LIG d   1      -2.056  90.237 119.501  0.00  0.00     0.028 C 
ATOM     10  C   LIG d   1      -2.502  90.316 120.971  0.00  0.00     0.006 C 
ENDBRANCH   8   9
BRANCH   8  11
ATOM     11  C   LIG d   1      -2.434  88.616 117.712  0.00  0.00     0.028 C 
ATOM     12  C   LIG d   1      -2.021  87.360 118.496  0.00  0.00     0.006 C 
ENDBRANCH   8  11
ENDBRANCH   7   8
ENDBRANCH   1   7
BRANCH   6  13
ATOM     13  N   LIG d   1      -4.482  93.141 119.420  0.00  0.00    -0.311 N 
ATOM     14  C   LIG d   1      -3.277  93.703 119.491  0.00  0.00     0.210 C 
ATOM     15  C   LIG d   1      -2.815  94.067 120.906  0.00  0.00     0.109 C 
ATOM     16  O   LIG d   1      -2.559  93.964 118.514  0.00  0.00    -0.276 OA
ATOM     17  H   LIG d   1      -5.009  92.996 120.259  0.00  0.00     0.149 HD
ENDBRANCH   6  13
BRANCH   5  18
ATOM     18  N   LIG d   1      -6.666  94.665 117.922  0.00  0.00     0.381 N 
ATOM     19  H   LIG d   1      -6.450  94.973 116.995  0.00  0.00    -0.090 HD
ATOM     20  H   LIG d   1      -5.998  95.071 118.554  0.00  0.00    -0.090 HD
ATOM     21  H   LIG d   1      -7.587  94.953 118.170  0.00  0.00    -0.090 HD
ENDBRANCH   5  18
BRANCH   3  22
ATOM     22  C   LIG d   1      -7.954  90.524 115.888  0.00  0.00     0.382 C 
ATOM     23  O   LIG d   1      -7.693  89.373 115.464  0.00  0.00    -0.241 OA
ATOM     24  O   LIG d   1      -9.060  91.036 115.632  0.00  0.00    -0.241 OA
ENDBRANCH   3  22
TORSDOF 7
ENDMDL
MODEL 9
REMARK VINA RESULT:      -4.8      2.874      4.919
REMARK  7 active torsions:
REMARK  status: ('A' for Active; 'I' for Inactive)
REMARK    1  A    between atoms: C_2  and  C_3 
REMARK    2  A    between atoms: C_3  and  O_6 
REMARK    3  A    between atoms: C_3  and  C_4 
REMARK    4  A    between atoms: C_7  and  O_6 
REMARK    5  A    between atoms: C_9  and  C_10 
REMARK    6  A    between atoms: N_15  and  C_14 
REMARK    7  A    between atoms: N_20  and  C_19 
REMARK       I    between atoms: C_22  and  N_20 
ROOT
ATOM      1  C   LIG d   1      -3.495  91.240 118.215  0.00  0.00     0.161 C 
ATOM      2  C   LIG d   1      -4.075  90.360 117.286  0.00  0.00     0.016 C 
ATOM      3  C   LIG d   1      -5.273  90.642 116.591  0.00  0.00     0.038 C 
ATOM      4  C   LIG d   1      -5.897  91.897 116.666  0.00  0.00     0.028 C 
ATOM      5  C   LIG d   1      -5.626  92.630 117.974  0.00  0.00    -0.047 C 
ATOM      6  C   LIG d   1      -4.101  92.659 118.227  0.00  0.00     0.091 C 
ENDROOT
BRANCH   1   7
ATOM      7  O   LIG d   1      -2.071  91.305 118.004  0.00  0.00    -0.368 OA
BRANCH   7   8
ATOM      8  C   LIG d   1      -1.245  90.735 119.049  0.00  0.00     0.119 C 
BRANCH   8   9
ATOM      9  C   LIG d   1      -0.506  89.524 118.446  0.00  0.00     0.028 C 
ATOM     10  C   LIG d   1      -0.033  89.783 117.006  0.00  0.00     0.006 C 
ENDBRANCH   8   9
BRANCH   8  11
ATOM     11  C   LIG d   1      -2.098  90.165 120.185  0.00  0.00     0.028 C 
ATOM     12  C   LIG d   1      -1.786  88.690 120.483  0.00  0.00     0.006 C 
ENDBRANCH   8  11
ENDBRANCH   7   8
ENDBRANCH   1   7
BRANCH   6  13
ATOM     13  N   LIG d   1      -3.754  93.286 119.529  0.00  0.00    -0.311 N 
ATOM     14  C   LIG d   1      -2.831  94.237 119.663  0.00  0.00     0.210 C 
ATOM     15  C   LIG d   1      -2.615  94.731 121.097  0.00  0.00     0.109 C 
ATOM     16  O   LIG d   1      -2.194  94.740 118.726  0.00  0.00    -0.276 OA
ATOM     17  H   LIG d   1      -4.245  92.958 120.338  0.00  0.00     0.149 HD
ENDBRANCH   6  13
BRANCH   5  18
ATOM     18  N   LIG d   1      -6.219  93.976 117.862  0.00  0.00     0.381 N 
ATOM     19  H   LIG d   1      -5.577  94.592 117.403  0.00  0.00    -0.090 HD
ATOM     20  H   LIG d   1      -6.393  94.333 118.785  0.00  0.00    -0.090 HD
ATOM     21  H   LIG d   1      -7.071  93.931 117.349  0.00  0.00    -0.090 HD
ENDBRANCH   5  18
BRANCH   3  22
ATOM     22  C   LIG d   1      -5.882  89.648 115.840  0.00  0.00     0.382 C 
ATOM     23  O   LIG d   1      -5.321  89.211 114.806  0.00  0.00    -0.241 OA
ATOM     24  O   LIG d   1      -7.005  89.214 116.158  0.00  0.00    -0.241 OA
ENDBRANCH   3  22
TORSDOF 7
ENDMDL
