MODEL 1
REMARK VINA RESULT:      -5.2      0.000      0.000
REMARK  7 active torsions:
REMARK  status: ('A' for Active; 'I' for Inactive)
REMARK    1  A    between atoms: C_2  and  C_3 
REMARK    2  A    between atoms: C_3  and  O_6 
REMARK    3  A    between atoms: C_3  and  C_4 
REMARK    4  A    between atoms: C_7  and  O_6 
REMARK    5  A    between atoms: C_9  and  C_10 
REMARK    6  A    between atoms: N_15  and  C_14 
REMARK    7  A    between atoms: N_20  and  C_19 
REMARK       I    between atoms: C_22  and  N_20 
ROOT
ATOM      1  C   LIG d   1      -5.587  92.885 117.408  0.00  0.00     0.161 C 
ATOM      2  C   LIG d   1      -6.648  92.011 117.118  0.00  0.00     0.016 C 
ATOM      3  C   LIG d   1      -6.464  90.655 116.763  0.00  0.00     0.038 C 
ATOM      4  C   LIG d   1      -5.205  90.037 116.822  0.00  0.00     0.028 C 
ATOM      5  C   LIG d   1      -4.045  91.006 116.620  0.00  0.00    -0.047 C 
ATOM      6  C   LIG d   1      -4.215  92.201 117.586  0.00  0.00     0.091 C 
ENDROOT
BRANCH   1   7
ATOM      7  O   LIG d   1      -5.908  93.673 118.572  0.00  0.00    -0.368 OA
BRANCH   7   8
ATOM      8  C   LIG d   1      -5.494  93.125 119.847  0.00  0.00     0.119 C 
BRANCH   8   9
ATOM      9  C   LIG d   1      -6.770  92.822 120.657  0.00  0.00     0.028 C 
ATOM     10  C   LIG d   1      -7.833  93.924 120.511  0.00  0.00     0.006 C 
ENDBRANCH   8   9
BRANCH   8  11
ATOM     11  C   LIG d   1      -4.725  94.159 120.675  0.00  0.00     0.028 C 
ATOM     12  C   LIG d   1      -4.493  95.476 119.917  0.00  0.00     0.006 C 
ENDBRANCH   8  11
ENDBRANCH   7   8
ENDBRANCH   1   7
BRANCH   6  13
ATOM     13  N   LIG d   1      -3.167  93.238 117.395  0.00  0.00    -0.311 N 
ATOM     14  C   LIG d   1      -2.057  93.300 118.128  0.00  0.00     0.210 C 
ATOM     15  C   LIG d   1      -1.118  94.460 117.780  0.00  0.00     0.109 C 
ATOM     16  O   LIG d   1      -1.745  92.487 119.011  0.00  0.00    -0.276 OA
ATOM     17  H   LIG d   1      -3.325  93.919 116.679  0.00  0.00     0.149 HD
ENDBRANCH   6  13
BRANCH   5  18
ATOM     18  N   LIG d   1      -2.794  90.256 116.843  0.00  0.00     0.381 N 
ATOM     19  H   LIG d   1      -2.228  90.734 117.515  0.00  0.00    -0.090 HD
ATOM     20  H   LIG d   1      -2.285  90.209 115.978  0.00  0.00    -0.090 HD
ATOM     21  H   LIG d   1      -3.001  89.336 117.165  0.00  0.00    -0.090 HD
ENDBRANCH   5  18
BRANCH   3  22
ATOM     22  C   LIG d   1      -7.541  89.912 116.305  0.00  0.00     0.382 C 
ATOM     23  O   LIG d   1      -8.229  90.333 115.343  0.00  0.00    -0.241 OA
ATOM     24  O   LIG d   1      -7.861  88.849 116.869  0.00  0.00    -0.241 OA
ENDBRANCH   3  22
TORSDOF 7
ENDMDL
MODEL 2
REMARK VINA RESULT:      -5.2     31.676     34.187
REMARK  7 active torsions:
REMARK  status: ('A' for Active; 'I' for Inactive)
REMARK    1  A    between atoms: C_2  and  C_3 
REMARK    2  A    between atoms: C_3  and  O_6 
REMARK    3  A    between atoms: C_3  and  C_4 
REMARK    4  A    between atoms: C_7  and  O_6 
REMARK    5  A    between atoms: C_9  and  C_10 
REMARK    6  A    between atoms: N_15  and  C_14 
REMARK    7  A    between atoms: N_20  and  C_19 
REMARK       I    between atoms: C_22  and  N_20 
ROOT
ATOM      1  C   LIG d   1      -3.517  58.607 118.231  0.00  0.00     0.161 C 
ATOM      2  C   LIG d   1      -2.509  58.413 117.272  0.00  0.00     0.016 C 
ATOM      3  C   LIG d   1      -1.218  58.981 117.374  0.00  0.00     0.038 C 
ATOM      4  C   LIG d   1      -0.797  59.663 118.525  0.00  0.00     0.028 C 
ATOM      5  C   LIG d   1      -1.941  60.313 119.297  0.00  0.00    -0.047 C 
ATOM      6  C   LIG d   1      -3.041  59.256 119.547  0.00  0.00     0.091 C 
ENDROOT
BRANCH   1   7
ATOM      7  O   LIG d   1      -4.183  57.358 118.501  0.00  0.00    -0.368 OA
BRANCH   7   8
ATOM      8  C   LIG d   1      -3.341  56.276 118.971  0.00  0.00     0.119 C 
BRANCH   8   9
ATOM      9  C   LIG d   1      -3.655  55.037 118.110  0.00  0.00     0.028 C 
ATOM     10  C   LIG d   1      -2.451  54.089 117.984  0.00  0.00     0.006 C 
ENDBRANCH   8   9
BRANCH   8  11
ATOM     11  C   LIG d   1      -3.700  55.874 120.405  0.00  0.00     0.028 C 
ATOM     12  C   LIG d   1      -2.507  55.980 121.369  0.00  0.00     0.006 C 
ENDBRANCH   8  11
ENDBRANCH   7   8
ENDBRANCH   1   7
BRANCH   6  13
ATOM     13  N   LIG d   1      -4.234  59.830 120.223  0.00  0.00    -0.311 N 
ATOM     14  C   LIG d   1      -5.026  60.743 119.663  0.00  0.00     0.210 C 
ATOM     15  C   LIG d   1      -6.189  61.216 120.540  0.00  0.00     0.109 C 
ATOM     16  O   LIG d   1      -4.893  61.183 118.511  0.00  0.00    -0.276 OA
ATOM     17  H   LIG d   1      -4.434  59.506 121.149  0.00  0.00     0.149 HD
ENDBRANCH   6  13
BRANCH   5  18
ATOM     18  N   LIG d   1      -1.379  60.869 120.542  0.00  0.00     0.381 N 
ATOM     19  H   LIG d   1      -0.625  60.294 120.860  0.00  0.00    -0.090 HD
ATOM     20  H   LIG d   1      -2.094  60.872 121.248  0.00  0.00    -0.090 HD
ATOM     21  H   LIG d   1      -1.055  61.798 120.384  0.00  0.00    -0.090 HD
ENDBRANCH   5  18
BRANCH   3  22
ATOM     22  C   LIG d   1      -0.346  58.902 116.299  0.00  0.00     0.382 C 
ATOM     23  O   LIG d   1       0.477  57.959 116.227  0.00  0.00    -0.241 OA
ATOM     24  O   LIG d   1      -0.342  59.788 115.423  0.00  0.00    -0.241 OA
ENDBRANCH   3  22
TORSDOF 7
ENDMDL
MODEL 3
REMARK VINA RESULT:      -5.2     12.619     14.982
REMARK  7 active torsions:
REMARK  status: ('A' for Active; 'I' for Inactive)
REMARK    1  A    between atoms: C_2  and  C_3 
REMARK    2  A    between atoms: C_3  and  O_6 
REMARK    3  A    between atoms: C_3  and  C_4 
REMARK    4  A    between atoms: C_7  and  O_6 
REMARK    5  A    between atoms: C_9  and  C_10 
REMARK    6  A    between atoms: N_15  and  C_14 
REMARK    7  A    between atoms: N_20  and  C_19 
REMARK       I    between atoms: C_22  and  N_20 
ROOT
ATOM      1  C   LIG d   1      -6.190  77.863 117.179  0.00  0.00     0.161 C 
ATOM      2  C   LIG d   1      -7.552  77.765 117.507  0.00  0.00     0.016 C 
ATOM      3  C   LIG d   1      -8.279  78.806 118.130  0.00  0.00     0.038 C 
ATOM      4  C   LIG d   1      -7.726  80.080 118.330  0.00  0.00     0.028 C 
ATOM      5  C   LIG d   1      -6.208  80.065 118.476  0.00  0.00    -0.047 C 
ATOM      6  C   LIG d   1      -5.598  79.284 117.289  0.00  0.00     0.091 C 
ENDROOT
BRANCH   1   7
ATOM      7  O   LIG d   1      -5.965  77.328 115.860  0.00  0.00    -0.368 OA
BRANCH   7   8
ATOM      8  C   LIG d   1      -5.381  76.003 115.801  0.00  0.00     0.119 C 
BRANCH   8   9
ATOM      9  C   LIG d   1      -4.155  76.079 114.870  0.00  0.00     0.028 C 
ATOM     10  C   LIG d   1      -2.853  75.676 115.580  0.00  0.00     0.006 C 
ENDBRANCH   8   9
BRANCH   8  11
ATOM     11  C   LIG d   1      -6.333  75.003 115.137  0.00  0.00     0.028 C 
ATOM     12  C   LIG d   1      -6.021  73.546 115.510  0.00  0.00     0.006 C 
ENDBRANCH   8  11
ENDBRANCH   7   8
ENDBRANCH   1   7
BRANCH   6  13
ATOM     13  N   LIG d   1      -4.122  79.149 117.399  0.00  0.00    -0.311 N 
ATOM     14  C   LIG d   1      -3.290  79.347 116.377  0.00  0.00     0.210 C 
ATOM     15  C   LIG d   1      -1.808  79.136 116.701  0.00  0.00     0.109 C 
ATOM     16  O   LIG d   1      -3.637  79.707 115.242  0.00  0.00    -0.276 OA
ATOM     17  H   LIG d   1      -3.752  78.890 118.292  0.00  0.00     0.149 HD
ENDBRANCH   6  13
BRANCH   5  18
ATOM     18  N   LIG d   1      -5.753  81.467 118.540  0.00  0.00     0.381 N 
ATOM     19  H   LIG d   1      -5.486  81.779 117.628  0.00  0.00    -0.090 HD
ATOM     20  H   LIG d   1      -4.948  81.519 119.139  0.00  0.00    -0.090 HD
ATOM     21  H   LIG d   1      -6.481  82.045 118.898  0.00  0.00    -0.090 HD
ENDBRANCH   5  18
BRANCH   3  22
ATOM     22  C   LIG d   1      -9.563  78.565 118.595  0.00  0.00     0.382 C 
ATOM     23  O   LIG d   1     -10.203  77.568 118.181  0.00  0.00    -0.241 OA
ATOM     24  O   LIG d   1     -10.106  79.356 119.389  0.00  0.00    -0.241 OA
ENDBRANCH   3  22
TORSDOF 7
ENDMDL
MODEL 4
REMARK VINA RESULT:      -5.1      1.170      1.938
REMARK  7 active torsions:
REMARK  status: ('A' for Active; 'I' for Inactive)
REMARK    1  A    between atoms: C_2  and  C_3 
REMARK    2  A    between atoms: C_3  and  O_6 
REMARK    3  A    between atoms: C_3  and  C_4 
REMARK    4  A    between atoms: C_7  and  O_6 
REMARK    5  A    between atoms: C_9  and  C_10 
REMARK    6  A    between atoms: N_15  and  C_14 
REMARK    7  A    between atoms: N_20  and  C_19 
REMARK       I    between atoms: C_22  and  N_20 
ROOT
ATOM      1  C   LIG d   1      -5.703  93.052 117.714  0.00  0.00     0.161 C 
ATOM      2  C   LIG d   1      -6.678  92.122 117.317  0.00  0.00     0.016 C 
ATOM      3  C   LIG d   1      -6.370  90.818 116.863  0.00  0.00     0.038 C 
ATOM      4  C   LIG d   1      -5.067  90.302 116.919  0.00  0.00     0.028 C 
ATOM      5  C   LIG d   1      -3.986  91.375 116.837  0.00  0.00    -0.047 C 
ATOM      6  C   LIG d   1      -4.285  92.469 117.887  0.00  0.00     0.091 C 
ENDROOT
BRANCH   1   7
ATOM      7  O   LIG d   1      -6.124  93.714 118.923  0.00  0.00    -0.368 OA
BRANCH   7   8
ATOM      8  C   LIG d   1      -6.902  94.924 118.750  0.00  0.00     0.119 C 
BRANCH   8   9
ATOM      9  C   LIG d   1      -5.963  96.119 119.006  0.00  0.00     0.028 C 
ATOM     10  C   LIG d   1      -5.359  96.098 120.420  0.00  0.00     0.006 C 
ENDBRANCH   8   9
BRANCH   8  11
ATOM     11  C   LIG d   1      -8.000  95.036 119.812  0.00  0.00     0.028 C 
ATOM     12  C   LIG d   1      -9.254  95.761 119.297  0.00  0.00     0.006 C 
ENDBRANCH   8  11
ENDBRANCH   7   8
ENDBRANCH   1   7
BRANCH   6  13
ATOM     13  N   LIG d   1      -3.322  93.599 117.818  0.00  0.00    -0.311 N 
ATOM     14  C   LIG d   1      -2.681  94.082 118.881  0.00  0.00     0.210 C 
ATOM     15  C   LIG d   1      -1.748  95.262 118.592  0.00  0.00     0.109 C 
ATOM     16  O   LIG d   1      -2.771  93.624 120.030  0.00  0.00    -0.276 OA
ATOM     17  H   LIG d   1      -3.166  94.010 116.919  0.00  0.00     0.149 HD
ENDBRANCH   6  13
BRANCH   5  18
ATOM     18  N   LIG d   1      -2.685  90.713 117.046  0.00  0.00     0.381 N 
ATOM     19  H   LIG d   1      -2.091  90.878 116.258  0.00  0.00    -0.090 HD
ATOM     20  H   LIG d   1      -2.833  89.722 117.126  0.00  0.00    -0.090 HD
ATOM     21  H   LIG d   1      -2.255  91.060 117.874  0.00  0.00    -0.090 HD
ENDBRANCH   5  18
BRANCH   3  22
ATOM     22  C   LIG d   1      -7.368  90.031 116.308  0.00  0.00     0.382 C 
ATOM     23  O   LIG d   1      -7.998  90.434 115.301  0.00  0.00    -0.241 OA
ATOM     24  O   LIG d   1      -7.676  88.942 116.829  0.00  0.00    -0.241 OA
ENDBRANCH   3  22
TORSDOF 7
ENDMDL
MODEL 5
REMARK VINA RESULT:      -4.9      1.738      4.777
REMARK  7 active torsions:
REMARK  status: ('A' for Active; 'I' for Inactive)
REMARK    1  A    between atoms: C_2  and  C_3 
REMARK    2  A    between atoms: C_3  and  O_6 
REMARK    3  A    between atoms: C_3  and  C_4 
REMARK    4  A    between atoms: C_7  and  O_6 
REMARK    5  A    between atoms: C_9  and  C_10 
REMARK    6  A    between atoms: N_15  and  C_14 
REMARK    7  A    between atoms: N_20  and  C_19 
REMARK       I    between atoms: C_22  and  N_20 
ROOT
ATOM      1  C   LIG d   1      -5.930  92.558 118.843  0.00  0.00     0.161 C 
ATOM      2  C   LIG d   1      -4.809  93.253 119.328  0.00  0.00     0.016 C 
ATOM      3  C   LIG d   1      -3.500  93.063 118.830  0.00  0.00     0.038 C 
ATOM      4  C   LIG d   1      -3.244  92.270 117.702  0.00  0.00     0.028 C 
ATOM      5  C   LIG d   1      -4.268  91.159 117.497  0.00  0.00    -0.047 C 
ATOM      6  C   LIG d   1      -5.687  91.771 117.538  0.00  0.00     0.091 C 
ENDROOT
BRANCH   1   7
ATOM      7  O   LIG d   1      -7.036  93.467 118.681  0.00  0.00    -0.368 OA
BRANCH   7   8
ATOM      8  C   LIG d   1      -7.057  94.610 119.571  0.00  0.00     0.119 C 
BRANCH   8   9
ATOM      9  C   LIG d   1      -8.381  94.560 120.358  0.00  0.00     0.028 C 
ATOM     10  C   LIG d   1      -9.437  95.525 119.794  0.00  0.00     0.006 C 
ENDBRANCH   8   9
BRANCH   8  11
ATOM     11  C   LIG d   1      -7.101  95.926 118.788  0.00  0.00     0.028 C 
ATOM     12  C   LIG d   1      -5.854  96.795 119.014  0.00  0.00     0.006 C 
ENDBRANCH   8  11
ENDBRANCH   7   8
ENDBRANCH   1   7
BRANCH   6  13
ATOM     13  N   LIG d   1      -6.752  90.741 117.429  0.00  0.00    -0.311 N 
ATOM     14  C   LIG d   1      -7.284  90.355 116.270  0.00  0.00     0.210 C 
ATOM     15  C   LIG d   1      -8.383  89.294 116.384  0.00  0.00     0.109 C 
ATOM     16  O   LIG d   1      -6.927  90.768 115.156  0.00  0.00    -0.276 OA
ATOM     17  H   LIG d   1      -7.079  90.331 118.282  0.00  0.00     0.149 HD
ENDBRANCH   6  13
BRANCH   5  18
ATOM     18  N   LIG d   1      -3.960  90.500 116.214  0.00  0.00     0.381 N 
ATOM     19  H   LIG d   1      -4.646  90.751 115.530  0.00  0.00    -0.090 HD
ATOM     20  H   LIG d   1      -3.993  89.504 116.344  0.00  0.00    -0.090 HD
ATOM     21  H   LIG d   1      -3.054  90.771 115.900  0.00  0.00    -0.090 HD
ENDBRANCH   5  18
BRANCH   3  22
ATOM     22  C   LIG d   1      -2.424  93.640 119.488  0.00  0.00     0.382 C 
ATOM     23  O   LIG d   1      -1.298  93.675 118.937  0.00  0.00    -0.241 OA
ATOM     24  O   LIG d   1      -2.555  94.084 120.644  0.00  0.00    -0.241 OA
ENDBRANCH   3  22
TORSDOF 7
ENDMDL
MODEL 6
REMARK VINA RESULT:      -4.9     31.794     34.082
REMARK  7 active torsions:
REMARK  status: ('A' for Active; 'I' for Inactive)
REMARK    1  A    between atoms: C_2  and  C_3 
REMARK    2  A    between atoms: C_3  and  O_6 
REMARK    3  A    between atoms: C_3  and  C_4 
REMARK    4  A    between atoms: C_7  and  O_6 
REMARK    5  A    between atoms: C_9  and  C_10 
REMARK    6  A    between atoms: N_15  and  C_14 
REMARK    7  A    between atoms: N_20  and  C_19 
REMARK       I    between atoms: C_22  and  N_20 
ROOT
ATOM      1  C   LIG d   1      -1.223  58.970 118.678  0.00  0.00     0.161 C 
ATOM      2  C   LIG d   1      -0.004  59.630 118.902  0.00  0.00     0.016 C 
ATOM      3  C   LIG d   1       1.235  59.168 118.401  0.00  0.00     0.038 C 
ATOM      4  C   LIG d   1       1.317  58.089 117.509  0.00  0.00     0.028 C 
ATOM      5  C   LIG d   1       0.175  57.090 117.659  0.00  0.00    -0.047 C 
ATOM      6  C   LIG d   1      -1.168  57.854 117.615  0.00  0.00     0.091 C 
ENDROOT
BRANCH   1   7
ATOM      7  O   LIG d   1      -2.245  59.931 118.343  0.00  0.00    -0.368 OA
BRANCH   7   8
ATOM      8  C   LIG d   1      -3.238  60.188 119.367  0.00  0.00     0.119 C 
BRANCH   8   9
ATOM      9  C   LIG d   1      -4.587  60.410 118.657  0.00  0.00     0.028 C 
ATOM     10  C   LIG d   1      -4.961  59.242 117.728  0.00  0.00     0.006 C 
ENDBRANCH   8   9
BRANCH   8  11
ATOM     11  C   LIG d   1      -2.949  61.498 120.107  0.00  0.00     0.028 C 
ATOM     12  C   LIG d   1      -2.249  61.277 121.457  0.00  0.00     0.006 C 
ENDBRANCH   8  11
ENDBRANCH   7   8
ENDBRANCH   1   7
BRANCH   6  13
ATOM     13  N   LIG d   1      -2.335  56.961 117.839  0.00  0.00    -0.311 N 
ATOM     14  C   LIG d   1      -2.560  56.322 118.985  0.00  0.00     0.210 C 
ATOM     15  C   LIG d   1      -3.810  55.436 118.998  0.00  0.00     0.109 C 
ATOM     16  O   LIG d   1      -1.860  56.429 120.004  0.00  0.00    -0.276 OA
ATOM     17  H   LIG d   1      -2.972  56.842 117.075  0.00  0.00     0.149 HD
ENDBRANCH   6  13
BRANCH   5  18
ATOM     18  N   LIG d   1       0.310  56.093 116.580  0.00  0.00     0.381 N 
ATOM     19  H   LIG d   1      -0.269  55.301 116.776  0.00  0.00    -0.090 HD
ATOM     20  H   LIG d   1       1.265  55.784 116.540  0.00  0.00    -0.090 HD
ATOM     21  H   LIG d   1       0.048  56.498 115.708  0.00  0.00    -0.090 HD
ENDBRANCH   5  18
BRANCH   3  22
ATOM     22  C   LIG d   1       2.413  59.764 118.825  0.00  0.00     0.382 C 
ATOM     23  O   LIG d   1       2.810  59.599 120.004  0.00  0.00    -0.241 OA
ATOM     24  O   LIG d   1       3.061  60.500 118.057  0.00  0.00    -0.241 OA
ENDBRANCH   3  22
TORSDOF 7
ENDMDL
MODEL 7
REMARK VINA RESULT:      -4.9     32.342     34.758
REMARK  7 active torsions:
REMARK  status: ('A' for Active; 'I' for Inactive)
REMARK    1  A    between atoms: C_2  and  C_3 
REMARK    2  A    between atoms: C_3  and  O_6 
REMARK    3  A    between atoms: C_3  and  C_4 
REMARK    4  A    between atoms: C_7  and  O_6 
REMARK    5  A    between atoms: C_9  and  C_10 
REMARK    6  A    between atoms: N_15  and  C_14 
REMARK    7  A    between atoms: N_20  and  C_19 
REMARK       I    between atoms: C_22  and  N_20 
ROOT
ATOM      1  C   LIG d   1      -0.689  57.638 119.832  0.00  0.00     0.161 C 
ATOM      2  C   LIG d   1      -1.469  58.774 120.111  0.00  0.00     0.016 C 
ATOM      3  C   LIG d   1      -1.143  60.072 119.655  0.00  0.00     0.038 C 
ATOM      4  C   LIG d   1      -0.089  60.300 118.758  0.00  0.00     0.028 C 
ATOM      5  C   LIG d   1       1.024  59.262 118.854  0.00  0.00    -0.047 C 
ATOM      6  C   LIG d   1       0.402  57.850 118.762  0.00  0.00     0.091 C 
ENDROOT
BRANCH   1   7
ATOM      7  O   LIG d   1      -1.544  56.537 119.466  0.00  0.00    -0.368 OA
BRANCH   7   8
ATOM      8  C   LIG d   1      -2.807  56.888 118.850  0.00  0.00     0.119 C 
BRANCH   8   9
ATOM      9  C   LIG d   1      -3.821  55.785 119.212  0.00  0.00     0.028 C 
ATOM     10  C   LIG d   1      -3.644  54.522 118.352  0.00  0.00     0.006 C 
ENDBRANCH   8   9
BRANCH   8  11
ATOM     11  C   LIG d   1      -2.709  56.863 117.322  0.00  0.00     0.028 C 
ATOM     12  C   LIG d   1      -2.624  58.270 116.707  0.00  0.00     0.006 C 
ENDBRANCH   8  11
ENDBRANCH   7   8
ENDBRANCH   1   7
BRANCH   6  13
ATOM     13  N   LIG d   1       1.413  56.774 118.932  0.00  0.00    -0.311 N 
ATOM     14  C   LIG d   1       2.015  56.166 117.911  0.00  0.00     0.210 C 
ATOM     15  C   LIG d   1       3.010  55.070 118.307  0.00  0.00     0.109 C 
ATOM     16  O   LIG d   1       1.843  56.452 116.717  0.00  0.00    -0.276 OA
ATOM     17  H   LIG d   1       1.636  56.501 119.869  0.00  0.00     0.149 HD
ENDBRANCH   6  13
BRANCH   5  18
ATOM     18  N   LIG d   1       1.987  59.541 117.772  0.00  0.00     0.381 N 
ATOM     19  H   LIG d   1       1.920  58.834 117.068  0.00  0.00    -0.090 HD
ATOM     20  H   LIG d   1       2.917  59.520 118.152  0.00  0.00    -0.090 HD
ATOM     21  H   LIG d   1       1.804  60.436 117.374  0.00  0.00    -0.090 HD
ENDBRANCH   5  18
BRANCH   3  22
ATOM     22  C   LIG d   1      -1.852  61.165 120.131  0.00  0.00     0.382 C 
ATOM     23  O   LIG d   1      -2.814  61.624 119.470  0.00  0.00    -0.241 OA
ATOM     24  O   LIG d   1      -1.513  61.725 121.190  0.00  0.00    -0.241 OA
ENDBRANCH   3  22
TORSDOF 7
ENDMDL
MODEL 8
REMARK VINA RESULT:      -4.9      2.208      4.164
REMARK  7 active torsions:
REMARK  status: ('A' for Active; 'I' for Inactive)
REMARK    1  A    between atoms: C_2  and  C_3 
REMARK    2  A    between atoms: C_3  and  O_6 
REMARK    3  A    between atoms: C_3  and  C_4 
REMARK    4  A    between atoms: C_7  and  O_6 
REMARK    5  A    between atoms: C_9  and  C_10 
REMARK    6  A    between atoms: N_15  and  C_14 
REMARK    7  A    between atoms: N_20  and  C_19 
REMARK       I    between atoms: C_22  and  N_20 
ROOT
ATOM      1  C   LIG d   1      -4.160  91.270 117.965  0.00  0.00     0.161 C 
ATOM      2  C   LIG d   1      -5.089  90.563 117.184  0.00  0.00     0.016 C 
ATOM      3  C   LIG d   1      -6.310  91.117 116.735  0.00  0.00     0.038 C 
ATOM      4  C   LIG d   1      -6.617  92.474 116.911  0.00  0.00     0.028 C 
ATOM      5  C   LIG d   1      -5.940  93.096 118.128  0.00  0.00    -0.047 C 
ATOM      6  C   LIG d   1      -4.426  92.786 118.073  0.00  0.00     0.091 C 
ENDROOT
BRANCH   1   7
ATOM      7  O   LIG d   1      -2.826  91.029 117.474  0.00  0.00    -0.368 OA
BRANCH   7   8
ATOM      8  C   LIG d   1      -1.928  90.343 118.380  0.00  0.00     0.119 C 
BRANCH   8   9
ATOM      9  C   LIG d   1      -0.488  90.703 117.966  0.00  0.00     0.028 C 
ATOM     10  C   LIG d   1       0.247  91.518 119.044  0.00  0.00     0.006 C 
ENDBRANCH   8   9
BRANCH   8  11
ATOM     11  C   LIG d   1      -2.027  88.823 118.219  0.00  0.00     0.028 C 
ATOM     12  C   LIG d   1      -2.058  88.082 119.565  0.00  0.00     0.006 C 
ENDBRANCH   8  11
ENDBRANCH   7   8
ENDBRANCH   1   7
BRANCH   6  13
ATOM     13  N   LIG d   1      -3.701  93.286 119.270  0.00  0.00    -0.311 N 
ATOM     14  C   LIG d   1      -2.567  93.981 119.203  0.00  0.00     0.210 C 
ATOM     15  C   LIG d   1      -1.974  94.383 120.557  0.00  0.00     0.109 C 
ATOM     16  O   LIG d   1      -2.013  94.331 118.150  0.00  0.00    -0.276 OA
ATOM     17  H   LIG d   1      -4.097  93.074 120.165  0.00  0.00     0.149 HD
ENDBRANCH   6  13
BRANCH   5  18
ATOM     18  N   LIG d   1      -6.235  94.541 118.113  0.00  0.00     0.381 N 
ATOM     19  H   LIG d   1      -5.946  94.936 117.241  0.00  0.00    -0.090 HD
ATOM     20  H   LIG d   1      -5.715  94.987 118.849  0.00  0.00    -0.090 HD
ATOM     21  H   LIG d   1      -7.210  94.691 118.248  0.00  0.00    -0.090 HD
ENDBRANCH   5  18
BRANCH   3  22
ATOM     22  C   LIG d   1      -7.257  90.300 116.137  0.00  0.00     0.382 C 
ATOM     23  O   LIG d   1      -7.906  90.714 115.146  0.00  0.00    -0.241 OA
ATOM     24  O   LIG d   1      -7.502  89.171 116.602  0.00  0.00    -0.241 OA
ENDBRANCH   3  22
TORSDOF 7
ENDMDL
MODEL 9
REMARK VINA RESULT:      -4.9     32.821     34.035
REMARK  7 active torsions:
REMARK  status: ('A' for Active; 'I' for Inactive)
REMARK    1  A    between atoms: C_2  and  C_3 
REMARK    2  A    between atoms: C_3  and  O_6 
REMARK    3  A    between atoms: C_3  and  C_4 
REMARK    4  A    between atoms: C_7  and  O_6 
REMARK    5  A    between atoms: C_9  and  C_10 
REMARK    6  A    between atoms: N_15  and  C_14 
REMARK    7  A    between atoms: N_20  and  C_19 
REMARK       I    between atoms: C_22  and  N_20 
ROOT
ATOM      1  C   LIG d   1      -1.066  59.618 119.619  0.00  0.00     0.161 C 
ATOM      2  C   LIG d   1      -2.417  59.457 119.272  0.00  0.00     0.016 C 
ATOM      3  C   LIG d   1      -2.854  59.165 117.959  0.00  0.00     0.038 C 
ATOM      4  C   LIG d   1      -1.953  58.861 116.928  0.00  0.00     0.028 C 
ATOM      5  C   LIG d   1      -0.583  59.506 117.112  0.00  0.00    -0.047 C 
ATOM      6  C   LIG d   1      -0.062  59.181 118.531  0.00  0.00     0.091 C 
ENDROOT
BRANCH   1   7
ATOM      7  O   LIG d   1      -0.794  58.931 120.856  0.00  0.00    -0.368 OA
BRANCH   7   8
ATOM      8  C   LIG d   1      -0.629  57.494 120.764  0.00  0.00     0.119 C 
BRANCH   8   9
ATOM      9  C   LIG d   1      -1.781  56.844 121.554  0.00  0.00     0.028 C 
ATOM     10  C   LIG d   1      -2.752  56.070 120.647  0.00  0.00     0.006 C 
ENDBRANCH   8   9
BRANCH   8  11
ATOM     11  C   LIG d   1       0.653  57.035 121.465  0.00  0.00     0.028 C 
ATOM     12  C   LIG d   1       1.372  55.905 120.711  0.00  0.00     0.006 C 
ENDBRANCH   8  11
ENDBRANCH   7   8
ENDBRANCH   1   7
BRANCH   6  13
ATOM     13  N   LIG d   1       1.235  59.844 118.824  0.00  0.00    -0.311 N 
ATOM     14  C   LIG d   1       2.415  59.247 118.667  0.00  0.00     0.210 C 
ATOM     15  C   LIG d   1       3.628  60.102 119.046  0.00  0.00     0.109 C 
ATOM     16  O   LIG d   1       2.574  58.101 118.221  0.00  0.00    -0.276 OA
ATOM     17  H   LIG d   1       1.200  60.786 119.161  0.00  0.00     0.149 HD
ENDBRANCH   6  13
BRANCH   5  18
ATOM     18  N   LIG d   1       0.297  58.996 116.043  0.00  0.00     0.381 N 
ATOM     19  H   LIG d   1       0.524  59.737 115.410  0.00  0.00    -0.090 HD
ATOM     20  H   LIG d   1      -0.193  58.284 115.531  0.00  0.00    -0.090 HD
ATOM     21  H   LIG d   1       1.130  58.619 116.438  0.00  0.00    -0.090 HD
ENDBRANCH   5  18
BRANCH   3  22
ATOM     22  C   LIG d   1      -4.207  59.212 117.658  0.00  0.00     0.382 C 
ATOM     23  O   LIG d   1      -4.680  60.205 117.055  0.00  0.00    -0.241 OA
ATOM     24  O   LIG d   1      -4.968  58.296 118.022  0.00  0.00    -0.241 OA
ENDBRANCH   3  22
TORSDOF 7
ENDMDL
