MODEL 1
REMARK VINA RESULT:      -5.4      0.000      0.000
REMARK  7 active torsions:
REMARK  status: ('A' for Active; 'I' for Inactive)
REMARK    1  A    between atoms: C_2  and  C_3 
REMARK    2  A    between atoms: C_3  and  O_6 
REMARK    3  A    between atoms: C_3  and  C_4 
REMARK    4  A    between atoms: C_7  and  O_6 
REMARK    5  A    between atoms: C_9  and  C_10 
REMARK    6  A    between atoms: N_15  and  C_14 
REMARK    7  A    between atoms: N_20  and  C_19 
REMARK       I    between atoms: C_22  and  N_20 
ROOT
ATOM      1  C   LIG d   1      -6.176  77.802 117.129  0.00  0.00     0.161 C 
ATOM      2  C   LIG d   1      -7.555  77.656 117.355  0.00  0.00     0.016 C 
ATOM      3  C   LIG d   1      -8.364  78.672 117.912  0.00  0.00     0.038 C 
ATOM      4  C   LIG d   1      -7.875  79.966 118.144  0.00  0.00     0.028 C 
ATOM      5  C   LIG d   1      -6.372  80.009 118.402  0.00  0.00    -0.047 C 
ATOM      6  C   LIG d   1      -5.647  79.244 117.271  0.00  0.00     0.091 C 
ENDROOT
BRANCH   1   7
ATOM      7  O   LIG d   1      -5.834  77.268 115.834  0.00  0.00    -0.368 OA
BRANCH   7   8
ATOM      8  C   LIG d   1      -4.965  76.109 115.832  0.00  0.00     0.119 C 
BRANCH   8   9
ATOM      9  C   LIG d   1      -5.771  74.927 115.261  0.00  0.00     0.028 C 
ATOM     10  C   LIG d   1      -6.547  74.166 116.348  0.00  0.00     0.006 C 
ENDBRANCH   8   9
BRANCH   8  11
ATOM     11  C   LIG d   1      -4.588  75.692 117.257  0.00  0.00     0.028 C 
ATOM     12  C   LIG d   1      -3.088  75.397 117.415  0.00  0.00     0.006 C 
ENDBRANCH   8  11
ENDBRANCH   7   8
ENDBRANCH   1   7
BRANCH   6  13
ATOM     13  N   LIG d   1      -4.179  79.165 117.492  0.00  0.00    -0.311 N 
ATOM     14  C   LIG d   1      -3.281  79.388 116.534  0.00  0.00     0.210 C 
ATOM     15  C   LIG d   1      -1.820  79.235 116.969  0.00  0.00     0.109 C 
ATOM     16  O   LIG d   1      -3.554  79.731 115.374  0.00  0.00    -0.276 OA
ATOM     17  H   LIG d   1      -3.868  78.924 118.412  0.00  0.00     0.149 HD
ENDBRANCH   6  13
BRANCH   5  18
ATOM     18  N   LIG d   1      -5.975  81.426 118.490  0.00  0.00     0.381 N 
ATOM     19  H   LIG d   1      -6.143  81.880 117.614  0.00  0.00    -0.090 HD
ATOM     20  H   LIG d   1      -4.990  81.476 118.686  0.00  0.00    -0.090 HD
ATOM     21  H   LIG d   1      -6.489  81.881 119.212  0.00  0.00    -0.090 HD
ENDBRANCH   5  18
BRANCH   3  22
ATOM     22  C   LIG d   1      -9.670  78.386 118.282  0.00  0.00     0.382 C 
ATOM     23  O   LIG d   1     -10.241  79.083 119.155  0.00  0.00    -0.241 OA
ATOM     24  O   LIG d   1     -10.268  77.412 117.786  0.00  0.00    -0.241 OA
ENDBRANCH   3  22
TORSDOF 7
ENDMDL
MODEL 2
REMARK VINA RESULT:      -5.3      0.637      1.661
REMARK  7 active torsions:
REMARK  status: ('A' for Active; 'I' for Inactive)
REMARK    1  A    between atoms: C_2  and  C_3 
REMARK    2  A    between atoms: C_3  and  O_6 
REMARK    3  A    between atoms: C_3  and  C_4 
REMARK    4  A    between atoms: C_7  and  O_6 
REMARK    5  A    between atoms: C_9  and  C_10 
REMARK    6  A    between atoms: N_15  and  C_14 
REMARK    7  A    between atoms: N_20  and  C_19 
REMARK       I    between atoms: C_22  and  N_20 
ROOT
ATOM      1  C   LIG d   1      -6.145  77.970 117.153  0.00  0.00     0.161 C 
ATOM      2  C   LIG d   1      -7.525  77.880 117.403  0.00  0.00     0.016 C 
ATOM      3  C   LIG d   1      -8.286  78.936 117.956  0.00  0.00     0.038 C 
ATOM      4  C   LIG d   1      -7.744  80.214 118.157  0.00  0.00     0.028 C 
ATOM      5  C   LIG d   1      -6.237  80.203 118.390  0.00  0.00    -0.047 C 
ATOM      6  C   LIG d   1      -5.560  79.393 117.262  0.00  0.00     0.091 C 
ENDROOT
BRANCH   1   7
ATOM      7  O   LIG d   1      -5.845  77.402 115.863  0.00  0.00    -0.368 OA
BRANCH   7   8
ATOM      8  C   LIG d   1      -5.154  76.129 115.872  0.00  0.00     0.119 C 
BRANCH   8   9
ATOM      9  C   LIG d   1      -4.043  76.197 114.806  0.00  0.00     0.028 C 
ATOM     10  C   LIG d   1      -2.657  75.858 115.380  0.00  0.00     0.006 C 
ENDBRANCH   8   9
BRANCH   8  11
ATOM     11  C   LIG d   1      -6.076  74.991 115.424  0.00  0.00     0.028 C 
ATOM     12  C   LIG d   1      -6.730  74.255 116.604  0.00  0.00     0.006 C 
ENDBRANCH   8  11
ENDBRANCH   7   8
ENDBRANCH   1   7
BRANCH   6  13
ATOM     13  N   LIG d   1      -4.093  79.262 117.460  0.00  0.00    -0.311 N 
ATOM     14  C   LIG d   1      -3.203  79.423 116.481  0.00  0.00     0.210 C 
ATOM     15  C   LIG d   1      -1.742  79.223 116.896  0.00  0.00     0.109 C 
ATOM     16  O   LIG d   1      -3.484  79.743 115.316  0.00  0.00    -0.276 OA
ATOM     17  H   LIG d   1      -3.775  79.035 118.382  0.00  0.00     0.149 HD
ENDBRANCH   6  13
BRANCH   5  18
ATOM     18  N   LIG d   1      -5.785  81.606 118.447  0.00  0.00     0.381 N 
ATOM     19  H   LIG d   1      -5.376  81.795 119.340  0.00  0.00    -0.090 HD
ATOM     20  H   LIG d   1      -6.580  82.209 118.331  0.00  0.00    -0.090 HD
ATOM     21  H   LIG d   1      -5.120  81.779 117.725  0.00  0.00    -0.090 HD
ENDBRANCH   5  18
BRANCH   3  22
ATOM     22  C   LIG d   1      -9.595  78.706 118.351  0.00  0.00     0.382 C 
ATOM     23  O   LIG d   1     -10.207  77.693 117.934  0.00  0.00    -0.241 OA
ATOM     24  O   LIG d   1     -10.185  79.520 119.085  0.00  0.00    -0.241 OA
ENDBRANCH   3  22
TORSDOF 7
ENDMDL
MODEL 3
REMARK VINA RESULT:      -5.2     12.978     15.147
REMARK  7 active torsions:
REMARK  status: ('A' for Active; 'I' for Inactive)
REMARK    1  A    between atoms: C_2  and  C_3 
REMARK    2  A    between atoms: C_3  and  O_6 
REMARK    3  A    between atoms: C_3  and  C_4 
REMARK    4  A    between atoms: C_7  and  O_6 
REMARK    5  A    between atoms: C_9  and  C_10 
REMARK    6  A    between atoms: N_15  and  C_14 
REMARK    7  A    between atoms: N_20  and  C_19 
REMARK       I    between atoms: C_22  and  N_20 
ROOT
ATOM      1  C   LIG d   1      -5.703  92.093 118.340  0.00  0.00     0.161 C 
ATOM      2  C   LIG d   1      -5.747  91.005 117.453  0.00  0.00     0.016 C 
ATOM      3  C   LIG d   1      -6.527  90.994 116.274  0.00  0.00     0.038 C 
ATOM      4  C   LIG d   1      -7.203  92.137 115.821  0.00  0.00     0.028 C 
ATOM      5  C   LIG d   1      -7.594  93.093 116.942  0.00  0.00    -0.047 C 
ATOM      6  C   LIG d   1      -6.347  93.390 117.806  0.00  0.00     0.091 C 
ENDROOT
BRANCH   1   7
ATOM      7  O   LIG d   1      -4.342  92.340 118.745  0.00  0.00    -0.368 OA
BRANCH   7   8
ATOM      8  C   LIG d   1      -3.340  92.244 117.702  0.00  0.00     0.119 C 
BRANCH   8   9
ATOM      9  C   LIG d   1      -2.192  91.370 118.242  0.00  0.00     0.028 C 
ATOM     10  C   LIG d   1      -1.979  90.098 117.404  0.00  0.00     0.006 C 
ENDBRANCH   8   9
BRANCH   8  11
ATOM     11  C   LIG d   1      -2.708  93.609 117.410  0.00  0.00     0.028 C 
ATOM     12  C   LIG d   1      -2.906  94.614 118.556  0.00  0.00     0.006 C 
ENDBRANCH   8  11
ENDBRANCH   7   8
ENDBRANCH   1   7
BRANCH   6  13
ATOM     13  N   LIG d   1      -6.659  94.252 118.976  0.00  0.00    -0.311 N 
ATOM     14  C   LIG d   1      -6.547  95.579 118.959  0.00  0.00     0.210 C 
ATOM     15  C   LIG d   1      -6.900  96.274 120.278  0.00  0.00     0.109 C 
ATOM     16  O   LIG d   1      -6.219  96.249 117.968  0.00  0.00    -0.276 OA
ATOM     17  H   LIG d   1      -6.963  93.793 119.812  0.00  0.00     0.149 HD
ENDBRANCH   6  13
BRANCH   5  18
ATOM     18  N   LIG d   1      -8.165  94.302 116.318  0.00  0.00     0.381 N 
ATOM     19  H   LIG d   1      -7.493  95.042 116.334  0.00  0.00    -0.090 HD
ATOM     20  H   LIG d   1      -8.968  94.593 116.849  0.00  0.00    -0.090 HD
ATOM     21  H   LIG d   1      -8.433  94.106 115.378  0.00  0.00    -0.090 HD
ENDBRANCH   5  18
BRANCH   3  22
ATOM     22  C   LIG d   1      -6.668  89.817 115.554  0.00  0.00     0.382 C 
ATOM     23  O   LIG d   1      -5.741  89.425 114.805  0.00  0.00    -0.241 OA
ATOM     24  O   LIG d   1      -7.728  89.165 115.611  0.00  0.00    -0.241 OA
ENDBRANCH   3  22
TORSDOF 7
ENDMDL
MODEL 4
REMARK VINA RESULT:      -5.0     13.729     16.124
REMARK  7 active torsions:
REMARK  status: ('A' for Active; 'I' for Inactive)
REMARK    1  A    between atoms: C_2  and  C_3 
REMARK    2  A    between atoms: C_3  and  O_6 
REMARK    3  A    between atoms: C_3  and  C_4 
REMARK    4  A    between atoms: C_7  and  O_6 
REMARK    5  A    between atoms: C_9  and  C_10 
REMARK    6  A    between atoms: N_15  and  C_14 
REMARK    7  A    between atoms: N_20  and  C_19 
REMARK       I    between atoms: C_22  and  N_20 
ROOT
ATOM      1  C   LIG d   1      -6.790  93.362 117.356  0.00  0.00     0.161 C 
ATOM      2  C   LIG d   1      -7.126  92.094 116.853  0.00  0.00     0.016 C 
ATOM      3  C   LIG d   1      -6.167  91.143 116.434  0.00  0.00     0.038 C 
ATOM      4  C   LIG d   1      -4.793  91.340 116.631  0.00  0.00     0.028 C 
ATOM      5  C   LIG d   1      -4.391  92.811 116.670  0.00  0.00    -0.047 C 
ATOM      6  C   LIG d   1      -5.294  93.551 117.683  0.00  0.00     0.091 C 
ENDROOT
BRANCH   1   7
ATOM      7  O   LIG d   1      -7.597  93.659 118.513  0.00  0.00    -0.368 OA
BRANCH   7   8
ATOM      8  C   LIG d   1      -8.852  94.335 118.257  0.00  0.00     0.119 C 
BRANCH   8   9
ATOM      9  C   LIG d   1      -8.525  95.676 117.573  0.00  0.00     0.028 C 
ATOM     10  C   LIG d   1      -8.213  96.791 118.587  0.00  0.00     0.006 C 
ENDBRANCH   8   9
BRANCH   8  11
ATOM     11  C   LIG d   1      -9.561  94.707 119.563  0.00  0.00     0.028 C 
ATOM     12  C   LIG d   1      -9.651  93.531 120.548  0.00  0.00     0.006 C 
ENDBRANCH   8  11
ENDBRANCH   7   8
ENDBRANCH   1   7
BRANCH   6  13
ATOM     13  N   LIG d   1      -5.023  95.012 117.721  0.00  0.00    -0.311 N 
ATOM     14  C   LIG d   1      -4.564  95.645 118.799  0.00  0.00     0.210 C 
ATOM     15  C   LIG d   1      -4.373  97.156 118.630  0.00  0.00     0.109 C 
ATOM     16  O   LIG d   1      -4.266  95.094 119.869  0.00  0.00    -0.276 OA
ATOM     17  H   LIG d   1      -5.208  95.532 116.885  0.00  0.00     0.149 HD
ENDBRANCH   6  13
BRANCH   5  18
ATOM     18  N   LIG d   1      -2.959  92.872 117.019  0.00  0.00     0.381 N 
ATOM     19  H   LIG d   1      -2.533  91.981 116.862  0.00  0.00    -0.090 HD
ATOM     20  H   LIG d   1      -2.871  93.095 117.995  0.00  0.00    -0.090 HD
ATOM     21  H   LIG d   1      -2.504  93.568 116.470  0.00  0.00    -0.090 HD
ENDBRANCH   5  18
BRANCH   3  22
ATOM     22  C   LIG d   1      -6.580  89.997 115.772  0.00  0.00     0.382 C 
ATOM     23  O   LIG d   1      -7.590  89.370 116.174  0.00  0.00    -0.241 OA
ATOM     24  O   LIG d   1      -5.930  89.556 114.805  0.00  0.00    -0.241 OA
ENDBRANCH   3  22
TORSDOF 7
ENDMDL
MODEL 5
REMARK VINA RESULT:      -4.8     13.395     15.147
REMARK  7 active torsions:
REMARK  status: ('A' for Active; 'I' for Inactive)
REMARK    1  A    between atoms: C_2  and  C_3 
REMARK    2  A    between atoms: C_3  and  O_6 
REMARK    3  A    between atoms: C_3  and  C_4 
REMARK    4  A    between atoms: C_7  and  O_6 
REMARK    5  A    between atoms: C_9  and  C_10 
REMARK    6  A    between atoms: N_15  and  C_14 
REMARK    7  A    between atoms: N_20  and  C_19 
REMARK       I    between atoms: C_22  and  N_20 
ROOT
ATOM      1  C   LIG d   1      -6.727  92.939 117.428  0.00  0.00     0.161 C 
ATOM      2  C   LIG d   1      -7.967  92.885 118.085  0.00  0.00     0.016 C 
ATOM      3  C   LIG d   1      -8.491  93.953 118.849  0.00  0.00     0.038 C 
ATOM      4  C   LIG d   1      -7.872  95.211 118.885  0.00  0.00     0.028 C 
ATOM      5  C   LIG d   1      -6.367  95.154 118.651  0.00  0.00    -0.047 C 
ATOM      6  C   LIG d   1      -6.090  94.343 117.364  0.00  0.00     0.091 C 
ENDROOT
BRANCH   1   7
ATOM      7  O   LIG d   1      -6.850  92.384 116.104  0.00  0.00    -0.368 OA
BRANCH   7   8
ATOM      8  C   LIG d   1      -5.909  91.336 115.762  0.00  0.00     0.119 C 
BRANCH   8   9
ATOM      9  C   LIG d   1      -6.685  90.251 114.991  0.00  0.00     0.028 C 
ATOM     10  C   LIG d   1      -7.894  89.722 115.780  0.00  0.00     0.006 C 
ENDBRANCH   8   9
BRANCH   8  11
ATOM     11  C   LIG d   1      -5.372  90.639 117.015  0.00  0.00     0.028 C 
ATOM     12  C   LIG d   1      -3.871  90.321 116.923  0.00  0.00     0.006 C 
ENDBRANCH   8  11
ENDBRANCH   7   8
ENDBRANCH   1   7
BRANCH   6  13
ATOM     13  N   LIG d   1      -4.637  94.166 117.107  0.00  0.00    -0.311 N 
ATOM     14  C   LIG d   1      -3.754  93.876 118.061  0.00  0.00     0.210 C 
ATOM     15  C   LIG d   1      -2.303  93.757 117.584  0.00  0.00     0.109 C 
ATOM     16  O   LIG d   1      -4.038  93.674 119.251  0.00  0.00    -0.276 OA
ATOM     17  H   LIG d   1      -4.323  94.282 116.163  0.00  0.00     0.149 HD
ENDBRANCH   6  13
BRANCH   5  18
ATOM     18  N   LIG d   1      -5.874  96.542 118.577  0.00  0.00     0.381 N 
ATOM     19  H   LIG d   1      -6.509  97.099 118.041  0.00  0.00    -0.090 HD
ATOM     20  H   LIG d   1      -4.982  96.546 118.113  0.00  0.00    -0.090 HD
ATOM     21  H   LIG d   1      -5.781  96.920 119.494  0.00  0.00    -0.090 HD
ENDBRANCH   5  18
BRANCH   3  22
ATOM     22  C   LIG d   1      -9.625  93.754 119.622  0.00  0.00     0.382 C 
ATOM     23  O   LIG d   1      -9.791  92.666 120.224  0.00  0.00    -0.241 OA
ATOM     24  O   LIG d   1     -10.506  94.632 119.688  0.00  0.00    -0.241 OA
ENDBRANCH   3  22
TORSDOF 7
ENDMDL
MODEL 6
REMARK VINA RESULT:      -4.6     14.024     16.469
REMARK  7 active torsions:
REMARK  status: ('A' for Active; 'I' for Inactive)
REMARK    1  A    between atoms: C_2  and  C_3 
REMARK    2  A    between atoms: C_3  and  O_6 
REMARK    3  A    between atoms: C_3  and  C_4 
REMARK    4  A    between atoms: C_7  and  O_6 
REMARK    5  A    between atoms: C_9  and  C_10 
REMARK    6  A    between atoms: N_15  and  C_14 
REMARK    7  A    between atoms: N_20  and  C_19 
REMARK       I    between atoms: C_22  and  N_20 
ROOT
ATOM      1  C   LIG d   1      -5.486  93.186 118.458  0.00  0.00     0.161 C 
ATOM      2  C   LIG d   1      -4.923  92.042 117.870  0.00  0.00     0.016 C 
ATOM      3  C   LIG d   1      -5.327  91.533 116.614  0.00  0.00     0.038 C 
ATOM      4  C   LIG d   1      -6.223  92.226 115.787  0.00  0.00     0.028 C 
ATOM      5  C   LIG d   1      -7.192  93.117 116.556  0.00  0.00    -0.047 C 
ATOM      6  C   LIG d   1      -6.387  94.018 117.520  0.00  0.00     0.091 C 
ENDROOT
BRANCH   1   7
ATOM      7  O   LIG d   1      -4.445  94.012 119.015  0.00  0.00    -0.368 OA
BRANCH   7   8
ATOM      8  C   LIG d   1      -3.674  94.793 118.068  0.00  0.00     0.119 C 
BRANCH   8   9
ATOM      9  C   LIG d   1      -2.197  94.381 118.222  0.00  0.00     0.028 C 
ATOM     10  C   LIG d   1      -1.930  93.639 119.542  0.00  0.00     0.006 C 
ENDBRANCH   8   9
BRANCH   8  11
ATOM     11  C   LIG d   1      -3.717  96.285 118.410  0.00  0.00     0.028 C 
ATOM     12  C   LIG d   1      -4.321  96.562 119.795  0.00  0.00     0.006 C 
ENDBRANCH   8  11
ENDBRANCH   7   8
ENDBRANCH   1   7
BRANCH   6  13
ATOM     13  N   LIG d   1      -7.264  94.863 118.372  0.00  0.00    -0.311 N 
ATOM     14  C   LIG d   1      -7.602  96.114 118.063  0.00  0.00     0.210 C 
ATOM     15  C   LIG d   1      -8.499  96.814 119.089  0.00  0.00     0.109 C 
ATOM     16  O   LIG d   1      -7.270  96.699 117.021  0.00  0.00    -0.276 OA
ATOM     17  H   LIG d   1      -7.603  94.456 119.222  0.00  0.00     0.149 HD
ENDBRANCH   6  13
BRANCH   5  18
ATOM     18  N   LIG d   1      -7.974  93.883 115.567  0.00  0.00     0.381 N 
ATOM     19  H   LIG d   1      -8.794  93.369 115.313  0.00  0.00    -0.090 HD
ATOM     20  H   LIG d   1      -7.416  94.014 114.743  0.00  0.00    -0.090 HD
ATOM     21  H   LIG d   1      -8.232  94.767 115.947  0.00  0.00    -0.090 HD
ENDBRANCH   5  18
BRANCH   3  22
ATOM     22  C   LIG d   1      -4.862  90.296 116.192  0.00  0.00     0.382 C 
ATOM     23  O   LIG d   1      -5.319  89.780 115.144  0.00  0.00    -0.241 OA
ATOM     24  O   LIG d   1      -4.024  89.671 116.870  0.00  0.00    -0.241 OA
ENDBRANCH   3  22
TORSDOF 7
ENDMDL
MODEL 7
REMARK VINA RESULT:      -4.6     13.814     15.997
REMARK  7 active torsions:
REMARK  status: ('A' for Active; 'I' for Inactive)
REMARK    1  A    between atoms: C_2  and  C_3 
REMARK    2  A    between atoms: C_3  and  O_6 
REMARK    3  A    between atoms: C_3  and  C_4 
REMARK    4  A    between atoms: C_7  and  O_6 
REMARK    5  A    between atoms: C_9  and  C_10 
REMARK    6  A    between atoms: N_15  and  C_14 
REMARK    7  A    between atoms: N_20  and  C_19 
REMARK       I    between atoms: C_22  and  N_20 
ROOT
ATOM      1  C   LIG d   1      -4.219  93.346 117.623  0.00  0.00     0.161 C 
ATOM      2  C   LIG d   1      -4.337  94.719 117.899  0.00  0.00     0.016 C 
ATOM      3  C   LIG d   1      -3.323  95.476 118.529  0.00  0.00     0.038 C 
ATOM      4  C   LIG d   1      -2.053  94.941 118.791  0.00  0.00     0.028 C 
ATOM      5  C   LIG d   1      -2.062  93.429 118.990  0.00  0.00    -0.047 C 
ATOM      6  C   LIG d   1      -2.799  92.771 117.801  0.00  0.00     0.091 C 
ENDROOT
BRANCH   1   7
ATOM      7  O   LIG d   1      -4.709  93.071 116.296  0.00  0.00    -0.368 OA
BRANCH   7   8
ATOM      8  C   LIG d   1      -6.044  92.513 116.212  0.00  0.00     0.119 C 
BRANCH   8   9
ATOM      9  C   LIG d   1      -6.030  91.444 115.103  0.00  0.00     0.028 C 
ATOM     10  C   LIG d   1      -5.358  90.137 115.557  0.00  0.00     0.006 C 
ENDBRANCH   8   9
BRANCH   8  11
ATOM     11  C   LIG d   1      -7.058  93.564 115.749  0.00  0.00     0.028 C 
ATOM     12  C   LIG d   1      -7.903  94.125 116.904  0.00  0.00     0.006 C 
ENDBRANCH   8  11
ENDBRANCH   7   8
ENDBRANCH   1   7
BRANCH   6  13
ATOM     13  N   LIG d   1      -2.927  91.298 117.958  0.00  0.00    -0.311 N 
ATOM     14  C   LIG d   1      -2.044  90.429 117.470  0.00  0.00     0.210 C 
ATOM     15  C   LIG d   1      -2.376  88.956 117.727  0.00  0.00     0.109 C 
ATOM     16  O   LIG d   1      -1.000  90.740 116.876  0.00  0.00    -0.276 OA
ATOM     17  H   LIG d   1      -3.728  90.960 118.455  0.00  0.00     0.149 HD
ENDBRANCH   6  13
BRANCH   5  18
ATOM     18  N   LIG d   1      -0.660  92.987 119.117  0.00  0.00     0.381 N 
ATOM     19  H   LIG d   1      -0.314  93.216 120.027  0.00  0.00    -0.090 HD
ATOM     20  H   LIG d   1      -0.103  93.473 118.436  0.00  0.00    -0.090 HD
ATOM     21  H   LIG d   1      -0.597  92.004 118.967  0.00  0.00    -0.090 HD
ENDBRANCH   5  18
BRANCH   3  22
ATOM     22  C   LIG d   1      -3.588  96.773 118.940  0.00  0.00     0.382 C 
ATOM     23  O   LIG d   1      -3.139  97.743 118.283  0.00  0.00    -0.241 OA
ATOM     24  O   LIG d   1      -4.234  96.986 119.983  0.00  0.00    -0.241 OA
ENDBRANCH   3  22
TORSDOF 7
ENDMDL
MODEL 8
REMARK VINA RESULT:      -4.6      2.296      6.296
REMARK  7 active torsions:
REMARK  status: ('A' for Active; 'I' for Inactive)
REMARK    1  A    between atoms: C_2  and  C_3 
REMARK    2  A    between atoms: C_3  and  O_6 
REMARK    3  A    between atoms: C_3  and  C_4 
REMARK    4  A    between atoms: C_7  and  O_6 
REMARK    5  A    between atoms: C_9  and  C_10 
REMARK    6  A    between atoms: N_15  and  C_14 
REMARK    7  A    between atoms: N_20  and  C_19 
REMARK       I    between atoms: C_22  and  N_20 
ROOT
ATOM      1  C   LIG d   1      -6.163  78.678 118.653  0.00  0.00     0.161 C 
ATOM      2  C   LIG d   1      -5.053  78.963 117.841  0.00  0.00     0.016 C 
ATOM      3  C   LIG d   1      -4.782  78.288 116.629  0.00  0.00     0.038 C 
ATOM      4  C   LIG d   1      -5.692  77.380 116.066  0.00  0.00     0.028 C 
ATOM      5  C   LIG d   1      -6.578  76.692 117.099  0.00  0.00    -0.047 C 
ATOM      6  C   LIG d   1      -7.225  77.768 118.001  0.00  0.00     0.091 C 
ENDROOT
BRANCH   1   7
ATOM      7  O   LIG d   1      -6.766  79.907 119.106  0.00  0.00    -0.368 OA
BRANCH   7   8
ATOM      8  C   LIG d   1      -7.667  80.555 118.175  0.00  0.00     0.119 C 
BRANCH   8   9
ATOM      9  C   LIG d   1      -6.993  81.860 117.711  0.00  0.00     0.028 C 
ATOM     10  C   LIG d   1      -6.174  82.528 118.828  0.00  0.00     0.006 C 
ENDBRANCH   8   9
BRANCH   8  11
ATOM     11  C   LIG d   1      -8.962  80.991 118.867  0.00  0.00     0.028 C 
ATOM     12  C   LIG d   1      -9.958  81.655 117.902  0.00  0.00     0.006 C 
ENDBRANCH   8  11
ENDBRANCH   7   8
ENDBRANCH   1   7
BRANCH   6  13
ATOM     13  N   LIG d   1      -8.042  77.177 119.092  0.00  0.00    -0.311 N 
ATOM     14  C   LIG d   1      -9.372  77.238 119.128  0.00  0.00     0.210 C 
ATOM     15  C   LIG d   1     -10.017  76.581 120.352  0.00  0.00     0.109 C 
ATOM     16  O   LIG d   1     -10.081  77.745 118.246  0.00  0.00    -0.276 OA
ATOM     17  H   LIG d   1      -7.550  76.718 119.834  0.00  0.00     0.149 HD
ENDBRANCH   6  13
BRANCH   5  18
ATOM     18  N   LIG d   1      -7.568  75.880 116.367  0.00  0.00     0.381 N 
ATOM     19  H   LIG d   1      -7.299  75.803 115.407  0.00  0.00    -0.090 HD
ATOM     20  H   LIG d   1      -8.461  76.339 116.410  0.00  0.00    -0.090 HD
ATOM     21  H   LIG d   1      -7.633  74.973 116.775  0.00  0.00    -0.090 HD
ENDBRANCH   5  18
BRANCH   3  22
ATOM     22  C   LIG d   1      -3.571  78.490 115.985  0.00  0.00     0.382 C 
ATOM     23  O   LIG d   1      -3.429  79.464 115.207  0.00  0.00    -0.241 OA
ATOM     24  O   LIG d   1      -2.632  77.686 116.139  0.00  0.00    -0.241 OA
ENDBRANCH   3  22
TORSDOF 7
ENDMDL
MODEL 9
REMARK VINA RESULT:      -4.6     11.932     13.854
REMARK  7 active torsions:
REMARK  status: ('A' for Active; 'I' for Inactive)
REMARK    1  A    between atoms: C_2  and  C_3 
REMARK    2  A    between atoms: C_3  and  O_6 
REMARK    3  A    between atoms: C_3  and  C_4 
REMARK    4  A    between atoms: C_7  and  O_6 
REMARK    5  A    between atoms: C_9  and  C_10 
REMARK    6  A    between atoms: N_15  and  C_14 
REMARK    7  A    between atoms: N_20  and  C_19 
REMARK       I    between atoms: C_22  and  N_20 
ROOT
ATOM      1  C   LIG d   1      -5.299  90.653 117.896  0.00  0.00     0.161 C 
ATOM      2  C   LIG d   1      -6.302  91.560 118.278  0.00  0.00     0.016 C 
ATOM      3  C   LIG d   1      -6.036  92.781 118.938  0.00  0.00     0.038 C 
ATOM      4  C   LIG d   1      -4.729  93.252 119.129  0.00  0.00     0.028 C 
ATOM      5  C   LIG d   1      -3.690  92.139 119.213  0.00  0.00    -0.047 C 
ATOM      6  C   LIG d   1      -3.860  91.201 117.996  0.00  0.00     0.091 C 
ENDROOT
BRANCH   1   7
ATOM      7  O   LIG d   1      -5.559  90.168 116.564  0.00  0.00    -0.368 OA
BRANCH   7   8
ATOM      8  C   LIG d   1      -6.702  90.746 115.888  0.00  0.00     0.119 C 
BRANCH   8   9
ATOM      9  C   LIG d   1      -7.395  89.616 115.102  0.00  0.00     0.028 C 
ATOM     10  C   LIG d   1      -8.686  89.133 115.784  0.00  0.00     0.006 C 
ENDBRANCH   8   9
BRANCH   8  11
ATOM     11  C   LIG d   1      -6.268  91.767 114.832  0.00  0.00     0.028 C 
ATOM     12  C   LIG d   1      -6.958  93.130 115.001  0.00  0.00     0.006 C 
ENDBRANCH   8  11
ENDBRANCH   7   8
ENDBRANCH   1   7
BRANCH   6  13
ATOM     13  N   LIG d   1      -2.937  90.037 118.045  0.00  0.00    -0.311 N 
ATOM     14  C   LIG d   1      -1.737  90.027 117.468  0.00  0.00     0.210 C 
ATOM     15  C   LIG d   1      -0.956  88.719 117.622  0.00  0.00     0.109 C 
ATOM     16  O   LIG d   1      -1.232  90.990 116.871  0.00  0.00    -0.276 OA
ATOM     17  H   LIG d   1      -3.255  89.224 118.536  0.00  0.00     0.149 HD
ENDBRANCH   6  13
BRANCH   5  18
ATOM     18  N   LIG d   1      -2.360  92.774 119.273  0.00  0.00     0.381 N 
ATOM     19  H   LIG d   1      -1.669  92.148 118.910  0.00  0.00    -0.090 HD
ATOM     20  H   LIG d   1      -2.136  92.969 120.233  0.00  0.00    -0.090 HD
ATOM     21  H   LIG d   1      -2.362  93.619 118.747  0.00  0.00    -0.090 HD
ENDBRANCH   5  18
BRANCH   3  22
ATOM     22  C   LIG d   1      -7.086  93.527 119.452  0.00  0.00     0.382 C 
ATOM     23  O   LIG d   1      -6.853  94.494 120.217  0.00  0.00    -0.241 OA
ATOM     24  O   LIG d   1      -8.265  93.218 119.196  0.00  0.00    -0.241 OA
ENDBRANCH   3  22
TORSDOF 7
ENDMDL
