MODEL 1
REMARK VINA RESULT:      -5.7      0.000      0.000
REMARK  7 active torsions:
REMARK  status: ('A' for Active; 'I' for Inactive)
REMARK    1  A    between atoms: C_2  and  C_3 
REMARK    2  A    between atoms: C_3  and  O_6 
REMARK    3  A    between atoms: C_3  and  C_4 
REMARK    4  A    between atoms: C_7  and  O_6 
REMARK    5  A    between atoms: C_9  and  C_10 
REMARK    6  A    between atoms: N_15  and  C_14 
REMARK    7  A    between atoms: N_20  and  C_19 
REMARK       I    between atoms: C_22  and  N_20 
ROOT
ATOM      1  C   LIG d   1      -7.174  75.932 117.577  0.00  0.00     0.161 C 
ATOM      2  C   LIG d   1      -8.206  76.882 117.658  0.00  0.00     0.016 C 
ATOM      3  C   LIG d   1      -7.982  78.278 117.649  0.00  0.00     0.038 C 
ATOM      4  C   LIG d   1      -6.712  78.823 117.403  0.00  0.00     0.028 C 
ATOM      5  C   LIG d   1      -5.568  77.904 117.820  0.00  0.00    -0.047 C 
ATOM      6  C   LIG d   1      -5.794  76.508 117.197  0.00  0.00     0.091 C 
ENDROOT
BRANCH   1   7
ATOM      7  O   LIG d   1      -7.548  74.882 116.663  0.00  0.00    -0.368 OA
BRANCH   7   8
ATOM      8  C   LIG d   1      -7.824  73.589 117.256  0.00  0.00     0.119 C 
BRANCH   8   9
ATOM      9  C   LIG d   1      -6.880  72.566 116.596  0.00  0.00     0.028 C 
ATOM     10  C   LIG d   1      -6.400  73.021 115.207  0.00  0.00     0.006 C 
ENDBRANCH   8   9
BRANCH   8  11
ATOM     11  C   LIG d   1      -9.239  73.112 116.918  0.00  0.00     0.028 C 
ATOM     12  C   LIG d   1      -9.391  71.585 117.007  0.00  0.00     0.006 C 
ENDBRANCH   8  11
ENDBRANCH   7   8
ENDBRANCH   1   7
BRANCH   6  13
ATOM     13  N   LIG d   1      -4.764  75.524 117.623  0.00  0.00    -0.311 N 
ATOM     14  C   LIG d   1      -3.675  75.247 116.907  0.00  0.00     0.210 C 
ATOM     15  C   LIG d   1      -2.752  74.188 117.518  0.00  0.00     0.109 C 
ATOM     16  O   LIG d   1      -3.369  75.802 115.841  0.00  0.00    -0.276 OA
ATOM     17  H   LIG d   1      -4.917  75.051 118.491  0.00  0.00     0.149 HD
ENDBRANCH   6  13
BRANCH   5  18
ATOM     18  N   LIG d   1      -4.309  78.536 117.382  0.00  0.00     0.381 N 
ATOM     19  H   LIG d   1      -3.554  77.885 117.474  0.00  0.00    -0.090 HD
ATOM     20  H   LIG d   1      -4.118  79.325 117.974  0.00  0.00    -0.090 HD
ATOM     21  H   LIG d   1      -4.387  78.833 116.435  0.00  0.00    -0.090 HD
ENDBRANCH   5  18
BRANCH   3  22
ATOM     22  C   LIG d   1      -9.028  79.144 117.926  0.00  0.00     0.382 C 
ATOM     23  O   LIG d   1      -8.806  80.371 118.065  0.00  0.00    -0.241 OA
ATOM     24  O   LIG d   1     -10.184  78.708 118.083  0.00  0.00    -0.241 OA
ENDBRANCH   3  22
TORSDOF 7
ENDMDL
MODEL 2
REMARK VINA RESULT:      -5.6     14.148     16.329
REMARK  7 active torsions:
REMARK  status: ('A' for Active; 'I' for Inactive)
REMARK    1  A    between atoms: C_2  and  C_3 
REMARK    2  A    between atoms: C_3  and  O_6 
REMARK    3  A    between atoms: C_3  and  C_4 
REMARK    4  A    between atoms: C_7  and  O_6 
REMARK    5  A    between atoms: C_9  and  C_10 
REMARK    6  A    between atoms: N_15  and  C_14 
REMARK    7  A    between atoms: N_20  and  C_19 
REMARK       I    between atoms: C_22  and  N_20 
ROOT
ATOM      1  C   LIG d   1      -5.335  91.581 118.759  0.00  0.00     0.161 C 
ATOM      2  C   LIG d   1      -6.500  91.116 118.125  0.00  0.00     0.016 C 
ATOM      3  C   LIG d   1      -6.485  90.332 116.949  0.00  0.00     0.038 C 
ATOM      4  C   LIG d   1      -5.293  89.829 116.408  0.00  0.00     0.028 C 
ATOM      5  C   LIG d   1      -4.074  90.689 116.723  0.00  0.00    -0.047 C 
ATOM      6  C   LIG d   1      -4.024  90.949 118.246  0.00  0.00     0.091 C 
ENDROOT
BRANCH   1   7
ATOM      7  O   LIG d   1      -5.452  91.406 120.185  0.00  0.00    -0.368 OA
BRANCH   7   8
ATOM      8  C   LIG d   1      -5.582  92.618 120.967  0.00  0.00     0.119 C 
BRANCH   8   9
ATOM      9  C   LIG d   1      -6.003  93.747 120.006  0.00  0.00     0.028 C 
ATOM     10  C   LIG d   1      -7.406  94.292 120.320  0.00  0.00     0.006 C 
ENDBRANCH   8   9
BRANCH   8  11
ATOM     11  C   LIG d   1      -4.233  93.057 121.543  0.00  0.00     0.028 C 
ATOM     12  C   LIG d   1      -3.744  94.394 120.963  0.00  0.00     0.006 C 
ENDBRANCH   8  11
ENDBRANCH   7   8
ENDBRANCH   1   7
BRANCH   6  13
ATOM     13  N   LIG d   1      -2.909  91.854 118.630  0.00  0.00    -0.311 N 
ATOM     14  C   LIG d   1      -1.722  91.417 119.049  0.00  0.00     0.210 C 
ATOM     15  C   LIG d   1      -0.720  92.517 119.413  0.00  0.00     0.109 C 
ATOM     16  O   LIG d   1      -1.393  90.224 119.122  0.00  0.00    -0.276 OA
ATOM     17  H   LIG d   1      -3.079  92.838 118.571  0.00  0.00     0.149 HD
ENDBRANCH   6  13
BRANCH   5  18
ATOM     18  N   LIG d   1      -2.884  89.978 116.219  0.00  0.00     0.381 N 
ATOM     19  H   LIG d   1      -3.157  89.104 115.817  0.00  0.00    -0.090 HD
ATOM     20  H   LIG d   1      -2.266  89.793 116.988  0.00  0.00    -0.090 HD
ATOM     21  H   LIG d   1      -2.419  90.535 115.536  0.00  0.00    -0.090 HD
ENDBRANCH   5  18
BRANCH   3  22
ATOM     22  C   LIG d   1      -7.672  90.076 116.279  0.00  0.00     0.382 C 
ATOM     23  O   LIG d   1      -8.466  89.209 116.717  0.00  0.00    -0.241 OA
ATOM     24  O   LIG d   1      -7.939  90.671 115.217  0.00  0.00    -0.241 OA
ENDBRANCH   3  22
TORSDOF 7
ENDMDL
MODEL 3
REMARK VINA RESULT:      -5.2      1.654      2.066
REMARK  7 active torsions:
REMARK  status: ('A' for Active; 'I' for Inactive)
REMARK    1  A    between atoms: C_2  and  C_3 
REMARK    2  A    between atoms: C_3  and  O_6 
REMARK    3  A    between atoms: C_3  and  C_4 
REMARK    4  A    between atoms: C_7  and  O_6 
REMARK    5  A    between atoms: C_9  and  C_10 
REMARK    6  A    between atoms: N_15  and  C_14 
REMARK    7  A    between atoms: N_20  and  C_19 
REMARK       I    between atoms: C_22  and  N_20 
ROOT
ATOM      1  C   LIG d   1      -6.897  77.340 117.409  0.00  0.00     0.161 C 
ATOM      2  C   LIG d   1      -8.164  77.872 117.702  0.00  0.00     0.016 C 
ATOM      3  C   LIG d   1      -8.402  79.252 117.897  0.00  0.00     0.038 C 
ATOM      4  C   LIG d   1      -7.411  80.216 117.662  0.00  0.00     0.028 C 
ATOM      5  C   LIG d   1      -5.994  79.688 117.858  0.00  0.00    -0.047 C 
ATOM      6  C   LIG d   1      -5.826  78.387 117.040  0.00  0.00     0.091 C 
ENDROOT
BRANCH   1   7
ATOM      7  O   LIG d   1      -7.012  76.351 116.368  0.00  0.00    -0.368 OA
BRANCH   7   8
ATOM      8  C   LIG d   1      -6.630  75.000 116.726  0.00  0.00     0.119 C 
BRANCH   8   9
ATOM      9  C   LIG d   1      -6.134  74.303 115.445  0.00  0.00     0.028 C 
ATOM     10  C   LIG d   1      -4.940  75.031 114.805  0.00  0.00     0.006 C 
ENDBRANCH   8   9
BRANCH   8  11
ATOM     11  C   LIG d   1      -7.840  74.184 117.190  0.00  0.00     0.028 C 
ATOM     12  C   LIG d   1      -7.705  72.686 116.873  0.00  0.00     0.006 C 
ENDBRANCH   8  11
ENDBRANCH   7   8
ENDBRANCH   1   7
BRANCH   6  13
ATOM     13  N   LIG d   1      -4.494  77.759 117.241  0.00  0.00    -0.311 N 
ATOM     14  C   LIG d   1      -3.445  77.995 116.455  0.00  0.00     0.210 C 
ATOM     15  C   LIG d   1      -2.172  77.228 116.828  0.00  0.00     0.109 C 
ATOM     16  O   LIG d   1      -3.439  78.791 115.505  0.00  0.00    -0.276 OA
ATOM     17  H   LIG d   1      -4.402  77.122 118.009  0.00  0.00     0.149 HD
ENDBRANCH   6  13
BRANCH   5  18
ATOM     18  N   LIG d   1      -5.060  80.754 117.447  0.00  0.00     0.381 N 
ATOM     19  H   LIG d   1      -5.091  80.867 116.454  0.00  0.00    -0.090 HD
ATOM     20  H   LIG d   1      -4.127  80.485 117.705  0.00  0.00    -0.090 HD
ATOM     21  H   LIG d   1      -5.303  81.610 117.894  0.00  0.00    -0.090 HD
ENDBRANCH   5  18
BRANCH   3  22
ATOM     22  C   LIG d   1      -9.634  79.676 118.371  0.00  0.00     0.382 C 
ATOM     23  O   LIG d   1     -10.130  79.144 119.393  0.00  0.00    -0.241 OA
ATOM     24  O   LIG d   1     -10.277  80.554 117.764  0.00  0.00    -0.241 OA
ENDBRANCH   3  22
TORSDOF 7
ENDMDL
MODEL 4
REMARK VINA RESULT:      -5.2      1.939      5.138
REMARK  7 active torsions:
REMARK  status: ('A' for Active; 'I' for Inactive)
REMARK    1  A    between atoms: C_2  and  C_3 
REMARK    2  A    between atoms: C_3  and  O_6 
REMARK    3  A    between atoms: C_3  and  C_4 
REMARK    4  A    between atoms: C_7  and  O_6 
REMARK    5  A    between atoms: C_9  and  C_10 
REMARK    6  A    between atoms: N_15  and  C_14 
REMARK    7  A    between atoms: N_20  and  C_19 
REMARK       I    between atoms: C_22  and  N_20 
ROOT
ATOM      1  C   LIG d   1      -6.952  76.381 117.342  0.00  0.00     0.161 C 
ATOM      2  C   LIG d   1      -7.852  75.331 117.094  0.00  0.00     0.016 C 
ATOM      3  C   LIG d   1      -7.461  73.975 117.006  0.00  0.00     0.038 C 
ATOM      4  C   LIG d   1      -6.157  73.558 117.312  0.00  0.00     0.028 C 
ATOM      5  C   LIG d   1      -5.105  74.636 117.073  0.00  0.00    -0.047 C 
ATOM      6  C   LIG d   1      -5.544  75.934 117.789  0.00  0.00     0.091 C 
ENDROOT
BRANCH   1   7
ATOM      7  O   LIG d   1      -7.517  77.292 118.306  0.00  0.00    -0.368 OA
BRANCH   7   8
ATOM      8  C   LIG d   1      -8.020  78.545 117.779  0.00  0.00     0.119 C 
BRANCH   8   9
ATOM      9  C   LIG d   1      -7.176  79.678 118.395  0.00  0.00     0.028 C 
ATOM     10  C   LIG d   1      -6.186  80.286 117.388  0.00  0.00     0.006 C 
ENDBRANCH   8   9
BRANCH   8  11
ATOM     11  C   LIG d   1      -9.455  78.809 118.245  0.00  0.00     0.028 C 
ATOM     12  C   LIG d   1      -9.829  80.299 118.206  0.00  0.00     0.006 C 
ENDBRANCH   8  11
ENDBRANCH   7   8
ENDBRANCH   1   7
BRANCH   6  13
ATOM     13  N   LIG d   1      -4.612  77.063 117.536  0.00  0.00    -0.311 N 
ATOM     14  C   LIG d   1      -3.614  77.388 118.357  0.00  0.00     0.210 C 
ATOM     15  C   LIG d   1      -2.785  78.599 117.919  0.00  0.00     0.109 C 
ATOM     16  O   LIG d   1      -3.317  76.768 119.389  0.00  0.00    -0.276 OA
ATOM     17  H   LIG d   1      -4.761  77.601 116.705  0.00  0.00     0.149 HD
ENDBRANCH   6  13
BRANCH   5  18
ATOM     18  N   LIG d   1      -3.814  74.114 117.562  0.00  0.00     0.381 N 
ATOM     19  H   LIG d   1      -3.940  73.194 117.933  0.00  0.00    -0.090 HD
ATOM     20  H   LIG d   1      -3.482  74.709 118.300  0.00  0.00    -0.090 HD
ATOM     21  H   LIG d   1      -3.152  74.093 116.819  0.00  0.00    -0.090 HD
ENDBRANCH   5  18
BRANCH   3  22
ATOM     22  C   LIG d   1      -8.371  73.025 116.569  0.00  0.00     0.382 C 
ATOM     23  O   LIG d   1      -8.057  72.232 115.649  0.00  0.00    -0.241 OA
ATOM     24  O   LIG d   1      -9.518  72.979 117.053  0.00  0.00    -0.241 OA
ENDBRANCH   3  22
TORSDOF 7
ENDMDL
MODEL 5
REMARK VINA RESULT:      -5.0      2.501      5.590
REMARK  7 active torsions:
REMARK  status: ('A' for Active; 'I' for Inactive)
REMARK    1  A    between atoms: C_2  and  C_3 
REMARK    2  A    between atoms: C_3  and  O_6 
REMARK    3  A    between atoms: C_3  and  C_4 
REMARK    4  A    between atoms: C_7  and  O_6 
REMARK    5  A    between atoms: C_9  and  C_10 
REMARK    6  A    between atoms: N_15  and  C_14 
REMARK    7  A    between atoms: N_20  and  C_19 
REMARK       I    between atoms: C_22  and  N_20 
ROOT
ATOM      1  C   LIG d   1      -4.141  76.143 116.633  0.00  0.00     0.161 C 
ATOM      2  C   LIG d   1      -3.172  75.335 116.016  0.00  0.00     0.016 C 
ATOM      3  C   LIG d   1      -2.081  74.762 116.710  0.00  0.00     0.038 C 
ATOM      4  C   LIG d   1      -1.969  74.836 118.106  0.00  0.00     0.028 C 
ATOM      5  C   LIG d   1      -2.647  76.064 118.704  0.00  0.00    -0.047 C 
ATOM      6  C   LIG d   1      -4.097  76.143 118.175  0.00  0.00     0.091 C 
ENDROOT
BRANCH   1   7
ATOM      7  O   LIG d   1      -5.454  75.771 116.169  0.00  0.00    -0.368 OA
BRANCH   7   8
ATOM      8  C   LIG d   1      -6.000  74.546 116.717  0.00  0.00     0.119 C 
BRANCH   8   9
ATOM      9  C   LIG d   1      -6.405  73.649 115.531  0.00  0.00     0.028 C 
ATOM     10  C   LIG d   1      -7.363  72.521 115.949  0.00  0.00     0.006 C 
ENDBRANCH   8   9
BRANCH   8  11
ATOM     11  C   LIG d   1      -7.298  74.810 117.487  0.00  0.00     0.028 C 
ATOM     12  C   LIG d   1      -7.985  76.119 117.066  0.00  0.00     0.006 C 
ENDBRANCH   8  11
ENDBRANCH   7   8
ENDBRANCH   1   7
BRANCH   6  13
ATOM     13  N   LIG d   1      -4.806  77.362 118.645  0.00  0.00    -0.311 N 
ATOM     14  C   LIG d   1      -5.630  77.374 119.692  0.00  0.00     0.210 C 
ATOM     15  C   LIG d   1      -6.272  78.731 119.994  0.00  0.00     0.109 C 
ATOM     16  O   LIG d   1      -5.864  76.396 120.418  0.00  0.00    -0.276 OA
ATOM     17  H   LIG d   1      -4.649  78.208 118.132  0.00  0.00     0.149 HD
ENDBRANCH   6  13
BRANCH   5  18
ATOM     18  N   LIG d   1      -2.573  75.943 120.172  0.00  0.00     0.381 N 
ATOM     19  H   LIG d   1      -1.678  76.256 120.493  0.00  0.00    -0.090 HD
ATOM     20  H   LIG d   1      -2.678  74.977 120.425  0.00  0.00    -0.090 HD
ATOM     21  H   LIG d   1      -3.294  76.485 120.596  0.00  0.00    -0.090 HD
ENDBRANCH   5  18
BRANCH   3  22
ATOM     22  C   LIG d   1      -1.065  74.140 115.999  0.00  0.00     0.382 C 
ATOM     23  O   LIG d   1      -0.318  73.310 116.570  0.00  0.00    -0.241 OA
ATOM     24  O   LIG d   1      -0.858  74.432 114.806  0.00  0.00    -0.241 OA
ENDBRANCH   3  22
TORSDOF 7
ENDMDL
MODEL 6
REMARK VINA RESULT:      -4.8     14.615     16.881
REMARK  7 active torsions:
REMARK  status: ('A' for Active; 'I' for Inactive)
REMARK    1  A    between atoms: C_2  and  C_3 
REMARK    2  A    between atoms: C_3  and  O_6 
REMARK    3  A    between atoms: C_3  and  C_4 
REMARK    4  A    between atoms: C_7  and  O_6 
REMARK    5  A    between atoms: C_9  and  C_10 
REMARK    6  A    between atoms: N_15  and  C_14 
REMARK    7  A    between atoms: N_20  and  C_19 
REMARK       I    between atoms: C_22  and  N_20 
ROOT
ATOM      1  C   LIG d   1      -5.286  91.364 119.278  0.00  0.00     0.161 C 
ATOM      2  C   LIG d   1      -4.172  91.326 120.133  0.00  0.00     0.016 C 
ATOM      3  C   LIG d   1      -2.929  90.762 119.767  0.00  0.00     0.038 C 
ATOM      4  C   LIG d   1      -2.667  90.329 118.459  0.00  0.00     0.028 C 
ATOM      5  C   LIG d   1      -3.917  89.885 117.706  0.00  0.00    -0.047 C 
ATOM      6  C   LIG d   1      -4.986  90.997 117.809  0.00  0.00     0.091 C 
ENDROOT
BRANCH   1   7
ATOM      7  O   LIG d   1      -5.916  92.658 119.353  0.00  0.00    -0.368 OA
BRANCH   7   8
ATOM      8  C   LIG d   1      -5.601  93.454 120.521  0.00  0.00     0.119 C 
BRANCH   8   9
ATOM      9  C   LIG d   1      -6.919  93.710 121.276  0.00  0.00     0.028 C 
ATOM     10  C   LIG d   1      -7.764  94.817 120.623  0.00  0.00     0.006 C 
ENDBRANCH   8   9
BRANCH   8  11
ATOM     11  C   LIG d   1      -5.082  94.840 120.128  0.00  0.00     0.028 C 
ATOM     12  C   LIG d   1      -3.593  95.034 120.455  0.00  0.00     0.006 C 
ENDBRANCH   8  11
ENDBRANCH   7   8
ENDBRANCH   1   7
BRANCH   6  13
ATOM     13  N   LIG d   1      -6.271  90.609 117.171  0.00  0.00    -0.311 N 
ATOM     14  C   LIG d   1      -6.528  90.782 115.876  0.00  0.00     0.210 C 
ATOM     15  C   LIG d   1      -7.922  90.331 115.428  0.00  0.00     0.109 C 
ATOM     16  O   LIG d   1      -5.723  91.235 115.049  0.00  0.00    -0.276 OA
ATOM     17  H   LIG d   1      -6.970  90.204 117.763  0.00  0.00     0.149 HD
ENDBRANCH   6  13
BRANCH   5  18
ATOM     18  N   LIG d   1      -3.520  89.592 116.316  0.00  0.00     0.381 N 
ATOM     19  H   LIG d   1      -3.669  90.399 115.744  0.00  0.00    -0.090 HD
ATOM     20  H   LIG d   1      -4.094  88.846 115.965  0.00  0.00    -0.090 HD
ATOM     21  H   LIG d   1      -2.561  89.326 116.285  0.00  0.00    -0.090 HD
ENDBRANCH   5  18
BRANCH   3  22
ATOM     22  C   LIG d   1      -1.943  90.589 120.727  0.00  0.00     0.382 C 
ATOM     23  O   LIG d   1      -1.425  89.459 120.898  0.00  0.00    -0.241 OA
ATOM     24  O   LIG d   1      -1.597  91.539 121.455  0.00  0.00    -0.241 OA
ENDBRANCH   3  22
TORSDOF 7
ENDMDL
MODEL 7
REMARK VINA RESULT:      -4.8      2.462      3.884
REMARK  7 active torsions:
REMARK  status: ('A' for Active; 'I' for Inactive)
REMARK    1  A    between atoms: C_2  and  C_3 
REMARK    2  A    between atoms: C_3  and  O_6 
REMARK    3  A    between atoms: C_3  and  C_4 
REMARK    4  A    between atoms: C_7  and  O_6 
REMARK    5  A    between atoms: C_9  and  C_10 
REMARK    6  A    between atoms: N_15  and  C_14 
REMARK    7  A    between atoms: N_20  and  C_19 
REMARK       I    between atoms: C_22  and  N_20 
ROOT
ATOM      1  C   LIG d   1      -6.223  78.454 117.624  0.00  0.00     0.161 C 
ATOM      2  C   LIG d   1      -7.560  78.087 117.853  0.00  0.00     0.016 C 
ATOM      3  C   LIG d   1      -8.582  79.018 118.150  0.00  0.00     0.038 C 
ATOM      4  C   LIG d   1      -8.365  80.402 118.089  0.00  0.00     0.028 C 
ATOM      5  C   LIG d   1      -6.917  80.801 118.358  0.00  0.00    -0.047 C 
ATOM      6  C   LIG d   1      -5.990  79.968 117.444  0.00  0.00     0.091 C 
ENDROOT
BRANCH   1   7
ATOM      7  O   LIG d   1      -5.705  77.729 116.491  0.00  0.00    -0.368 OA
BRANCH   7   8
ATOM      8  C   LIG d   1      -6.240  76.398 116.287  0.00  0.00     0.119 C 
BRANCH   8   9
ATOM      9  C   LIG d   1      -5.507  75.450 117.257  0.00  0.00     0.028 C 
ATOM     10  C   LIG d   1      -6.470  74.507 117.996  0.00  0.00     0.006 C 
ENDBRANCH   8   9
BRANCH   8  11
ATOM     11  C   LIG d   1      -5.914  75.875 114.885  0.00  0.00     0.028 C 
ATOM     12  C   LIG d   1      -4.532  75.207 114.805  0.00  0.00     0.006 C 
ENDBRANCH   8  11
ENDBRANCH   7   8
ENDBRANCH   1   7
BRANCH   6  13
ATOM     13  N   LIG d   1      -4.551  80.235 117.703  0.00  0.00    -0.311 N 
ATOM     14  C   LIG d   1      -3.694  80.616 116.757  0.00  0.00     0.210 C 
ATOM     15  C   LIG d   1      -2.252  80.818 117.234  0.00  0.00     0.109 C 
ATOM     16  O   LIG d   1      -3.998  80.837 115.575  0.00  0.00    -0.276 OA
ATOM     17  H   LIG d   1      -4.225  80.110 118.642  0.00  0.00     0.149 HD
ENDBRANCH   6  13
BRANCH   5  18
ATOM     18  N   LIG d   1      -6.805  82.253 118.128  0.00  0.00     0.381 N 
ATOM     19  H   LIG d   1      -7.584  82.572 117.587  0.00  0.00    -0.090 HD
ATOM     20  H   LIG d   1      -5.964  82.436 117.608  0.00  0.00    -0.090 HD
ATOM     21  H   LIG d   1      -6.776  82.736 118.999  0.00  0.00    -0.090 HD
ENDBRANCH   5  18
BRANCH   3  22
ATOM     22  C   LIG d   1      -9.829  78.564 118.551  0.00  0.00     0.382 C 
ATOM     23  O   LIG d   1     -10.475  77.775 117.820  0.00  0.00    -0.241 OA
ATOM     24  O   LIG d   1     -10.336  78.968 119.615  0.00  0.00    -0.241 OA
ENDBRANCH   3  22
TORSDOF 7
ENDMDL
MODEL 8
REMARK VINA RESULT:      -4.7      2.012      4.097
REMARK  7 active torsions:
REMARK  status: ('A' for Active; 'I' for Inactive)
REMARK    1  A    between atoms: C_2  and  C_3 
REMARK    2  A    between atoms: C_3  and  O_6 
REMARK    3  A    between atoms: C_3  and  C_4 
REMARK    4  A    between atoms: C_7  and  O_6 
REMARK    5  A    between atoms: C_9  and  C_10 
REMARK    6  A    between atoms: N_15  and  C_14 
REMARK    7  A    between atoms: N_20  and  C_19 
REMARK       I    between atoms: C_22  and  N_20 
ROOT
ATOM      1  C   LIG d   1      -6.410  77.060 117.109  0.00  0.00     0.161 C 
ATOM      2  C   LIG d   1      -6.597  78.407 117.459  0.00  0.00     0.016 C 
ATOM      3  C   LIG d   1      -7.860  78.963 117.767  0.00  0.00     0.038 C 
ATOM      4  C   LIG d   1      -9.009  78.167 117.895  0.00  0.00     0.028 C 
ATOM      5  C   LIG d   1      -8.959  76.893 117.059  0.00  0.00    -0.047 C 
ATOM      6  C   LIG d   1      -7.634  76.152 117.351  0.00  0.00     0.091 C 
ENDROOT
BRANCH   1   7
ATOM      7  O   LIG d   1      -5.254  76.534 117.791  0.00  0.00    -0.368 OA
BRANCH   7   8
ATOM      8  C   LIG d   1      -3.994  76.641 117.084  0.00  0.00     0.119 C 
BRANCH   8   9
ATOM      9  C   LIG d   1      -3.735  75.289 116.391  0.00  0.00     0.028 C 
ATOM     10  C   LIG d   1      -4.223  75.275 114.932  0.00  0.00     0.006 C 
ENDBRANCH   8   9
BRANCH   8  11
ATOM     11  C   LIG d   1      -2.825  76.828 118.056  0.00  0.00     0.028 C 
ATOM     12  C   LIG d   1      -3.085  76.193 119.431  0.00  0.00     0.006 C 
ENDBRANCH   8  11
ENDBRANCH   7   8
ENDBRANCH   1   7
BRANCH   6  13
ATOM     13  N   LIG d   1      -7.467  74.938 116.511  0.00  0.00    -0.311 N 
ATOM     14  C   LIG d   1      -7.089  73.757 116.997  0.00  0.00     0.210 C 
ATOM     15  C   LIG d   1      -6.959  72.641 115.956  0.00  0.00     0.109 C 
ATOM     16  O   LIG d   1      -6.880  73.520 118.196  0.00  0.00    -0.276 OA
ATOM     17  H   LIG d   1      -7.646  75.033 115.530  0.00  0.00     0.149 HD
ENDBRANCH   6  13
BRANCH   5  18
ATOM     18  N   LIG d   1     -10.154  76.095 117.392  0.00  0.00     0.381 N 
ATOM     19  H   LIG d   1      -9.995  75.135 117.159  0.00  0.00    -0.090 HD
ATOM     20  H   LIG d   1     -10.930  76.427 116.846  0.00  0.00    -0.090 HD
ATOM     21  H   LIG d   1     -10.361  76.179 118.363  0.00  0.00    -0.090 HD
ENDBRANCH   5  18
BRANCH   3  22
ATOM     22  C   LIG d   1      -7.990  80.335 117.913  0.00  0.00     0.382 C 
ATOM     23  O   LIG d   1      -7.480  81.107 117.065  0.00  0.00    -0.241 OA
ATOM     24  O   LIG d   1      -8.572  80.813 118.905  0.00  0.00    -0.241 OA
ENDBRANCH   3  22
TORSDOF 7
ENDMDL
MODEL 9
REMARK VINA RESULT:      -4.7     13.352     16.069
REMARK  7 active torsions:
REMARK  status: ('A' for Active; 'I' for Inactive)
REMARK    1  A    between atoms: C_2  and  C_3 
REMARK    2  A    between atoms: C_3  and  O_6 
REMARK    3  A    between atoms: C_3  and  C_4 
REMARK    4  A    between atoms: C_7  and  O_6 
REMARK    5  A    between atoms: C_9  and  C_10 
REMARK    6  A    between atoms: N_15  and  C_14 
REMARK    7  A    between atoms: N_20  and  C_19 
REMARK       I    between atoms: C_22  and  N_20 
ROOT
ATOM      1  C   LIG d   1       0.278  90.097 116.345  0.00  0.00     0.161 C 
ATOM      2  C   LIG d   1       1.508  90.664 116.717  0.00  0.00     0.016 C 
ATOM      3  C   LIG d   1       1.647  91.602 117.766  0.00  0.00     0.038 C 
ATOM      4  C   LIG d   1       0.581  91.925 118.618  0.00  0.00     0.028 C 
ATOM      5  C   LIG d   1      -0.788  91.761 117.966  0.00  0.00    -0.047 C 
ATOM      6  C   LIG d   1      -0.878  90.352 117.336  0.00  0.00     0.091 C 
ENDROOT
BRANCH   1   7
ATOM      7  O   LIG d   1       0.440  88.683 116.119  0.00  0.00    -0.368 OA
BRANCH   7   8
ATOM      8  C   LIG d   1       0.890  87.903 117.255  0.00  0.00     0.119 C 
BRANCH   8   9
ATOM      9  C   LIG d   1       2.139  87.117 116.811  0.00  0.00     0.028 C 
ATOM     10  C   LIG d   1       2.369  87.189 115.292  0.00  0.00     0.006 C 
ENDBRANCH   8   9
BRANCH   8  11
ATOM     11  C   LIG d   1      -0.142  86.840 117.644  0.00  0.00     0.028 C 
ATOM     12  C   LIG d   1      -1.142  86.539 116.517  0.00  0.00     0.006 C 
ENDBRANCH   8  11
ENDBRANCH   7   8
ENDBRANCH   1   7
BRANCH   6  13
ATOM     13  N   LIG d   1      -2.153  90.140 116.603  0.00  0.00    -0.311 N 
ATOM     14  C   LIG d   1      -3.208  89.520 117.131  0.00  0.00     0.210 C 
ATOM     15  C   LIG d   1      -4.415  89.389 116.198  0.00  0.00     0.109 C 
ATOM     16  O   LIG d   1      -3.269  89.096 118.295  0.00  0.00    -0.276 OA
ATOM     17  H   LIG d   1      -2.202  90.480 115.663  0.00  0.00     0.149 HD
ENDBRANCH   6  13
BRANCH   5  18
ATOM     18  N   LIG d   1      -1.808  91.996 119.004  0.00  0.00     0.381 N 
ATOM     19  H   LIG d   1      -2.531  92.586 118.642  0.00  0.00    -0.090 HD
ATOM     20  H   LIG d   1      -1.378  92.466 119.782  0.00  0.00    -0.090 HD
ATOM     21  H   LIG d   1      -2.196  91.129 119.304  0.00  0.00    -0.090 HD
ENDBRANCH   5  18
BRANCH   3  22
ATOM     22  C   LIG d   1       2.855  92.259 117.945  0.00  0.00     0.382 C 
ATOM     23  O   LIG d   1       3.143  92.748 119.064  0.00  0.00    -0.241 OA
ATOM     24  O   LIG d   1       3.641  92.407 116.990  0.00  0.00    -0.241 OA
ENDBRANCH   3  22
TORSDOF 7
ENDMDL
