MODEL 1
REMARK VINA RESULT:      -6.1      0.000      0.000
REMARK  7 active torsions:
REMARK  status: ('A' for Active; 'I' for Inactive)
REMARK    1  A    between atoms: C_2  and  C_3 
REMARK    2  A    between atoms: C_3  and  O_6 
REMARK    3  A    between atoms: C_3  and  C_4 
REMARK    4  A    between atoms: C_7  and  O_6 
REMARK    5  A    between atoms: C_9  and  C_10 
REMARK    6  A    between atoms: N_15  and  C_14 
REMARK    7  A    between atoms: N_20  and  C_19 
REMARK       I    between atoms: C_22  and  N_20 
ROOT
ATOM      1  C   LIG d   1      -8.962  73.666 118.768  0.00  0.00     0.161 C 
ATOM      2  C   LIG d   1      -8.592  72.572 117.969  0.00  0.00     0.016 C 
ATOM      3  C   LIG d   1      -9.522  71.770 117.269  0.00  0.00     0.038 C 
ATOM      4  C   LIG d   1     -10.883  72.102 117.200  0.00  0.00     0.028 C 
ATOM      5  C   LIG d   1     -11.373  72.904 118.401  0.00  0.00    -0.047 C 
ATOM      6  C   LIG d   1     -10.431  74.111 118.616  0.00  0.00     0.091 C 
ENDROOT
BRANCH   1   7
ATOM      7  O   LIG d   1      -8.074  74.775 118.520  0.00  0.00    -0.368 OA
BRANCH   7   8
ATOM      8  C   LIG d   1      -7.832  75.098 117.129  0.00  0.00     0.119 C 
BRANCH   8   9
ATOM      9  C   LIG d   1      -6.370  74.727 116.815  0.00  0.00     0.028 C 
ATOM     10  C   LIG d   1      -6.236  73.918 115.514  0.00  0.00     0.006 C 
ENDBRANCH   8   9
BRANCH   8  11
ATOM     11  C   LIG d   1      -7.929  76.607 116.882  0.00  0.00     0.028 C 
ATOM     12  C   LIG d   1      -8.709  77.341 117.984  0.00  0.00     0.006 C 
ENDBRANCH   8  11
ENDBRANCH   7   8
ENDBRANCH   1   7
BRANCH   6  13
ATOM     13  N   LIG d   1     -10.789  74.902 119.822  0.00  0.00    -0.311 N 
ATOM     14  C   LIG d   1     -11.608  75.952 119.794  0.00  0.00     0.210 C 
ATOM     15  C   LIG d   1     -11.827  76.637 121.147  0.00  0.00     0.109 C 
ATOM     16  O   LIG d   1     -12.198  76.362 118.784  0.00  0.00    -0.276 OA
ATOM     17  H   LIG d   1     -10.379  74.619 120.691  0.00  0.00     0.149 HD
ENDBRANCH   6  13
BRANCH   5  18
ATOM     18  N   LIG d   1     -12.768  73.300 118.134  0.00  0.00     0.381 N 
ATOM     19  H   LIG d   1     -13.356  72.996 118.885  0.00  0.00    -0.090 HD
ATOM     20  H   LIG d   1     -13.078  72.850 117.291  0.00  0.00    -0.090 HD
ATOM     21  H   LIG d   1     -12.829  74.289 118.034  0.00  0.00    -0.090 HD
ENDBRANCH   5  18
BRANCH   3  22
ATOM     22  C   LIG d   1      -9.099  70.598 116.661  0.00  0.00     0.382 C 
ATOM     23  O   LIG d   1      -9.705  69.522 116.883  0.00  0.00    -0.241 OA
ATOM     24  O   LIG d   1      -8.091  70.594 115.929  0.00  0.00    -0.241 OA
ENDBRANCH   3  22
TORSDOF 7
ENDMDL
MODEL 2
REMARK VINA RESULT:      -5.7      0.902      1.938
REMARK  7 active torsions:
REMARK  status: ('A' for Active; 'I' for Inactive)
REMARK    1  A    between atoms: C_2  and  C_3 
REMARK    2  A    between atoms: C_3  and  O_6 
REMARK    3  A    between atoms: C_3  and  C_4 
REMARK    4  A    between atoms: C_7  and  O_6 
REMARK    5  A    between atoms: C_9  and  C_10 
REMARK    6  A    between atoms: N_15  and  C_14 
REMARK    7  A    between atoms: N_20  and  C_19 
REMARK       I    between atoms: C_22  and  N_20 
ROOT
ATOM      1  C   LIG d   1      -8.831  73.980 118.362  0.00  0.00     0.161 C 
ATOM      2  C   LIG d   1      -8.514  72.840 117.604  0.00  0.00     0.016 C 
ATOM      3  C   LIG d   1      -9.471  71.878 117.209  0.00  0.00     0.038 C 
ATOM      4  C   LIG d   1     -10.845  72.069 117.417  0.00  0.00     0.028 C 
ATOM      5  C   LIG d   1     -11.158  72.955 118.618  0.00  0.00    -0.047 C 
ATOM      6  C   LIG d   1     -10.341  74.263 118.503  0.00  0.00     0.091 C 
ENDROOT
BRANCH   1   7
ATOM      7  O   LIG d   1      -8.154  75.131 117.819  0.00  0.00    -0.368 OA
BRANCH   7   8
ATOM      8  C   LIG d   1      -7.029  75.628 118.584  0.00  0.00     0.119 C 
BRANCH   8   9
ATOM      9  C   LIG d   1      -7.314  77.105 118.921  0.00  0.00     0.028 C 
ATOM     10  C   LIG d   1      -7.656  77.936 117.674  0.00  0.00     0.006 C 
ENDBRANCH   8   9
BRANCH   8  11
ATOM     11  C   LIG d   1      -5.748  75.644 117.745  0.00  0.00     0.028 C 
ATOM     12  C   LIG d   1      -5.908  74.917 116.400  0.00  0.00     0.006 C 
ENDBRANCH   8  11
ENDBRANCH   7   8
ENDBRANCH   1   7
BRANCH   6  13
ATOM     13  N   LIG d   1     -10.525  75.151 119.681  0.00  0.00    -0.311 N 
ATOM     14  C   LIG d   1     -10.764  76.457 119.583  0.00  0.00     0.210 C 
ATOM     15  C   LIG d   1     -10.901  77.191 120.921  0.00  0.00     0.109 C 
ATOM     16  O   LIG d   1     -10.908  77.073 118.516  0.00  0.00    -0.276 OA
ATOM     17  H   LIG d   1     -10.455  74.728 120.586  0.00  0.00     0.149 HD
ENDBRANCH   6  13
BRANCH   5  18
ATOM     18  N   LIG d   1     -12.615  73.183 118.636  0.00  0.00     0.381 N 
ATOM     19  H   LIG d   1     -12.804  74.160 118.741  0.00  0.00    -0.090 HD
ATOM     20  H   LIG d   1     -13.010  72.699 119.422  0.00  0.00    -0.090 HD
ATOM     21  H   LIG d   1     -13.023  72.848 117.791  0.00  0.00    -0.090 HD
ENDBRANCH   5  18
BRANCH   3  22
ATOM     22  C   LIG d   1      -9.051  70.688 116.632  0.00  0.00     0.382 C 
ATOM     23  O   LIG d   1      -8.060  70.680 115.863  0.00  0.00    -0.241 OA
ATOM     24  O   LIG d   1      -9.678  69.632 116.836  0.00  0.00    -0.241 OA
ENDBRANCH   3  22
TORSDOF 7
ENDMDL
MODEL 3
REMARK VINA RESULT:      -5.6      2.010      4.013
REMARK  7 active torsions:
REMARK  status: ('A' for Active; 'I' for Inactive)
REMARK    1  A    between atoms: C_2  and  C_3 
REMARK    2  A    between atoms: C_3  and  O_6 
REMARK    3  A    between atoms: C_3  and  C_4 
REMARK    4  A    between atoms: C_7  and  O_6 
REMARK    5  A    between atoms: C_9  and  C_10 
REMARK    6  A    between atoms: N_15  and  C_14 
REMARK    7  A    between atoms: N_20  and  C_19 
REMARK       I    between atoms: C_22  and  N_20 
ROOT
ATOM      1  C   LIG d   1      -9.182  73.864 118.382  0.00  0.00     0.161 C 
ATOM      2  C   LIG d   1      -9.010  72.597 117.800  0.00  0.00     0.016 C 
ATOM      3  C   LIG d   1      -7.968  72.291 116.894  0.00  0.00     0.038 C 
ATOM      4  C   LIG d   1      -6.932  73.197 116.623  0.00  0.00     0.028 C 
ATOM      5  C   LIG d   1      -7.342  74.655 116.794  0.00  0.00    -0.047 C 
ATOM      6  C   LIG d   1      -7.997  74.833 118.183  0.00  0.00     0.091 C 
ENDROOT
BRANCH   1   7
ATOM      7  O   LIG d   1      -9.483  73.722 119.784  0.00  0.00    -0.368 OA
BRANCH   7   8
ATOM      8  C   LIG d   1     -10.870  73.906 120.159  0.00  0.00     0.119 C 
BRANCH   8   9
ATOM      9  C   LIG d   1     -11.678  74.109 118.863  0.00  0.00     0.028 C 
ATOM     10  C   LIG d   1     -12.765  73.037 118.674  0.00  0.00     0.006 C 
ENDBRANCH   8   9
BRANCH   8  11
ATOM     11  C   LIG d   1     -11.063  75.195 120.963  0.00  0.00     0.028 C 
ATOM     12  C   LIG d   1     -11.802  76.286 120.172  0.00  0.00     0.006 C 
ENDBRANCH   8  11
ENDBRANCH   7   8
ENDBRANCH   1   7
BRANCH   6  13
ATOM     13  N   LIG d   1      -8.503  76.213 118.399  0.00  0.00    -0.311 N 
ATOM     14  C   LIG d   1      -8.147  76.971 119.435  0.00  0.00     0.210 C 
ATOM     15  C   LIG d   1      -8.801  78.355 119.479  0.00  0.00     0.109 C 
ATOM     16  O   LIG d   1      -7.327  76.640 120.305  0.00  0.00    -0.276 OA
ATOM     17  H   LIG d   1      -9.149  76.573 117.724  0.00  0.00     0.149 HD
ENDBRANCH   6  13
BRANCH   5  18
ATOM     18  N   LIG d   1      -6.134  75.482 116.615  0.00  0.00     0.381 N 
ATOM     19  H   LIG d   1      -5.379  75.099 117.149  0.00  0.00    -0.090 HD
ATOM     20  H   LIG d   1      -6.321  76.409 116.953  0.00  0.00    -0.090 HD
ATOM     21  H   LIG d   1      -5.884  75.517 115.651  0.00  0.00    -0.090 HD
ENDBRANCH   5  18
BRANCH   3  22
ATOM     22  C   LIG d   1      -7.979  71.080 116.218  0.00  0.00     0.382 C 
ATOM     23  O   LIG d   1      -8.815  70.197 116.527  0.00  0.00    -0.241 OA
ATOM     24  O   LIG d   1      -7.135  70.843 115.334  0.00  0.00    -0.241 OA
ENDBRANCH   3  22
TORSDOF 7
ENDMDL
MODEL 4
REMARK VINA RESULT:      -5.4      2.735      6.392
REMARK  7 active torsions:
REMARK  status: ('A' for Active; 'I' for Inactive)
REMARK    1  A    between atoms: C_2  and  C_3 
REMARK    2  A    between atoms: C_3  and  O_6 
REMARK    3  A    between atoms: C_3  and  C_4 
REMARK    4  A    between atoms: C_7  and  O_6 
REMARK    5  A    between atoms: C_9  and  C_10 
REMARK    6  A    between atoms: N_15  and  C_14 
REMARK    7  A    between atoms: N_20  and  C_19 
REMARK       I    between atoms: C_22  and  N_20 
ROOT
ATOM      1  C   LIG d   1      -9.187  75.734 118.166  0.00  0.00     0.161 C 
ATOM      2  C   LIG d   1      -9.942  76.744 118.784  0.00  0.00     0.016 C 
ATOM      3  C   LIG d   1      -9.602  78.115 118.728  0.00  0.00     0.038 C 
ATOM      4  C   LIG d   1      -8.560  78.587 117.917  0.00  0.00     0.028 C 
ATOM      5  C   LIG d   1      -7.463  77.555 117.677  0.00  0.00    -0.047 C 
ATOM      6  C   LIG d   1      -8.110  76.241 117.184  0.00  0.00     0.091 C 
ENDROOT
BRANCH   1   7
ATOM      7  O   LIG d   1     -10.066  74.800 117.507  0.00  0.00    -0.368 OA
BRANCH   7   8
ATOM      8  C   LIG d   1     -10.350  73.576 118.227  0.00  0.00     0.119 C 
BRANCH   8   9
ATOM      9  C   LIG d   1      -9.301  72.532 117.796  0.00  0.00     0.028 C 
ATOM     10  C   LIG d   1      -9.927  71.350 117.036  0.00  0.00     0.006 C 
ENDBRANCH   8   9
BRANCH   8  11
ATOM     11  C   LIG d   1     -11.702  72.987 117.812  0.00  0.00     0.028 C 
ATOM     12  C   LIG d   1     -12.802  73.227 118.858  0.00  0.00     0.006 C 
ENDBRANCH   8  11
ENDBRANCH   7   8
ENDBRANCH   1   7
BRANCH   6  13
ATOM     13  N   LIG d   1      -7.114  75.151 117.007  0.00  0.00    -0.311 N 
ATOM     14  C   LIG d   1      -6.513  74.890 115.847  0.00  0.00     0.210 C 
ATOM     15  C   LIG d   1      -5.536  73.711 115.877  0.00  0.00     0.109 C 
ATOM     16  O   LIG d   1      -6.671  75.543 114.805  0.00  0.00    -0.276 OA
ATOM     17  H   LIG d   1      -6.903  74.591 117.809  0.00  0.00     0.149 HD
ENDBRANCH   6  13
BRANCH   5  18
ATOM     18  N   LIG d   1      -6.513  78.132 116.707  0.00  0.00     0.381 N 
ATOM     19  H   LIG d   1      -6.467  77.553 115.893  0.00  0.00    -0.090 HD
ATOM     20  H   LIG d   1      -5.599  78.160 117.125  0.00  0.00    -0.090 HD
ATOM     21  H   LIG d   1      -6.799  79.052 116.454  0.00  0.00    -0.090 HD
ENDBRANCH   5  18
BRANCH   3  22
ATOM     22  C   LIG d   1     -10.284  79.025 119.521  0.00  0.00     0.382 C 
ATOM     23  O   LIG d   1     -10.989  78.620 120.476  0.00  0.00    -0.241 OA
ATOM     24  O   LIG d   1     -10.240  80.243 119.265  0.00  0.00    -0.241 OA
ENDBRANCH   3  22
TORSDOF 7
ENDMDL
MODEL 5
REMARK VINA RESULT:      -5.3     17.469     20.214
REMARK  7 active torsions:
REMARK  status: ('A' for Active; 'I' for Inactive)
REMARK    1  A    between atoms: C_2  and  C_3 
REMARK    2  A    between atoms: C_3  and  O_6 
REMARK    3  A    between atoms: C_3  and  C_4 
REMARK    4  A    between atoms: C_7  and  O_6 
REMARK    5  A    between atoms: C_9  and  C_10 
REMARK    6  A    between atoms: N_15  and  C_14 
REMARK    7  A    between atoms: N_20  and  C_19 
REMARK       I    between atoms: C_22  and  N_20 
ROOT
ATOM      1  C   LIG d   1      -5.928  93.494 117.650  0.00  0.00     0.161 C 
ATOM      2  C   LIG d   1      -6.756  92.631 116.913  0.00  0.00     0.016 C 
ATOM      3  C   LIG d   1      -6.301  91.428 116.327  0.00  0.00     0.038 C 
ATOM      4  C   LIG d   1      -5.013  90.926 116.568  0.00  0.00     0.028 C 
ATOM      5  C   LIG d   1      -3.991  92.011 116.889  0.00  0.00    -0.047 C 
ATOM      6  C   LIG d   1      -4.549  92.908 118.018  0.00  0.00     0.091 C 
ENDROOT
BRANCH   1   7
ATOM      7  O   LIG d   1      -6.617  93.936 118.836  0.00  0.00    -0.368 OA
BRANCH   7   8
ATOM      8  C   LIG d   1      -6.749  95.370 119.000  0.00  0.00     0.119 C 
BRANCH   8   9
ATOM      9  C   LIG d   1      -6.354  95.709 120.450  0.00  0.00     0.028 C 
ATOM     10  C   LIG d   1      -5.896  94.470 121.238  0.00  0.00     0.006 C 
ENDBRANCH   8   9
BRANCH   8  11
ATOM     11  C   LIG d   1      -8.208  95.815 118.862  0.00  0.00     0.028 C 
ATOM     12  C   LIG d   1      -8.745  96.496 120.131  0.00  0.00     0.006 C 
ENDBRANCH   8  11
ENDBRANCH   7   8
ENDBRANCH   1   7
BRANCH   6  13
ATOM     13  N   LIG d   1      -3.647  94.046 118.336  0.00  0.00    -0.311 N 
ATOM     14  C   LIG d   1      -2.748  94.017 119.318  0.00  0.00     0.210 C 
ATOM     15  C   LIG d   1      -1.935  95.304 119.488  0.00  0.00     0.109 C 
ATOM     16  O   LIG d   1      -2.525  93.037 120.044  0.00  0.00    -0.276 OA
ATOM     17  H   LIG d   1      -3.739  94.871 117.776  0.00  0.00     0.149 HD
ENDBRANCH   6  13
BRANCH   5  18
ATOM     18  N   LIG d   1      -2.729  91.341 117.254  0.00  0.00     0.381 N 
ATOM     19  H   LIG d   1      -1.980  92.004 117.254  0.00  0.00    -0.090 HD
ATOM     20  H   LIG d   1      -2.525  90.636 116.568  0.00  0.00    -0.090 HD
ATOM     21  H   LIG d   1      -2.812  90.924 118.155  0.00  0.00    -0.090 HD
ENDBRANCH   5  18
BRANCH   3  22
ATOM     22  C   LIG d   1      -7.126  90.733 115.456  0.00  0.00     0.382 C 
ATOM     23  O   LIG d   1      -8.106  91.309 114.925  0.00  0.00    -0.241 OA
ATOM     24  O   LIG d   1      -6.929  89.524 115.228  0.00  0.00    -0.241 OA
ENDBRANCH   3  22
TORSDOF 7
ENDMDL
MODEL 6
REMARK VINA RESULT:      -5.1      2.399      5.514
REMARK  7 active torsions:
REMARK  status: ('A' for Active; 'I' for Inactive)
REMARK    1  A    between atoms: C_2  and  C_3 
REMARK    2  A    between atoms: C_3  and  O_6 
REMARK    3  A    between atoms: C_3  and  C_4 
REMARK    4  A    between atoms: C_7  and  O_6 
REMARK    5  A    between atoms: C_9  and  C_10 
REMARK    6  A    between atoms: N_15  and  C_14 
REMARK    7  A    between atoms: N_20  and  C_19 
REMARK       I    between atoms: C_22  and  N_20 
ROOT
ATOM      1  C   LIG d   1      -8.096  76.099 117.064  0.00  0.00     0.161 C 
ATOM      2  C   LIG d   1      -7.415  77.328 117.052  0.00  0.00     0.016 C 
ATOM      3  C   LIG d   1      -7.810  78.443 117.826  0.00  0.00     0.038 C 
ATOM      4  C   LIG d   1      -8.831  78.357 118.784  0.00  0.00     0.028 C 
ATOM      5  C   LIG d   1      -9.871  77.287 118.467  0.00  0.00    -0.047 C 
ATOM      6  C   LIG d   1      -9.146  75.951 118.186  0.00  0.00     0.091 C 
ENDROOT
BRANCH   1   7
ATOM      7  O   LIG d   1      -7.148  75.015 117.119  0.00  0.00    -0.368 OA
BRANCH   7   8
ATOM      8  C   LIG d   1      -6.171  74.968 116.050  0.00  0.00     0.119 C 
BRANCH   8   9
ATOM      9  C   LIG d   1      -6.300  73.593 115.366  0.00  0.00     0.028 C 
ATOM     10  C   LIG d   1      -7.079  72.582 116.223  0.00  0.00     0.006 C 
ENDBRANCH   8   9
BRANCH   8  11
ATOM     11  C   LIG d   1      -4.742  75.015 116.599  0.00  0.00     0.028 C 
ATOM     12  C   LIG d   1      -3.690  74.596 115.559  0.00  0.00     0.006 C 
ENDBRANCH   8  11
ENDBRANCH   7   8
ENDBRANCH   1   7
BRANCH   6  13
ATOM     13  N   LIG d   1     -10.084  74.871 117.785  0.00  0.00    -0.311 N 
ATOM     14  C   LIG d   1     -10.072  73.653 118.323  0.00  0.00     0.210 C 
ATOM     15  C   LIG d   1     -11.111  72.683 117.751  0.00  0.00     0.109 C 
ATOM     16  O   LIG d   1      -9.321  73.293 119.242  0.00  0.00    -0.276 OA
ATOM     17  H   LIG d   1     -10.748  75.086 117.067  0.00  0.00     0.149 HD
ENDBRANCH   6  13
BRANCH   5  18
ATOM     18  N   LIG d   1     -10.797  77.212 119.613  0.00  0.00     0.381 N 
ATOM     19  H   LIG d   1     -10.738  78.054 120.151  0.00  0.00    -0.090 HD
ATOM     20  H   LIG d   1     -10.526  76.443 120.200  0.00  0.00    -0.090 HD
ATOM     21  H   LIG d   1     -11.729  77.080 119.289  0.00  0.00    -0.090 HD
ENDBRANCH   5  18
BRANCH   3  22
ATOM     22  C   LIG d   1      -7.206  79.674 117.616  0.00  0.00     0.382 C 
ATOM     23  O   LIG d   1      -7.822  80.577 117.000  0.00  0.00    -0.241 OA
ATOM     24  O   LIG d   1      -6.037  79.877 117.994  0.00  0.00    -0.241 OA
ENDBRANCH   3  22
TORSDOF 7
ENDMDL
MODEL 7
REMARK VINA RESULT:      -5.1     17.370     19.240
REMARK  7 active torsions:
REMARK  status: ('A' for Active; 'I' for Inactive)
REMARK    1  A    between atoms: C_2  and  C_3 
REMARK    2  A    between atoms: C_3  and  O_6 
REMARK    3  A    between atoms: C_3  and  C_4 
REMARK    4  A    between atoms: C_7  and  O_6 
REMARK    5  A    between atoms: C_9  and  C_10 
REMARK    6  A    between atoms: N_15  and  C_14 
REMARK    7  A    between atoms: N_20  and  C_19 
REMARK       I    between atoms: C_22  and  N_20 
ROOT
ATOM      1  C   LIG d   1      -4.118  91.548 117.620  0.00  0.00     0.161 C 
ATOM      2  C   LIG d   1      -4.937  90.926 116.663  0.00  0.00     0.016 C 
ATOM      3  C   LIG d   1      -6.178  91.455 116.239  0.00  0.00     0.038 C 
ATOM      4  C   LIG d   1      -6.616  92.727 116.637  0.00  0.00     0.028 C 
ATOM      5  C   LIG d   1      -6.063  93.164 117.989  0.00  0.00    -0.047 C 
ATOM      6  C   LIG d   1      -4.527  92.991 117.982  0.00  0.00     0.091 C 
ENDROOT
BRANCH   1   7
ATOM      7  O   LIG d   1      -2.744  91.510 117.186  0.00  0.00    -0.368 OA
BRANCH   7   8
ATOM      8  C   LIG d   1      -1.811  90.855 118.080  0.00  0.00     0.119 C 
BRANCH   8   9
ATOM      9  C   LIG d   1      -0.411  90.957 117.443  0.00  0.00     0.028 C 
ATOM     10  C   LIG d   1       0.165  92.381 117.518  0.00  0.00     0.006 C 
ENDBRANCH   8   9
BRANCH   8  11
ATOM     11  C   LIG d   1      -2.100  89.355 118.185  0.00  0.00     0.028 C 
ATOM     12  C   LIG d   1      -0.821  88.506 118.261  0.00  0.00     0.006 C 
ENDBRANCH   8  11
ENDBRANCH   7   8
ENDBRANCH   1   7
BRANCH   6  13
ATOM     13  N   LIG d   1      -3.914  93.316 119.296  0.00  0.00    -0.311 N 
ATOM     14  C   LIG d   1      -2.872  94.134 119.437  0.00  0.00     0.210 C 
ATOM     15  C   LIG d   1      -2.384  94.317 120.878  0.00  0.00     0.109 C 
ATOM     16  O   LIG d   1      -2.327  94.751 118.510  0.00  0.00    -0.276 OA
ATOM     17  H   LIG d   1      -4.314  92.883 120.106  0.00  0.00     0.149 HD
ENDBRANCH   6  13
BRANCH   5  18
ATOM     18  N   LIG d   1      -6.487  94.558 118.215  0.00  0.00     0.381 N 
ATOM     19  H   LIG d   1      -7.295  94.575 118.805  0.00  0.00    -0.090 HD
ATOM     20  H   LIG d   1      -6.733  94.971 117.332  0.00  0.00    -0.090 HD
ATOM     21  H   LIG d   1      -5.748  95.075 118.638  0.00  0.00    -0.090 HD
ENDBRANCH   5  18
BRANCH   3  22
ATOM     22  C   LIG d   1      -7.014  90.691 115.440  0.00  0.00     0.382 C 
ATOM     23  O   LIG d   1      -8.105  91.165 115.040  0.00  0.00    -0.241 OA
ATOM     24  O   LIG d   1      -6.712  89.518 115.150  0.00  0.00    -0.241 OA
ENDBRANCH   3  22
TORSDOF 7
ENDMDL
MODEL 8
REMARK VINA RESULT:      -5.1      1.715      2.213
REMARK  7 active torsions:
REMARK  status: ('A' for Active; 'I' for Inactive)
REMARK    1  A    between atoms: C_2  and  C_3 
REMARK    2  A    between atoms: C_3  and  O_6 
REMARK    3  A    between atoms: C_3  and  C_4 
REMARK    4  A    between atoms: C_7  and  O_6 
REMARK    5  A    between atoms: C_9  and  C_10 
REMARK    6  A    between atoms: N_15  and  C_14 
REMARK    7  A    between atoms: N_20  and  C_19 
REMARK       I    between atoms: C_22  and  N_20 
ROOT
ATOM      1  C   LIG d   1      -7.575  74.515 117.334  0.00  0.00     0.161 C 
ATOM      2  C   LIG d   1      -7.518  73.255 116.715  0.00  0.00     0.016 C 
ATOM      3  C   LIG d   1      -8.464  72.230 116.949  0.00  0.00     0.038 C 
ATOM      4  C   LIG d   1      -9.623  72.450 117.708  0.00  0.00     0.028 C 
ATOM      5  C   LIG d   1      -9.461  73.544 118.758  0.00  0.00    -0.047 C 
ATOM      6  C   LIG d   1      -8.893  74.812 118.078  0.00  0.00     0.091 C 
ENDROOT
BRANCH   1   7
ATOM      7  O   LIG d   1      -7.303  75.548 116.365  0.00  0.00    -0.368 OA
BRANCH   7   8
ATOM      8  C   LIG d   1      -6.043  76.247 116.515  0.00  0.00     0.119 C 
BRANCH   8   9
ATOM      9  C   LIG d   1      -5.324  75.647 117.738  0.00  0.00     0.028 C 
ATOM     10  C   LIG d   1      -4.001  74.958 117.362  0.00  0.00     0.006 C 
ENDBRANCH   8   9
BRANCH   8  11
ATOM     11  C   LIG d   1      -6.263  77.724 116.857  0.00  0.00     0.028 C 
ATOM     12  C   LIG d   1      -5.795  78.082 118.276  0.00  0.00     0.006 C 
ENDBRANCH   8  11
ENDBRANCH   7   8
ENDBRANCH   1   7
BRANCH   6  13
ATOM     13  N   LIG d   1      -8.625  75.904 119.050  0.00  0.00    -0.311 N 
ATOM     14  C   LIG d   1      -9.461  76.919 119.260  0.00  0.00     0.210 C 
ATOM     15  C   LIG d   1      -8.983  77.947 120.291  0.00  0.00     0.109 C 
ATOM     16  O   LIG d   1     -10.567  77.050 118.715  0.00  0.00    -0.276 OA
ATOM     17  H   LIG d   1      -7.764  75.860 119.559  0.00  0.00     0.149 HD
ENDBRANCH   6  13
BRANCH   5  18
ATOM     18  N   LIG d   1     -10.781  73.764 119.380  0.00  0.00     0.381 N 
ATOM     19  H   LIG d   1     -11.052  72.950 119.894  0.00  0.00    -0.090 HD
ATOM     20  H   LIG d   1     -11.459  73.921 118.655  0.00  0.00    -0.090 HD
ATOM     21  H   LIG d   1     -10.744  74.553 119.987  0.00  0.00    -0.090 HD
ENDBRANCH   5  18
BRANCH   3  22
ATOM     22  C   LIG d   1      -8.233  70.956 116.453  0.00  0.00     0.382 C 
ATOM     23  O   LIG d   1      -7.318  70.765 115.616  0.00  0.00    -0.241 OA
ATOM     24  O   LIG d   1      -8.957  70.003 116.798  0.00  0.00    -0.241 OA
ENDBRANCH   3  22
TORSDOF 7
ENDMDL
MODEL 9
REMARK VINA RESULT:      -4.7      2.398      4.007
REMARK  7 active torsions:
REMARK  status: ('A' for Active; 'I' for Inactive)
REMARK    1  A    between atoms: C_2  and  C_3 
REMARK    2  A    between atoms: C_3  and  O_6 
REMARK    3  A    between atoms: C_3  and  C_4 
REMARK    4  A    between atoms: C_7  and  O_6 
REMARK    5  A    between atoms: C_9  and  C_10 
REMARK    6  A    between atoms: N_15  and  C_14 
REMARK    7  A    between atoms: N_20  and  C_19 
REMARK       I    between atoms: C_22  and  N_20 
ROOT
ATOM      1  C   LIG d   1      -7.897  74.971 117.817  0.00  0.00     0.161 C 
ATOM      2  C   LIG d   1      -6.653  75.054 117.169  0.00  0.00     0.016 C 
ATOM      3  C   LIG d   1      -6.093  73.993 116.421  0.00  0.00     0.038 C 
ATOM      4  C   LIG d   1      -6.813  72.822 116.142  0.00  0.00     0.028 C 
ATOM      5  C   LIG d   1      -7.867  72.493 117.194  0.00  0.00    -0.047 C 
ATOM      6  C   LIG d   1      -8.746  73.742 117.431  0.00  0.00     0.091 C 
ENDROOT
BRANCH   1   7
ATOM      7  O   LIG d   1      -8.643  76.185 117.597  0.00  0.00    -0.368 OA
BRANCH   7   8
ATOM      8  C   LIG d   1      -8.508  77.209 118.613  0.00  0.00     0.119 C 
BRANCH   8   9
ATOM      9  C   LIG d   1      -8.287  76.496 119.962  0.00  0.00     0.028 C 
ATOM     10  C   LIG d   1      -9.568  76.441 120.813  0.00  0.00     0.006 C 
ENDBRANCH   8   9
BRANCH   8  11
ATOM     11  C   LIG d   1      -9.807  78.002 118.781  0.00  0.00     0.028 C 
ATOM     12  C   LIG d   1      -9.648  79.488 118.422  0.00  0.00     0.006 C 
ENDBRANCH   8  11
ENDBRANCH   7   8
ENDBRANCH   1   7
BRANCH   6  13
ATOM     13  N   LIG d   1      -9.750  73.533 118.507  0.00  0.00    -0.311 N 
ATOM     14  C   LIG d   1     -11.006  73.969 118.432  0.00  0.00     0.210 C 
ATOM     15  C   LIG d   1     -11.870  73.665 119.660  0.00  0.00     0.109 C 
ATOM     16  O   LIG d   1     -11.496  74.550 117.452  0.00  0.00    -0.276 OA
ATOM     17  H   LIG d   1      -9.446  73.044 119.325  0.00  0.00     0.149 HD
ENDBRANCH   6  13
BRANCH   5  18
ATOM     18  N   LIG d   1      -8.633  71.330 116.709  0.00  0.00     0.381 N 
ATOM     19  H   LIG d   1      -9.468  71.640 116.253  0.00  0.00    -0.090 HD
ATOM     20  H   LIG d   1      -8.896  70.763 117.496  0.00  0.00    -0.090 HD
ATOM     21  H   LIG d   1      -8.079  70.796 116.077  0.00  0.00    -0.090 HD
ENDBRANCH   5  18
BRANCH   3  22
ATOM     22  C   LIG d   1      -4.782  74.081 115.977  0.00  0.00     0.382 C 
ATOM     23  O   LIG d   1      -4.542  74.463 114.806  0.00  0.00    -0.241 OA
ATOM     24  O   LIG d   1      -3.840  73.742 116.718  0.00  0.00    -0.241 OA
ENDBRANCH   3  22
TORSDOF 7
ENDMDL
