MODEL 1
REMARK VINA RESULT:      -5.5      0.000      0.000
REMARK  7 active torsions:
REMARK  status: ('A' for Active; 'I' for Inactive)
REMARK    1  A    between atoms: C_2  and  C_3 
REMARK    2  A    between atoms: C_3  and  O_6 
REMARK    3  A    between atoms: C_3  and  C_4 
REMARK    4  A    between atoms: C_7  and  O_6 
REMARK    5  A    between atoms: C_9  and  C_10 
REMARK    6  A    between atoms: N_15  and  C_14 
REMARK    7  A    between atoms: N_20  and  C_19 
REMARK       I    between atoms: C_22  and  N_20 
ROOT
ATOM      1  C   LIG d   1      -7.844  75.510 117.954  0.00  0.00     0.161 C 
ATOM      2  C   LIG d   1      -8.164  74.144 117.880  0.00  0.00     0.016 C 
ATOM      3  C   LIG d   1      -7.491  73.231 117.036  0.00  0.00     0.038 C 
ATOM      4  C   LIG d   1      -6.345  73.596 116.314  0.00  0.00     0.028 C 
ATOM      5  C   LIG d   1      -6.293  75.081 115.969  0.00  0.00    -0.047 C 
ATOM      6  C   LIG d   1      -6.525  75.903 117.258  0.00  0.00     0.091 C 
ENDROOT
BRANCH   1   7
ATOM      7  O   LIG d   1      -7.829  75.934 119.332  0.00  0.00    -0.368 OA
BRANCH   7   8
ATOM      8  C   LIG d   1      -8.817  76.926 119.703  0.00  0.00     0.119 C 
BRANCH   8   9
ATOM      9  C   LIG d   1      -9.796  76.258 120.688  0.00  0.00     0.028 C 
ATOM     10  C   LIG d   1      -9.163  75.068 121.428  0.00  0.00     0.006 C 
ENDBRANCH   8   9
BRANCH   8  11
ATOM     11  C   LIG d   1      -9.671  77.340 118.501  0.00  0.00     0.028 C 
ATOM     12  C   LIG d   1      -9.647  78.856 118.246  0.00  0.00     0.006 C 
ENDBRANCH   8  11
ENDBRANCH   7   8
ENDBRANCH   1   7
BRANCH   6  13
ATOM     13  N   LIG d   1      -6.573  77.365 116.995  0.00  0.00    -0.311 N 
ATOM     14  C   LIG d   1      -5.867  78.258 117.687  0.00  0.00     0.210 C 
ATOM     15  C   LIG d   1      -6.079  79.716 117.267  0.00  0.00     0.109 C 
ATOM     16  O   LIG d   1      -5.060  77.978 118.587  0.00  0.00    -0.276 OA
ATOM     17  H   LIG d   1      -7.179  77.677 116.262  0.00  0.00     0.149 HD
ENDBRANCH   6  13
BRANCH   5  18
ATOM     18  N   LIG d   1      -4.985  75.347 115.341  0.00  0.00     0.381 N 
ATOM     19  H   LIG d   1      -4.688  74.544 114.824  0.00  0.00    -0.090 HD
ATOM     20  H   LIG d   1      -4.308  75.526 116.061  0.00  0.00    -0.090 HD
ATOM     21  H   LIG d   1      -5.052  76.135 114.735  0.00  0.00    -0.090 HD
ENDBRANCH   5  18
BRANCH   3  22
ATOM     22  C   LIG d   1      -7.989  71.947 116.876  0.00  0.00     0.382 C 
ATOM     23  O   LIG d   1      -9.015  71.590 117.503  0.00  0.00    -0.241 OA
ATOM     24  O   LIG d   1      -7.399  71.127 116.148  0.00  0.00    -0.241 OA
ENDBRANCH   3  22
TORSDOF 7
ENDMDL
MODEL 2
REMARK VINA RESULT:      -5.3      2.375      4.755
REMARK  7 active torsions:
REMARK  status: ('A' for Active; 'I' for Inactive)
REMARK    1  A    between atoms: C_2  and  C_3 
REMARK    2  A    between atoms: C_3  and  O_6 
REMARK    3  A    between atoms: C_3  and  C_4 
REMARK    4  A    between atoms: C_7  and  O_6 
REMARK    5  A    between atoms: C_9  and  C_10 
REMARK    6  A    between atoms: N_15  and  C_14 
REMARK    7  A    between atoms: N_20  and  C_19 
REMARK       I    between atoms: C_22  and  N_20 
ROOT
ATOM      1  C   LIG d   1      -6.586  76.742 118.366  0.00  0.00     0.161 C 
ATOM      2  C   LIG d   1      -7.971  76.681 118.594  0.00  0.00     0.016 C 
ATOM      3  C   LIG d   1      -8.836  77.787 118.429  0.00  0.00     0.038 C 
ATOM      4  C   LIG d   1      -8.394  78.998 117.876  0.00  0.00     0.028 C 
ATOM      5  C   LIG d   1      -6.910  79.263 118.107  0.00  0.00    -0.047 C 
ATOM      6  C   LIG d   1      -6.103  78.024 117.657  0.00  0.00     0.091 C 
ENDROOT
BRANCH   1   7
ATOM      7  O   LIG d   1      -6.159  75.575 117.637  0.00  0.00    -0.368 OA
BRANCH   7   8
ATOM      8  C   LIG d   1      -7.085  75.068 116.645  0.00  0.00     0.119 C 
BRANCH   8   9
ATOM      9  C   LIG d   1      -7.014  73.529 116.689  0.00  0.00     0.028 C 
ATOM     10  C   LIG d   1      -8.207  72.908 117.434  0.00  0.00     0.006 C 
ENDBRANCH   8   9
BRANCH   8  11
ATOM     11  C   LIG d   1      -6.650  75.454 115.228  0.00  0.00     0.028 C 
ATOM     12  C   LIG d   1      -5.124  75.431 115.046  0.00  0.00     0.006 C 
ENDBRANCH   8  11
ENDBRANCH   7   8
ENDBRANCH   1   7
BRANCH   6  13
ATOM     13  N   LIG d   1      -4.649  78.167 117.926  0.00  0.00    -0.311 N 
ATOM     14  C   LIG d   1      -3.764  78.528 116.998  0.00  0.00     0.210 C 
ATOM     15  C   LIG d   1      -2.311  78.595 117.482  0.00  0.00     0.109 C 
ATOM     16  O   LIG d   1      -4.047  78.831 115.830  0.00  0.00    -0.276 OA
ATOM     17  H   LIG d   1      -4.336  77.971 118.856  0.00  0.00     0.149 HD
ENDBRANCH   6  13
BRANCH   5  18
ATOM     18  N   LIG d   1      -6.555  80.486 117.363  0.00  0.00     0.381 N 
ATOM     19  H   LIG d   1      -5.611  80.424 117.039  0.00  0.00    -0.090 HD
ATOM     20  H   LIG d   1      -6.625  81.275 117.981  0.00  0.00    -0.090 HD
ATOM     21  H   LIG d   1      -7.172  80.606 116.589  0.00  0.00    -0.090 HD
ENDBRANCH   5  18
BRANCH   3  22
ATOM     22  C   LIG d   1     -10.152  77.699 118.857  0.00  0.00     0.382 C 
ATOM     23  O   LIG d   1     -10.477  78.148 119.983  0.00  0.00    -0.241 OA
ATOM     24  O   LIG d   1     -11.011  77.138 118.150  0.00  0.00    -0.241 OA
ENDBRANCH   3  22
TORSDOF 7
ENDMDL
MODEL 3
REMARK VINA RESULT:      -5.2     15.300     17.255
REMARK  7 active torsions:
REMARK  status: ('A' for Active; 'I' for Inactive)
REMARK    1  A    between atoms: C_2  and  C_3 
REMARK    2  A    between atoms: C_3  and  O_6 
REMARK    3  A    between atoms: C_3  and  C_4 
REMARK    4  A    between atoms: C_7  and  O_6 
REMARK    5  A    between atoms: C_9  and  C_10 
REMARK    6  A    between atoms: N_15  and  C_14 
REMARK    7  A    between atoms: N_20  and  C_19 
REMARK       I    between atoms: C_22  and  N_20 
ROOT
ATOM      1  C   LIG d   1      -4.997  91.680 118.420  0.00  0.00     0.161 C 
ATOM      2  C   LIG d   1      -5.387  90.887 117.327  0.00  0.00     0.016 C 
ATOM      3  C   LIG d   1      -6.326  91.307 116.357  0.00  0.00     0.038 C 
ATOM      4  C   LIG d   1      -6.829  92.616 116.330  0.00  0.00     0.028 C 
ATOM      5  C   LIG d   1      -6.849  93.286 117.700  0.00  0.00    -0.047 C 
ATOM      6  C   LIG d   1      -5.451  93.153 118.345  0.00  0.00     0.091 C 
ENDROOT
BRANCH   1   7
ATOM      7  O   LIG d   1      -3.568  91.605 118.593  0.00  0.00    -0.368 OA
BRANCH   7   8
ATOM      8  C   LIG d   1      -3.099  90.738 119.655  0.00  0.00     0.119 C 
BRANCH   8   9
ATOM      9  C   LIG d   1      -1.766  91.314 120.169  0.00  0.00     0.028 C 
ATOM     10  C   LIG d   1      -1.483  92.722 119.616  0.00  0.00     0.006 C 
ENDBRANCH   8   9
BRANCH   8  11
ATOM     11  C   LIG d   1      -2.760  89.341 119.126  0.00  0.00     0.028 C 
ATOM     12  C   LIG d   1      -1.934  89.379 117.830  0.00  0.00     0.006 C 
ENDBRANCH   8  11
ENDBRANCH   7   8
ENDBRANCH   1   7
BRANCH   6  13
ATOM     13  N   LIG d   1      -5.407  93.708 119.723  0.00  0.00    -0.311 N 
ATOM     14  C   LIG d   1      -4.622  94.723 120.080  0.00  0.00     0.210 C 
ATOM     15  C   LIG d   1      -4.717  95.126 121.555  0.00  0.00     0.109 C 
ATOM     16  O   LIG d   1      -3.881  95.350 119.307  0.00  0.00    -0.276 OA
ATOM     17  H   LIG d   1      -6.000  93.279 120.406  0.00  0.00     0.149 HD
ENDBRANCH   6  13
BRANCH   5  18
ATOM     18  N   LIG d   1      -7.265  94.688 117.505  0.00  0.00     0.381 N 
ATOM     19  H   LIG d   1      -8.074  94.882 118.061  0.00  0.00    -0.090 HD
ATOM     20  H   LIG d   1      -7.506  94.824 116.539  0.00  0.00    -0.090 HD
ATOM     21  H   LIG d   1      -6.523  95.302 117.759  0.00  0.00    -0.090 HD
ENDBRANCH   5  18
BRANCH   3  22
ATOM     22  C   LIG d   1      -6.801  90.399 115.423  0.00  0.00     0.382 C 
ATOM     23  O   LIG d   1      -6.119  89.389 115.127  0.00  0.00    -0.241 OA
ATOM     24  O   LIG d   1      -7.883  90.601 114.841  0.00  0.00    -0.241 OA
ENDBRANCH   3  22
TORSDOF 7
ENDMDL
MODEL 4
REMARK VINA RESULT:      -5.1      2.404      6.462
REMARK  7 active torsions:
REMARK  status: ('A' for Active; 'I' for Inactive)
REMARK    1  A    between atoms: C_2  and  C_3 
REMARK    2  A    between atoms: C_3  and  O_6 
REMARK    3  A    between atoms: C_3  and  C_4 
REMARK    4  A    between atoms: C_7  and  O_6 
REMARK    5  A    between atoms: C_9  and  C_10 
REMARK    6  A    between atoms: N_15  and  C_14 
REMARK    7  A    between atoms: N_20  and  C_19 
REMARK       I    between atoms: C_22  and  N_20 
ROOT
ATOM      1  C   LIG d   1      -6.581  77.732 117.238  0.00  0.00     0.161 C 
ATOM      2  C   LIG d   1      -6.567  79.136 117.270  0.00  0.00     0.016 C 
ATOM      3  C   LIG d   1      -7.666  79.916 117.698  0.00  0.00     0.038 C 
ATOM      4  C   LIG d   1      -8.808  79.336 118.270  0.00  0.00     0.028 C 
ATOM      5  C   LIG d   1      -9.069  77.912 117.790  0.00  0.00    -0.047 C 
ATOM      6  C   LIG d   1      -7.778  77.080 117.962  0.00  0.00     0.091 C 
ENDROOT
BRANCH   1   7
ATOM      7  O   LIG d   1      -5.340  77.218 117.760  0.00  0.00    -0.368 OA
BRANCH   7   8
ATOM      8  C   LIG d   1      -4.535  76.440 116.840  0.00  0.00     0.119 C 
BRANCH   8   9
ATOM      9  C   LIG d   1      -5.222  76.496 115.462  0.00  0.00     0.028 C 
ATOM     10  C   LIG d   1      -5.408  75.100 114.842  0.00  0.00     0.006 C 
ENDBRANCH   8   9
BRANCH   8  11
ATOM     11  C   LIG d   1      -4.522  74.958 117.227  0.00  0.00     0.028 C 
ATOM     12  C   LIG d   1      -3.176  74.508 117.817  0.00  0.00     0.006 C 
ENDBRANCH   8  11
ENDBRANCH   7   8
ENDBRANCH   1   7
BRANCH   6  13
ATOM     13  N   LIG d   1      -7.921  75.696 117.438  0.00  0.00    -0.311 N 
ATOM     14  C   LIG d   1      -8.210  74.648 118.207  0.00  0.00     0.210 C 
ATOM     15  C   LIG d   1      -8.292  73.308 117.469  0.00  0.00     0.109 C 
ATOM     16  O   LIG d   1      -8.439  74.706 119.425  0.00  0.00    -0.276 OA
ATOM     17  H   LIG d   1      -7.783  75.564 116.456  0.00  0.00     0.149 HD
ENDBRANCH   6  13
BRANCH   5  18
ATOM     18  N   LIG d   1     -10.206  77.382 118.566  0.00  0.00     0.381 N 
ATOM     19  H   LIG d   1     -11.025  77.925 118.382  0.00  0.00    -0.090 HD
ATOM     20  H   LIG d   1      -9.993  77.455 119.546  0.00  0.00    -0.090 HD
ATOM     21  H   LIG d   1     -10.369  76.429 118.324  0.00  0.00    -0.090 HD
ENDBRANCH   5  18
BRANCH   3  22
ATOM     22  C   LIG d   1      -7.644  81.290 117.519  0.00  0.00     0.382 C 
ATOM     23  O   LIG d   1      -8.049  81.789 116.442  0.00  0.00    -0.241 OA
ATOM     24  O   LIG d   1      -7.184  82.036 118.405  0.00  0.00    -0.241 OA
ENDBRANCH   3  22
TORSDOF 7
ENDMDL
MODEL 5
REMARK VINA RESULT:      -5.1     15.299     18.017
REMARK  7 active torsions:
REMARK  status: ('A' for Active; 'I' for Inactive)
REMARK    1  A    between atoms: C_2  and  C_3 
REMARK    2  A    between atoms: C_3  and  O_6 
REMARK    3  A    between atoms: C_3  and  C_4 
REMARK    4  A    between atoms: C_7  and  O_6 
REMARK    5  A    between atoms: C_9  and  C_10 
REMARK    6  A    between atoms: N_15  and  C_14 
REMARK    7  A    between atoms: N_20  and  C_19 
REMARK       I    between atoms: C_22  and  N_20 
ROOT
ATOM      1  C   LIG d   1      -6.534  93.553 117.951  0.00  0.00     0.161 C 
ATOM      2  C   LIG d   1      -7.050  92.477 117.209  0.00  0.00     0.016 C 
ATOM      3  C   LIG d   1      -6.321  91.295 116.941  0.00  0.00     0.038 C 
ATOM      4  C   LIG d   1      -5.072  91.045 117.530  0.00  0.00     0.028 C 
ATOM      5  C   LIG d   1      -4.300  92.314 117.875  0.00  0.00    -0.047 C 
ATOM      6  C   LIG d   1      -5.215  93.252 118.694  0.00  0.00     0.091 C 
ENDROOT
BRANCH   1   7
ATOM      7  O   LIG d   1      -7.531  94.033 118.873  0.00  0.00    -0.368 OA
BRANCH   7   8
ATOM      8  C   LIG d   1      -8.501  94.966 118.336  0.00  0.00     0.119 C 
BRANCH   8   9
ATOM      9  C   LIG d   1      -7.795  96.327 118.179  0.00  0.00     0.028 C 
ATOM     10  C   LIG d   1      -7.233  96.853 119.510  0.00  0.00     0.006 C 
ENDBRANCH   8   9
BRANCH   8  11
ATOM     11  C   LIG d   1      -9.644  95.213 119.324  0.00  0.00     0.028 C 
ATOM     12  C   LIG d   1      -9.777  94.097 120.373  0.00  0.00     0.006 C 
ENDBRANCH   8  11
ENDBRANCH   7   8
ENDBRANCH   1   7
BRANCH   6  13
ATOM     13  N   LIG d   1      -4.565  94.553 119.001  0.00  0.00    -0.311 N 
ATOM     14  C   LIG d   1      -3.933  94.805 120.146  0.00  0.00     0.210 C 
ATOM     15  C   LIG d   1      -3.351  96.216 120.266  0.00  0.00     0.109 C 
ATOM     16  O   LIG d   1      -3.772  93.982 121.060  0.00  0.00    -0.276 OA
ATOM     17  H   LIG d   1      -4.621  95.267 118.301  0.00  0.00     0.149 HD
ENDBRANCH   6  13
BRANCH   5  18
ATOM     18  N   LIG d   1      -3.083  91.911 118.605  0.00  0.00     0.381 N 
ATOM     19  H   LIG d   1      -3.301  91.175 119.246  0.00  0.00    -0.090 HD
ATOM     20  H   LIG d   1      -2.744  92.697 119.130  0.00  0.00    -0.090 HD
ATOM     21  H   LIG d   1      -2.386  91.605 117.962  0.00  0.00    -0.090 HD
ENDBRANCH   5  18
BRANCH   3  22
ATOM     22  C   LIG d   1      -6.824  90.366 116.044  0.00  0.00     0.382 C 
ATOM     23  O   LIG d   1      -6.060  89.514 115.529  0.00  0.00    -0.241 OA
ATOM     24  O   LIG d   1      -8.023  90.396 115.709  0.00  0.00    -0.241 OA
ENDBRANCH   3  22
TORSDOF 7
ENDMDL
MODEL 6
REMARK VINA RESULT:      -5.0      2.903      4.481
REMARK  7 active torsions:
REMARK  status: ('A' for Active; 'I' for Inactive)
REMARK    1  A    between atoms: C_2  and  C_3 
REMARK    2  A    between atoms: C_3  and  O_6 
REMARK    3  A    between atoms: C_3  and  C_4 
REMARK    4  A    between atoms: C_7  and  O_6 
REMARK    5  A    between atoms: C_9  and  C_10 
REMARK    6  A    between atoms: N_15  and  C_14 
REMARK    7  A    between atoms: N_20  and  C_19 
REMARK       I    between atoms: C_22  and  N_20 
ROOT
ATOM      1  C   LIG d   1      -5.085  76.714 115.794  0.00  0.00     0.161 C 
ATOM      2  C   LIG d   1      -4.039  75.787 115.650  0.00  0.00     0.016 C 
ATOM      3  C   LIG d   1      -2.962  75.681 116.559  0.00  0.00     0.038 C 
ATOM      4  C   LIG d   1      -2.936  76.399 117.764  0.00  0.00     0.028 C 
ATOM      5  C   LIG d   1      -3.713  77.710 117.705  0.00  0.00    -0.047 C 
ATOM      6  C   LIG d   1      -5.132  77.428 117.160  0.00  0.00     0.091 C 
ENDROOT
BRANCH   1   7
ATOM      7  O   LIG d   1      -6.346  76.073 115.519  0.00  0.00    -0.368 OA
BRANCH   7   8
ATOM      8  C   LIG d   1      -7.043  75.521 116.663  0.00  0.00     0.119 C 
BRANCH   8   9
ATOM      9  C   LIG d   1      -6.800  73.999 116.663  0.00  0.00     0.028 C 
ATOM     10  C   LIG d   1      -7.953  73.221 117.318  0.00  0.00     0.006 C 
ENDBRANCH   8   9
BRANCH   8  11
ATOM     11  C   LIG d   1      -8.559  75.689 116.527  0.00  0.00     0.028 C 
ATOM     12  C   LIG d   1      -9.140  76.695 117.533  0.00  0.00     0.006 C 
ENDBRANCH   8  11
ENDBRANCH   7   8
ENDBRANCH   1   7
BRANCH   6  13
ATOM     13  N   LIG d   1      -5.931  78.670 116.991  0.00  0.00    -0.311 N 
ATOM     14  C   LIG d   1      -6.668  79.206 117.963  0.00  0.00     0.210 C 
ATOM     15  C   LIG d   1      -7.429  80.476 117.572  0.00  0.00     0.109 C 
ATOM     16  O   LIG d   1      -6.738  78.767 119.121  0.00  0.00    -0.276 OA
ATOM     17  H   LIG d   1      -5.906  79.109 116.092  0.00  0.00     0.149 HD
ENDBRANCH   6  13
BRANCH   5  18
ATOM     18  N   LIG d   1      -3.719  78.286 119.064  0.00  0.00     0.381 N 
ATOM     19  H   LIG d   1      -2.784  78.508 119.341  0.00  0.00    -0.090 HD
ATOM     20  H   LIG d   1      -4.084  77.603 119.704  0.00  0.00    -0.090 HD
ATOM     21  H   LIG d   1      -4.284  79.106 119.083  0.00  0.00    -0.090 HD
ENDBRANCH   5  18
BRANCH   3  22
ATOM     22  C   LIG d   1      -1.875  74.879 116.247  0.00  0.00     0.382 C 
ATOM     23  O   LIG d   1      -1.320  74.199 117.143  0.00  0.00    -0.241 OA
ATOM     24  O   LIG d   1      -1.414  74.861 115.090  0.00  0.00    -0.241 OA
ENDBRANCH   3  22
TORSDOF 7
ENDMDL
MODEL 7
REMARK VINA RESULT:      -5.0      2.704      5.698
REMARK  7 active torsions:
REMARK  status: ('A' for Active; 'I' for Inactive)
REMARK    1  A    between atoms: C_2  and  C_3 
REMARK    2  A    between atoms: C_3  and  O_6 
REMARK    3  A    between atoms: C_3  and  C_4 
REMARK    4  A    between atoms: C_7  and  O_6 
REMARK    5  A    between atoms: C_9  and  C_10 
REMARK    6  A    between atoms: N_15  and  C_14 
REMARK    7  A    between atoms: N_20  and  C_19 
REMARK       I    between atoms: C_22  and  N_20 
ROOT
ATOM      1  C   LIG d   1      -6.856  77.048 117.822  0.00  0.00     0.161 C 
ATOM      2  C   LIG d   1      -7.884  77.982 117.610  0.00  0.00     0.016 C 
ATOM      3  C   LIG d   1      -7.724  79.373 117.804  0.00  0.00     0.038 C 
ATOM      4  C   LIG d   1      -6.473  79.944 118.080  0.00  0.00     0.028 C 
ATOM      5  C   LIG d   1      -5.518  78.995 118.797  0.00  0.00    -0.047 C 
ATOM      6  C   LIG d   1      -5.454  77.663 118.015  0.00  0.00     0.091 C 
ENDROOT
BRANCH   1   7
ATOM      7  O   LIG d   1      -6.839  76.089 116.747  0.00  0.00    -0.368 OA
BRANCH   7   8
ATOM      8  C   LIG d   1      -6.812  74.694 117.138  0.00  0.00     0.119 C 
BRANCH   8   9
ATOM      9  C   LIG d   1      -6.114  73.910 116.010  0.00  0.00     0.028 C 
ATOM     10  C   LIG d   1      -5.514  74.834 114.938  0.00  0.00     0.006 C 
ENDBRANCH   8   9
BRANCH   8  11
ATOM     11  C   LIG d   1      -8.226  74.111 117.223  0.00  0.00     0.028 C 
ATOM     12  C   LIG d   1      -8.231  72.590 117.445  0.00  0.00     0.006 C 
ENDBRANCH   8  11
ENDBRANCH   7   8
ENDBRANCH   1   7
BRANCH   6  13
ATOM     13  N   LIG d   1      -4.608  76.648 118.694  0.00  0.00    -0.311 N 
ATOM     14  C   LIG d   1      -3.530  76.099 118.135  0.00  0.00     0.210 C 
ATOM     15  C   LIG d   1      -2.812  75.059 119.000  0.00  0.00     0.109 C 
ATOM     16  O   LIG d   1      -3.083  76.399 117.018  0.00  0.00    -0.276 OA
ATOM     17  H   LIG d   1      -4.881  76.369 119.616  0.00  0.00     0.149 HD
ENDBRANCH   6  13
BRANCH   5  18
ATOM     18  N   LIG d   1      -4.211  79.670 118.897  0.00  0.00     0.381 N 
ATOM     19  H   LIG d   1      -3.551  79.065 119.344  0.00  0.00    -0.090 HD
ATOM     20  H   LIG d   1      -4.313  80.495 119.461  0.00  0.00    -0.090 HD
ATOM     21  H   LIG d   1      -3.884  79.917 117.989  0.00  0.00    -0.090 HD
ENDBRANCH   5  18
BRANCH   3  22
ATOM     22  C   LIG d   1      -8.833  80.205 117.762  0.00  0.00     0.382 C 
ATOM     23  O   LIG d   1      -8.687  81.434 117.555  0.00  0.00    -0.241 OA
ATOM     24  O   LIG d   1      -9.973  79.750 117.973  0.00  0.00    -0.241 OA
ENDBRANCH   3  22
TORSDOF 7
ENDMDL
MODEL 8
REMARK VINA RESULT:      -4.9      3.372      6.252
REMARK  7 active torsions:
REMARK  status: ('A' for Active; 'I' for Inactive)
REMARK    1  A    between atoms: C_2  and  C_3 
REMARK    2  A    between atoms: C_3  and  O_6 
REMARK    3  A    between atoms: C_3  and  C_4 
REMARK    4  A    between atoms: C_7  and  O_6 
REMARK    5  A    between atoms: C_9  and  C_10 
REMARK    6  A    between atoms: N_15  and  C_14 
REMARK    7  A    between atoms: N_20  and  C_19 
REMARK       I    between atoms: C_22  and  N_20 
ROOT
ATOM      1  C   LIG d   1      -8.435  78.967 118.676  0.00  0.00     0.161 C 
ATOM      2  C   LIG d   1      -9.395  79.780 118.050  0.00  0.00     0.016 C 
ATOM      3  C   LIG d   1      -9.350  81.193 118.069  0.00  0.00     0.038 C 
ATOM      4  C   LIG d   1      -8.251  81.892 118.591  0.00  0.00     0.028 C 
ATOM      5  C   LIG d   1      -7.506  81.126 119.678  0.00  0.00    -0.047 C 
ATOM      6  C   LIG d   1      -7.170  79.711 119.154  0.00  0.00     0.091 C 
ENDROOT
BRANCH   1   7
ATOM      7  O   LIG d   1      -8.075  77.877 117.804  0.00  0.00    -0.368 OA
BRANCH   7   8
ATOM      8  C   LIG d   1      -8.825  76.649 117.976  0.00  0.00     0.119 C 
BRANCH   8   9
ATOM      9  C   LIG d   1      -8.130  75.833 119.084  0.00  0.00     0.028 C 
ATOM     10  C   LIG d   1      -8.969  75.756 120.370  0.00  0.00     0.006 C 
ENDBRANCH   8   9
BRANCH   8  11
ATOM     11  C   LIG d   1      -8.755  75.772 116.722  0.00  0.00     0.028 C 
ATOM     12  C   LIG d   1      -8.049  74.430 116.972  0.00  0.00     0.006 C 
ENDBRANCH   8  11
ENDBRANCH   7   8
ENDBRANCH   1   7
BRANCH   6  13
ATOM     13  N   LIG d   1      -6.514  78.865 120.185  0.00  0.00    -0.311 N 
ATOM     14  C   LIG d   1      -5.412  78.153 119.957  0.00  0.00     0.210 C 
ATOM     15  C   LIG d   1      -4.912  77.334 121.151  0.00  0.00     0.109 C 
ATOM     16  O   LIG d   1      -4.783  78.147 118.888  0.00  0.00    -0.276 OA
ATOM     17  H   LIG d   1      -6.941  78.836 121.091  0.00  0.00     0.149 HD
ENDBRANCH   6  13
BRANCH   5  18
ATOM     18  N   LIG d   1      -6.308  81.909 120.034  0.00  0.00     0.381 N 
ATOM     19  H   LIG d   1      -5.588  81.297 120.364  0.00  0.00    -0.090 HD
ATOM     20  H   LIG d   1      -6.544  82.546 120.775  0.00  0.00    -0.090 HD
ATOM     21  H   LIG d   1      -5.984  82.417 119.240  0.00  0.00    -0.090 HD
ENDBRANCH   5  18
BRANCH   3  22
ATOM     22  C   LIG d   1     -10.431  81.921 117.598  0.00  0.00     0.382 C 
ATOM     23  O   LIG d   1     -10.992  81.589 116.526  0.00  0.00    -0.241 OA
ATOM     24  O   LIG d   1     -10.825  82.933 118.208  0.00  0.00    -0.241 OA
ENDBRANCH   3  22
TORSDOF 7
ENDMDL
MODEL 9
REMARK VINA RESULT:      -4.9      3.210      6.634
REMARK  7 active torsions:
REMARK  status: ('A' for Active; 'I' for Inactive)
REMARK    1  A    between atoms: C_2  and  C_3 
REMARK    2  A    between atoms: C_3  and  O_6 
REMARK    3  A    between atoms: C_3  and  C_4 
REMARK    4  A    between atoms: C_7  and  O_6 
REMARK    5  A    between atoms: C_9  and  C_10 
REMARK    6  A    between atoms: N_15  and  C_14 
REMARK    7  A    between atoms: N_20  and  C_19 
REMARK       I    between atoms: C_22  and  N_20 
ROOT
ATOM      1  C   LIG d   1      -8.480  78.419 118.331  0.00  0.00     0.161 C 
ATOM      2  C   LIG d   1      -8.483  79.620 117.602  0.00  0.00     0.016 C 
ATOM      3  C   LIG d   1      -9.131  80.796 118.044  0.00  0.00     0.038 C 
ATOM      4  C   LIG d   1      -9.696  80.895 119.324  0.00  0.00     0.028 C 
ATOM      5  C   LIG d   1     -10.157  79.556 119.888  0.00  0.00    -0.047 C 
ATOM      6  C   LIG d   1      -8.997  78.540 119.780  0.00  0.00     0.091 C 
ENDROOT
BRANCH   1   7
ATOM      7  O   LIG d   1      -7.159  77.841 118.317  0.00  0.00    -0.368 OA
BRANCH   7   8
ATOM      8  C   LIG d   1      -6.900  76.868 117.276  0.00  0.00     0.119 C 
BRANCH   8   9
ATOM      9  C   LIG d   1      -8.192  76.052 117.073  0.00  0.00     0.028 C 
ATOM     10  C   LIG d   1      -8.060  74.608 117.589  0.00  0.00     0.006 C 
ENDBRANCH   8   9
BRANCH   8  11
ATOM     11  C   LIG d   1      -5.842  75.851 117.714  0.00  0.00     0.028 C 
ATOM     12  C   LIG d   1      -4.627  75.813 116.774  0.00  0.00     0.006 C 
ENDBRANCH   8  11
ENDBRANCH   7   8
ENDBRANCH   1   7
BRANCH   6  13
ATOM     13  N   LIG d   1      -9.390  77.180 120.232  0.00  0.00    -0.311 N 
ATOM     14  C   LIG d   1      -8.625  76.417 121.011  0.00  0.00     0.210 C 
ATOM     15  C   LIG d   1      -9.211  75.041 121.344  0.00  0.00     0.109 C 
ATOM     16  O   LIG d   1      -7.532  76.762 121.485  0.00  0.00    -0.276 OA
ATOM     17  H   LIG d   1     -10.276  76.834 119.920  0.00  0.00     0.149 HD
ENDBRANCH   6  13
BRANCH   5  18
ATOM     18  N   LIG d   1     -10.598  79.785 121.277  0.00  0.00     0.381 N 
ATOM     19  H   LIG d   1     -11.589  79.666 121.342  0.00  0.00    -0.090 HD
ATOM     20  H   LIG d   1     -10.375  80.729 121.537  0.00  0.00    -0.090 HD
ATOM     21  H   LIG d   1     -10.139  79.147 121.890  0.00  0.00    -0.090 HD
ENDBRANCH   5  18
BRANCH   3  22
ATOM     22  C   LIG d   1      -9.252  81.878 117.184  0.00  0.00     0.382 C 
ATOM     23  O   LIG d   1     -10.171  82.714 117.356  0.00  0.00    -0.241 OA
ATOM     24  O   LIG d   1      -8.482  82.003 116.214  0.00  0.00    -0.241 OA
ENDBRANCH   3  22
TORSDOF 7
ENDMDL
