MODEL 1
REMARK VINA RESULT:      -5.3      0.000      0.000
REMARK  7 active torsions:
REMARK  status: ('A' for Active; 'I' for Inactive)
REMARK    1  A    between atoms: C_2  and  C_3 
REMARK    2  A    between atoms: C_3  and  O_6 
REMARK    3  A    between atoms: C_3  and  C_4 
REMARK    4  A    between atoms: C_7  and  O_6 
REMARK    5  A    between atoms: C_9  and  C_10 
REMARK    6  A    between atoms: N_15  and  C_14 
REMARK    7  A    between atoms: N_20  and  C_19 
REMARK       I    between atoms: C_22  and  N_20 
ROOT
ATOM      1  C   LIG d   1      -4.610  92.548 117.671  0.00  0.00     0.161 C 
ATOM      2  C   LIG d   1      -5.947  92.978 117.627  0.00  0.00     0.016 C 
ATOM      3  C   LIG d   1      -6.936  92.364 116.824  0.00  0.00     0.038 C 
ATOM      4  C   LIG d   1      -6.687  91.177 116.120  0.00  0.00     0.028 C 
ATOM      5  C   LIG d   1      -5.223  90.995 115.736  0.00  0.00    -0.047 C 
ATOM      6  C   LIG d   1      -4.347  91.186 116.995  0.00  0.00     0.091 C 
ENDROOT
BRANCH   1   7
ATOM      7  O   LIG d   1      -4.148  92.528 119.036  0.00  0.00    -0.368 OA
BRANCH   7   8
ATOM      8  C   LIG d   1      -3.148  93.517 119.384  0.00  0.00     0.119 C 
BRANCH   8   9
ATOM      9  C   LIG d   1      -3.832  94.572 120.275  0.00  0.00     0.028 C 
ATOM     10  C   LIG d   1      -4.268  95.816 119.483  0.00  0.00     0.006 C 
ENDBRANCH   8   9
BRANCH   8  11
ATOM     11  C   LIG d   1      -2.666  94.281 118.148  0.00  0.00     0.028 C 
ATOM     12  C   LIG d   1      -1.160  94.112 117.893  0.00  0.00     0.006 C 
ENDBRANCH   8  11
ENDBRANCH   7   8
ENDBRANCH   1   7
BRANCH   6  13
ATOM     13  N   LIG d   1      -2.894  91.108 116.692  0.00  0.00    -0.311 N 
ATOM     14  C   LIG d   1      -2.020  90.453 117.455  0.00  0.00     0.210 C 
ATOM     15  C   LIG d   1      -0.567  90.515 116.972  0.00  0.00     0.109 C 
ATOM     16  O   LIG d   1      -2.314  89.800 118.467  0.00  0.00    -0.276 OA
ATOM     17  H   LIG d   1      -2.573  91.583 115.872  0.00  0.00     0.149 HD
ENDBRANCH   6  13
BRANCH   5  18
ATOM     18  N   LIG d   1      -5.083  89.656 115.132  0.00  0.00     0.381 N 
ATOM     19  H   LIG d   1      -4.292  89.642 114.520  0.00  0.00    -0.090 HD
ATOM     20  H   LIG d   1      -5.905  89.457 114.590  0.00  0.00    -0.090 HD
ATOM     21  H   LIG d   1      -4.973  88.970 115.846  0.00  0.00    -0.090 HD
ENDBRANCH   5  18
BRANCH   3  22
ATOM     22  C   LIG d   1      -8.179  92.963 116.688  0.00  0.00     0.382 C 
ATOM     23  O   LIG d   1      -8.571  93.795 117.541  0.00  0.00    -0.241 OA
ATOM     24  O   LIG d   1      -8.932  92.648 115.747  0.00  0.00    -0.241 OA
ENDBRANCH   3  22
TORSDOF 7
ENDMDL
MODEL 2
REMARK VINA RESULT:      -5.2      2.222      3.495
REMARK  7 active torsions:
REMARK  status: ('A' for Active; 'I' for Inactive)
REMARK    1  A    between atoms: C_2  and  C_3 
REMARK    2  A    between atoms: C_3  and  O_6 
REMARK    3  A    between atoms: C_3  and  C_4 
REMARK    4  A    between atoms: C_7  and  O_6 
REMARK    5  A    between atoms: C_9  and  C_10 
REMARK    6  A    between atoms: N_15  and  C_14 
REMARK    7  A    between atoms: N_20  and  C_19 
REMARK       I    between atoms: C_22  and  N_20 
ROOT
ATOM      1  C   LIG d   1      -5.502  93.060 117.831  0.00  0.00     0.161 C 
ATOM      2  C   LIG d   1      -6.047  94.211 118.423  0.00  0.00     0.016 C 
ATOM      3  C   LIG d   1      -7.344  94.695 118.135  0.00  0.00     0.038 C 
ATOM      4  C   LIG d   1      -8.247  93.969 117.344  0.00  0.00     0.028 C 
ATOM      5  C   LIG d   1      -7.566  93.062 116.325  0.00  0.00    -0.047 C 
ATOM      6  C   LIG d   1      -6.513  92.194 117.050  0.00  0.00     0.091 C 
ENDROOT
BRANCH   1   7
ATOM      7  O   LIG d   1      -4.831  92.267 118.831  0.00  0.00    -0.368 OA
BRANCH   7   8
ATOM      8  C   LIG d   1      -3.404  92.482 118.962  0.00  0.00     0.119 C 
BRANCH   8   9
ATOM      9  C   LIG d   1      -2.878  92.945 117.590  0.00  0.00     0.028 C 
ATOM     10  C   LIG d   1      -1.681  93.903 117.714  0.00  0.00     0.006 C 
ENDBRANCH   8   9
BRANCH   8  11
ATOM     11  C   LIG d   1      -2.669  91.172 119.258  0.00  0.00     0.028 C 
ATOM     12  C   LIG d   1      -3.351  89.949 118.624  0.00  0.00     0.006 C 
ENDBRANCH   8  11
ENDBRANCH   7   8
ENDBRANCH   1   7
BRANCH   6  13
ATOM     13  N   LIG d   1      -5.741  91.337 116.112  0.00  0.00    -0.311 N 
ATOM     14  C   LIG d   1      -6.025  90.055 115.888  0.00  0.00     0.210 C 
ATOM     15  C   LIG d   1      -5.091  89.350 114.899  0.00  0.00     0.109 C 
ATOM     16  O   LIG d   1      -6.980  89.444 116.390  0.00  0.00    -0.276 OA
ATOM     17  H   LIG d   1      -4.968  91.761 115.638  0.00  0.00     0.149 HD
ENDBRANCH   6  13
BRANCH   5  18
ATOM     18  N   LIG d   1      -8.617  92.265 115.665  0.00  0.00     0.381 N 
ATOM     19  H   LIG d   1      -9.444  92.261 116.228  0.00  0.00    -0.090 HD
ATOM     20  H   LIG d   1      -8.296  91.318 115.570  0.00  0.00    -0.090 HD
ATOM     21  H   LIG d   1      -8.821  92.646 114.767  0.00  0.00    -0.090 HD
ENDBRANCH   5  18
BRANCH   3  22
ATOM     22  C   LIG d   1      -7.736  95.937 118.610  0.00  0.00     0.382 C 
ATOM     23  O   LIG d   1      -8.137  96.058 119.793  0.00  0.00    -0.241 OA
ATOM     24  O   LIG d   1      -7.734  96.930 117.858  0.00  0.00    -0.241 OA
ENDBRANCH   3  22
TORSDOF 7
ENDMDL
MODEL 3
REMARK VINA RESULT:      -5.2      1.927      3.390
REMARK  7 active torsions:
REMARK  status: ('A' for Active; 'I' for Inactive)
REMARK    1  A    between atoms: C_2  and  C_3 
REMARK    2  A    between atoms: C_3  and  O_6 
REMARK    3  A    between atoms: C_3  and  C_4 
REMARK    4  A    between atoms: C_7  and  O_6 
REMARK    5  A    between atoms: C_9  and  C_10 
REMARK    6  A    between atoms: N_15  and  C_14 
REMARK    7  A    between atoms: N_20  and  C_19 
REMARK       I    between atoms: C_22  and  N_20 
ROOT
ATOM      1  C   LIG d   1      -5.913  93.003 117.316  0.00  0.00     0.161 C 
ATOM      2  C   LIG d   1      -6.914  92.097 116.929  0.00  0.00     0.016 C 
ATOM      3  C   LIG d   1      -6.647  90.774 116.509  0.00  0.00     0.038 C 
ATOM      4  C   LIG d   1      -5.363  90.214 116.593  0.00  0.00     0.028 C 
ATOM      5  C   LIG d   1      -4.245  91.247 116.500  0.00  0.00    -0.047 C 
ATOM      6  C   LIG d   1      -4.518  92.375 117.521  0.00  0.00     0.091 C 
ENDROOT
BRANCH   1   7
ATOM      7  O   LIG d   1      -6.324  93.707 118.505  0.00  0.00    -0.368 OA
BRANCH   7   8
ATOM      8  C   LIG d   1      -6.658  95.106 118.332  0.00  0.00     0.119 C 
BRANCH   8   9
ATOM      9  C   LIG d   1      -5.634  95.929 119.137  0.00  0.00     0.028 C 
ATOM     10  C   LIG d   1      -5.069  95.152 120.337  0.00  0.00     0.006 C 
ENDBRANCH   8   9
BRANCH   8  11
ATOM     11  C   LIG d   1      -8.019  95.435 118.953  0.00  0.00     0.028 C 
ATOM     12  C   LIG d   1      -8.750  94.189 119.479  0.00  0.00     0.006 C 
ENDBRANCH   8  11
ENDBRANCH   7   8
ENDBRANCH   1   7
BRANCH   6  13
ATOM     13  N   LIG d   1      -3.516  93.470 117.437  0.00  0.00    -0.311 N 
ATOM     14  C   LIG d   1      -2.433  93.533 118.210  0.00  0.00     0.210 C 
ATOM     15  C   LIG d   1      -1.541  94.756 117.974  0.00  0.00     0.109 C 
ATOM     16  O   LIG d   1      -2.110  92.676 119.046  0.00  0.00    -0.276 OA
ATOM     17  H   LIG d   1      -3.684  94.191 116.763  0.00  0.00     0.149 HD
ENDBRANCH   6  13
BRANCH   5  18
ATOM     18  N   LIG d   1      -2.969  90.546 116.740  0.00  0.00     0.381 N 
ATOM     19  H   LIG d   1      -3.121  89.557 116.737  0.00  0.00    -0.090 HD
ATOM     20  H   LIG d   1      -2.620  90.808 117.645  0.00  0.00    -0.090 HD
ATOM     21  H   LIG d   1      -2.308  90.791 116.036  0.00  0.00    -0.090 HD
ENDBRANCH   5  18
BRANCH   3  22
ATOM     22  C   LIG d   1      -7.664  90.008 115.961  0.00  0.00     0.382 C 
ATOM     23  O   LIG d   1      -8.468  90.523 115.148  0.00  0.00    -0.241 OA
ATOM     24  O   LIG d   1      -7.815  88.819 116.303  0.00  0.00    -0.241 OA
ENDBRANCH   3  22
TORSDOF 7
ENDMDL
MODEL 4
REMARK VINA RESULT:      -5.2      2.600      4.302
REMARK  7 active torsions:
REMARK  status: ('A' for Active; 'I' for Inactive)
REMARK    1  A    between atoms: C_2  and  C_3 
REMARK    2  A    between atoms: C_3  and  O_6 
REMARK    3  A    between atoms: C_3  and  C_4 
REMARK    4  A    between atoms: C_7  and  O_6 
REMARK    5  A    between atoms: C_9  and  C_10 
REMARK    6  A    between atoms: N_15  and  C_14 
REMARK    7  A    between atoms: N_20  and  C_19 
REMARK       I    between atoms: C_22  and  N_20 
ROOT
ATOM      1  C   LIG d   1      -4.815  92.808 117.743  0.00  0.00     0.161 C 
ATOM      2  C   LIG d   1      -4.901  91.615 117.007  0.00  0.00     0.016 C 
ATOM      3  C   LIG d   1      -6.088  91.171 116.381  0.00  0.00     0.038 C 
ATOM      4  C   LIG d   1      -7.239  91.971 116.322  0.00  0.00     0.028 C 
ATOM      5  C   LIG d   1      -7.352  92.956 117.481  0.00  0.00    -0.047 C 
ATOM      6  C   LIG d   1      -6.030  93.748 117.597  0.00  0.00     0.091 C 
ENDROOT
BRANCH   1   7
ATOM      7  O   LIG d   1      -3.599  93.505 117.405  0.00  0.00    -0.368 OA
BRANCH   7   8
ATOM      8  C   LIG d   1      -2.474  93.292 118.293  0.00  0.00     0.119 C 
BRANCH   8   9
ATOM      9  C   LIG d   1      -2.602  94.298 119.453  0.00  0.00     0.028 C 
ATOM     10  C   LIG d   1      -2.574  95.758 118.969  0.00  0.00     0.006 C 
ENDBRANCH   8   9
BRANCH   8  11
ATOM     11  C   LIG d   1      -1.149  93.633 117.605  0.00  0.00     0.028 C 
ATOM     12  C   LIG d   1      -0.187  92.436 117.537  0.00  0.00     0.006 C 
ENDBRANCH   8  11
ENDBRANCH   7   8
ENDBRANCH   1   7
BRANCH   6  13
ATOM     13  N   LIG d   1      -6.025  94.675 118.759  0.00  0.00    -0.311 N 
ATOM     14  C   LIG d   1      -6.499  95.918 118.707  0.00  0.00     0.210 C 
ATOM     15  C   LIG d   1      -6.379  96.711 120.012  0.00  0.00     0.109 C 
ATOM     16  O   LIG d   1      -7.038  96.429 117.713  0.00  0.00    -0.276 OA
ATOM     17  H   LIG d   1      -5.634  94.331 119.614  0.00  0.00     0.149 HD
ENDBRANCH   6  13
BRANCH   5  18
ATOM     18  N   LIG d   1      -8.521  93.817 117.221  0.00  0.00     0.381 N 
ATOM     19  H   LIG d   1      -8.226  94.767 117.118  0.00  0.00    -0.090 HD
ATOM     20  H   LIG d   1      -9.145  93.764 118.008  0.00  0.00    -0.090 HD
ATOM     21  H   LIG d   1      -8.990  93.516 116.396  0.00  0.00    -0.090 HD
ENDBRANCH   5  18
BRANCH   3  22
ATOM     22  C   LIG d   1      -6.144  89.896 115.839  0.00  0.00     0.382 C 
ATOM     23  O   LIG d   1      -7.071  89.116 116.165  0.00  0.00    -0.241 OA
ATOM     24  O   LIG d   1      -5.254  89.500 115.062  0.00  0.00    -0.241 OA
ENDBRANCH   3  22
TORSDOF 7
ENDMDL
MODEL 5
REMARK VINA RESULT:      -5.0      0.823      1.657
REMARK  7 active torsions:
REMARK  status: ('A' for Active; 'I' for Inactive)
REMARK    1  A    between atoms: C_2  and  C_3 
REMARK    2  A    between atoms: C_3  and  O_6 
REMARK    3  A    between atoms: C_3  and  C_4 
REMARK    4  A    between atoms: C_7  and  O_6 
REMARK    5  A    between atoms: C_9  and  C_10 
REMARK    6  A    between atoms: N_15  and  C_14 
REMARK    7  A    between atoms: N_20  and  C_19 
REMARK       I    between atoms: C_22  and  N_20 
ROOT
ATOM      1  C   LIG d   1      -4.434  93.137 117.564  0.00  0.00     0.161 C 
ATOM      2  C   LIG d   1      -5.810  93.396 117.454  0.00  0.00     0.016 C 
ATOM      3  C   LIG d   1      -6.730  92.488 116.883  0.00  0.00     0.038 C 
ATOM      4  C   LIG d   1      -6.357  91.186 116.517  0.00  0.00     0.028 C 
ATOM      5  C   LIG d   1      -4.883  91.061 116.143  0.00  0.00    -0.047 C 
ATOM      6  C   LIG d   1      -4.026  91.678 117.272  0.00  0.00     0.091 C 
ENDROOT
BRANCH   1   7
ATOM      7  O   LIG d   1      -3.963  93.537 118.866  0.00  0.00    -0.368 OA
BRANCH   7   8
ATOM      8  C   LIG d   1      -3.087  94.691 118.900  0.00  0.00     0.119 C 
BRANCH   8   9
ATOM      9  C   LIG d   1      -1.745  94.235 119.505  0.00  0.00     0.028 C 
ATOM     10  C   LIG d   1      -1.887  92.964 120.358  0.00  0.00     0.006 C 
ENDBRANCH   8   9
BRANCH   8  11
ATOM     11  C   LIG d   1      -3.618  95.765 119.854  0.00  0.00     0.028 C 
ATOM     12  C   LIG d   1      -4.880  95.320 120.610  0.00  0.00     0.006 C 
ENDBRANCH   8  11
ENDBRANCH   7   8
ENDBRANCH   1   7
BRANCH   6  13
ATOM     13  N   LIG d   1      -2.575  91.672 116.948  0.00  0.00    -0.311 N 
ATOM     14  C   LIG d   1      -1.740  90.712 117.341  0.00  0.00     0.210 C 
ATOM     15  C   LIG d   1      -0.281  90.911 116.917  0.00  0.00     0.109 C 
ATOM     16  O   LIG d   1      -2.074  89.698 117.972  0.00  0.00    -0.276 OA
ATOM     17  H   LIG d   1      -2.225  92.442 116.412  0.00  0.00     0.149 HD
ENDBRANCH   6  13
BRANCH   5  18
ATOM     18  N   LIG d   1      -4.601  89.631 115.918  0.00  0.00     0.381 N 
ATOM     19  H   LIG d   1      -5.252  89.072 116.432  0.00  0.00    -0.090 HD
ATOM     20  H   LIG d   1      -3.676  89.426 116.252  0.00  0.00    -0.090 HD
ATOM     21  H   LIG d   1      -4.665  89.420 114.946  0.00  0.00    -0.090 HD
ENDBRANCH   5  18
BRANCH   3  22
ATOM     22  C   LIG d   1      -8.033  92.893 116.635  0.00  0.00     0.382 C 
ATOM     23  O   LIG d   1      -8.595  93.705 117.410  0.00  0.00    -0.241 OA
ATOM     24  O   LIG d   1      -8.668  92.424 115.672  0.00  0.00    -0.241 OA
ENDBRANCH   3  22
TORSDOF 7
ENDMDL
MODEL 6
REMARK VINA RESULT:      -4.8      2.303      4.091
REMARK  7 active torsions:
REMARK  status: ('A' for Active; 'I' for Inactive)
REMARK    1  A    between atoms: C_2  and  C_3 
REMARK    2  A    between atoms: C_3  and  O_6 
REMARK    3  A    between atoms: C_3  and  C_4 
REMARK    4  A    between atoms: C_7  and  O_6 
REMARK    5  A    between atoms: C_9  and  C_10 
REMARK    6  A    between atoms: N_15  and  C_14 
REMARK    7  A    between atoms: N_20  and  C_19 
REMARK       I    between atoms: C_22  and  N_20 
ROOT
ATOM      1  C   LIG d   1      -4.416  91.677 117.894  0.00  0.00     0.161 C 
ATOM      2  C   LIG d   1      -5.272  90.827 117.174  0.00  0.00     0.016 C 
ATOM      3  C   LIG d   1      -6.481  91.261 116.583  0.00  0.00     0.038 C 
ATOM      4  C   LIG d   1      -6.843  92.616 116.543  0.00  0.00     0.028 C 
ATOM      5  C   LIG d   1      -6.262  93.432 117.692  0.00  0.00    -0.047 C 
ATOM      6  C   LIG d   1      -4.738  93.180 117.766  0.00  0.00     0.091 C 
ENDROOT
BRANCH   1   7
ATOM      7  O   LIG d   1      -3.047  91.424 117.518  0.00  0.00    -0.368 OA
BRANCH   7   8
ATOM      8  C   LIG d   1      -2.177  90.937 118.568  0.00  0.00     0.119 C 
BRANCH   8   9
ATOM      9  C   LIG d   1      -1.536  89.628 118.069  0.00  0.00     0.028 C 
ATOM     10  C   LIG d   1      -2.276  88.380 118.580  0.00  0.00     0.006 C 
ENDBRANCH   8   9
BRANCH   8  11
ATOM     11  C   LIG d   1      -2.974  90.548 119.817  0.00  0.00     0.028 C 
ATOM     12  C   LIG d   1      -2.535  91.324 121.069  0.00  0.00     0.006 C 
ENDBRANCH   8  11
ENDBRANCH   7   8
ENDBRANCH   1   7
BRANCH   6  13
ATOM     13  N   LIG d   1      -4.104  93.876 118.916  0.00  0.00    -0.311 N 
ATOM     14  C   LIG d   1      -2.945  94.527 118.831  0.00  0.00     0.210 C 
ATOM     15  C   LIG d   1      -2.459  95.157 120.140  0.00  0.00     0.109 C 
ATOM     16  O   LIG d   1      -2.290  94.670 117.788  0.00  0.00    -0.276 OA
ATOM     17  H   LIG d   1      -4.584  93.837 119.794  0.00  0.00     0.149 HD
ENDBRANCH   6  13
BRANCH   5  18
ATOM     18  N   LIG d   1      -6.603  94.847 117.451  0.00  0.00     0.381 N 
ATOM     19  H   LIG d   1      -5.916  95.264 116.855  0.00  0.00    -0.090 HD
ATOM     20  H   LIG d   1      -6.598  95.336 118.329  0.00  0.00    -0.090 HD
ATOM     21  H   LIG d   1      -7.504  94.913 117.030  0.00  0.00    -0.090 HD
ENDBRANCH   5  18
BRANCH   3  22
ATOM     22  C   LIG d   1      -7.363  90.328 116.058  0.00  0.00     0.382 C 
ATOM     23  O   LIG d   1      -8.424  90.708 115.509  0.00  0.00    -0.241 OA
ATOM     24  O   LIG d   1      -7.131  89.109 116.166  0.00  0.00    -0.241 OA
ENDBRANCH   3  22
TORSDOF 7
ENDMDL
MODEL 7
REMARK VINA RESULT:      -4.8      2.532      4.588
REMARK  7 active torsions:
REMARK  status: ('A' for Active; 'I' for Inactive)
REMARK    1  A    between atoms: C_2  and  C_3 
REMARK    2  A    between atoms: C_3  and  O_6 
REMARK    3  A    between atoms: C_3  and  C_4 
REMARK    4  A    between atoms: C_7  and  O_6 
REMARK    5  A    between atoms: C_9  and  C_10 
REMARK    6  A    between atoms: N_15  and  C_14 
REMARK    7  A    between atoms: N_20  and  C_19 
REMARK       I    between atoms: C_22  and  N_20 
ROOT
ATOM      1  C   LIG d   1      -6.203  93.058 117.953  0.00  0.00     0.161 C 
ATOM      2  C   LIG d   1      -7.489  93.489 118.323  0.00  0.00     0.016 C 
ATOM      3  C   LIG d   1      -7.760  94.190 119.520  0.00  0.00     0.038 C 
ATOM      4  C   LIG d   1      -6.734  94.643 120.363  0.00  0.00     0.028 C 
ATOM      5  C   LIG d   1      -5.469  93.796 120.287  0.00  0.00    -0.047 C 
ATOM      6  C   LIG d   1      -5.056  93.641 118.805  0.00  0.00     0.091 C 
ENDROOT
BRANCH   1   7
ATOM      7  O   LIG d   1      -5.979  93.333 116.556  0.00  0.00    -0.368 OA
BRANCH   7   8
ATOM      8  C   LIG d   1      -5.898  92.179 115.685  0.00  0.00     0.119 C 
BRANCH   8   9
ATOM      9  C   LIG d   1      -7.206  92.119 114.872  0.00  0.00     0.028 C 
ATOM     10  C   LIG d   1      -8.036  90.864 115.186  0.00  0.00     0.006 C 
ENDBRANCH   8   9
BRANCH   8  11
ATOM     11  C   LIG d   1      -5.861  90.875 116.488  0.00  0.00     0.028 C 
ATOM     12  C   LIG d   1      -4.548  90.098 116.302  0.00  0.00     0.006 C 
ENDBRANCH   8  11
ENDBRANCH   7   8
ENDBRANCH   1   7
BRANCH   6  13
ATOM     13  N   LIG d   1      -3.875  92.756 118.635  0.00  0.00    -0.311 N 
ATOM     14  C   LIG d   1      -2.712  93.172 118.136  0.00  0.00     0.210 C 
ATOM     15  C   LIG d   1      -1.631  92.093 118.027  0.00  0.00     0.109 C 
ATOM     16  O   LIG d   1      -2.464  94.341 117.803  0.00  0.00    -0.276 OA
ATOM     17  H   LIG d   1      -3.979  91.799 118.909  0.00  0.00     0.149 HD
ENDBRANCH   6  13
BRANCH   5  18
ATOM     18  N   LIG d   1      -4.438  94.459 121.108  0.00  0.00     0.381 N 
ATOM     19  H   LIG d   1      -4.677  95.422 121.238  0.00  0.00    -0.090 HD
ATOM     20  H   LIG d   1      -3.559  94.415 120.623  0.00  0.00    -0.090 HD
ATOM     21  H   LIG d   1      -4.362  94.006 121.991  0.00  0.00    -0.090 HD
ENDBRANCH   5  18
BRANCH   3  22
ATOM     22  C   LIG d   1      -9.074  94.409 119.906  0.00  0.00     0.382 C 
ATOM     23  O   LIG d   1      -9.379  95.455 120.527  0.00  0.00    -0.241 OA
ATOM     24  O   LIG d   1      -9.950  93.553 119.679  0.00  0.00    -0.241 OA
ENDBRANCH   3  22
TORSDOF 7
ENDMDL
MODEL 8
REMARK VINA RESULT:      -4.7     13.336     15.216
REMARK  7 active torsions:
REMARK  status: ('A' for Active; 'I' for Inactive)
REMARK    1  A    between atoms: C_2  and  C_3 
REMARK    2  A    between atoms: C_3  and  O_6 
REMARK    3  A    between atoms: C_3  and  C_4 
REMARK    4  A    between atoms: C_7  and  O_6 
REMARK    5  A    between atoms: C_9  and  C_10 
REMARK    6  A    between atoms: N_15  and  C_14 
REMARK    7  A    between atoms: N_20  and  C_19 
REMARK       I    between atoms: C_22  and  N_20 
ROOT
ATOM      1  C   LIG d   1      -5.467  77.611 117.263  0.00  0.00     0.161 C 
ATOM      2  C   LIG d   1      -6.729  78.205 117.099  0.00  0.00     0.016 C 
ATOM      3  C   LIG d   1      -7.287  79.115 118.026  0.00  0.00     0.038 C 
ATOM      4  C   LIG d   1      -6.552  79.611 119.113  0.00  0.00     0.028 C 
ATOM      5  C   LIG d   1      -5.464  78.657 119.595  0.00  0.00    -0.047 C 
ATOM      6  C   LIG d   1      -4.604  78.225 118.385  0.00  0.00     0.091 C 
ENDROOT
BRANCH   1   7
ATOM      7  O   LIG d   1      -4.751  77.631 116.012  0.00  0.00    -0.368 OA
BRANCH   7   8
ATOM      8  C   LIG d   1      -4.665  76.368 115.307  0.00  0.00     0.119 C 
BRANCH   8   9
ATOM      9  C   LIG d   1      -4.951  75.248 116.326  0.00  0.00     0.028 C 
ATOM     10  C   LIG d   1      -6.184  74.411 115.946  0.00  0.00     0.006 C 
ENDBRANCH   8   9
BRANCH   8  11
ATOM     11  C   LIG d   1      -3.242  76.106 114.806  0.00  0.00     0.028 C 
ATOM     12  C   LIG d   1      -2.549  74.957 115.554  0.00  0.00     0.006 C 
ENDBRANCH   8  11
ENDBRANCH   7   8
ENDBRANCH   1   7
BRANCH   6  13
ATOM     13  N   LIG d   1      -3.568  77.225 118.754  0.00  0.00    -0.311 N 
ATOM     14  C   LIG d   1      -2.287  77.334 118.407  0.00  0.00     0.210 C 
ATOM     15  C   LIG d   1      -1.391  76.182 118.873  0.00  0.00     0.109 C 
ATOM     16  O   LIG d   1      -1.802  78.291 117.786  0.00  0.00    -0.276 OA
ATOM     17  H   LIG d   1      -3.869  76.431 119.286  0.00  0.00     0.149 HD
ENDBRANCH   6  13
BRANCH   5  18
ATOM     18  N   LIG d   1      -4.688  79.355 120.637  0.00  0.00     0.381 N 
ATOM     19  H   LIG d   1      -4.087  78.705 121.104  0.00  0.00    -0.090 HD
ATOM     20  H   LIG d   1      -5.324  79.739 121.313  0.00  0.00    -0.090 HD
ATOM     21  H   LIG d   1      -4.146  80.084 120.227  0.00  0.00    -0.090 HD
ENDBRANCH   5  18
BRANCH   3  22
ATOM     22  C   LIG d   1      -8.611  79.507 117.893  0.00  0.00     0.382 C 
ATOM     23  O   LIG d   1      -8.884  80.654 117.465  0.00  0.00    -0.241 OA
ATOM     24  O   LIG d   1      -9.533  78.745 118.238  0.00  0.00    -0.241 OA
ENDBRANCH   3  22
TORSDOF 7
ENDMDL
MODEL 9
REMARK VINA RESULT:      -4.6     13.834     15.867
REMARK  7 active torsions:
REMARK  status: ('A' for Active; 'I' for Inactive)
REMARK    1  A    between atoms: C_2  and  C_3 
REMARK    2  A    between atoms: C_3  and  O_6 
REMARK    3  A    between atoms: C_3  and  C_4 
REMARK    4  A    between atoms: C_7  and  O_6 
REMARK    5  A    between atoms: C_9  and  C_10 
REMARK    6  A    between atoms: N_15  and  C_14 
REMARK    7  A    between atoms: N_20  and  C_19 
REMARK       I    between atoms: C_22  and  N_20 
ROOT
ATOM      1  C   LIG d   1      -4.682  76.935 117.891  0.00  0.00     0.161 C 
ATOM      2  C   LIG d   1      -5.814  77.668 117.498  0.00  0.00     0.016 C 
ATOM      3  C   LIG d   1      -6.310  78.779 118.219  0.00  0.00     0.038 C 
ATOM      4  C   LIG d   1      -5.615  79.328 119.306  0.00  0.00     0.028 C 
ATOM      5  C   LIG d   1      -4.742  78.315 120.040  0.00  0.00    -0.047 C 
ATOM      6  C   LIG d   1      -3.847  77.586 119.012  0.00  0.00     0.091 C 
ENDROOT
BRANCH   1   7
ATOM      7  O   LIG d   1      -3.854  76.662 116.743  0.00  0.00    -0.368 OA
BRANCH   7   8
ATOM      8  C   LIG d   1      -3.716  75.267 116.374  0.00  0.00     0.119 C 
BRANCH   8   9
ATOM      9  C   LIG d   1      -2.319  75.091 115.748  0.00  0.00     0.028 C 
ATOM     10  C   LIG d   1      -1.441  74.109 116.541  0.00  0.00     0.006 C 
ENDBRANCH   8   9
BRANCH   8  11
ATOM     11  C   LIG d   1      -4.707  74.882 115.272  0.00  0.00     0.028 C 
ATOM     12  C   LIG d   1      -5.913  74.091 115.804  0.00  0.00     0.006 C 
ENDBRANCH   8  11
ENDBRANCH   7   8
ENDBRANCH   1   7
BRANCH   6  13
ATOM     13  N   LIG d   1      -3.021  76.519 119.636  0.00  0.00    -0.311 N 
ATOM     14  C   LIG d   1      -1.709  76.400 119.442  0.00  0.00     0.210 C 
ATOM     15  C   LIG d   1      -1.053  75.218 120.163  0.00  0.00     0.109 C 
ATOM     16  O   LIG d   1      -1.020  77.180 118.767  0.00  0.00    -0.276 OA
ATOM     17  H   LIG d   1      -3.494  75.861 120.224  0.00  0.00     0.149 HD
ENDBRANCH   6  13
BRANCH   5  18
ATOM     18  N   LIG d   1      -3.970  79.049 121.061  0.00  0.00     0.381 N 
ATOM     19  H   LIG d   1      -3.450  78.404 121.621  0.00  0.00    -0.090 HD
ATOM     20  H   LIG d   1      -4.610  79.542 121.660  0.00  0.00    -0.090 HD
ATOM     21  H   LIG d   1      -3.351  79.694 120.622  0.00  0.00    -0.090 HD
ENDBRANCH   5  18
BRANCH   3  22
ATOM     22  C   LIG d   1      -7.536  79.328 117.876  0.00  0.00     0.382 C 
ATOM     23  O   LIG d   1      -7.598  80.504 117.443  0.00  0.00    -0.241 OA
ATOM     24  O   LIG d   1      -8.587  78.678 118.037  0.00  0.00    -0.241 OA
ENDBRANCH   3  22
TORSDOF 7
ENDMDL
