MODEL 1
REMARK VINA RESULT:      -4.9      0.000      0.000
REMARK  7 active torsions:
REMARK  status: ('A' for Active; 'I' for Inactive)
REMARK    1  A    between atoms: C_2  and  C_3 
REMARK    2  A    between atoms: C_3  and  O_6 
REMARK    3  A    between atoms: C_3  and  C_4 
REMARK    4  A    between atoms: C_7  and  O_6 
REMARK    5  A    between atoms: C_9  and  C_10 
REMARK    6  A    between atoms: N_15  and  C_14 
REMARK    7  A    between atoms: N_20  and  C_19 
REMARK       I    between atoms: C_22  and  N_20 
ROOT
ATOM      1  C   LIG d   1      -4.483  91.990 118.157  0.00  0.00     0.161 C 
ATOM      2  C   LIG d   1      -4.671  91.145 117.051  0.00  0.00     0.016 C 
ATOM      3  C   LIG d   1      -5.832  91.166 116.244  0.00  0.00     0.038 C 
ATOM      4  C   LIG d   1      -6.826  92.144 116.401  0.00  0.00     0.028 C 
ATOM      5  C   LIG d   1      -6.915  92.694 117.820  0.00  0.00    -0.047 C 
ATOM      6  C   LIG d   1      -5.507  93.138 118.276  0.00  0.00     0.091 C 
ENDROOT
BRANCH   1   7
ATOM      7  O   LIG d   1      -3.140  92.514 118.149  0.00  0.00    -0.368 OA
BRANCH   7   8
ATOM      8  C   LIG d   1      -2.140  91.718 118.830  0.00  0.00     0.119 C 
BRANCH   8   9
ATOM      9  C   LIG d   1      -1.582  92.566 119.989  0.00  0.00     0.028 C 
ATOM     10  C   LIG d   1      -1.822  94.071 119.782  0.00  0.00     0.006 C 
ENDBRANCH   8   9
BRANCH   8  11
ATOM     11  C   LIG d   1      -0.940  91.433 117.922  0.00  0.00     0.028 C 
ATOM     12  C   LIG d   1      -0.968  90.018 117.323  0.00  0.00     0.006 C 
ENDBRANCH   8  11
ENDBRANCH   7   8
ENDBRANCH   1   7
BRANCH   6  13
ATOM     13  N   LIG d   1      -5.490  93.611 119.685  0.00  0.00    -0.311 N 
ATOM     14  C   LIG d   1      -5.639  94.889 120.030  0.00  0.00     0.210 C 
ATOM     15  C   LIG d   1      -5.570  95.164 121.536  0.00  0.00     0.109 C 
ATOM     16  O   LIG d   1      -5.854  95.816 119.236  0.00  0.00    -0.276 OA
ATOM     17  H   LIG d   1      -5.352  92.921 120.397  0.00  0.00     0.149 HD
ENDBRANCH   6  13
BRANCH   5  18
ATOM     18  N   LIG d   1      -7.894  93.799 117.808  0.00  0.00     0.381 N 
ATOM     19  H   LIG d   1      -7.745  94.391 118.600  0.00  0.00    -0.090 HD
ATOM     20  H   LIG d   1      -8.819  93.413 117.872  0.00  0.00    -0.090 HD
ATOM     21  H   LIG d   1      -7.803  94.326 116.968  0.00  0.00    -0.090 HD
ENDBRANCH   5  18
BRANCH   3  22
ATOM     22  C   LIG d   1      -6.026  90.176 115.293  0.00  0.00     0.382 C 
ATOM     23  O   LIG d   1      -7.167  89.991 114.805  0.00  0.00    -0.241 OA
ATOM     24  O   LIG d   1      -5.084  89.436 114.950  0.00  0.00    -0.241 OA
ENDBRANCH   3  22
TORSDOF 7
ENDMDL
MODEL 2
REMARK VINA RESULT:      -4.9      1.505      1.900
REMARK  7 active torsions:
REMARK  status: ('A' for Active; 'I' for Inactive)
REMARK    1  A    between atoms: C_2  and  C_3 
REMARK    2  A    between atoms: C_3  and  O_6 
REMARK    3  A    between atoms: C_3  and  C_4 
REMARK    4  A    between atoms: C_7  and  O_6 
REMARK    5  A    between atoms: C_9  and  C_10 
REMARK    6  A    between atoms: N_15  and  C_14 
REMARK    7  A    between atoms: N_20  and  C_19 
REMARK       I    between atoms: C_22  and  N_20 
ROOT
ATOM      1  C   LIG d   1      -4.262  91.564 117.826  0.00  0.00     0.161 C 
ATOM      2  C   LIG d   1      -4.973  90.898 116.814  0.00  0.00     0.016 C 
ATOM      3  C   LIG d   1      -6.214  91.349 116.309  0.00  0.00     0.038 C 
ATOM      4  C   LIG d   1      -6.760  92.587 116.680  0.00  0.00     0.028 C 
ATOM      5  C   LIG d   1      -6.328  93.048 118.068  0.00  0.00    -0.047 C 
ATOM      6  C   LIG d   1      -4.787  92.975 118.164  0.00  0.00     0.091 C 
ENDROOT
BRANCH   1   7
ATOM      7  O   LIG d   1      -2.862  91.619 117.486  0.00  0.00    -0.368 OA
BRANCH   7   8
ATOM      8  C   LIG d   1      -1.970  90.852 118.332  0.00  0.00     0.119 C 
BRANCH   8   9
ATOM      9  C   LIG d   1      -0.611  91.578 118.348  0.00  0.00     0.028 C 
ATOM     10  C   LIG d   1       0.215  91.304 117.080  0.00  0.00     0.006 C 
ENDBRANCH   8   9
BRANCH   8  11
ATOM     11  C   LIG d   1      -1.686  89.471 117.736  0.00  0.00     0.028 C 
ATOM     12  C   LIG d   1      -2.009  88.324 118.707  0.00  0.00     0.006 C 
ENDBRANCH   8  11
ENDBRANCH   7   8
ENDBRANCH   1   7
BRANCH   6  13
ATOM     13  N   LIG d   1      -4.286  93.330 119.518  0.00  0.00    -0.311 N 
ATOM     14  C   LIG d   1      -3.262  94.155 119.728  0.00  0.00     0.210 C 
ATOM     15  C   LIG d   1      -2.895  94.369 121.200  0.00  0.00     0.109 C 
ATOM     16  O   LIG d   1      -2.643  94.755 118.836  0.00  0.00    -0.276 OA
ATOM     17  H   LIG d   1      -4.751  92.912 120.300  0.00  0.00     0.149 HD
ENDBRANCH   6  13
BRANCH   5  18
ATOM     18  N   LIG d   1      -6.856  94.411 118.269  0.00  0.00     0.381 N 
ATOM     19  H   LIG d   1      -6.943  94.874 117.386  0.00  0.00    -0.090 HD
ATOM     20  H   LIG d   1      -6.208  94.930 118.835  0.00  0.00    -0.090 HD
ATOM     21  H   LIG d   1      -7.743  94.369 118.720  0.00  0.00    -0.090 HD
ENDBRANCH   5  18
BRANCH   3  22
ATOM     22  C   LIG d   1      -6.943  90.538 115.453  0.00  0.00     0.382 C 
ATOM     23  O   LIG d   1      -8.080  90.898 115.064  0.00  0.00    -0.241 OA
ATOM     24  O   LIG d   1      -6.496  89.430 115.099  0.00  0.00    -0.241 OA
ENDBRANCH   3  22
TORSDOF 7
ENDMDL
MODEL 3
REMARK VINA RESULT:      -4.8      1.705      2.339
REMARK  7 active torsions:
REMARK  status: ('A' for Active; 'I' for Inactive)
REMARK    1  A    between atoms: C_2  and  C_3 
REMARK    2  A    between atoms: C_3  and  O_6 
REMARK    3  A    between atoms: C_3  and  C_4 
REMARK    4  A    between atoms: C_7  and  O_6 
REMARK    5  A    between atoms: C_9  and  C_10 
REMARK    6  A    between atoms: N_15  and  C_14 
REMARK    7  A    between atoms: N_20  and  C_19 
REMARK       I    between atoms: C_22  and  N_20 
ROOT
ATOM      1  C   LIG d   1      -4.144  91.308 117.804  0.00  0.00     0.161 C 
ATOM      2  C   LIG d   1      -4.938  90.725 116.802  0.00  0.00     0.016 C 
ATOM      3  C   LIG d   1      -6.144  91.295 116.336  0.00  0.00     0.038 C 
ATOM      4  C   LIG d   1      -6.564  92.572 116.735  0.00  0.00     0.028 C 
ATOM      5  C   LIG d   1      -6.058  92.971 118.117  0.00  0.00    -0.047 C 
ATOM      6  C   LIG d   1      -4.528  92.756 118.173  0.00  0.00     0.091 C 
ENDROOT
BRANCH   1   7
ATOM      7  O   LIG d   1      -2.754  91.239 117.428  0.00  0.00    -0.368 OA
BRANCH   7   8
ATOM      8  C   LIG d   1      -2.076  89.992 117.721  0.00  0.00     0.119 C 
BRANCH   8   9
ATOM      9  C   LIG d   1      -2.182  89.753 119.240  0.00  0.00     0.028 C 
ATOM     10  C   LIG d   1      -2.578  88.306 119.580  0.00  0.00     0.006 C 
ENDBRANCH   8   9
BRANCH   8  11
ATOM     11  C   LIG d   1      -0.576  90.092 117.431  0.00  0.00     0.028 C 
ATOM     12  C   LIG d   1       0.050  88.740 117.055  0.00  0.00     0.006 C 
ENDBRANCH   8  11
ENDBRANCH   7   8
ENDBRANCH   1   7
BRANCH   6  13
ATOM     13  N   LIG d   1      -3.964  93.043 119.517  0.00  0.00    -0.311 N 
ATOM     14  C   LIG d   1      -2.937  93.867 119.721  0.00  0.00     0.210 C 
ATOM     15  C   LIG d   1      -2.500  94.006 121.182  0.00  0.00     0.109 C 
ATOM     16  O   LIG d   1      -2.368  94.520 118.834  0.00  0.00    -0.276 OA
ATOM     17  H   LIG d   1      -4.386  92.579 120.298  0.00  0.00     0.149 HD
ENDBRANCH   6  13
BRANCH   5  18
ATOM     18  N   LIG d   1      -6.453  94.374 118.349  0.00  0.00     0.381 N 
ATOM     19  H   LIG d   1      -7.105  94.662 117.647  0.00  0.00    -0.090 HD
ATOM     20  H   LIG d   1      -5.638  94.957 118.280  0.00  0.00    -0.090 HD
ATOM     21  H   LIG d   1      -6.863  94.468 119.252  0.00  0.00    -0.090 HD
ENDBRANCH   5  18
BRANCH   3  22
ATOM     22  C   LIG d   1      -6.966  90.567 115.488  0.00  0.00     0.382 C 
ATOM     23  O   LIG d   1      -6.610  89.430 115.094  0.00  0.00    -0.241 OA
ATOM     24  O   LIG d   1      -8.038  91.051 115.078  0.00  0.00    -0.241 OA
ENDBRANCH   3  22
TORSDOF 7
ENDMDL
MODEL 4
REMARK VINA RESULT:      -4.8      2.257      5.010
REMARK  7 active torsions:
REMARK  status: ('A' for Active; 'I' for Inactive)
REMARK    1  A    between atoms: C_2  and  C_3 
REMARK    2  A    between atoms: C_3  and  O_6 
REMARK    3  A    between atoms: C_3  and  C_4 
REMARK    4  A    between atoms: C_7  and  O_6 
REMARK    5  A    between atoms: C_9  and  C_10 
REMARK    6  A    between atoms: N_15  and  C_14 
REMARK    7  A    between atoms: N_20  and  C_19 
REMARK       I    between atoms: C_22  and  N_20 
ROOT
ATOM      1  C   LIG d   1      -5.210  92.793 118.376  0.00  0.00     0.161 C 
ATOM      2  C   LIG d   1      -6.517  93.305 118.314  0.00  0.00     0.016 C 
ATOM      3  C   LIG d   1      -6.925  94.482 118.983  0.00  0.00     0.038 C 
ATOM      4  C   LIG d   1      -6.009  95.315 119.642  0.00  0.00     0.028 C 
ATOM      5  C   LIG d   1      -4.778  94.576 120.155  0.00  0.00    -0.047 C 
ATOM      6  C   LIG d   1      -4.171  93.748 118.999  0.00  0.00     0.091 C 
ENDROOT
BRANCH   1   7
ATOM      7  O   LIG d   1      -4.785  92.377 117.063  0.00  0.00    -0.368 OA
BRANCH   7   8
ATOM      8  C   LIG d   1      -5.547  91.305 116.456  0.00  0.00     0.119 C 
BRANCH   8   9
ATOM      9  C   LIG d   1      -4.550  90.207 116.040  0.00  0.00     0.028 C 
ATOM     10  C   LIG d   1      -3.440  89.995 117.083  0.00  0.00     0.006 C 
ENDBRANCH   8   9
BRANCH   8  11
ATOM     11  C   LIG d   1      -6.214  91.763 115.155  0.00  0.00     0.028 C 
ATOM     12  C   LIG d   1      -7.743  91.612 115.184  0.00  0.00     0.006 C 
ENDBRANCH   8  11
ENDBRANCH   7   8
ENDBRANCH   1   7
BRANCH   6  13
ATOM     13  N   LIG d   1      -3.011  92.928 119.437  0.00  0.00    -0.311 N 
ATOM     14  C   LIG d   1      -1.830  92.941 118.821  0.00  0.00     0.210 C 
ATOM     15  C   LIG d   1      -0.777  92.005 119.424  0.00  0.00     0.109 C 
ATOM     16  O   LIG d   1      -1.544  93.662 117.854  0.00  0.00    -0.276 OA
ATOM     17  H   LIG d   1      -3.146  92.337 120.233  0.00  0.00     0.149 HD
ENDBRANCH   6  13
BRANCH   5  18
ATOM     18  N   LIG d   1      -3.846  95.583 120.696  0.00  0.00     0.381 N 
ATOM     19  H   LIG d   1      -2.906  95.341 120.453  0.00  0.00    -0.090 HD
ATOM     20  H   LIG d   1      -3.920  95.589 121.699  0.00  0.00    -0.090 HD
ATOM     21  H   LIG d   1      -4.070  96.484 120.334  0.00  0.00    -0.090 HD
ENDBRANCH   5  18
BRANCH   3  22
ATOM     22  C   LIG d   1      -8.270  94.814 119.030  0.00  0.00     0.382 C 
ATOM     23  O   LIG d   1      -8.726  95.441 120.016  0.00  0.00    -0.241 OA
ATOM     24  O   LIG d   1      -9.041  94.457 118.120  0.00  0.00    -0.241 OA
ENDBRANCH   3  22
TORSDOF 7
ENDMDL
MODEL 5
REMARK VINA RESULT:      -4.8      2.348      4.354
REMARK  7 active torsions:
REMARK  status: ('A' for Active; 'I' for Inactive)
REMARK    1  A    between atoms: C_2  and  C_3 
REMARK    2  A    between atoms: C_3  and  O_6 
REMARK    3  A    between atoms: C_3  and  C_4 
REMARK    4  A    between atoms: C_7  and  O_6 
REMARK    5  A    between atoms: C_9  and  C_10 
REMARK    6  A    between atoms: N_15  and  C_14 
REMARK    7  A    between atoms: N_20  and  C_19 
REMARK       I    between atoms: C_22  and  N_20 
ROOT
ATOM      1  C   LIG d   1      -4.621  93.120 119.170  0.00  0.00     0.161 C 
ATOM      2  C   LIG d   1      -5.848  93.784 119.333  0.00  0.00     0.016 C 
ATOM      3  C   LIG d   1      -6.941  93.628 118.450  0.00  0.00     0.038 C 
ATOM      4  C   LIG d   1      -6.933  92.675 117.421  0.00  0.00     0.028 C 
ATOM      5  C   LIG d   1      -5.533  92.345 116.912  0.00  0.00    -0.047 C 
ATOM      6  C   LIG d   1      -4.632  91.992 118.117  0.00  0.00     0.091 C 
ENDROOT
BRANCH   1   7
ATOM      7  O   LIG d   1      -4.167  92.614 120.441  0.00  0.00    -0.368 OA
BRANCH   7   8
ATOM      8  C   LIG d   1      -2.983  93.244 120.991  0.00  0.00     0.119 C 
BRANCH   8   9
ATOM      9  C   LIG d   1      -2.482  94.270 119.956  0.00  0.00     0.028 C 
ATOM     10  C   LIG d   1      -1.023  94.019 119.540  0.00  0.00     0.006 C 
ENDBRANCH   8   9
BRANCH   8  11
ATOM     11  C   LIG d   1      -1.840  92.238 121.151  0.00  0.00     0.028 C 
ATOM     12  C   LIG d   1      -2.334  90.826 121.505  0.00  0.00     0.006 C 
ENDBRANCH   8  11
ENDBRANCH   7   8
ENDBRANCH   1   7
BRANCH   6  13
ATOM     13  N   LIG d   1      -3.224  91.737 117.717  0.00  0.00    -0.311 N 
ATOM     14  C   LIG d   1      -2.630  90.551 117.835  0.00  0.00     0.210 C 
ATOM     15  C   LIG d   1      -1.168  90.511 117.381  0.00  0.00     0.109 C 
ATOM     16  O   LIG d   1      -3.186  89.520 118.243  0.00  0.00    -0.276 OA
ATOM     17  H   LIG d   1      -2.708  92.512 117.346  0.00  0.00     0.149 HD
ENDBRANCH   6  13
BRANCH   5  18
ATOM     18  N   LIG d   1      -5.661  91.241 115.942  0.00  0.00     0.381 N 
ATOM     19  H   LIG d   1      -5.109  90.462 116.241  0.00  0.00    -0.090 HD
ATOM     20  H   LIG d   1      -5.313  91.550 115.051  0.00  0.00    -0.090 HD
ATOM     21  H   LIG d   1      -6.615  90.969 115.858  0.00  0.00    -0.090 HD
ENDBRANCH   5  18
BRANCH   3  22
ATOM     22  C   LIG d   1      -8.044  94.461 118.567  0.00  0.00     0.382 C 
ATOM     23  O   LIG d   1      -9.039  94.292 117.822  0.00  0.00    -0.241 OA
ATOM     24  O   LIG d   1      -8.039  95.406 119.379  0.00  0.00    -0.241 OA
ENDBRANCH   3  22
TORSDOF 7
ENDMDL
MODEL 6
REMARK VINA RESULT:      -4.5      2.233      5.709
REMARK  7 active torsions:
REMARK  status: ('A' for Active; 'I' for Inactive)
REMARK    1  A    between atoms: C_2  and  C_3 
REMARK    2  A    between atoms: C_3  and  O_6 
REMARK    3  A    between atoms: C_3  and  C_4 
REMARK    4  A    between atoms: C_7  and  O_6 
REMARK    5  A    between atoms: C_9  and  C_10 
REMARK    6  A    between atoms: N_15  and  C_14 
REMARK    7  A    between atoms: N_20  and  C_19 
REMARK       I    between atoms: C_22  and  N_20 
ROOT
ATOM      1  C   LIG d   1      -5.153  92.606 118.761  0.00  0.00     0.161 C 
ATOM      2  C   LIG d   1      -4.051  92.765 119.618  0.00  0.00     0.016 C 
ATOM      3  C   LIG d   1      -2.816  92.105 119.428  0.00  0.00     0.038 C 
ATOM      4  C   LIG d   1      -2.547  91.351 118.276  0.00  0.00     0.028 C 
ATOM      5  C   LIG d   1      -3.796  90.755 117.637  0.00  0.00    -0.047 C 
ATOM      6  C   LIG d   1      -4.842  91.876 117.438  0.00  0.00     0.091 C 
ENDROOT
BRANCH   1   7
ATOM      7  O   LIG d   1      -5.755  93.888 118.496  0.00  0.00    -0.368 OA
BRANCH   7   8
ATOM      8  C   LIG d   1      -6.169  94.650 119.657  0.00  0.00     0.119 C 
BRANCH   8   9
ATOM      9  C   LIG d   1      -7.707  94.745 119.623  0.00  0.00     0.028 C 
ATOM     10  C   LIG d   1      -8.277  94.533 118.211  0.00  0.00     0.006 C 
ENDBRANCH   8   9
BRANCH   8  11
ATOM     11  C   LIG d   1      -5.672  96.097 119.581  0.00  0.00     0.028 C 
ATOM     12  C   LIG d   1      -4.336  96.306 120.311  0.00  0.00     0.006 C 
ENDBRANCH   8  11
ENDBRANCH   7   8
ENDBRANCH   1   7
BRANCH   6  13
ATOM     13  N   LIG d   1      -6.127  91.362 116.895  0.00  0.00    -0.311 N 
ATOM     14  C   LIG d   1      -6.576  91.653 115.675  0.00  0.00     0.210 C 
ATOM     15  C   LIG d   1      -7.933  91.036 115.322  0.00  0.00     0.109 C 
ATOM     16  O   LIG d   1      -5.964  92.337 114.841  0.00  0.00    -0.276 OA
ATOM     17  H   LIG d   1      -6.672  90.774 117.494  0.00  0.00     0.149 HD
ENDBRANCH   6  13
BRANCH   5  18
ATOM     18  N   LIG d   1      -3.388  90.113 116.373  0.00  0.00     0.381 N 
ATOM     19  H   LIG d   1      -3.764  90.622 115.598  0.00  0.00    -0.090 HD
ATOM     20  H   LIG d   1      -3.760  89.180 116.347  0.00  0.00    -0.090 HD
ATOM     21  H   LIG d   1      -2.394  90.085 116.311  0.00  0.00    -0.090 HD
ENDBRANCH   5  18
BRANCH   3  22
ATOM     22  C   LIG d   1      -1.847  92.162 120.419  0.00  0.00     0.382 C 
ATOM     23  O   LIG d   1      -0.797  92.823 120.231  0.00  0.00    -0.241 OA
ATOM     24  O   LIG d   1      -1.989  91.525 121.479  0.00  0.00    -0.241 OA
ENDBRANCH   3  22
TORSDOF 7
ENDMDL
MODEL 7
REMARK VINA RESULT:      -4.5     14.068     16.246
REMARK  7 active torsions:
REMARK  status: ('A' for Active; 'I' for Inactive)
REMARK    1  A    between atoms: C_2  and  C_3 
REMARK    2  A    between atoms: C_3  and  O_6 
REMARK    3  A    between atoms: C_3  and  C_4 
REMARK    4  A    between atoms: C_7  and  O_6 
REMARK    5  A    between atoms: C_9  and  C_10 
REMARK    6  A    between atoms: N_15  and  C_14 
REMARK    7  A    between atoms: N_20  and  C_19 
REMARK       I    between atoms: C_22  and  N_20 
ROOT
ATOM      1  C   LIG d   1      -5.262  77.318 116.151  0.00  0.00     0.161 C 
ATOM      2  C   LIG d   1      -6.335  76.449 116.410  0.00  0.00     0.016 C 
ATOM      3  C   LIG d   1      -6.213  75.041 116.416  0.00  0.00     0.038 C 
ATOM      4  C   LIG d   1      -4.967  74.404 116.312  0.00  0.00     0.028 C 
ATOM      5  C   LIG d   1      -3.932  75.221 115.546  0.00  0.00    -0.047 C 
ATOM      6  C   LIG d   1      -3.873  76.645 116.145  0.00  0.00     0.091 C 
ENDROOT
BRANCH   1   7
ATOM      7  O   LIG d   1      -5.284  78.414 117.086  0.00  0.00    -0.368 OA
BRANCH   7   8
ATOM      8  C   LIG d   1      -5.702  78.093 118.435  0.00  0.00     0.119 C 
BRANCH   8   9
ATOM      9  C   LIG d   1      -6.668  79.201 118.897  0.00  0.00     0.028 C 
ATOM     10  C   LIG d   1      -6.887  80.275 117.819  0.00  0.00     0.006 C 
ENDBRANCH   8   9
BRANCH   8  11
ATOM     11  C   LIG d   1      -4.523  78.149 119.412  0.00  0.00     0.028 C 
ATOM     12  C   LIG d   1      -3.399  79.082 118.936  0.00  0.00     0.006 C 
ENDBRANCH   8  11
ENDBRANCH   7   8
ENDBRANCH   1   7
BRANCH   6  13
ATOM     13  N   LIG d   1      -2.945  77.536 115.399  0.00  0.00    -0.311 N 
ATOM     14  C   LIG d   1      -1.663  77.692 115.722  0.00  0.00     0.210 C 
ATOM     15  C   LIG d   1      -0.888  78.673 114.835  0.00  0.00     0.109 C 
ATOM     16  O   LIG d   1      -1.085  77.088 116.638  0.00  0.00    -0.276 OA
ATOM     17  H   LIG d   1      -3.324  78.040 114.622  0.00  0.00     0.149 HD
ENDBRANCH   6  13
BRANCH   5  18
ATOM     18  N   LIG d   1      -2.646  74.504 115.632  0.00  0.00     0.381 N 
ATOM     19  H   LIG d   1      -2.624  73.946 116.462  0.00  0.00    -0.090 HD
ATOM     20  H   LIG d   1      -1.901  75.177 115.685  0.00  0.00    -0.090 HD
ATOM     21  H   LIG d   1      -2.524  73.925 114.830  0.00  0.00    -0.090 HD
ENDBRANCH   5  18
BRANCH   3  22
ATOM     22  C   LIG d   1      -7.351  74.252 116.488  0.00  0.00     0.382 C 
ATOM     23  O   LIG d   1      -7.248  73.020 116.700  0.00  0.00    -0.241 OA
ATOM     24  O   LIG d   1      -8.477  74.750 116.299  0.00  0.00    -0.241 OA
ENDBRANCH   3  22
TORSDOF 7
ENDMDL
MODEL 8
REMARK VINA RESULT:      -4.4      1.588      1.948
REMARK  7 active torsions:
REMARK  status: ('A' for Active; 'I' for Inactive)
REMARK    1  A    between atoms: C_2  and  C_3 
REMARK    2  A    between atoms: C_3  and  O_6 
REMARK    3  A    between atoms: C_3  and  C_4 
REMARK    4  A    between atoms: C_7  and  O_6 
REMARK    5  A    between atoms: C_9  and  C_10 
REMARK    6  A    between atoms: N_15  and  C_14 
REMARK    7  A    between atoms: N_20  and  C_19 
REMARK       I    between atoms: C_22  and  N_20 
ROOT
ATOM      1  C   LIG d   1      -4.578  93.148 119.184  0.00  0.00     0.161 C 
ATOM      2  C   LIG d   1      -4.183  92.123 118.307  0.00  0.00     0.016 C 
ATOM      3  C   LIG d   1      -4.998  91.641 117.257  0.00  0.00     0.038 C 
ATOM      4  C   LIG d   1      -6.210  92.259 116.915  0.00  0.00     0.028 C 
ATOM      5  C   LIG d   1      -6.879  92.969 118.087  0.00  0.00    -0.047 C 
ATOM      6  C   LIG d   1      -5.851  93.909 118.757  0.00  0.00     0.091 C 
ENDROOT
BRANCH   1   7
ATOM      7  O   LIG d   1      -3.487  94.068 119.383  0.00  0.00    -0.368 OA
BRANCH   7   8
ATOM      8  C   LIG d   1      -2.198  93.649 118.870  0.00  0.00     0.119 C 
BRANCH   8   9
ATOM      9  C   LIG d   1      -1.229  93.567 120.065  0.00  0.00     0.028 C 
ATOM     10  C   LIG d   1      -1.455  92.308 120.919  0.00  0.00     0.006 C 
ENDBRANCH   8   9
BRANCH   8  11
ATOM     11  C   LIG d   1      -1.601  94.704 117.935  0.00  0.00     0.028 C 
ATOM     12  C   LIG d   1      -0.088  94.530 117.729  0.00  0.00     0.006 C 
ENDBRANCH   8  11
ENDBRANCH   7   8
ENDBRANCH   1   7
BRANCH   6  13
ATOM     13  N   LIG d   1      -6.399  94.580 119.965  0.00  0.00    -0.311 N 
ATOM     14  C   LIG d   1      -6.186  95.863 120.250  0.00  0.00     0.210 C 
ATOM     15  C   LIG d   1      -6.826  96.350 121.554  0.00  0.00     0.109 C 
ATOM     16  O   LIG d   1      -5.555  96.653 119.531  0.00  0.00    -0.276 OA
ATOM     17  H   LIG d   1      -6.949  94.021 120.587  0.00  0.00     0.149 HD
ENDBRANCH   6  13
BRANCH   5  18
ATOM     18  N   LIG d   1      -8.058  93.683 117.561  0.00  0.00     0.381 N 
ATOM     19  H   LIG d   1      -8.512  94.178 118.302  0.00  0.00    -0.090 HD
ATOM     20  H   LIG d   1      -8.705  93.012 117.187  0.00  0.00    -0.090 HD
ATOM     21  H   LIG d   1      -7.780  94.321 116.847  0.00  0.00    -0.090 HD
ENDBRANCH   5  18
BRANCH   3  22
ATOM     22  C   LIG d   1      -4.619  90.503 116.561  0.00  0.00     0.382 C 
ATOM     23  O   LIG d   1      -5.267  90.143 115.548  0.00  0.00    -0.241 OA
ATOM     24  O   LIG d   1      -3.666  89.807 116.959  0.00  0.00    -0.241 OA
ENDBRANCH   3  22
TORSDOF 7
ENDMDL
MODEL 9
REMARK VINA RESULT:      -4.4      2.126      4.594
REMARK  7 active torsions:
REMARK  status: ('A' for Active; 'I' for Inactive)
REMARK    1  A    between atoms: C_2  and  C_3 
REMARK    2  A    between atoms: C_3  and  O_6 
REMARK    3  A    between atoms: C_3  and  C_4 
REMARK    4  A    between atoms: C_7  and  O_6 
REMARK    5  A    between atoms: C_9  and  C_10 
REMARK    6  A    between atoms: N_15  and  C_14 
REMARK    7  A    between atoms: N_20  and  C_19 
REMARK       I    between atoms: C_22  and  N_20 
ROOT
ATOM      1  C   LIG d   1      -5.515  93.530 119.051  0.00  0.00     0.161 C 
ATOM      2  C   LIG d   1      -6.411  92.866 118.197  0.00  0.00     0.016 C 
ATOM      3  C   LIG d   1      -6.017  91.857 117.289  0.00  0.00     0.038 C 
ATOM      4  C   LIG d   1      -4.715  91.334 117.280  0.00  0.00     0.028 C 
ATOM      5  C   LIG d   1      -3.663  92.322 117.771  0.00  0.00    -0.047 C 
ATOM      6  C   LIG d   1      -4.110  92.896 119.134  0.00  0.00     0.091 C 
ENDROOT
BRANCH   1   7
ATOM      7  O   LIG d   1      -6.090  93.647 120.368  0.00  0.00    -0.368 OA
BRANCH   7   8
ATOM      8  C   LIG d   1      -6.464  94.984 120.783  0.00  0.00     0.119 C 
BRANCH   8   9
ATOM      9  C   LIG d   1      -8.001  95.074 120.726  0.00  0.00     0.028 C 
ATOM     10  C   LIG d   1      -8.536  96.380 121.337  0.00  0.00     0.006 C 
ENDBRANCH   8   9
BRANCH   8  11
ATOM     11  C   LIG d   1      -5.959  96.037 119.792  0.00  0.00     0.028 C 
ATOM     12  C   LIG d   1      -4.953  97.013 120.421  0.00  0.00     0.006 C 
ENDBRANCH   8  11
ENDBRANCH   7   8
ENDBRANCH   1   7
BRANCH   6  13
ATOM     13  N   LIG d   1      -3.178  93.934 119.646  0.00  0.00    -0.311 N 
ATOM     14  C   LIG d   1      -2.187  93.674 120.498  0.00  0.00     0.210 C 
ATOM     15  C   LIG d   1      -1.357  94.891 120.915  0.00  0.00     0.109 C 
ATOM     16  O   LIG d   1      -1.897  92.545 120.922  0.00  0.00    -0.276 OA
ATOM     17  H   LIG d   1      -3.322  94.873 119.329  0.00  0.00     0.149 HD
ENDBRANCH   6  13
BRANCH   5  18
ATOM     18  N   LIG d   1      -2.376  91.605 117.840  0.00  0.00     0.381 N 
ATOM     19  H   LIG d   1      -2.195  91.324 118.783  0.00  0.00    -0.090 HD
ATOM     20  H   LIG d   1      -1.641  92.226 117.549  0.00  0.00    -0.090 HD
ATOM     21  H   LIG d   1      -2.399  90.805 117.246  0.00  0.00    -0.090 HD
ENDBRANCH   5  18
BRANCH   3  22
ATOM     22  C   LIG d   1      -6.921  91.387 116.348  0.00  0.00     0.382 C 
ATOM     23  O   LIG d   1      -7.788  92.160 115.872  0.00  0.00    -0.241 OA
ATOM     24  O   LIG d   1      -6.910  90.191 116.003  0.00  0.00    -0.241 OA
ENDBRANCH   3  22
TORSDOF 7
ENDMDL
