MODEL 1
REMARK VINA RESULT:      -5.4      0.000      0.000
REMARK  7 active torsions:
REMARK  status: ('A' for Active; 'I' for Inactive)
REMARK    1  A    between atoms: C_2  and  C_3 
REMARK    2  A    between atoms: C_3  and  O_6 
REMARK    3  A    between atoms: C_3  and  C_4 
REMARK    4  A    between atoms: C_7  and  O_6 
REMARK    5  A    between atoms: C_9  and  C_10 
REMARK    6  A    between atoms: N_15  and  C_14 
REMARK    7  A    between atoms: N_20  and  C_19 
REMARK       I    between atoms: C_22  and  N_20 
ROOT
ATOM      1  C   LIG d   1      -5.720  92.702 118.063  0.00  0.00     0.161 C 
ATOM      2  C   LIG d   1      -5.705  91.697 117.083  0.00  0.00     0.016 C 
ATOM      3  C   LIG d   1      -6.748  91.506 116.148  0.00  0.00     0.038 C 
ATOM      4  C   LIG d   1      -7.816  92.409 116.033  0.00  0.00     0.028 C 
ATOM      5  C   LIG d   1      -8.128  93.145 117.331  0.00  0.00    -0.047 C 
ATOM      6  C   LIG d   1      -6.824  93.766 117.882  0.00  0.00     0.091 C 
ENDROOT
BRANCH   1   7
ATOM      7  O   LIG d   1      -4.426  93.332 118.138  0.00  0.00    -0.368 OA
BRANCH   7   8
ATOM      8  C   LIG d   1      -3.604  92.965 119.274  0.00  0.00     0.119 C 
BRANCH   8   9
ATOM      9  C   LIG d   1      -2.645  91.851 118.810  0.00  0.00     0.028 C 
ATOM     10  C   LIG d   1      -2.946  90.501 119.481  0.00  0.00     0.006 C 
ENDBRANCH   8   9
BRANCH   8  11
ATOM     11  C   LIG d   1      -4.444  92.338 120.390  0.00  0.00     0.028 C 
ATOM     12  C   LIG d   1      -4.713  93.309 121.551  0.00  0.00     0.006 C 
ENDBRANCH   8  11
ENDBRANCH   7   8
ENDBRANCH   1   7
BRANCH   6  13
ATOM     13  N   LIG d   1      -7.024  94.434 119.194  0.00  0.00    -0.311 N 
ATOM     14  C   LIG d   1      -7.266  95.737 119.324  0.00  0.00     0.210 C 
ATOM     15  C   LIG d   1      -7.422  96.226 120.767  0.00  0.00     0.109 C 
ATOM     16  O   LIG d   1      -7.398  96.530 118.379  0.00  0.00    -0.276 OA
ATOM     17  H   LIG d   1      -6.965  93.860 120.012  0.00  0.00     0.149 HD
ENDBRANCH   6  13
BRANCH   5  18
ATOM     18  N   LIG d   1      -9.166  94.151 117.034  0.00  0.00     0.381 N 
ATOM     19  H   LIG d   1      -8.985  94.987 117.552  0.00  0.00    -0.090 HD
ATOM     20  H   LIG d   1     -10.059  93.790 117.319  0.00  0.00    -0.090 HD
ATOM     21  H   LIG d   1      -9.177  94.352 116.058  0.00  0.00    -0.090 HD
ENDBRANCH   5  18
BRANCH   3  22
ATOM     22  C   LIG d   1      -6.750  90.378 115.341  0.00  0.00     0.382 C 
ATOM     23  O   LIG d   1      -7.818  89.989 114.809  0.00  0.00    -0.241 OA
ATOM     24  O   LIG d   1      -5.706  89.718 115.175  0.00  0.00    -0.241 OA
ENDBRANCH   3  22
TORSDOF 7
ENDMDL
MODEL 2
REMARK VINA RESULT:      -5.4      2.184      4.437
REMARK  7 active torsions:
REMARK  status: ('A' for Active; 'I' for Inactive)
REMARK    1  A    between atoms: C_2  and  C_3 
REMARK    2  A    between atoms: C_3  and  O_6 
REMARK    3  A    between atoms: C_3  and  C_4 
REMARK    4  A    between atoms: C_7  and  O_6 
REMARK    5  A    between atoms: C_9  and  C_10 
REMARK    6  A    between atoms: N_15  and  C_14 
REMARK    7  A    between atoms: N_20  and  C_19 
REMARK       I    between atoms: C_22  and  N_20 
ROOT
ATOM      1  C   LIG d   1      -7.190  93.971 117.857  0.00  0.00     0.161 C 
ATOM      2  C   LIG d   1      -7.749  92.986 117.027  0.00  0.00     0.016 C 
ATOM      3  C   LIG d   1      -7.072  91.800 116.660  0.00  0.00     0.038 C 
ATOM      4  C   LIG d   1      -5.838  91.446 117.225  0.00  0.00     0.028 C 
ATOM      5  C   LIG d   1      -5.012  92.646 117.676  0.00  0.00    -0.047 C 
ATOM      6  C   LIG d   1      -5.889  93.551 118.573  0.00  0.00     0.091 C 
ENDROOT
BRANCH   1   7
ATOM      7  O   LIG d   1      -8.169  94.414 118.818  0.00  0.00    -0.368 OA
BRANCH   7   8
ATOM      8  C   LIG d   1      -8.952  95.573 118.440  0.00  0.00     0.119 C 
BRANCH   8   9
ATOM      9  C   LIG d   1      -7.969  96.729 118.172  0.00  0.00     0.028 C 
ATOM     10  C   LIG d   1      -8.688  98.034 117.791  0.00  0.00     0.006 C 
ENDBRANCH   8   9
BRANCH   8  11
ATOM     11  C   LIG d   1      -9.833  96.051 119.598  0.00  0.00     0.028 C 
ATOM     12  C   LIG d   1     -10.764  94.951 120.132  0.00  0.00     0.006 C 
ENDBRANCH   8  11
ENDBRANCH   7   8
ENDBRANCH   1   7
BRANCH   6  13
ATOM     13  N   LIG d   1      -5.183  94.791 118.989  0.00  0.00    -0.311 N 
ATOM     14  C   LIG d   1      -4.996  95.136 120.262  0.00  0.00     0.210 C 
ATOM     15  C   LIG d   1      -4.262  96.464 120.471  0.00  0.00     0.109 C 
ATOM     16  O   LIG d   1      -5.340  94.452 121.238  0.00  0.00    -0.276 OA
ATOM     17  H   LIG d   1      -4.844  95.389 118.261  0.00  0.00     0.149 HD
ENDBRANCH   6  13
BRANCH   5  18
ATOM     18  N   LIG d   1      -3.817  92.130 118.370  0.00  0.00     0.381 N 
ATOM     19  H   LIG d   1      -3.432  91.362 117.856  0.00  0.00    -0.090 HD
ATOM     20  H   LIG d   1      -4.087  91.797 119.279  0.00  0.00    -0.090 HD
ATOM     21  H   LIG d   1      -3.136  92.852 118.461  0.00  0.00    -0.090 HD
ENDBRANCH   5  18
BRANCH   3  22
ATOM     22  C   LIG d   1      -7.612  90.973 115.687  0.00  0.00     0.382 C 
ATOM     23  O   LIG d   1      -7.177  89.805 115.545  0.00  0.00    -0.241 OA
ATOM     24  O   LIG d   1      -8.498  91.395 114.920  0.00  0.00    -0.241 OA
ENDBRANCH   3  22
TORSDOF 7
ENDMDL
MODEL 3
REMARK VINA RESULT:      -5.3      1.352      2.079
REMARK  7 active torsions:
REMARK  status: ('A' for Active; 'I' for Inactive)
REMARK    1  A    between atoms: C_2  and  C_3 
REMARK    2  A    between atoms: C_3  and  O_6 
REMARK    3  A    between atoms: C_3  and  C_4 
REMARK    4  A    between atoms: C_7  and  O_6 
REMARK    5  A    between atoms: C_9  and  C_10 
REMARK    6  A    between atoms: N_15  and  C_14 
REMARK    7  A    between atoms: N_20  and  C_19 
REMARK       I    between atoms: C_22  and  N_20 
ROOT
ATOM      1  C   LIG d   1      -5.577  92.085 118.165  0.00  0.00     0.161 C 
ATOM      2  C   LIG d   1      -6.027  91.338 117.064  0.00  0.00     0.016 C 
ATOM      3  C   LIG d   1      -7.065  91.766 116.205  0.00  0.00     0.038 C 
ATOM      4  C   LIG d   1      -7.624  93.049 116.300  0.00  0.00     0.028 C 
ATOM      5  C   LIG d   1      -7.553  93.638 117.705  0.00  0.00    -0.047 C 
ATOM      6  C   LIG d   1      -6.099  93.536 118.218  0.00  0.00     0.091 C 
ENDROOT
BRANCH   1   7
ATOM      7  O   LIG d   1      -4.136  92.069 118.210  0.00  0.00    -0.368 OA
BRANCH   7   8
ATOM      8  C   LIG d   1      -3.538  91.134 119.142  0.00  0.00     0.119 C 
BRANCH   8   9
ATOM      9  C   LIG d   1      -3.125  91.930 120.395  0.00  0.00     0.028 C 
ATOM     10  C   LIG d   1      -2.213  93.122 120.058  0.00  0.00     0.006 C 
ENDBRANCH   8   9
BRANCH   8  11
ATOM     11  C   LIG d   1      -2.237  90.548 118.586  0.00  0.00     0.028 C 
ATOM     12  C   LIG d   1      -2.460  89.255 117.786  0.00  0.00     0.006 C 
ENDBRANCH   8  11
ENDBRANCH   7   8
ENDBRANCH   1   7
BRANCH   6  13
ATOM     13  N   LIG d   1      -5.957  94.013 119.619  0.00  0.00    -0.311 N 
ATOM     14  C   LIG d   1      -5.603  95.257 119.937  0.00  0.00     0.210 C 
ATOM     15  C   LIG d   1      -5.496  95.535 121.440  0.00  0.00     0.109 C 
ATOM     16  O   LIG d   1      -5.397  96.166 119.118  0.00  0.00    -0.276 OA
ATOM     17  H   LIG d   1      -6.136  93.350 120.347  0.00  0.00     0.149 HD
ENDBRANCH   6  13
BRANCH   5  18
ATOM     18  N   LIG d   1      -8.044  95.027 117.631  0.00  0.00     0.381 N 
ATOM     19  H   LIG d   1      -9.020  95.030 117.410  0.00  0.00    -0.090 HD
ATOM     20  H   LIG d   1      -7.554  95.507 116.897  0.00  0.00    -0.090 HD
ATOM     21  H   LIG d   1      -7.891  95.489 118.500  0.00  0.00    -0.090 HD
ENDBRANCH   5  18
BRANCH   3  22
ATOM     22  C   LIG d   1      -7.582  90.891 115.261  0.00  0.00     0.382 C 
ATOM     23  O   LIG d   1      -8.737  91.070 114.806  0.00  0.00    -0.241 OA
ATOM     24  O   LIG d   1      -6.924  89.899 114.893  0.00  0.00    -0.241 OA
ENDBRANCH   3  22
TORSDOF 7
ENDMDL
MODEL 4
REMARK VINA RESULT:      -5.3     14.584     16.868
REMARK  7 active torsions:
REMARK  status: ('A' for Active; 'I' for Inactive)
REMARK    1  A    between atoms: C_2  and  C_3 
REMARK    2  A    between atoms: C_3  and  O_6 
REMARK    3  A    between atoms: C_3  and  C_4 
REMARK    4  A    between atoms: C_7  and  O_6 
REMARK    5  A    between atoms: C_9  and  C_10 
REMARK    6  A    between atoms: N_15  and  C_14 
REMARK    7  A    between atoms: N_20  and  C_19 
REMARK       I    between atoms: C_22  and  N_20 
ROOT
ATOM      1  C   LIG d   1      -6.733  77.064 116.717  0.00  0.00     0.161 C 
ATOM      2  C   LIG d   1      -8.082  76.858 117.049  0.00  0.00     0.016 C 
ATOM      3  C   LIG d   1      -8.686  75.580 117.094  0.00  0.00     0.038 C 
ATOM      4  C   LIG d   1      -7.938  74.402 116.956  0.00  0.00     0.028 C 
ATOM      5  C   LIG d   1      -6.674  74.580 116.121  0.00  0.00    -0.047 C 
ATOM      6  C   LIG d   1      -5.874  75.783 116.672  0.00  0.00     0.091 C 
ENDROOT
BRANCH   1   7
ATOM      7  O   LIG d   1      -6.149  78.026 117.617  0.00  0.00    -0.368 OA
BRANCH   7   8
ATOM      8  C   LIG d   1      -5.639  79.239 117.011  0.00  0.00     0.119 C 
BRANCH   8   9
ATOM      9  C   LIG d   1      -4.189  79.426 117.498  0.00  0.00     0.028 C 
ATOM     10  C   LIG d   1      -3.812  78.435 118.612  0.00  0.00     0.006 C 
ENDBRANCH   8   9
BRANCH   8  11
ATOM     11  C   LIG d   1      -6.396  80.473 117.511  0.00  0.00     0.028 C 
ATOM     12  C   LIG d   1      -7.182  80.207 118.804  0.00  0.00     0.006 C 
ENDBRANCH   8  11
ENDBRANCH   7   8
ENDBRANCH   1   7
BRANCH   6  13
ATOM     13  N   LIG d   1      -4.666  76.079 115.860  0.00  0.00    -0.311 N 
ATOM     14  C   LIG d   1      -3.453  75.612 116.153  0.00  0.00     0.210 C 
ATOM     15  C   LIG d   1      -2.341  76.055 115.197  0.00  0.00     0.109 C 
ATOM     16  O   LIG d   1      -3.198  74.848 117.096  0.00  0.00    -0.276 OA
ATOM     17  H   LIG d   1      -4.787  76.666 115.058  0.00  0.00     0.149 HD
ENDBRANCH   6  13
BRANCH   5  18
ATOM     18  N   LIG d   1      -5.922  73.312 116.174  0.00  0.00     0.381 N 
ATOM     19  H   LIG d   1      -6.522  72.575 116.487  0.00  0.00    -0.090 HD
ATOM     20  H   LIG d   1      -5.170  73.408 116.833  0.00  0.00    -0.090 HD
ATOM     21  H   LIG d   1      -5.559  73.094 115.272  0.00  0.00    -0.090 HD
ENDBRANCH   5  18
BRANCH   3  22
ATOM     22  C   LIG d   1     -10.061  75.475 117.240  0.00  0.00     0.382 C 
ATOM     23  O   LIG d   1     -10.693  76.352 117.876  0.00  0.00    -0.241 OA
ATOM     24  O   LIG d   1     -10.671  74.491 116.781  0.00  0.00    -0.241 OA
ENDBRANCH   3  22
TORSDOF 7
ENDMDL
MODEL 5
REMARK VINA RESULT:      -5.1     13.269     15.503
REMARK  7 active torsions:
REMARK  status: ('A' for Active; 'I' for Inactive)
REMARK    1  A    between atoms: C_2  and  C_3 
REMARK    2  A    between atoms: C_3  and  O_6 
REMARK    3  A    between atoms: C_3  and  C_4 
REMARK    4  A    between atoms: C_7  and  O_6 
REMARK    5  A    between atoms: C_9  and  C_10 
REMARK    6  A    between atoms: N_15  and  C_14 
REMARK    7  A    between atoms: N_20  and  C_19 
REMARK       I    between atoms: C_22  and  N_20 
ROOT
ATOM      1  C   LIG d   1      -7.106  78.130 117.495  0.00  0.00     0.161 C 
ATOM      2  C   LIG d   1      -8.346  77.546 117.803  0.00  0.00     0.016 C 
ATOM      3  C   LIG d   1      -8.792  76.326 117.246  0.00  0.00     0.038 C 
ATOM      4  C   LIG d   1      -7.958  75.525 116.452  0.00  0.00     0.028 C 
ATOM      5  C   LIG d   1      -6.887  76.316 115.708  0.00  0.00    -0.047 C 
ATOM      6  C   LIG d   1      -6.137  77.215 116.717  0.00  0.00     0.091 C 
ENDROOT
BRANCH   1   7
ATOM      7  O   LIG d   1      -6.481  78.613 118.700  0.00  0.00    -0.368 OA
BRANCH   7   8
ATOM      8  C   LIG d   1      -6.375  80.053 118.830  0.00  0.00     0.119 C 
BRANCH   8   9
ATOM      9  C   LIG d   1      -6.774  80.670 117.475  0.00  0.00     0.028 C 
ATOM     10  C   LIG d   1      -7.822  81.786 117.625  0.00  0.00     0.006 C 
ENDBRANCH   8   9
BRANCH   8  11
ATOM     11  C   LIG d   1      -4.925  80.486 119.062  0.00  0.00     0.028 C 
ATOM     12  C   LIG d   1      -4.815  81.790 119.869  0.00  0.00     0.006 C 
ENDBRANCH   8  11
ENDBRANCH   7   8
ENDBRANCH   1   7
BRANCH   6  13
ATOM     13  N   LIG d   1      -5.128  78.086 116.059  0.00  0.00    -0.311 N 
ATOM     14  C   LIG d   1      -3.837  78.089 116.387  0.00  0.00     0.210 C 
ATOM     15  C   LIG d   1      -2.972  79.078 115.598  0.00  0.00     0.109 C 
ATOM     16  O   LIG d   1      -3.320  77.345 117.234  0.00  0.00    -0.276 OA
ATOM     17  H   LIG d   1      -5.455  78.700 115.339  0.00  0.00     0.149 HD
ENDBRANCH   6  13
BRANCH   5  18
ATOM     18  N   LIG d   1      -6.006  75.346 115.031  0.00  0.00     0.381 N 
ATOM     19  H   LIG d   1      -6.546  74.765 114.422  0.00  0.00    -0.090 HD
ATOM     20  H   LIG d   1      -5.574  74.761 115.724  0.00  0.00    -0.090 HD
ATOM     21  H   LIG d   1      -5.306  75.827 114.509  0.00  0.00    -0.090 HD
ENDBRANCH   5  18
BRANCH   3  22
ATOM     22  C   LIG d   1     -10.101  75.915 117.449  0.00  0.00     0.382 C 
ATOM     23  O   LIG d   1     -10.517  74.860 116.912  0.00  0.00    -0.241 OA
ATOM     24  O   LIG d   1     -10.883  76.609 118.125  0.00  0.00    -0.241 OA
ENDBRANCH   3  22
TORSDOF 7
ENDMDL
MODEL 6
REMARK VINA RESULT:      -5.1     33.690     35.074
REMARK  7 active torsions:
REMARK  status: ('A' for Active; 'I' for Inactive)
REMARK    1  A    between atoms: C_2  and  C_3 
REMARK    2  A    between atoms: C_3  and  O_6 
REMARK    3  A    between atoms: C_3  and  C_4 
REMARK    4  A    between atoms: C_7  and  O_6 
REMARK    5  A    between atoms: C_9  and  C_10 
REMARK    6  A    between atoms: N_15  and  C_14 
REMARK    7  A    between atoms: N_20  and  C_19 
REMARK       I    between atoms: C_22  and  N_20 
ROOT
ATOM      1  C   LIG d   1       0.126  59.472 118.689  0.00  0.00     0.161 C 
ATOM      2  C   LIG d   1      -1.265  59.292 118.616  0.00  0.00     0.016 C 
ATOM      3  C   LIG d   1      -1.970  59.164 117.397  0.00  0.00     0.038 C 
ATOM      4  C   LIG d   1      -1.308  59.057 116.165  0.00  0.00     0.028 C 
ATOM      5  C   LIG d   1       0.056  59.739 116.149  0.00  0.00    -0.047 C 
ATOM      6  C   LIG d   1       0.879  59.246 117.361  0.00  0.00     0.091 C 
ENDROOT
BRANCH   1   7
ATOM      7  O   LIG d   1       0.674  58.632 119.725  0.00  0.00    -0.368 OA
BRANCH   7   8
ATOM      8  C   LIG d   1      -0.008  57.375 119.953  0.00  0.00     0.119 C 
BRANCH   8   9
ATOM      9  C   LIG d   1       0.232  56.978 121.422  0.00  0.00     0.028 C 
ATOM     10  C   LIG d   1       0.934  55.615 121.555  0.00  0.00     0.006 C 
ENDBRANCH   8   9
BRANCH   8  11
ATOM     11  C   LIG d   1       0.610  56.247 119.122  0.00  0.00     0.028 C 
ATOM     12  C   LIG d   1      -0.363  55.673 118.080  0.00  0.00     0.006 C 
ENDBRANCH   8  11
ENDBRANCH   7   8
ENDBRANCH   1   7
BRANCH   6  13
ATOM     13  N   LIG d   1       2.195  59.928 117.468  0.00  0.00    -0.311 N 
ATOM     14  C   LIG d   1       3.316  59.305 117.828  0.00  0.00     0.210 C 
ATOM     15  C   LIG d   1       4.559  60.198 117.894  0.00  0.00     0.109 C 
ATOM     16  O   LIG d   1       3.405  58.091 118.066  0.00  0.00    -0.276 OA
ATOM     17  H   LIG d   1       2.220  60.907 117.262  0.00  0.00     0.149 HD
ENDBRANCH   6  13
BRANCH   5  18
ATOM     18  N   LIG d   1       0.693  59.432 114.855  0.00  0.00     0.381 N 
ATOM     19  H   LIG d   1       0.811  58.443 114.761  0.00  0.00    -0.090 HD
ATOM     20  H   LIG d   1       1.601  59.861 114.829  0.00  0.00    -0.090 HD
ATOM     21  H   LIG d   1       0.132  59.779 114.108  0.00  0.00    -0.090 HD
ENDBRANCH   5  18
BRANCH   3  22
ATOM     22  C   LIG d   1      -3.356  59.183 117.400  0.00  0.00     0.382 C 
ATOM     23  O   LIG d   1      -3.997  58.164 117.754  0.00  0.00    -0.241 OA
ATOM     24  O   LIG d   1      -3.975  60.192 117.011  0.00  0.00    -0.241 OA
ENDBRANCH   3  22
TORSDOF 7
ENDMDL
MODEL 7
REMARK VINA RESULT:      -5.0      1.675      4.755
REMARK  7 active torsions:
REMARK  status: ('A' for Active; 'I' for Inactive)
REMARK    1  A    between atoms: C_2  and  C_3 
REMARK    2  A    between atoms: C_3  and  O_6 
REMARK    3  A    between atoms: C_3  and  C_4 
REMARK    4  A    between atoms: C_7  and  O_6 
REMARK    5  A    between atoms: C_9  and  C_10 
REMARK    6  A    between atoms: N_15  and  C_14 
REMARK    7  A    between atoms: N_20  and  C_19 
REMARK       I    between atoms: C_22  and  N_20 
ROOT
ATOM      1  C   LIG d   1      -5.230  92.860 118.406  0.00  0.00     0.161 C 
ATOM      2  C   LIG d   1      -5.386  93.980 119.240  0.00  0.00     0.016 C 
ATOM      3  C   LIG d   1      -6.514  94.832 119.196  0.00  0.00     0.038 C 
ATOM      4  C   LIG d   1      -7.640  94.532 118.415  0.00  0.00     0.028 C 
ATOM      5  C   LIG d   1      -7.317  93.689 117.186  0.00  0.00    -0.047 C 
ATOM      6  C   LIG d   1      -6.498  92.454 117.625  0.00  0.00     0.091 C 
ENDROOT
BRANCH   1   7
ATOM      7  O   LIG d   1      -4.735  91.745 119.173  0.00  0.00    -0.368 OA
BRANCH   7   8
ATOM      8  C   LIG d   1      -3.337  91.414 118.987  0.00  0.00     0.119 C 
BRANCH   8   9
ATOM      9  C   LIG d   1      -3.208  89.881 119.078  0.00  0.00     0.028 C 
ATOM     10  C   LIG d   1      -2.798  89.246 117.739  0.00  0.00     0.006 C 
ENDBRANCH   8   9
BRANCH   8  11
ATOM     11  C   LIG d   1      -2.478  91.962 120.130  0.00  0.00     0.028 C 
ATOM     12  C   LIG d   1      -1.550  93.103 119.684  0.00  0.00     0.006 C 
ENDBRANCH   8  11
ENDBRANCH   7   8
ENDBRANCH   1   7
BRANCH   6  13
ATOM     13  N   LIG d   1      -6.068  91.619 116.473  0.00  0.00    -0.311 N 
ATOM     14  C   LIG d   1      -6.794  90.616 115.984  0.00  0.00     0.210 C 
ATOM     15  C   LIG d   1      -6.157  89.871 114.806  0.00  0.00     0.109 C 
ATOM     16  O   LIG d   1      -7.919  90.292 116.392  0.00  0.00    -0.276 OA
ATOM     17  H   LIG d   1      -5.181  91.833 116.061  0.00  0.00     0.149 HD
ENDBRANCH   6  13
BRANCH   5  18
ATOM     18  N   LIG d   1      -8.595  93.335 116.540  0.00  0.00     0.381 N 
ATOM     19  H   LIG d   1      -8.791  93.979 115.800  0.00  0.00    -0.090 HD
ATOM     20  H   LIG d   1      -9.332  93.402 117.219  0.00  0.00    -0.090 HD
ATOM     21  H   LIG d   1      -8.550  92.407 116.179  0.00  0.00    -0.090 HD
ENDBRANCH   5  18
BRANCH   3  22
ATOM     22  C   LIG d   1      -6.506  96.020 119.911  0.00  0.00     0.382 C 
ATOM     23  O   LIG d   1      -7.307  96.184 120.863  0.00  0.00    -0.241 OA
ATOM     24  O   LIG d   1      -5.739  96.946 119.588  0.00  0.00    -0.241 OA
ENDBRANCH   3  22
TORSDOF 7
ENDMDL
MODEL 8
REMARK VINA RESULT:      -5.0     33.932     36.244
REMARK  7 active torsions:
REMARK  status: ('A' for Active; 'I' for Inactive)
REMARK    1  A    between atoms: C_2  and  C_3 
REMARK    2  A    between atoms: C_3  and  O_6 
REMARK    3  A    between atoms: C_3  and  C_4 
REMARK    4  A    between atoms: C_7  and  O_6 
REMARK    5  A    between atoms: C_9  and  C_10 
REMARK    6  A    between atoms: N_15  and  C_14 
REMARK    7  A    between atoms: N_20  and  C_19 
REMARK       I    between atoms: C_22  and  N_20 
ROOT
ATOM      1  C   LIG d   1      -0.478  56.977 118.262  0.00  0.00     0.161 C 
ATOM      2  C   LIG d   1      -1.743  56.403 118.049  0.00  0.00     0.016 C 
ATOM      3  C   LIG d   1      -2.941  57.152 118.013  0.00  0.00     0.038 C 
ATOM      4  C   LIG d   1      -2.941  58.554 118.036  0.00  0.00     0.028 C 
ATOM      5  C   LIG d   1      -1.734  59.147 118.756  0.00  0.00    -0.047 C 
ATOM      6  C   LIG d   1      -0.446  58.518 118.178  0.00  0.00     0.091 C 
ENDROOT
BRANCH   1   7
ATOM      7  O   LIG d   1       0.478  56.406 117.347  0.00  0.00    -0.368 OA
BRANCH   7   8
ATOM      8  C   LIG d   1       0.651  54.969 117.421  0.00  0.00     0.119 C 
BRANCH   8   9
ATOM      9  C   LIG d   1       2.106  54.699 117.849  0.00  0.00     0.028 C 
ATOM     10  C   LIG d   1       2.854  55.988 118.232  0.00  0.00     0.006 C 
ENDBRANCH   8   9
BRANCH   8  11
ATOM     11  C   LIG d   1       0.506  54.319 116.042  0.00  0.00     0.028 C 
ATOM     12  C   LIG d   1       1.729  53.475 115.650  0.00  0.00     0.006 C 
ENDBRANCH   8  11
ENDBRANCH   7   8
ENDBRANCH   1   7
BRANCH   6  13
ATOM     13  N   LIG d   1       0.777  58.981 118.885  0.00  0.00    -0.311 N 
ATOM     14  C   LIG d   1       1.810  59.550 118.266  0.00  0.00     0.210 C 
ATOM     15  C   LIG d   1       2.979  59.934 119.178  0.00  0.00     0.109 C 
ATOM     16  O   LIG d   1       1.856  59.801 117.052  0.00  0.00    -0.276 OA
ATOM     17  H   LIG d   1       0.811  58.844 119.876  0.00  0.00     0.149 HD
ENDBRANCH   6  13
BRANCH   5  18
ATOM     18  N   LIG d   1      -1.789  60.611 118.586  0.00  0.00     0.381 N 
ATOM     19  H   LIG d   1      -0.994  60.922 118.063  0.00  0.00    -0.090 HD
ATOM     20  H   LIG d   1      -1.759  61.045 119.492  0.00  0.00    -0.090 HD
ATOM     21  H   LIG d   1      -2.627  60.869 118.113  0.00  0.00    -0.090 HD
ENDBRANCH   5  18
BRANCH   3  22
ATOM     22  C   LIG d   1      -4.162  56.494 117.992  0.00  0.00     0.382 C 
ATOM     23  O   LIG d   1      -4.931  56.567 118.981  0.00  0.00    -0.241 OA
ATOM     24  O   LIG d   1      -4.485  55.792 117.015  0.00  0.00    -0.241 OA
ENDBRANCH   3  22
TORSDOF 7
ENDMDL
MODEL 9
REMARK VINA RESULT:      -4.9     13.545     15.484
REMARK  7 active torsions:
REMARK  status: ('A' for Active; 'I' for Inactive)
REMARK    1  A    between atoms: C_2  and  C_3 
REMARK    2  A    between atoms: C_3  and  O_6 
REMARK    3  A    between atoms: C_3  and  C_4 
REMARK    4  A    between atoms: C_7  and  O_6 
REMARK    5  A    between atoms: C_9  and  C_10 
REMARK    6  A    between atoms: N_15  and  C_14 
REMARK    7  A    between atoms: N_20  and  C_19 
REMARK       I    between atoms: C_22  and  N_20 
ROOT
ATOM      1  C   LIG d   1      -6.867  77.299 117.110  0.00  0.00     0.161 C 
ATOM      2  C   LIG d   1      -7.474  76.077 116.775  0.00  0.00     0.016 C 
ATOM      3  C   LIG d   1      -8.782  75.721 117.178  0.00  0.00     0.038 C 
ATOM      4  C   LIG d   1      -9.634  76.633 117.820  0.00  0.00     0.028 C 
ATOM      5  C   LIG d   1      -8.890  77.696 118.620  0.00  0.00    -0.047 C 
ATOM      6  C   LIG d   1      -7.821  78.350 117.714  0.00  0.00     0.091 C 
ENDROOT
BRANCH   1   7
ATOM      7  O   LIG d   1      -6.191  77.840 115.958  0.00  0.00    -0.368 OA
BRANCH   7   8
ATOM      8  C   LIG d   1      -4.744  77.754 115.970  0.00  0.00     0.119 C 
BRANCH   8   9
ATOM      9  C   LIG d   1      -4.340  76.915 117.198  0.00  0.00     0.028 C 
ATOM     10  C   LIG d   1      -3.667  75.589 116.807  0.00  0.00     0.006 C 
ENDBRANCH   8   9
BRANCH   8  11
ATOM     11  C   LIG d   1      -4.106  79.129 116.190  0.00  0.00     0.028 C 
ATOM     12  C   LIG d   1      -3.385  79.241 117.542  0.00  0.00     0.006 C 
ENDBRANCH   8  11
ENDBRANCH   7   8
ENDBRANCH   1   7
BRANCH   6  13
ATOM     13  N   LIG d   1      -6.991  79.344 118.444  0.00  0.00    -0.311 N 
ATOM     14  C   LIG d   1      -6.933  80.633 118.115  0.00  0.00     0.210 C 
ATOM     15  C   LIG d   1      -6.000  81.481 118.985  0.00  0.00     0.109 C 
ATOM     16  O   LIG d   1      -7.589  81.161 117.205  0.00  0.00    -0.276 OA
ATOM     17  H   LIG d   1      -6.450  79.007 119.216  0.00  0.00     0.149 HD
ENDBRANCH   6  13
BRANCH   5  18
ATOM     18  N   LIG d   1      -9.890  78.658 119.121  0.00  0.00     0.381 N 
ATOM     19  H   LIG d   1     -10.808  78.360 118.857  0.00  0.00    -0.090 HD
ATOM     20  H   LIG d   1      -9.717  79.555 118.702  0.00  0.00    -0.090 HD
ATOM     21  H   LIG d   1      -9.828  78.728 120.113  0.00  0.00    -0.090 HD
ENDBRANCH   5  18
BRANCH   3  22
ATOM     22  C   LIG d   1      -9.236  74.427 116.974  0.00  0.00     0.382 C 
ATOM     23  O   LIG d   1     -10.438  74.223 116.678  0.00  0.00    -0.241 OA
ATOM     24  O   LIG d   1      -8.469  73.457 117.125  0.00  0.00    -0.241 OA
ENDBRANCH   3  22
TORSDOF 7
ENDMDL
