MODEL 1
REMARK VINA RESULT:      -5.9      0.000      0.000
REMARK  7 active torsions:
REMARK  status: ('A' for Active; 'I' for Inactive)
REMARK    1  A    between atoms: C_2  and  C_3 
REMARK    2  A    between atoms: C_3  and  O_6 
REMARK    3  A    between atoms: C_3  and  C_4 
REMARK    4  A    between atoms: C_7  and  O_6 
REMARK    5  A    between atoms: C_9  and  C_10 
REMARK    6  A    between atoms: N_15  and  C_14 
REMARK    7  A    between atoms: N_20  and  C_19 
REMARK       I    between atoms: C_22  and  N_20 
ROOT
ATOM      1  C   LIG d   1      -7.712  74.631 117.664  0.00  0.00     0.161 C 
ATOM      2  C   LIG d   1      -8.937  75.307 117.792  0.00  0.00     0.016 C 
ATOM      3  C   LIG d   1      -9.044  76.713 117.890  0.00  0.00     0.038 C 
ATOM      4  C   LIG d   1      -7.935  77.555 117.713  0.00  0.00     0.028 C 
ATOM      5  C   LIG d   1      -6.610  76.898 118.085  0.00  0.00    -0.047 C 
ATOM      6  C   LIG d   1      -6.502  75.539 117.357  0.00  0.00     0.091 C 
ENDROOT
BRANCH   1   7
ATOM      7  O   LIG d   1      -7.827  73.596 116.668  0.00  0.00    -0.368 OA
BRANCH   7   8
ATOM      8  C   LIG d   1      -7.794  72.233 117.158  0.00  0.00     0.119 C 
BRANCH   8   9
ATOM      9  C   LIG d   1      -6.892  71.421 116.209  0.00  0.00     0.028 C 
ATOM     10  C   LIG d   1      -6.155  72.312 115.195  0.00  0.00     0.006 C 
ENDBRANCH   8   9
BRANCH   8  11
ATOM     11  C   LIG d   1      -9.174  71.575 117.068  0.00  0.00     0.028 C 
ATOM     12  C   LIG d   1      -9.130  70.061 117.325  0.00  0.00     0.006 C 
ENDBRANCH   8  11
ENDBRANCH   7   8
ENDBRANCH   1   7
BRANCH   6  13
ATOM     13  N   LIG d   1      -5.273  74.792 117.731  0.00  0.00    -0.311 N 
ATOM     14  C   LIG d   1      -4.151  74.821 117.015  0.00  0.00     0.210 C 
ATOM     15  C   LIG d   1      -3.008  73.963 117.567  0.00  0.00     0.109 C 
ATOM     16  O   LIG d   1      -3.982  75.502 115.992  0.00  0.00    -0.276 OA
ATOM     17  H   LIG d   1      -5.312  74.238 118.564  0.00  0.00     0.149 HD
ENDBRANCH   6  13
BRANCH   5  18
ATOM     18  N   LIG d   1      -5.531  77.836 117.722  0.00  0.00     0.381 N 
ATOM     19  H   LIG d   1      -5.916  78.630 117.251  0.00  0.00    -0.090 HD
ATOM     20  H   LIG d   1      -4.896  77.374 117.094  0.00  0.00    -0.090 HD
ATOM     21  H   LIG d   1      -5.045  78.130 118.540  0.00  0.00    -0.090 HD
ENDBRANCH   5  18
BRANCH   3  22
ATOM     22  C   LIG d   1     -10.264  77.290 118.208  0.00  0.00     0.382 C 
ATOM     23  O   LIG d   1     -10.319  78.497 118.545  0.00  0.00    -0.241 OA
ATOM     24  O   LIG d   1     -11.305  76.606 118.205  0.00  0.00    -0.241 OA
ENDBRANCH   3  22
TORSDOF 7
ENDMDL
MODEL 2
REMARK VINA RESULT:      -5.7      0.826      1.857
REMARK  7 active torsions:
REMARK  status: ('A' for Active; 'I' for Inactive)
REMARK    1  A    between atoms: C_2  and  C_3 
REMARK    2  A    between atoms: C_3  and  O_6 
REMARK    3  A    between atoms: C_3  and  C_4 
REMARK    4  A    between atoms: C_7  and  O_6 
REMARK    5  A    between atoms: C_9  and  C_10 
REMARK    6  A    between atoms: N_15  and  C_14 
REMARK    7  A    between atoms: N_20  and  C_19 
REMARK       I    between atoms: C_22  and  N_20 
ROOT
ATOM      1  C   LIG d   1      -7.465  74.858 118.752  0.00  0.00     0.161 C 
ATOM      2  C   LIG d   1      -8.744  75.434 118.683  0.00  0.00     0.016 C 
ATOM      3  C   LIG d   1      -8.991  76.718 118.144  0.00  0.00     0.038 C 
ATOM      4  C   LIG d   1      -7.989  77.455 117.496  0.00  0.00     0.028 C 
ATOM      5  C   LIG d   1      -6.584  77.132 117.991  0.00  0.00    -0.047 C 
ATOM      6  C   LIG d   1      -6.376  75.601 117.949  0.00  0.00     0.091 C 
ENDROOT
BRANCH   1   7
ATOM      7  O   LIG d   1      -7.529  73.476 118.349  0.00  0.00    -0.368 OA
BRANCH   7   8
ATOM      8  C   LIG d   1      -7.796  73.233 116.945  0.00  0.00     0.119 C 
BRANCH   8   9
ATOM      9  C   LIG d   1      -9.069  72.369 116.859  0.00  0.00     0.028 C 
ATOM     10  C   LIG d   1      -8.759  70.863 116.880  0.00  0.00     0.006 C 
ENDBRANCH   8   9
BRANCH   8  11
ATOM     11  C   LIG d   1      -6.689  72.389 116.306  0.00  0.00     0.028 C 
ATOM     12  C   LIG d   1      -5.949  73.131 115.181  0.00  0.00     0.006 C 
ENDBRANCH   8  11
ENDBRANCH   7   8
ENDBRANCH   1   7
BRANCH   6  13
ATOM     13  N   LIG d   1      -5.056  75.193 118.496  0.00  0.00    -0.311 N 
ATOM     14  C   LIG d   1      -3.953  75.097 117.756  0.00  0.00     0.210 C 
ATOM     15  C   LIG d   1      -2.703  74.640 118.514  0.00  0.00     0.109 C 
ATOM     16  O   LIG d   1      -3.885  75.379 116.550  0.00  0.00    -0.276 OA
ATOM     17  H   LIG d   1      -5.015  74.976 119.473  0.00  0.00     0.149 HD
ENDBRANCH   6  13
BRANCH   5  18
ATOM     18  N   LIG d   1      -5.631  77.868 117.138  0.00  0.00     0.381 N 
ATOM     19  H   LIG d   1      -4.693  77.636 117.399  0.00  0.00    -0.090 HD
ATOM     20  H   LIG d   1      -5.763  78.854 117.279  0.00  0.00    -0.090 HD
ATOM     21  H   LIG d   1      -5.783  77.639 116.180  0.00  0.00    -0.090 HD
ENDBRANCH   5  18
BRANCH   3  22
ATOM     22  C   LIG d   1     -10.245  77.293 118.287  0.00  0.00     0.382 C 
ATOM     23  O   LIG d   1     -11.276  76.602 118.105  0.00  0.00    -0.241 OA
ATOM     24  O   LIG d   1     -10.357  78.505 118.551  0.00  0.00    -0.241 OA
ENDBRANCH   3  22
TORSDOF 7
ENDMDL
MODEL 3
REMARK VINA RESULT:      -5.3      1.551      1.707
REMARK  7 active torsions:
REMARK  status: ('A' for Active; 'I' for Inactive)
REMARK    1  A    between atoms: C_2  and  C_3 
REMARK    2  A    between atoms: C_3  and  O_6 
REMARK    3  A    between atoms: C_3  and  C_4 
REMARK    4  A    between atoms: C_7  and  O_6 
REMARK    5  A    between atoms: C_9  and  C_10 
REMARK    6  A    between atoms: N_15  and  C_14 
REMARK    7  A    between atoms: N_20  and  C_19 
REMARK       I    between atoms: C_22  and  N_20 
ROOT
ATOM      1  C   LIG d   1      -7.140  76.075 117.675  0.00  0.00     0.161 C 
ATOM      2  C   LIG d   1      -8.333  76.639 118.155  0.00  0.00     0.016 C 
ATOM      3  C   LIG d   1      -8.519  78.029 118.338  0.00  0.00     0.038 C 
ATOM      4  C   LIG d   1      -7.568  78.967 117.907  0.00  0.00     0.028 C 
ATOM      5  C   LIG d   1      -6.145  78.419 117.884  0.00  0.00    -0.047 C 
ATOM      6  C   LIG d   1      -6.132  77.090 117.096  0.00  0.00     0.091 C 
ENDROOT
BRANCH   1   7
ATOM      7  O   LIG d   1      -7.439  75.054 116.702  0.00  0.00    -0.368 OA
BRANCH   7   8
ATOM      8  C   LIG d   1      -7.541  73.701 117.209  0.00  0.00     0.119 C 
BRANCH   8   9
ATOM      9  C   LIG d   1      -6.761  72.786 116.246  0.00  0.00     0.028 C 
ATOM     10  C   LIG d   1      -5.860  73.578 115.284  0.00  0.00     0.006 C 
ENDBRANCH   8   9
BRANCH   8  11
ATOM     11  C   LIG d   1      -8.987  73.197 117.166  0.00  0.00     0.028 C 
ATOM     12  C   LIG d   1      -9.092  71.726 116.733  0.00  0.00     0.006 C 
ENDBRANCH   8  11
ENDBRANCH   7   8
ENDBRANCH   1   7
BRANCH   6  13
ATOM     13  N   LIG d   1      -4.793  76.444 117.095  0.00  0.00    -0.311 N 
ATOM     14  C   LIG d   1      -3.894  76.621 116.129  0.00  0.00     0.210 C 
ATOM     15  C   LIG d   1      -2.585  75.846 116.314  0.00  0.00     0.109 C 
ATOM     16  O   LIG d   1      -4.044  77.371 115.153  0.00  0.00    -0.276 OA
ATOM     17  H   LIG d   1      -4.577  75.843 117.867  0.00  0.00     0.149 HD
ENDBRANCH   6  13
BRANCH   5  18
ATOM     18  N   LIG d   1      -5.280  79.454 117.286  0.00  0.00     0.381 N 
ATOM     19  H   LIG d   1      -5.103  79.235 116.326  0.00  0.00    -0.090 HD
ATOM     20  H   LIG d   1      -4.401  79.464 117.774  0.00  0.00    -0.090 HD
ATOM     21  H   LIG d   1      -5.717  80.346 117.356  0.00  0.00    -0.090 HD
ENDBRANCH   5  18
BRANCH   3  22
ATOM     22  C   LIG d   1      -9.649  78.491 118.995  0.00  0.00     0.382 C 
ATOM     23  O   LIG d   1     -10.280  79.476 118.540  0.00  0.00    -0.241 OA
ATOM     24  O   LIG d   1     -10.021  77.964 120.060  0.00  0.00    -0.241 OA
ENDBRANCH   3  22
TORSDOF 7
ENDMDL
MODEL 4
REMARK VINA RESULT:      -5.2      2.469      4.479
REMARK  7 active torsions:
REMARK  status: ('A' for Active; 'I' for Inactive)
REMARK    1  A    between atoms: C_2  and  C_3 
REMARK    2  A    between atoms: C_3  and  O_6 
REMARK    3  A    between atoms: C_3  and  C_4 
REMARK    4  A    between atoms: C_7  and  O_6 
REMARK    5  A    between atoms: C_9  and  C_10 
REMARK    6  A    between atoms: N_15  and  C_14 
REMARK    7  A    between atoms: N_20  and  C_19 
REMARK       I    between atoms: C_22  and  N_20 
ROOT
ATOM      1  C   LIG d   1      -7.015  76.548 116.894  0.00  0.00     0.161 C 
ATOM      2  C   LIG d   1      -6.580  77.878 117.019  0.00  0.00     0.016 C 
ATOM      3  C   LIG d   1      -7.283  78.860 117.754  0.00  0.00     0.038 C 
ATOM      4  C   LIG d   1      -8.396  78.540 118.545  0.00  0.00     0.028 C 
ATOM      5  C   LIG d   1      -9.162  77.319 118.046  0.00  0.00    -0.047 C 
ATOM      6  C   LIG d   1      -8.168  76.153 117.841  0.00  0.00     0.091 C 
ENDROOT
BRANCH   1   7
ATOM      7  O   LIG d   1      -5.899  75.651 117.063  0.00  0.00    -0.368 OA
BRANCH   7   8
ATOM      8  C   LIG d   1      -4.968  75.578 115.955  0.00  0.00     0.119 C 
BRANCH   8   9
ATOM      9  C   LIG d   1      -5.593  74.664 114.884  0.00  0.00     0.028 C 
ATOM     10  C   LIG d   1      -5.939  73.269 115.432  0.00  0.00     0.006 C 
ENDBRANCH   8   9
BRANCH   8  11
ATOM     11  C   LIG d   1      -3.665  74.887 116.368  0.00  0.00     0.028 C 
ATOM     12  C   LIG d   1      -2.585  74.950 115.275  0.00  0.00     0.006 C 
ENDBRANCH   8  11
ENDBRANCH   7   8
ENDBRANCH   1   7
BRANCH   6  13
ATOM     13  N   LIG d   1      -8.821  74.944 117.274  0.00  0.00    -0.311 N 
ATOM     14  C   LIG d   1      -8.615  73.713 117.739  0.00  0.00     0.210 C 
ATOM     15  C   LIG d   1      -9.372  72.607 116.998  0.00  0.00     0.109 C 
ATOM     16  O   LIG d   1      -7.902  73.436 118.716  0.00  0.00    -0.276 OA
ATOM     17  H   LIG d   1      -9.440  75.081 116.499  0.00  0.00     0.149 HD
ENDBRANCH   6  13
BRANCH   5  18
ATOM     18  N   LIG d   1     -10.212  77.016 119.037  0.00  0.00     0.381 N 
ATOM     19  H   LIG d   1     -11.110  77.036 118.596  0.00  0.00    -0.090 HD
ATOM     20  H   LIG d   1     -10.196  77.720 119.753  0.00  0.00    -0.090 HD
ATOM     21  H   LIG d   1     -10.052  76.119 119.440  0.00  0.00    -0.090 HD
ENDBRANCH   5  18
BRANCH   3  22
ATOM     22  C   LIG d   1      -6.895  80.189 117.670  0.00  0.00     0.382 C 
ATOM     23  O   LIG d   1      -5.729  80.523 117.992  0.00  0.00    -0.241 OA
ATOM     24  O   LIG d   1      -7.709  81.064 117.319  0.00  0.00    -0.241 OA
ENDBRANCH   3  22
TORSDOF 7
ENDMDL
MODEL 5
REMARK VINA RESULT:      -5.0      1.919      3.190
REMARK  7 active torsions:
REMARK  status: ('A' for Active; 'I' for Inactive)
REMARK    1  A    between atoms: C_2  and  C_3 
REMARK    2  A    between atoms: C_3  and  O_6 
REMARK    3  A    between atoms: C_3  and  C_4 
REMARK    4  A    between atoms: C_7  and  O_6 
REMARK    5  A    between atoms: C_9  and  C_10 
REMARK    6  A    between atoms: N_15  and  C_14 
REMARK    7  A    between atoms: N_20  and  C_19 
REMARK       I    between atoms: C_22  and  N_20 
ROOT
ATOM      1  C   LIG d   1      -6.843  76.229 117.199  0.00  0.00     0.161 C 
ATOM      2  C   LIG d   1      -8.180  75.812 117.082  0.00  0.00     0.016 C 
ATOM      3  C   LIG d   1      -9.270  76.535 117.619  0.00  0.00     0.038 C 
ATOM      4  C   LIG d   1      -9.109  77.809 118.184  0.00  0.00     0.028 C 
ATOM      5  C   LIG d   1      -7.722  78.039 118.775  0.00  0.00    -0.047 C 
ATOM      6  C   LIG d   1      -6.658  77.671 117.715  0.00  0.00     0.091 C 
ENDROOT
BRANCH   1   7
ATOM      7  O   LIG d   1      -6.165  76.056 115.939  0.00  0.00    -0.368 OA
BRANCH   7   8
ATOM      8  C   LIG d   1      -5.142  75.031 115.901  0.00  0.00     0.119 C 
BRANCH   8   9
ATOM      9  C   LIG d   1      -5.679  73.874 115.036  0.00  0.00     0.028 C 
ATOM     10  C   LIG d   1      -6.310  72.754 115.881  0.00  0.00     0.006 C 
ENDBRANCH   8   9
BRANCH   8  11
ATOM     11  C   LIG d   1      -4.908  74.425 117.288  0.00  0.00     0.028 C 
ATOM     12  C   LIG d   1      -3.440  74.509 117.735  0.00  0.00     0.006 C 
ENDBRANCH   8  11
ENDBRANCH   7   8
ENDBRANCH   1   7
BRANCH   6  13
ATOM     13  N   LIG d   1      -5.272  77.787 118.239  0.00  0.00    -0.311 N 
ATOM     14  C   LIG d   1      -4.278  78.360 117.563  0.00  0.00     0.210 C 
ATOM     15  C   LIG d   1      -2.923  78.356 118.278  0.00  0.00     0.109 C 
ATOM     16  O   LIG d   1      -4.397  78.901 116.453  0.00  0.00    -0.276 OA
ATOM     17  H   LIG d   1      -5.094  77.403 119.147  0.00  0.00     0.149 HD
ENDBRANCH   6  13
BRANCH   5  18
ATOM     18  N   LIG d   1      -7.648  79.448 119.204  0.00  0.00     0.381 N 
ATOM     19  H   LIG d   1      -6.770  79.840 118.928  0.00  0.00    -0.090 HD
ATOM     20  H   LIG d   1      -7.711  79.486 120.206  0.00  0.00    -0.090 HD
ATOM     21  H   LIG d   1      -8.395  79.968 118.797  0.00  0.00    -0.090 HD
ENDBRANCH   5  18
BRANCH   3  22
ATOM     22  C   LIG d   1     -10.534  75.964 117.630  0.00  0.00     0.382 C 
ATOM     23  O   LIG d   1     -11.501  76.593 118.124  0.00  0.00    -0.241 OA
ATOM     24  O   LIG d   1     -10.710  74.811 117.193  0.00  0.00    -0.241 OA
ENDBRANCH   3  22
TORSDOF 7
ENDMDL
MODEL 6
REMARK VINA RESULT:      -4.8      2.190      4.981
REMARK  7 active torsions:
REMARK  status: ('A' for Active; 'I' for Inactive)
REMARK    1  A    between atoms: C_2  and  C_3 
REMARK    2  A    between atoms: C_3  and  O_6 
REMARK    3  A    between atoms: C_3  and  C_4 
REMARK    4  A    between atoms: C_7  and  O_6 
REMARK    5  A    between atoms: C_9  and  C_10 
REMARK    6  A    between atoms: N_15  and  C_14 
REMARK    7  A    between atoms: N_20  and  C_19 
REMARK       I    between atoms: C_22  and  N_20 
ROOT
ATOM      1  C   LIG d   1      -6.349  74.926 117.432  0.00  0.00     0.161 C 
ATOM      2  C   LIG d   1      -6.696  73.631 117.012  0.00  0.00     0.016 C 
ATOM      3  C   LIG d   1      -8.031  73.175 116.917  0.00  0.00     0.038 C 
ATOM      4  C   LIG d   1      -9.123  74.038 117.092  0.00  0.00     0.028 C 
ATOM      5  C   LIG d   1      -8.821  75.219 118.008  0.00  0.00    -0.047 C 
ATOM      6  C   LIG d   1      -7.530  75.915 117.520  0.00  0.00     0.091 C 
ENDROOT
BRANCH   1   7
ATOM      7  O   LIG d   1      -5.315  75.456 116.579  0.00  0.00    -0.368 OA
BRANCH   7   8
ATOM      8  C   LIG d   1      -4.012  75.629 117.189  0.00  0.00     0.119 C 
BRANCH   8   9
ATOM      9  C   LIG d   1      -3.094  74.519 116.642  0.00  0.00     0.028 C 
ATOM     10  C   LIG d   1      -2.723  73.482 117.716  0.00  0.00     0.006 C 
ENDBRANCH   8   9
BRANCH   8  11
ATOM     11  C   LIG d   1      -4.070  75.399 118.702  0.00  0.00     0.028 C 
ATOM     12  C   LIG d   1      -3.586  76.614 119.508  0.00  0.00     0.006 C 
ENDBRANCH   8  11
ENDBRANCH   7   8
ENDBRANCH   1   7
BRANCH   6  13
ATOM     13  N   LIG d   1      -7.117  77.031 118.410  0.00  0.00    -0.311 N 
ATOM     14  C   LIG d   1      -6.656  78.197 117.958  0.00  0.00     0.210 C 
ATOM     15  C   LIG d   1      -6.267  79.203 119.046  0.00  0.00     0.109 C 
ATOM     16  O   LIG d   1      -6.562  78.504 116.761  0.00  0.00    -0.276 OA
ATOM     17  H   LIG d   1      -7.189  76.879 119.397  0.00  0.00     0.149 HD
ENDBRANCH   6  13
BRANCH   5  18
ATOM     18  N   LIG d   1      -9.998  76.108 117.992  0.00  0.00     0.381 N 
ATOM     19  H   LIG d   1     -10.129  76.480 117.072  0.00  0.00    -0.090 HD
ATOM     20  H   LIG d   1      -9.837  76.873 118.622  0.00  0.00    -0.090 HD
ATOM     21  H   LIG d   1     -10.810  75.603 118.272  0.00  0.00    -0.090 HD
ENDBRANCH   5  18
BRANCH   3  22
ATOM     22  C   LIG d   1      -8.283  71.832 116.683  0.00  0.00     0.382 C 
ATOM     23  O   LIG d   1      -9.220  71.256 117.287  0.00  0.00    -0.241 OA
ATOM     24  O   LIG d   1      -7.558  71.178 115.910  0.00  0.00    -0.241 OA
ENDBRANCH   3  22
TORSDOF 7
ENDMDL
MODEL 7
REMARK VINA RESULT:      -4.8      2.075      4.442
REMARK  7 active torsions:
REMARK  status: ('A' for Active; 'I' for Inactive)
REMARK    1  A    between atoms: C_2  and  C_3 
REMARK    2  A    between atoms: C_3  and  O_6 
REMARK    3  A    between atoms: C_3  and  C_4 
REMARK    4  A    between atoms: C_7  and  O_6 
REMARK    5  A    between atoms: C_9  and  C_10 
REMARK    6  A    between atoms: N_15  and  C_14 
REMARK    7  A    between atoms: N_20  and  C_19 
REMARK       I    between atoms: C_22  and  N_20 
ROOT
ATOM      1  C   LIG d   1      -6.635  76.455 116.770  0.00  0.00     0.161 C 
ATOM      2  C   LIG d   1      -8.003  76.440 117.089  0.00  0.00     0.016 C 
ATOM      3  C   LIG d   1      -8.736  75.252 117.316  0.00  0.00     0.038 C 
ATOM      4  C   LIG d   1      -8.111  73.998 117.387  0.00  0.00     0.028 C 
ATOM      5  C   LIG d   1      -6.825  73.915 116.572  0.00  0.00    -0.047 C 
ATOM      6  C   LIG d   1      -5.913  75.104 116.952  0.00  0.00     0.091 C 
ENDROOT
BRANCH   1   7
ATOM      7  O   LIG d   1      -5.968  77.486 117.526  0.00  0.00    -0.368 OA
BRANCH   7   8
ATOM      8  C   LIG d   1      -6.592  77.862 118.779  0.00  0.00     0.119 C 
BRANCH   8   9
ATOM      9  C   LIG d   1      -6.451  79.389 118.925  0.00  0.00     0.028 C 
ATOM     10  C   LIG d   1      -7.157  80.155 117.793  0.00  0.00     0.006 C 
ENDBRANCH   8   9
BRANCH   8  11
ATOM     11  C   LIG d   1      -5.841  77.269 119.975  0.00  0.00     0.028 C 
ATOM     12  C   LIG d   1      -6.533  76.025 120.555  0.00  0.00     0.006 C 
ENDBRANCH   8  11
ENDBRANCH   7   8
ENDBRANCH   1   7
BRANCH   6  13
ATOM     13  N   LIG d   1      -4.668  75.146 116.141  0.00  0.00    -0.311 N 
ATOM     14  C   LIG d   1      -3.531  74.561 116.513  0.00  0.00     0.210 C 
ATOM     15  C   LIG d   1      -2.362  74.743 115.539  0.00  0.00     0.109 C 
ATOM     16  O   LIG d   1      -3.388  73.882 117.540  0.00  0.00    -0.276 OA
ATOM     17  H   LIG d   1      -4.704  75.650 115.276  0.00  0.00     0.149 HD
ENDBRANCH   6  13
BRANCH   5  18
ATOM     18  N   LIG d   1      -6.208  72.603 116.846  0.00  0.00     0.381 N 
ATOM     19  H   LIG d   1      -5.258  72.729 117.134  0.00  0.00    -0.090 HD
ATOM     20  H   LIG d   1      -6.212  72.059 116.001  0.00  0.00    -0.090 HD
ATOM     21  H   LIG d   1      -6.718  72.128 117.558  0.00  0.00    -0.090 HD
ENDBRANCH   5  18
BRANCH   3  22
ATOM     22  C   LIG d   1     -10.116  75.309 117.434  0.00  0.00     0.382 C 
ATOM     23  O   LIG d   1     -10.656  76.283 118.012  0.00  0.00    -0.241 OA
ATOM     24  O   LIG d   1     -10.825  74.376 117.010  0.00  0.00    -0.241 OA
ENDBRANCH   3  22
TORSDOF 7
ENDMDL
MODEL 8
REMARK VINA RESULT:      -4.7      2.164      4.353
REMARK  7 active torsions:
REMARK  status: ('A' for Active; 'I' for Inactive)
REMARK    1  A    between atoms: C_2  and  C_3 
REMARK    2  A    between atoms: C_3  and  O_6 
REMARK    3  A    between atoms: C_3  and  C_4 
REMARK    4  A    between atoms: C_7  and  O_6 
REMARK    5  A    between atoms: C_9  and  C_10 
REMARK    6  A    between atoms: N_15  and  C_14 
REMARK    7  A    between atoms: N_20  and  C_19 
REMARK       I    between atoms: C_22  and  N_20 
ROOT
ATOM      1  C   LIG d   1      -6.968  76.032 117.876  0.00  0.00     0.161 C 
ATOM      2  C   LIG d   1      -7.453  77.268 118.334  0.00  0.00     0.016 C 
ATOM      3  C   LIG d   1      -8.827  77.599 118.374  0.00  0.00     0.038 C 
ATOM      4  C   LIG d   1      -9.825  76.652 118.098  0.00  0.00     0.028 C 
ATOM      5  C   LIG d   1      -9.370  75.550 117.148  0.00  0.00    -0.047 C 
ATOM      6  C   LIG d   1      -8.048  74.948 117.676  0.00  0.00     0.091 C 
ENDROOT
BRANCH   1   7
ATOM      7  O   LIG d   1      -5.936  75.554 118.761  0.00  0.00    -0.368 OA
BRANCH   7   8
ATOM      8  C   LIG d   1      -4.627  76.153 118.596  0.00  0.00     0.119 C 
BRANCH   8   9
ATOM      9  C   LIG d   1      -3.988  75.530 117.339  0.00  0.00     0.028 C 
ATOM     10  C   LIG d   1      -3.896  73.997 117.426  0.00  0.00     0.006 C 
ENDBRANCH   8   9
BRANCH   8  11
ATOM     11  C   LIG d   1      -3.693  75.780 119.752  0.00  0.00     0.028 C 
ATOM     12  C   LIG d   1      -4.211  76.266 121.115  0.00  0.00     0.006 C 
ENDBRANCH   8  11
ENDBRANCH   7   8
ENDBRANCH   1   7
BRANCH   6  13
ATOM     13  N   LIG d   1      -7.488  73.919 116.761  0.00  0.00    -0.311 N 
ATOM     14  C   LIG d   1      -7.659  72.610 116.937  0.00  0.00     0.210 C 
ATOM     15  C   LIG d   1      -6.981  71.722 115.889  0.00  0.00     0.109 C 
ATOM     16  O   LIG d   1      -8.335  72.101 117.844  0.00  0.00    -0.276 OA
ATOM     17  H   LIG d   1      -6.952  74.246 115.981  0.00  0.00     0.149 HD
ENDBRANCH   6  13
BRANCH   5  18
ATOM     18  N   LIG d   1     -10.460  74.561 117.057  0.00  0.00     0.381 N 
ATOM     19  H   LIG d   1     -10.571  74.266 116.108  0.00  0.00    -0.090 HD
ATOM     20  H   LIG d   1     -11.317  74.993 117.356  0.00  0.00    -0.090 HD
ATOM     21  H   LIG d   1     -10.257  73.775 117.635  0.00  0.00    -0.090 HD
ENDBRANCH   5  18
BRANCH   3  22
ATOM     22  C   LIG d   1      -9.213  78.901 118.654  0.00  0.00     0.382 C 
ATOM     23  O   LIG d   1     -10.429  79.211 118.639  0.00  0.00    -0.241 OA
ATOM     24  O   LIG d   1      -8.358  79.779 118.878  0.00  0.00    -0.241 OA
ENDBRANCH   3  22
TORSDOF 7
ENDMDL
MODEL 9
REMARK VINA RESULT:      -4.7      2.247      5.506
REMARK  7 active torsions:
REMARK  status: ('A' for Active; 'I' for Inactive)
REMARK    1  A    between atoms: C_2  and  C_3 
REMARK    2  A    between atoms: C_3  and  O_6 
REMARK    3  A    between atoms: C_3  and  C_4 
REMARK    4  A    between atoms: C_7  and  O_6 
REMARK    5  A    between atoms: C_9  and  C_10 
REMARK    6  A    between atoms: N_15  and  C_14 
REMARK    7  A    between atoms: N_20  and  C_19 
REMARK       I    between atoms: C_22  and  N_20 
ROOT
ATOM      1  C   LIG d   1      -4.484  75.202 116.643  0.00  0.00     0.161 C 
ATOM      2  C   LIG d   1      -3.560  74.155 116.794  0.00  0.00     0.016 C 
ATOM      3  C   LIG d   1      -2.737  74.002 117.934  0.00  0.00     0.038 C 
ATOM      4  C   LIG d   1      -2.892  74.806 119.073  0.00  0.00     0.028 C 
ATOM      5  C   LIG d   1      -3.461  76.187 118.767  0.00  0.00    -0.047 C 
ATOM      6  C   LIG d   1      -4.745  76.024 117.922  0.00  0.00     0.091 C 
ENDROOT
BRANCH   1   7
ATOM      7  O   LIG d   1      -5.723  74.688 116.116  0.00  0.00    -0.368 OA
BRANCH   7   8
ATOM      8  C   LIG d   1      -6.324  73.595 116.853  0.00  0.00     0.119 C 
BRANCH   8   9
ATOM      9  C   LIG d   1      -6.481  72.411 115.879  0.00  0.00     0.028 C 
ATOM     10  C   LIG d   1      -7.619  71.461 116.290  0.00  0.00     0.006 C 
ENDBRANCH   8   9
BRANCH   8  11
ATOM     11  C   LIG d   1      -7.747  73.942 117.302  0.00  0.00     0.028 C 
ATOM     12  C   LIG d   1      -7.835  74.267 118.802  0.00  0.00     0.006 C 
ENDBRANCH   8  11
ENDBRANCH   7   8
ENDBRANCH   1   7
BRANCH   6  13
ATOM     13  N   LIG d   1      -5.321  77.331 117.508  0.00  0.00    -0.311 N 
ATOM     14  C   LIG d   1      -6.261  77.970 118.201  0.00  0.00     0.210 C 
ATOM     15  C   LIG d   1      -6.730  79.293 117.587  0.00  0.00     0.109 C 
ATOM     16  O   LIG d   1      -6.729  77.583 119.282  0.00  0.00    -0.276 OA
ATOM     17  H   LIG d   1      -4.976  77.732 116.658  0.00  0.00     0.149 HD
ENDBRANCH   6  13
BRANCH   5  18
ATOM     18  N   LIG d   1      -3.699  76.866 120.055  0.00  0.00     0.381 N 
ATOM     19  H   LIG d   1      -4.680  77.010 120.186  0.00  0.00    -0.090 HD
ATOM     20  H   LIG d   1      -3.249  77.764 120.037  0.00  0.00    -0.090 HD
ATOM     21  H   LIG d   1      -3.333  76.318 120.802  0.00  0.00    -0.090 HD
ENDBRANCH   5  18
BRANCH   3  22
ATOM     22  C   LIG d   1      -1.719  73.061 117.925  0.00  0.00     0.382 C 
ATOM     23  O   LIG d   1      -0.885  73.049 116.988  0.00  0.00    -0.241 OA
ATOM     24  O   LIG d   1      -1.650  72.197 118.819  0.00  0.00    -0.241 OA
ENDBRANCH   3  22
TORSDOF 7
ENDMDL
