MODEL 1
REMARK VINA RESULT:      -5.2      0.000      0.000
REMARK  7 active torsions:
REMARK  status: ('A' for Active; 'I' for Inactive)
REMARK    1  A    between atoms: C_2  and  C_3 
REMARK    2  A    between atoms: C_3  and  O_6 
REMARK    3  A    between atoms: C_3  and  C_4 
REMARK    4  A    between atoms: C_7  and  O_6 
REMARK    5  A    between atoms: C_9  and  C_10 
REMARK    6  A    between atoms: N_15  and  C_14 
REMARK    7  A    between atoms: N_20  and  C_19 
REMARK       I    between atoms: C_22  and  N_20 
ROOT
ATOM      1  C   LIG d   1      -3.528  90.485 117.613  0.00  0.00     0.161 C 
ATOM      2  C   LIG d   1      -4.497  90.232 116.628  0.00  0.00     0.016 C 
ATOM      3  C   LIG d   1      -5.543  91.131 116.317  0.00  0.00     0.038 C 
ATOM      4  C   LIG d   1      -5.602  92.419 116.868  0.00  0.00     0.028 C 
ATOM      5  C   LIG d   1      -4.936  92.524 118.236  0.00  0.00    -0.047 C 
ATOM      6  C   LIG d   1      -3.511  91.932 118.147  0.00  0.00     0.091 C 
ENDROOT
BRANCH   1   7
ATOM      7  O   LIG d   1      -2.224  90.117 117.121  0.00  0.00    -0.368 OA
BRANCH   7   8
ATOM      8  C   LIG d   1      -1.787  88.769 117.422  0.00  0.00     0.119 C 
BRANCH   8   9
ATOM      9  C   LIG d   1      -2.046  88.521 118.920  0.00  0.00     0.028 C 
ATOM     10  C   LIG d   1      -0.749  88.519 119.748  0.00  0.00     0.006 C 
ENDBRANCH   8   9
BRANCH   8  11
ATOM     11  C   LIG d   1      -0.273  88.621 117.242  0.00  0.00     0.028 C 
ATOM     12  C   LIG d   1       0.105  87.910 115.933  0.00  0.00     0.006 C 
ENDBRANCH   8  11
ENDBRANCH   7   8
ENDBRANCH   1   7
BRANCH   6  13
ATOM     13  N   LIG d   1      -2.819  91.919 119.462  0.00  0.00    -0.311 N 
ATOM     14  C   LIG d   1      -1.554  92.299 119.629  0.00  0.00     0.210 C 
ATOM     15  C   LIG d   1      -1.029  92.187 121.064  0.00  0.00     0.109 C 
ATOM     16  O   LIG d   1      -0.826  92.748 118.731  0.00  0.00    -0.276 OA
ATOM     17  H   LIG d   1      -3.346  91.598 120.251  0.00  0.00     0.149 HD
ENDBRANCH   6  13
BRANCH   5  18
ATOM     18  N   LIG d   1      -4.949  93.945 118.630  0.00  0.00     0.381 N 
ATOM     19  H   LIG d   1      -4.086  94.377 118.367  0.00  0.00    -0.090 HD
ATOM     20  H   LIG d   1      -5.039  94.005 119.629  0.00  0.00    -0.090 HD
ATOM     21  H   LIG d   1      -5.711  94.414 118.192  0.00  0.00    -0.090 HD
ENDBRANCH   5  18
BRANCH   3  22
ATOM     22  C   LIG d   1      -6.568  90.728 115.474  0.00  0.00     0.382 C 
ATOM     23  O   LIG d   1      -6.702  89.514 115.185  0.00  0.00    -0.241 OA
ATOM     24  O   LIG d   1      -7.332  91.567 114.962  0.00  0.00    -0.241 OA
ENDBRANCH   3  22
TORSDOF 7
ENDMDL
MODEL 2
REMARK VINA RESULT:      -5.2     12.421     13.899
REMARK  7 active torsions:
REMARK  status: ('A' for Active; 'I' for Inactive)
REMARK    1  A    between atoms: C_2  and  C_3 
REMARK    2  A    between atoms: C_3  and  O_6 
REMARK    3  A    between atoms: C_3  and  C_4 
REMARK    4  A    between atoms: C_7  and  O_6 
REMARK    5  A    between atoms: C_9  and  C_10 
REMARK    6  A    between atoms: N_15  and  C_14 
REMARK    7  A    between atoms: N_20  and  C_19 
REMARK       I    between atoms: C_22  and  N_20 
ROOT
ATOM      1  C   LIG d   1      -6.605  77.377 117.509  0.00  0.00     0.161 C 
ATOM      2  C   LIG d   1      -7.881  77.783 117.933  0.00  0.00     0.016 C 
ATOM      3  C   LIG d   1      -8.208  79.124 118.241  0.00  0.00     0.038 C 
ATOM      4  C   LIG d   1      -7.316  80.179 117.998  0.00  0.00     0.028 C 
ATOM      5  C   LIG d   1      -5.851  79.758 118.049  0.00  0.00    -0.047 C 
ATOM      6  C   LIG d   1      -5.650  78.529 117.133  0.00  0.00     0.091 C 
ENDROOT
BRANCH   1   7
ATOM      7  O   LIG d   1      -6.727  76.449 116.413  0.00  0.00    -0.368 OA
BRANCH   7   8
ATOM      8  C   LIG d   1      -6.333  75.082 116.688  0.00  0.00     0.119 C 
BRANCH   8   9
ATOM      9  C   LIG d   1      -5.475  74.600 115.502  0.00  0.00     0.028 C 
ATOM     10  C   LIG d   1      -3.972  74.594 115.828  0.00  0.00     0.006 C 
ENDBRANCH   8   9
BRANCH   8  11
ATOM     11  C   LIG d   1      -7.546  74.147 116.718  0.00  0.00     0.028 C 
ATOM     12  C   LIG d   1      -7.186  72.693 116.377  0.00  0.00     0.006 C 
ENDBRANCH   8  11
ENDBRANCH   7   8
ENDBRANCH   1   7
BRANCH   6  13
ATOM     13  N   LIG d   1      -4.263  78.000 117.189  0.00  0.00    -0.311 N 
ATOM     14  C   LIG d   1      -3.309  78.351 116.328  0.00  0.00     0.210 C 
ATOM     15  C   LIG d   1      -1.954  77.673 116.552  0.00  0.00     0.109 C 
ATOM     16  O   LIG d   1      -3.448  79.183 115.419  0.00  0.00    -0.276 OA
ATOM     17  H   LIG d   1      -4.054  77.343 117.915  0.00  0.00     0.149 HD
ENDBRANCH   6  13
BRANCH   5  18
ATOM     18  N   LIG d   1      -5.038  80.920 117.644  0.00  0.00     0.381 N 
ATOM     19  H   LIG d   1      -4.109  80.824 118.000  0.00  0.00    -0.090 HD
ATOM     20  H   LIG d   1      -5.443  81.752 118.036  0.00  0.00    -0.090 HD
ATOM     21  H   LIG d   1      -5.015  80.990 116.650  0.00  0.00    -0.090 HD
ENDBRANCH   5  18
BRANCH   3  22
ATOM     22  C   LIG d   1      -9.426  79.415 118.835  0.00  0.00     0.382 C 
ATOM     23  O   LIG d   1      -9.719  78.910 119.945  0.00  0.00    -0.241 OA
ATOM     24  O   LIG d   1     -10.255  80.141 118.253  0.00  0.00    -0.241 OA
ENDBRANCH   3  22
TORSDOF 7
ENDMDL
MODEL 3
REMARK VINA RESULT:      -5.2     14.112     15.758
REMARK  7 active torsions:
REMARK  status: ('A' for Active; 'I' for Inactive)
REMARK    1  A    between atoms: C_2  and  C_3 
REMARK    2  A    between atoms: C_3  and  O_6 
REMARK    3  A    between atoms: C_3  and  C_4 
REMARK    4  A    between atoms: C_7  and  O_6 
REMARK    5  A    between atoms: C_9  and  C_10 
REMARK    6  A    between atoms: N_15  and  C_14 
REMARK    7  A    between atoms: N_20  and  C_19 
REMARK       I    between atoms: C_22  and  N_20 
ROOT
ATOM      1  C   LIG d   1      -4.643  74.963 116.726  0.00  0.00     0.161 C 
ATOM      2  C   LIG d   1      -5.407  73.800 116.531  0.00  0.00     0.016 C 
ATOM      3  C   LIG d   1      -6.815  73.765 116.649  0.00  0.00     0.038 C 
ATOM      4  C   LIG d   1      -7.574  74.933 116.823  0.00  0.00     0.028 C 
ATOM      5  C   LIG d   1      -6.812  76.051 117.526  0.00  0.00    -0.047 C 
ATOM      6  C   LIG d   1      -5.462  76.268 116.806  0.00  0.00     0.091 C 
ENDROOT
BRANCH   1   7
ATOM      7  O   LIG d   1      -3.637  75.064 115.698  0.00  0.00    -0.368 OA
BRANCH   7   8
ATOM      8  C   LIG d   1      -2.273  75.233 116.156  0.00  0.00     0.119 C 
BRANCH   8   9
ATOM      9  C   LIG d   1      -1.557  76.151 115.146  0.00  0.00     0.028 C 
ATOM     10  C   LIG d   1      -0.580  77.124 115.828  0.00  0.00     0.006 C 
ENDBRANCH   8   9
BRANCH   8  11
ATOM     11  C   LIG d   1      -1.504  73.909 116.117  0.00  0.00     0.028 C 
ATOM     12  C   LIG d   1      -0.694  73.653 117.397  0.00  0.00     0.006 C 
ENDBRANCH   8  11
ENDBRANCH   7   8
ENDBRANCH   1   7
BRANCH   6  13
ATOM     13  N   LIG d   1      -4.617  77.288 117.480  0.00  0.00    -0.311 N 
ATOM     14  C   LIG d   1      -4.038  78.302 116.839  0.00  0.00     0.210 C 
ATOM     15  C   LIG d   1      -3.193  79.227 117.720  0.00  0.00     0.109 C 
ATOM     16  O   LIG d   1      -4.170  78.541 115.629  0.00  0.00    -0.276 OA
ATOM     17  H   LIG d   1      -4.482  77.188 118.467  0.00  0.00     0.149 HD
ENDBRANCH   6  13
BRANCH   5  18
ATOM     18  N   LIG d   1      -7.672  77.250 117.517  0.00  0.00     0.381 N 
ATOM     19  H   LIG d   1      -8.012  77.430 118.440  0.00  0.00    -0.090 HD
ATOM     20  H   LIG d   1      -8.460  77.080 116.918  0.00  0.00    -0.090 HD
ATOM     21  H   LIG d   1      -7.157  78.036 117.185  0.00  0.00    -0.090 HD
ENDBRANCH   5  18
BRANCH   3  22
ATOM     22  C   LIG d   1      -7.477  72.547 116.634  0.00  0.00     0.382 C 
ATOM     23  O   LIG d   1      -8.730  72.514 116.583  0.00  0.00    -0.241 OA
ATOM     24  O   LIG d   1      -6.838  71.480 116.716  0.00  0.00    -0.241 OA
ENDBRANCH   3  22
TORSDOF 7
ENDMDL
MODEL 4
REMARK VINA RESULT:      -5.1     13.821     15.868
REMARK  7 active torsions:
REMARK  status: ('A' for Active; 'I' for Inactive)
REMARK    1  A    between atoms: C_2  and  C_3 
REMARK    2  A    between atoms: C_3  and  O_6 
REMARK    3  A    between atoms: C_3  and  C_4 
REMARK    4  A    between atoms: C_7  and  O_6 
REMARK    5  A    between atoms: C_9  and  C_10 
REMARK    6  A    between atoms: N_15  and  C_14 
REMARK    7  A    between atoms: N_20  and  C_19 
REMARK       I    between atoms: C_22  and  N_20 
ROOT
ATOM      1  C   LIG d   1      -4.069  76.075 115.921  0.00  0.00     0.161 C 
ATOM      2  C   LIG d   1      -3.181  75.003 115.729  0.00  0.00     0.016 C 
ATOM      3  C   LIG d   1      -2.096  74.727 116.592  0.00  0.00     0.038 C 
ATOM      4  C   LIG d   1      -1.914  75.420 117.798  0.00  0.00     0.028 C 
ATOM      5  C   LIG d   1      -2.486  76.833 117.778  0.00  0.00    -0.047 C 
ATOM      6  C   LIG d   1      -3.952  76.774 117.291  0.00  0.00     0.091 C 
ENDROOT
BRANCH   1   7
ATOM      7  O   LIG d   1      -5.423  75.634 115.697  0.00  0.00    -0.368 OA
BRANCH   7   8
ATOM      8  C   LIG d   1      -5.929  74.637 116.618  0.00  0.00     0.119 C 
BRANCH   8   9
ATOM      9  C   LIG d   1      -6.502  73.479 115.777  0.00  0.00     0.028 C 
ATOM     10  C   LIG d   1      -7.179  72.404 116.644  0.00  0.00     0.006 C 
ENDBRANCH   8   9
BRANCH   8  11
ATOM     11  C   LIG d   1      -7.113  75.175 117.427  0.00  0.00     0.028 C 
ATOM     12  C   LIG d   1      -7.817  76.356 116.739  0.00  0.00     0.006 C 
ENDBRANCH   8  11
ENDBRANCH   7   8
ENDBRANCH   1   7
BRANCH   6  13
ATOM     13  N   LIG d   1      -4.561  78.123 117.161  0.00  0.00    -0.311 N 
ATOM     14  C   LIG d   1      -5.292  78.694 118.118  0.00  0.00     0.210 C 
ATOM     15  C   LIG d   1      -5.843  80.080 117.771  0.00  0.00     0.109 C 
ATOM     16  O   LIG d   1      -5.508  78.196 119.233  0.00  0.00    -0.276 OA
ATOM     17  H   LIG d   1      -4.409  78.611 116.300  0.00  0.00     0.149 HD
ENDBRANCH   6  13
BRANCH   5  18
ATOM     18  N   LIG d   1      -2.350  77.389 119.137  0.00  0.00     0.381 N 
ATOM     19  H   LIG d   1      -1.534  77.014 119.577  0.00  0.00    -0.090 HD
ATOM     20  H   LIG d   1      -3.152  77.121 119.680  0.00  0.00    -0.090 HD
ATOM     21  H   LIG d   1      -2.286  78.383 119.094  0.00  0.00    -0.090 HD
ENDBRANCH   5  18
BRANCH   3  22
ATOM     22  C   LIG d   1      -1.156  73.774 116.232  0.00  0.00     0.382 C 
ATOM     23  O   LIG d   1      -1.005  73.468 115.024  0.00  0.00    -0.241 OA
ATOM     24  O   LIG d   1      -0.487  73.185 117.102  0.00  0.00    -0.241 OA
ENDBRANCH   3  22
TORSDOF 7
ENDMDL
MODEL 5
REMARK VINA RESULT:      -5.1      2.209      4.233
REMARK  7 active torsions:
REMARK  status: ('A' for Active; 'I' for Inactive)
REMARK    1  A    between atoms: C_2  and  C_3 
REMARK    2  A    between atoms: C_3  and  O_6 
REMARK    3  A    between atoms: C_3  and  C_4 
REMARK    4  A    between atoms: C_7  and  O_6 
REMARK    5  A    between atoms: C_9  and  C_10 
REMARK    6  A    between atoms: N_15  and  C_14 
REMARK    7  A    between atoms: N_20  and  C_19 
REMARK       I    between atoms: C_22  and  N_20 
ROOT
ATOM      1  C   LIG d   1      -4.156  92.283 116.939  0.00  0.00     0.161 C 
ATOM      2  C   LIG d   1      -5.458  91.945 116.532  0.00  0.00     0.016 C 
ATOM      3  C   LIG d   1      -5.827  90.650 116.100  0.00  0.00     0.038 C 
ATOM      4  C   LIG d   1      -4.948  89.560 116.191  0.00  0.00     0.028 C 
ATOM      5  C   LIG d   1      -3.478  89.959 116.119  0.00  0.00    -0.047 C 
ATOM      6  C   LIG d   1      -3.212  91.080 117.150  0.00  0.00     0.091 C 
ENDROOT
BRANCH   1   7
ATOM      7  O   LIG d   1      -4.211  93.091 118.131  0.00  0.00    -0.368 OA
BRANCH   7   8
ATOM      8  C   LIG d   1      -5.153  92.667 119.146  0.00  0.00     0.119 C 
BRANCH   8   9
ATOM      9  C   LIG d   1      -5.845  93.930 119.693  0.00  0.00     0.028 C 
ATOM     10  C   LIG d   1      -7.077  94.331 118.864  0.00  0.00     0.006 C 
ENDBRANCH   8   9
BRANCH   8  11
ATOM     11  C   LIG d   1      -4.435  92.045 120.348  0.00  0.00     0.028 C 
ATOM     12  C   LIG d   1      -3.044  92.652 120.589  0.00  0.00     0.006 C 
ENDBRANCH   8  11
ENDBRANCH   7   8
ENDBRANCH   1   7
BRANCH   6  13
ATOM     13  N   LIG d   1      -1.817  91.588 117.087  0.00  0.00    -0.311 N 
ATOM     14  C   LIG d   1      -0.842  91.152 117.883  0.00  0.00     0.210 C 
ATOM     15  C   LIG d   1       0.519  91.822 117.666  0.00  0.00     0.109 C 
ATOM     16  O   LIG d   1      -0.966  90.250 118.725  0.00  0.00    -0.276 OA
ATOM     17  H   LIG d   1      -1.620  92.299 116.410  0.00  0.00     0.149 HD
ENDBRANCH   6  13
BRANCH   5  18
ATOM     18  N   LIG d   1      -2.675  88.747 116.363  0.00  0.00     0.381 N 
ATOM     19  H   LIG d   1      -2.452  88.678 117.336  0.00  0.00    -0.090 HD
ATOM     20  H   LIG d   1      -1.815  88.817 115.848  0.00  0.00    -0.090 HD
ATOM     21  H   LIG d   1      -3.180  87.939 116.073  0.00  0.00    -0.090 HD
ENDBRANCH   5  18
BRANCH   3  22
ATOM     22  C   LIG d   1      -7.076  90.444 115.534  0.00  0.00     0.382 C 
ATOM     23  O   LIG d   1      -7.676  89.359 115.718  0.00  0.00    -0.241 OA
ATOM     24  O   LIG d   1      -7.590  91.314 114.805  0.00  0.00    -0.241 OA
ENDBRANCH   3  22
TORSDOF 7
ENDMDL
MODEL 6
REMARK VINA RESULT:      -5.0     13.847     15.627
REMARK  7 active torsions:
REMARK  status: ('A' for Active; 'I' for Inactive)
REMARK    1  A    between atoms: C_2  and  C_3 
REMARK    2  A    between atoms: C_3  and  O_6 
REMARK    3  A    between atoms: C_3  and  C_4 
REMARK    4  A    between atoms: C_7  and  O_6 
REMARK    5  A    between atoms: C_9  and  C_10 
REMARK    6  A    between atoms: N_15  and  C_14 
REMARK    7  A    between atoms: N_20  and  C_19 
REMARK       I    between atoms: C_22  and  N_20 
ROOT
ATOM      1  C   LIG d   1      -6.822  76.226 116.949  0.00  0.00     0.161 C 
ATOM      2  C   LIG d   1      -7.519  75.008 117.015  0.00  0.00     0.016 C 
ATOM      3  C   LIG d   1      -6.922  73.755 116.746  0.00  0.00     0.038 C 
ATOM      4  C   LIG d   1      -5.541  73.620 116.540  0.00  0.00     0.028 C 
ATOM      5  C   LIG d   1      -4.889  74.874 115.966  0.00  0.00    -0.047 C 
ATOM      6  C   LIG d   1      -5.289  76.089 116.834  0.00  0.00     0.091 C 
ENDROOT
BRANCH   1   7
ATOM      7  O   LIG d   1      -7.168  77.049 118.081  0.00  0.00    -0.368 OA
BRANCH   7   8
ATOM      8  C   LIG d   1      -7.758  78.336 117.777  0.00  0.00     0.119 C 
BRANCH   8   9
ATOM      9  C   LIG d   1      -7.098  79.378 118.700  0.00  0.00     0.028 C 
ATOM     10  C   LIG d   1      -6.199  80.360 117.929  0.00  0.00     0.006 C 
ENDBRANCH   8   9
BRANCH   8  11
ATOM     11  C   LIG d   1      -9.248  78.364 118.133  0.00  0.00     0.028 C 
ATOM     12  C   LIG d   1      -9.718  79.744 118.619  0.00  0.00     0.006 C 
ENDBRANCH   8  11
ENDBRANCH   7   8
ENDBRANCH   1   7
BRANCH   6  13
ATOM     13  N   LIG d   1      -4.762  77.369 116.294  0.00  0.00    -0.311 N 
ATOM     14  C   LIG d   1      -3.607  77.908 116.681  0.00  0.00     0.210 C 
ATOM     15  C   LIG d   1      -3.261  79.243 116.013  0.00  0.00     0.109 C 
ATOM     16  O   LIG d   1      -2.822  77.392 117.490  0.00  0.00    -0.276 OA
ATOM     17  H   LIG d   1      -5.321  77.840 115.609  0.00  0.00     0.149 HD
ENDBRANCH   6  13
BRANCH   5  18
ATOM     18  N   LIG d   1      -3.433  74.643 115.931  0.00  0.00     0.381 N 
ATOM     19  H   LIG d   1      -3.179  73.972 116.629  0.00  0.00    -0.090 HD
ATOM     20  H   LIG d   1      -2.962  75.506 116.137  0.00  0.00    -0.090 HD
ATOM     21  H   LIG d   1      -3.161  74.314 115.031  0.00  0.00    -0.090 HD
ENDBRANCH   5  18
BRANCH   3  22
ATOM     22  C   LIG d   1      -7.717  72.623 116.643  0.00  0.00     0.382 C 
ATOM     23  O   LIG d   1      -8.964  72.738 116.573  0.00  0.00    -0.241 OA
ATOM     24  O   LIG d   1      -7.205  71.488 116.664  0.00  0.00    -0.241 OA
ENDBRANCH   3  22
TORSDOF 7
ENDMDL
MODEL 7
REMARK VINA RESULT:      -4.9      1.007      1.838
REMARK  7 active torsions:
REMARK  status: ('A' for Active; 'I' for Inactive)
REMARK    1  A    between atoms: C_2  and  C_3 
REMARK    2  A    between atoms: C_3  and  O_6 
REMARK    3  A    between atoms: C_3  and  C_4 
REMARK    4  A    between atoms: C_7  and  O_6 
REMARK    5  A    between atoms: C_9  and  C_10 
REMARK    6  A    between atoms: N_15  and  C_14 
REMARK    7  A    between atoms: N_20  and  C_19 
REMARK       I    between atoms: C_22  and  N_20 
ROOT
ATOM      1  C   LIG d   1      -3.385  90.964 117.564  0.00  0.00     0.161 C 
ATOM      2  C   LIG d   1      -4.244  90.532 116.539  0.00  0.00     0.016 C 
ATOM      3  C   LIG d   1      -5.432  91.210 116.181  0.00  0.00     0.038 C 
ATOM      4  C   LIG d   1      -5.766  92.458 116.726  0.00  0.00     0.028 C 
ATOM      5  C   LIG d   1      -5.192  92.684 118.121  0.00  0.00    -0.047 C 
ATOM      6  C   LIG d   1      -3.675  92.384 118.094  0.00  0.00     0.091 C 
ENDROOT
BRANCH   1   7
ATOM      7  O   LIG d   1      -2.015  90.862 117.129  0.00  0.00    -0.368 OA
BRANCH   7   8
ATOM      8  C   LIG d   1      -1.140  90.060 117.960  0.00  0.00     0.119 C 
BRANCH   8   9
ATOM      9  C   LIG d   1       0.120  89.741 117.133  0.00  0.00     0.028 C 
ATOM     10  C   LIG d   1       0.054  88.352 116.475  0.00  0.00     0.006 C 
ENDBRANCH   8   9
BRANCH   8  11
ATOM     11  C   LIG d   1      -1.769  88.701 118.281  0.00  0.00     0.028 C 
ATOM     12  C   LIG d   1      -1.644  88.323 119.766  0.00  0.00     0.006 C 
ENDBRANCH   8  11
ENDBRANCH   7   8
ENDBRANCH   1   7
BRANCH   6  13
ATOM     13  N   LIG d   1      -3.051  92.498 119.438  0.00  0.00    -0.311 N 
ATOM     14  C   LIG d   1      -2.469  93.610 119.883  0.00  0.00     0.210 C 
ATOM     15  C   LIG d   1      -1.870  93.508 121.289  0.00  0.00     0.109 C 
ATOM     16  O   LIG d   1      -2.419  94.681 119.260  0.00  0.00    -0.276 OA
ATOM     17  H   LIG d   1      -3.074  91.686 120.022  0.00  0.00     0.149 HD
ENDBRANCH   6  13
BRANCH   5  18
ATOM     18  N   LIG d   1      -5.500  94.072 118.511  0.00  0.00     0.381 N 
ATOM     19  H   LIG d   1      -6.422  94.313 118.205  0.00  0.00    -0.090 HD
ATOM     20  H   LIG d   1      -4.847  94.689 118.060  0.00  0.00    -0.090 HD
ATOM     21  H   LIG d   1      -5.433  94.172 119.500  0.00  0.00    -0.090 HD
ENDBRANCH   5  18
BRANCH   3  22
ATOM     22  C   LIG d   1      -6.320  90.618 115.296  0.00  0.00     0.382 C 
ATOM     23  O   LIG d   1      -7.403  91.189 115.019  0.00  0.00    -0.241 OA
ATOM     24  O   LIG d   1      -6.073  89.500 114.805  0.00  0.00    -0.241 OA
ENDBRANCH   3  22
TORSDOF 7
ENDMDL
MODEL 8
REMARK VINA RESULT:      -4.8     11.596     13.129
REMARK  7 active torsions:
REMARK  status: ('A' for Active; 'I' for Inactive)
REMARK    1  A    between atoms: C_2  and  C_3 
REMARK    2  A    between atoms: C_3  and  O_6 
REMARK    3  A    between atoms: C_3  and  C_4 
REMARK    4  A    between atoms: C_7  and  O_6 
REMARK    5  A    between atoms: C_9  and  C_10 
REMARK    6  A    between atoms: N_15  and  C_14 
REMARK    7  A    between atoms: N_20  and  C_19 
REMARK       I    between atoms: C_22  and  N_20 
ROOT
ATOM      1  C   LIG d   1      -5.304  78.123 117.111  0.00  0.00     0.161 C 
ATOM      2  C   LIG d   1      -5.446  76.820 116.605  0.00  0.00     0.016 C 
ATOM      3  C   LIG d   1      -6.675  76.121 116.591  0.00  0.00     0.038 C 
ATOM      4  C   LIG d   1      -7.883  76.738 116.946  0.00  0.00     0.028 C 
ATOM      5  C   LIG d   1      -7.710  77.884 117.937  0.00  0.00    -0.047 C 
ATOM      6  C   LIG d   1      -6.632  78.853 117.400  0.00  0.00     0.091 C 
ENDROOT
BRANCH   1   7
ATOM      7  O   LIG d   1      -4.485  78.906 116.220  0.00  0.00    -0.368 OA
BRANCH   7   8
ATOM      8  C   LIG d   1      -3.146  79.206 116.684  0.00  0.00     0.119 C 
BRANCH   8   9
ATOM      9  C   LIG d   1      -3.099  80.709 117.023  0.00  0.00     0.028 C 
ATOM     10  C   LIG d   1      -2.850  80.965 118.519  0.00  0.00     0.006 C 
ENDBRANCH   8   9
BRANCH   8  11
ATOM     11  C   LIG d   1      -2.113  79.010 115.570  0.00  0.00     0.028 C 
ATOM     12  C   LIG d   1      -1.329  77.696 115.709  0.00  0.00     0.006 C 
ENDBRANCH   8  11
ENDBRANCH   7   8
ENDBRANCH   1   7
BRANCH   6  13
ATOM     13  N   LIG d   1      -6.340  79.959 118.349  0.00  0.00    -0.311 N 
ATOM     14  C   LIG d   1      -6.846  81.185 118.225  0.00  0.00     0.210 C 
ATOM     15  C   LIG d   1      -6.401  82.180 119.301  0.00  0.00     0.109 C 
ATOM     16  O   LIG d   1      -7.647  81.533 117.344  0.00  0.00    -0.276 OA
ATOM     17  H   LIG d   1      -5.724  79.755 119.111  0.00  0.00     0.149 HD
ENDBRANCH   6  13
BRANCH   5  18
ATOM     18  N   LIG d   1      -9.027  78.525 118.113  0.00  0.00     0.381 N 
ATOM     19  H   LIG d   1      -9.597  77.967 118.717  0.00  0.00    -0.090 HD
ATOM     20  H   LIG d   1      -9.481  78.585 117.218  0.00  0.00    -0.090 HD
ATOM     21  H   LIG d   1      -8.914  79.436 118.498  0.00  0.00    -0.090 HD
ENDBRANCH   5  18
BRANCH   3  22
ATOM     22  C   LIG d   1      -6.696  74.775 116.256  0.00  0.00     0.382 C 
ATOM     23  O   LIG d   1      -7.489  73.997 116.839  0.00  0.00    -0.241 OA
ATOM     24  O   LIG d   1      -5.902  74.322 115.410  0.00  0.00    -0.241 OA
ENDBRANCH   3  22
TORSDOF 7
ENDMDL
MODEL 9
REMARK VINA RESULT:      -4.8      2.603      5.319
REMARK  7 active torsions:
REMARK  status: ('A' for Active; 'I' for Inactive)
REMARK    1  A    between atoms: C_2  and  C_3 
REMARK    2  A    between atoms: C_3  and  O_6 
REMARK    3  A    between atoms: C_3  and  C_4 
REMARK    4  A    between atoms: C_7  and  O_6 
REMARK    5  A    between atoms: C_9  and  C_10 
REMARK    6  A    between atoms: N_15  and  C_14 
REMARK    7  A    between atoms: N_20  and  C_19 
REMARK       I    between atoms: C_22  and  N_20 
ROOT
ATOM      1  C   LIG d   1      -1.799  92.309 118.267  0.00  0.00     0.161 C 
ATOM      2  C   LIG d   1      -0.404  92.410 118.135  0.00  0.00     0.016 C 
ATOM      3  C   LIG d   1       0.286  93.643 118.082  0.00  0.00     0.038 C 
ATOM      4  C   LIG d   1      -0.362  94.865 118.312  0.00  0.00     0.028 C 
ATOM      5  C   LIG d   1      -1.843  94.844 117.948  0.00  0.00    -0.047 C 
ATOM      6  C   LIG d   1      -2.510  93.629 118.632  0.00  0.00     0.091 C 
ENDROOT
BRANCH   1   7
ATOM      7  O   LIG d   1      -2.126  91.283 119.225  0.00  0.00    -0.368 OA
BRANCH   7   8
ATOM      8  C   LIG d   1      -2.848  90.137 118.710  0.00  0.00     0.119 C 
BRANCH   8   9
ATOM      9  C   LIG d   1      -1.908  88.920 118.797  0.00  0.00     0.028 C 
ATOM     10  C   LIG d   1      -1.167  88.655 117.475  0.00  0.00     0.006 C 
ENDBRANCH   8   9
BRANCH   8  11
ATOM     11  C   LIG d   1      -3.163  90.301 117.221  0.00  0.00     0.028 C 
ATOM     12  C   LIG d   1      -4.669  90.230 116.919  0.00  0.00     0.006 C 
ENDBRANCH   8  11
ENDBRANCH   7   8
ENDBRANCH   1   7
BRANCH   6  13
ATOM     13  N   LIG d   1      -3.942  93.485 118.260  0.00  0.00    -0.311 N 
ATOM     14  C   LIG d   1      -4.945  93.910 119.027  0.00  0.00     0.210 C 
ATOM     15  C   LIG d   1      -6.345  93.645 118.465  0.00  0.00     0.109 C 
ATOM     16  O   LIG d   1      -4.807  94.509 120.104  0.00  0.00    -0.276 OA
ATOM     17  H   LIG d   1      -4.144  93.038 117.387  0.00  0.00     0.149 HD
ENDBRANCH   6  13
BRANCH   5  18
ATOM     18  N   LIG d   1      -2.423  96.134 118.366  0.00  0.00     0.381 N 
ATOM     19  H   LIG d   1      -1.837  96.562 119.055  0.00  0.00    -0.090 HD
ATOM     20  H   LIG d   1      -3.324  95.966 118.778  0.00  0.00    -0.090 HD
ATOM     21  H   LIG d   1      -2.517  96.737 117.579  0.00  0.00    -0.090 HD
ENDBRANCH   5  18
BRANCH   3  22
ATOM     22  C   LIG d   1       1.634  93.663 117.757  0.00  0.00     0.382 C 
ATOM     23  O   LIG d   1       2.010  94.175 116.676  0.00  0.00    -0.241 OA
ATOM     24  O   LIG d   1       2.473  93.135 118.511  0.00  0.00    -0.241 OA
ENDBRANCH   3  22
TORSDOF 7
ENDMDL
