MODEL 1
REMARK VINA RESULT:      -5.5      0.000      0.000
REMARK  7 active torsions:
REMARK  status: ('A' for Active; 'I' for Inactive)
REMARK    1  A    between atoms: C_2  and  C_3 
REMARK    2  A    between atoms: C_3  and  O_6 
REMARK    3  A    between atoms: C_3  and  C_4 
REMARK    4  A    between atoms: C_7  and  O_6 
REMARK    5  A    between atoms: C_9  and  C_10 
REMARK    6  A    between atoms: N_15  and  C_14 
REMARK    7  A    between atoms: N_20  and  C_19 
REMARK       I    between atoms: C_22  and  N_20 
ROOT
ATOM      1  C   LIG d   1      -6.844  92.853 118.413  0.00  0.00     0.161 C 
ATOM      2  C   LIG d   1      -5.774  93.620 118.905  0.00  0.00     0.016 C 
ATOM      3  C   LIG d   1      -4.419  93.340 118.616  0.00  0.00     0.038 C 
ATOM      4  C   LIG d   1      -4.046  92.358 117.687  0.00  0.00     0.028 C 
ATOM      5  C   LIG d   1      -5.065  91.231 117.555  0.00  0.00    -0.047 C 
ATOM      6  C   LIG d   1      -6.462  91.845 117.308  0.00  0.00     0.091 C 
ENDROOT
BRANCH   1   7
ATOM      7  O   LIG d   1      -7.898  93.722 117.955  0.00  0.00    -0.368 OA
BRANCH   7   8
ATOM      8  C   LIG d   1      -7.851  95.088 118.434  0.00  0.00     0.119 C 
BRANCH   8   9
ATOM      9  C   LIG d   1      -8.953  95.244 119.500  0.00  0.00     0.028 C 
ATOM     10  C   LIG d   1      -8.424  95.863 120.805  0.00  0.00     0.006 C 
ENDBRANCH   8   9
BRANCH   8  11
ATOM     11  C   LIG d   1      -8.216  96.080 117.326  0.00  0.00     0.028 C 
ATOM     12  C   LIG d   1      -7.568  97.460 117.523  0.00  0.00     0.006 C 
ENDBRANCH   8  11
ENDBRANCH   7   8
ENDBRANCH   1   7
BRANCH   6  13
ATOM     13  N   LIG d   1      -7.532  90.815 117.250  0.00  0.00    -0.311 N 
ATOM     14  C   LIG d   1      -7.868  90.168 116.135  0.00  0.00     0.210 C 
ATOM     15  C   LIG d   1      -9.011  89.160 116.292  0.00  0.00     0.109 C 
ATOM     16  O   LIG d   1      -7.306  90.311 115.039  0.00  0.00    -0.276 OA
ATOM     17  H   LIG d   1      -8.018  90.614 118.102  0.00  0.00     0.149 HD
ENDBRANCH   6  13
BRANCH   5  18
ATOM     18  N   LIG d   1      -4.618  90.352 116.457  0.00  0.00     0.381 N 
ATOM     19  H   LIG d   1      -4.416  89.440 116.815  0.00  0.00    -0.090 HD
ATOM     20  H   LIG d   1      -3.775  90.729 116.062  0.00  0.00    -0.090 HD
ATOM     21  H   LIG d   1      -5.324  90.294 115.758  0.00  0.00    -0.090 HD
ENDBRANCH   5  18
BRANCH   3  22
ATOM     22  C   LIG d   1      -3.418  94.022 119.292  0.00  0.00     0.382 C 
ATOM     23  O   LIG d   1      -2.413  93.401 119.716  0.00  0.00    -0.241 OA
ATOM     24  O   LIG d   1      -3.528  95.241 119.521  0.00  0.00    -0.241 OA
ENDBRANCH   3  22
TORSDOF 7
ENDMDL
MODEL 2
REMARK VINA RESULT:      -5.3      2.749      6.584
REMARK  7 active torsions:
REMARK  status: ('A' for Active; 'I' for Inactive)
REMARK    1  A    between atoms: C_2  and  C_3 
REMARK    2  A    between atoms: C_3  and  O_6 
REMARK    3  A    between atoms: C_3  and  C_4 
REMARK    4  A    between atoms: C_7  and  O_6 
REMARK    5  A    between atoms: C_9  and  C_10 
REMARK    6  A    between atoms: N_15  and  C_14 
REMARK    7  A    between atoms: N_20  and  C_19 
REMARK       I    between atoms: C_22  and  N_20 
ROOT
ATOM      1  C   LIG d   1      -4.230  91.859 118.167  0.00  0.00     0.161 C 
ATOM      2  C   LIG d   1      -4.788  91.076 117.143  0.00  0.00     0.016 C 
ATOM      3  C   LIG d   1      -5.857  91.510 116.326  0.00  0.00     0.038 C 
ATOM      4  C   LIG d   1      -6.344  92.824 116.379  0.00  0.00     0.028 C 
ATOM      5  C   LIG d   1      -6.152  93.487 117.739  0.00  0.00    -0.047 C 
ATOM      6  C   LIG d   1      -4.675  93.336 118.166  0.00  0.00     0.091 C 
ENDROOT
BRANCH   1   7
ATOM      7  O   LIG d   1      -2.792  91.768 118.124  0.00  0.00    -0.368 OA
BRANCH   7   8
ATOM      8  C   LIG d   1      -2.243  90.442 117.929  0.00  0.00     0.119 C 
BRANCH   8   9
ATOM      9  C   LIG d   1      -2.200  89.752 119.306  0.00  0.00     0.028 C 
ATOM     10  C   LIG d   1      -2.950  88.409 119.314  0.00  0.00     0.006 C 
ENDBRANCH   8   9
BRANCH   8  11
ATOM     11  C   LIG d   1      -0.786  90.505 117.461  0.00  0.00     0.028 C 
ATOM     12  C   LIG d   1      -0.188  91.917 117.566  0.00  0.00     0.006 C 
ENDBRANCH   8  11
ENDBRANCH   7   8
ENDBRANCH   1   7
BRANCH   6  13
ATOM     13  N   LIG d   1      -4.419  93.884 119.524  0.00  0.00    -0.311 N 
ATOM     14  C   LIG d   1      -4.060  95.147 119.749  0.00  0.00     0.210 C 
ATOM     15  C   LIG d   1      -3.827  95.499 121.222  0.00  0.00     0.109 C 
ATOM     16  O   LIG d   1      -3.946  96.017 118.873  0.00  0.00    -0.276 OA
ATOM     17  H   LIG d   1      -4.519  93.255 120.296  0.00  0.00     0.149 HD
ENDBRANCH   6  13
BRANCH   5  18
ATOM     18  N   LIG d   1      -6.578  94.894 117.613  0.00  0.00     0.381 N 
ATOM     19  H   LIG d   1      -6.170  95.438 118.347  0.00  0.00    -0.090 HD
ATOM     20  H   LIG d   1      -7.577  94.941 117.703  0.00  0.00    -0.090 HD
ATOM     21  H   LIG d   1      -6.299  95.256 116.727  0.00  0.00    -0.090 HD
ENDBRANCH   5  18
BRANCH   3  22
ATOM     22  C   LIG d   1      -6.477  90.611 115.471  0.00  0.00     0.382 C 
ATOM     23  O   LIG d   1      -7.727  90.604 115.368  0.00  0.00    -0.241 OA
ATOM     24  O   LIG d   1      -5.804  89.779 114.833  0.00  0.00    -0.241 OA
ENDBRANCH   3  22
TORSDOF 7
ENDMDL
MODEL 3
REMARK VINA RESULT:      -5.3      2.734      6.553
REMARK  7 active torsions:
REMARK  status: ('A' for Active; 'I' for Inactive)
REMARK    1  A    between atoms: C_2  and  C_3 
REMARK    2  A    between atoms: C_3  and  O_6 
REMARK    3  A    between atoms: C_3  and  C_4 
REMARK    4  A    between atoms: C_7  and  O_6 
REMARK    5  A    between atoms: C_9  and  C_10 
REMARK    6  A    between atoms: N_15  and  C_14 
REMARK    7  A    between atoms: N_20  and  C_19 
REMARK       I    between atoms: C_22  and  N_20 
ROOT
ATOM      1  C   LIG d   1      -4.341  91.915 118.102  0.00  0.00     0.161 C 
ATOM      2  C   LIG d   1      -4.866  91.140 117.055  0.00  0.00     0.016 C 
ATOM      3  C   LIG d   1      -5.926  91.569 116.224  0.00  0.00     0.038 C 
ATOM      4  C   LIG d   1      -6.436  92.874 116.288  0.00  0.00     0.028 C 
ATOM      5  C   LIG d   1      -6.281  93.519 117.662  0.00  0.00    -0.047 C 
ATOM      6  C   LIG d   1      -4.810  93.386 118.115  0.00  0.00     0.091 C 
ENDROOT
BRANCH   1   7
ATOM      7  O   LIG d   1      -2.901  91.849 118.085  0.00  0.00    -0.368 OA
BRANCH   7   8
ATOM      8  C   LIG d   1      -2.304  90.770 118.845  0.00  0.00     0.119 C 
BRANCH   8   9
ATOM      9  C   LIG d   1      -1.308  91.399 119.838  0.00  0.00     0.028 C 
ATOM     10  C   LIG d   1      -1.095  92.901 119.583  0.00  0.00     0.006 C 
ENDBRANCH   8   9
BRANCH   8  11
ATOM     11  C   LIG d   1      -1.461  89.857 117.949  0.00  0.00     0.028 C 
ATOM     12  C   LIG d   1      -2.131  88.499 117.684  0.00  0.00     0.006 C 
ENDBRANCH   8  11
ENDBRANCH   7   8
ENDBRANCH   1   7
BRANCH   6  13
ATOM     13  N   LIG d   1      -4.589  93.916 119.486  0.00  0.00    -0.311 N 
ATOM     14  C   LIG d   1      -4.186  95.160 119.734  0.00  0.00     0.210 C 
ATOM     15  C   LIG d   1      -4.000  95.496 121.217  0.00  0.00     0.109 C 
ATOM     16  O   LIG d   1      -3.995  96.028 118.869  0.00  0.00    -0.276 OA
ATOM     17  H   LIG d   1      -4.750  93.288 120.249  0.00  0.00     0.149 HD
ENDBRANCH   6  13
BRANCH   5  18
ATOM     18  N   LIG d   1      -6.727  94.920 117.549  0.00  0.00     0.381 N 
ATOM     19  H   LIG d   1      -6.138  95.413 116.908  0.00  0.00    -0.090 HD
ATOM     20  H   LIG d   1      -6.650  95.359 118.450  0.00  0.00    -0.090 HD
ATOM     21  H   LIG d   1      -7.672  94.953 117.235  0.00  0.00    -0.090 HD
ENDBRANCH   5  18
BRANCH   3  22
ATOM     22  C   LIG d   1      -6.515  90.674 115.343  0.00  0.00     0.382 C 
ATOM     23  O   LIG d   1      -7.740  90.760 115.089  0.00  0.00    -0.241 OA
ATOM     24  O   LIG d   1      -5.845  89.756 114.834  0.00  0.00    -0.241 OA
ENDBRANCH   3  22
TORSDOF 7
ENDMDL
MODEL 4
REMARK VINA RESULT:      -5.2      2.234      4.857
REMARK  7 active torsions:
REMARK  status: ('A' for Active; 'I' for Inactive)
REMARK    1  A    between atoms: C_2  and  C_3 
REMARK    2  A    between atoms: C_3  and  O_6 
REMARK    3  A    between atoms: C_3  and  C_4 
REMARK    4  A    between atoms: C_7  and  O_6 
REMARK    5  A    between atoms: C_9  and  C_10 
REMARK    6  A    between atoms: N_15  and  C_14 
REMARK    7  A    between atoms: N_20  and  C_19 
REMARK       I    between atoms: C_22  and  N_20 
ROOT
ATOM      1  C   LIG d   1      -4.742  93.097 117.800  0.00  0.00     0.161 C 
ATOM      2  C   LIG d   1      -4.263  94.088 118.673  0.00  0.00     0.016 C 
ATOM      3  C   LIG d   1      -5.016  95.224 119.047  0.00  0.00     0.038 C 
ATOM      4  C   LIG d   1      -6.365  95.371 118.690  0.00  0.00     0.028 C 
ATOM      5  C   LIG d   1      -6.731  94.649 117.398  0.00  0.00    -0.047 C 
ATOM      6  C   LIG d   1      -6.251  93.183 117.489  0.00  0.00     0.091 C 
ENDROOT
BRANCH   1   7
ATOM      7  O   LIG d   1      -4.410  91.791 118.314  0.00  0.00    -0.368 OA
BRANCH   7   8
ATOM      8  C   LIG d   1      -3.213  91.179 117.774  0.00  0.00     0.119 C 
BRANCH   8   9
ATOM      9  C   LIG d   1      -3.573  89.737 117.368  0.00  0.00     0.028 C 
ATOM     10  C   LIG d   1      -2.521  88.717 117.835  0.00  0.00     0.006 C 
ENDBRANCH   8   9
BRANCH   8  11
ATOM     11  C   LIG d   1      -2.126  91.041 118.844  0.00  0.00     0.028 C 
ATOM     12  C   LIG d   1      -0.979  92.047 118.661  0.00  0.00     0.006 C 
ENDBRANCH   8  11
ENDBRANCH   7   8
ENDBRANCH   1   7
BRANCH   6  13
ATOM     13  N   LIG d   1      -6.495  92.428 116.232  0.00  0.00    -0.311 N 
ATOM     14  C   LIG d   1      -6.890  91.156 116.206  0.00  0.00     0.210 C 
ATOM     15  C   LIG d   1      -7.064  90.562 114.805  0.00  0.00     0.109 C 
ATOM     16  O   LIG d   1      -7.145  90.474 117.210  0.00  0.00    -0.276 OA
ATOM     17  H   LIG d   1      -6.342  92.914 115.371  0.00  0.00     0.149 HD
ENDBRANCH   6  13
BRANCH   5  18
ATOM     18  N   LIG d   1      -8.190  94.770 117.219  0.00  0.00     0.381 N 
ATOM     19  H   LIG d   1      -8.662  94.389 118.015  0.00  0.00    -0.090 HD
ATOM     20  H   LIG d   1      -8.463  94.241 116.409  0.00  0.00    -0.090 HD
ATOM     21  H   LIG d   1      -8.442  95.726 117.100  0.00  0.00    -0.090 HD
ENDBRANCH   5  18
BRANCH   3  22
ATOM     22  C   LIG d   1      -4.407  96.250 119.755  0.00  0.00     0.382 C 
ATOM     23  O   LIG d   1      -3.631  97.042 119.167  0.00  0.00    -0.241 OA
ATOM     24  O   LIG d   1      -4.588  96.365 120.982  0.00  0.00    -0.241 OA
ENDBRANCH   3  22
TORSDOF 7
ENDMDL
MODEL 5
REMARK VINA RESULT:      -5.1      3.240      7.128
REMARK  7 active torsions:
REMARK  status: ('A' for Active; 'I' for Inactive)
REMARK    1  A    between atoms: C_2  and  C_3 
REMARK    2  A    between atoms: C_3  and  O_6 
REMARK    3  A    between atoms: C_3  and  C_4 
REMARK    4  A    between atoms: C_7  and  O_6 
REMARK    5  A    between atoms: C_9  and  C_10 
REMARK    6  A    between atoms: N_15  and  C_14 
REMARK    7  A    between atoms: N_20  and  C_19 
REMARK       I    between atoms: C_22  and  N_20 
ROOT
ATOM      1  C   LIG d   1      -3.864  90.581 117.696  0.00  0.00     0.161 C 
ATOM      2  C   LIG d   1      -4.915  90.326 116.800  0.00  0.00     0.016 C 
ATOM      3  C   LIG d   1      -5.839  91.312 116.383  0.00  0.00     0.038 C 
ATOM      4  C   LIG d   1      -5.681  92.665 116.719  0.00  0.00     0.028 C 
ATOM      5  C   LIG d   1      -4.928  92.880 118.028  0.00  0.00    -0.047 C 
ATOM      6  C   LIG d   1      -3.609  92.075 117.986  0.00  0.00     0.091 C 
ENDROOT
BRANCH   1   7
ATOM      7  O   LIG d   1      -2.657  89.949 117.226  0.00  0.00    -0.368 OA
BRANCH   7   8
ATOM      8  C   LIG d   1      -2.357  88.648 117.788  0.00  0.00     0.119 C 
BRANCH   8   9
ATOM      9  C   LIG d   1      -2.953  88.610 119.209  0.00  0.00     0.028 C 
ATOM     10  C   LIG d   1      -1.868  88.558 120.299  0.00  0.00     0.006 C 
ENDBRANCH   8   9
BRANCH   8  11
ATOM     11  C   LIG d   1      -0.849  88.456 117.975  0.00  0.00     0.028 C 
ATOM     12  C   LIG d   1      -0.272  87.357 117.069  0.00  0.00     0.006 C 
ENDBRANCH   8  11
ENDBRANCH   7   8
ENDBRANCH   1   7
BRANCH   6  13
ATOM     13  N   LIG d   1      -2.851  92.162 119.262  0.00  0.00    -0.311 N 
ATOM     14  C   LIG d   1      -1.525  92.271 119.320  0.00  0.00     0.210 C 
ATOM     15  C   LIG d   1      -0.942  92.327 120.736  0.00  0.00     0.109 C 
ATOM     16  O   LIG d   1      -0.778  92.359 118.334  0.00  0.00    -0.276 OA
ATOM     17  H   LIG d   1      -3.381  92.130 120.110  0.00  0.00     0.149 HD
ENDBRANCH   6  13
BRANCH   5  18
ATOM     18  N   LIG d   1      -4.714  94.331 118.186  0.00  0.00     0.381 N 
ATOM     19  H   LIG d   1      -5.150  94.648 119.029  0.00  0.00    -0.090 HD
ATOM     20  H   LIG d   1      -5.141  94.809 117.411  0.00  0.00    -0.090 HD
ATOM     21  H   LIG d   1      -3.739  94.531 118.212  0.00  0.00    -0.090 HD
ENDBRANCH   5  18
BRANCH   3  22
ATOM     22  C   LIG d   1      -6.958  90.941 115.654  0.00  0.00     0.382 C 
ATOM     23  O   LIG d   1      -7.445  91.730 114.809  0.00  0.00    -0.241 OA
ATOM     24  O   LIG d   1      -7.512  89.845 115.860  0.00  0.00    -0.241 OA
ENDBRANCH   3  22
TORSDOF 7
ENDMDL
MODEL 6
REMARK VINA RESULT:      -5.0      2.481      5.228
REMARK  7 active torsions:
REMARK  status: ('A' for Active; 'I' for Inactive)
REMARK    1  A    between atoms: C_2  and  C_3 
REMARK    2  A    between atoms: C_3  and  O_6 
REMARK    3  A    between atoms: C_3  and  C_4 
REMARK    4  A    between atoms: C_7  and  O_6 
REMARK    5  A    between atoms: C_9  and  C_10 
REMARK    6  A    between atoms: N_15  and  C_14 
REMARK    7  A    between atoms: N_20  and  C_19 
REMARK       I    between atoms: C_22  and  N_20 
ROOT
ATOM      1  C   LIG d   1      -3.994  92.085 118.346  0.00  0.00     0.161 C 
ATOM      2  C   LIG d   1      -4.925  93.137 118.350  0.00  0.00     0.016 C 
ATOM      3  C   LIG d   1      -6.039  93.194 117.481  0.00  0.00     0.038 C 
ATOM      4  C   LIG d   1      -6.384  92.121 116.646  0.00  0.00     0.028 C 
ATOM      5  C   LIG d   1      -5.192  91.258 116.246  0.00  0.00    -0.047 C 
ATOM      6  C   LIG d   1      -4.416  90.852 117.519  0.00  0.00     0.091 C 
ENDROOT
BRANCH   1   7
ATOM      7  O   LIG d   1      -3.687  91.698 119.700  0.00  0.00    -0.368 OA
BRANCH   7   8
ATOM      8  C   LIG d   1      -2.336  91.967 120.149  0.00  0.00     0.119 C 
BRANCH   8   9
ATOM      9  C   LIG d   1      -2.418  93.057 121.236  0.00  0.00     0.028 C 
ATOM     10  C   LIG d   1      -1.965  94.434 120.722  0.00  0.00     0.006 C 
ENDBRANCH   8   9
BRANCH   8  11
ATOM     11  C   LIG d   1      -1.488  92.575 119.028  0.00  0.00     0.028 C 
ATOM     12  C   LIG d   1      -0.243  91.735 118.701  0.00  0.00     0.006 C 
ENDBRANCH   8  11
ENDBRANCH   7   8
ENDBRANCH   1   7
BRANCH   6  13
ATOM     13  N   LIG d   1      -3.187  90.076 117.211  0.00  0.00    -0.311 N 
ATOM     14  C   LIG d   1      -2.790  89.019 117.918  0.00  0.00     0.210 C 
ATOM     15  C   LIG d   1      -1.484  88.376 117.442  0.00  0.00     0.109 C 
ATOM     16  O   LIG d   1      -3.413  88.534 118.875  0.00  0.00    -0.276 OA
ATOM     17  H   LIG d   1      -2.638  90.381 116.431  0.00  0.00     0.149 HD
ENDBRANCH   6  13
BRANCH   5  18
ATOM     18  N   LIG d   1      -5.713  90.102 115.492  0.00  0.00     0.381 N 
ATOM     19  H   LIG d   1      -4.994  89.729 114.904  0.00  0.00    -0.090 HD
ATOM     20  H   LIG d   1      -6.471  90.409 114.908  0.00  0.00    -0.090 HD
ATOM     21  H   LIG d   1      -6.033  89.400 116.123  0.00  0.00    -0.090 HD
ENDBRANCH   5  18
BRANCH   3  22
ATOM     22  C   LIG d   1      -6.798  94.352 117.413  0.00  0.00     0.382 C 
ATOM     23  O   LIG d   1      -6.716  95.211 118.325  0.00  0.00    -0.241 OA
ATOM     24  O   LIG d   1      -7.598  94.529 116.475  0.00  0.00    -0.241 OA
ENDBRANCH   3  22
TORSDOF 7
ENDMDL
MODEL 7
REMARK VINA RESULT:      -4.9      1.956      4.643
REMARK  7 active torsions:
REMARK  status: ('A' for Active; 'I' for Inactive)
REMARK    1  A    between atoms: C_2  and  C_3 
REMARK    2  A    between atoms: C_3  and  O_6 
REMARK    3  A    between atoms: C_3  and  C_4 
REMARK    4  A    between atoms: C_7  and  O_6 
REMARK    5  A    between atoms: C_9  and  C_10 
REMARK    6  A    between atoms: N_15  and  C_14 
REMARK    7  A    between atoms: N_20  and  C_19 
REMARK       I    between atoms: C_22  and  N_20 
ROOT
ATOM      1  C   LIG d   1      -5.678  93.548 117.665  0.00  0.00     0.161 C 
ATOM      2  C   LIG d   1      -6.295  92.737 116.698  0.00  0.00     0.016 C 
ATOM      3  C   LIG d   1      -5.857  91.430 116.383  0.00  0.00     0.038 C 
ATOM      4  C   LIG d   1      -4.857  90.784 117.126  0.00  0.00     0.028 C 
ATOM      5  C   LIG d   1      -3.869  91.746 117.775  0.00  0.00    -0.047 C 
ATOM      6  C   LIG d   1      -4.656  92.819 118.562  0.00  0.00     0.091 C 
ENDROOT
BRANCH   1   7
ATOM      7  O   LIG d   1      -6.681  94.196 118.472  0.00  0.00    -0.368 OA
BRANCH   7   8
ATOM      8  C   LIG d   1      -6.751  95.639 118.363  0.00  0.00     0.119 C 
BRANCH   8   9
ATOM      9  C   LIG d   1      -7.070  96.194 119.765  0.00  0.00     0.028 C 
ATOM     10  C   LIG d   1      -7.080  95.096 120.842  0.00  0.00     0.006 C 
ENDBRANCH   8   9
BRANCH   8  11
ATOM     11  C   LIG d   1      -7.922  96.075 117.478  0.00  0.00     0.028 C 
ATOM     12  C   LIG d   1      -7.990  97.598 117.286  0.00  0.00     0.006 C 
ENDBRANCH   8  11
ENDBRANCH   7   8
ENDBRANCH   1   7
BRANCH   6  13
ATOM     13  N   LIG d   1      -3.767  93.849 119.160  0.00  0.00    -0.311 N 
ATOM     14  C   LIG d   1      -3.574  93.980 120.471  0.00  0.00     0.210 C 
ATOM     15  C   LIG d   1      -2.634  95.120 120.877  0.00  0.00     0.109 C 
ATOM     16  O   LIG d   1      -4.067  93.240 121.336  0.00  0.00    -0.276 OA
ATOM     17  H   LIG d   1      -3.303  94.473 118.529  0.00  0.00     0.149 HD
ENDBRANCH   6  13
BRANCH   5  18
ATOM     18  N   LIG d   1      -2.966  90.950 118.628  0.00  0.00     0.381 N 
ATOM     19  H   LIG d   1      -2.602  90.177 118.107  0.00  0.00    -0.090 HD
ATOM     20  H   LIG d   1      -3.490  90.587 119.405  0.00  0.00    -0.090 HD
ATOM     21  H   LIG d   1      -2.218  91.519 118.958  0.00  0.00    -0.090 HD
ENDBRANCH   5  18
BRANCH   3  22
ATOM     22  C   LIG d   1      -6.394  90.770 115.288  0.00  0.00     0.382 C 
ATOM     23  O   LIG d   1      -7.489  91.146 114.805  0.00  0.00    -0.241 OA
ATOM     24  O   LIG d   1      -5.820  89.776 114.805  0.00  0.00    -0.241 OA
ENDBRANCH   3  22
TORSDOF 7
ENDMDL
MODEL 8
REMARK VINA RESULT:      -4.8      2.693      5.164
REMARK  7 active torsions:
REMARK  status: ('A' for Active; 'I' for Inactive)
REMARK    1  A    between atoms: C_2  and  C_3 
REMARK    2  A    between atoms: C_3  and  O_6 
REMARK    3  A    between atoms: C_3  and  C_4 
REMARK    4  A    between atoms: C_7  and  O_6 
REMARK    5  A    between atoms: C_9  and  C_10 
REMARK    6  A    between atoms: N_15  and  C_14 
REMARK    7  A    between atoms: N_20  and  C_19 
REMARK       I    between atoms: C_22  and  N_20 
ROOT
ATOM      1  C   LIG d   1      -4.273  92.836 117.957  0.00  0.00     0.161 C 
ATOM      2  C   LIG d   1      -5.375  92.878 117.087  0.00  0.00     0.016 C 
ATOM      3  C   LIG d   1      -5.792  91.775 116.306  0.00  0.00     0.038 C 
ATOM      4  C   LIG d   1      -5.222  90.502 116.457  0.00  0.00     0.028 C 
ATOM      5  C   LIG d   1      -3.781  90.538 116.954  0.00  0.00    -0.047 C 
ATOM      6  C   LIG d   1      -3.708  91.424 118.218  0.00  0.00     0.091 C 
ENDROOT
BRANCH   1   7
ATOM      7  O   LIG d   1      -4.609  93.479 119.202  0.00  0.00    -0.368 OA
BRANCH   7   8
ATOM      8  C   LIG d   1      -3.955  94.745 119.463  0.00  0.00     0.119 C 
BRANCH   8   9
ATOM      9  C   LIG d   1      -3.556  94.763 120.951  0.00  0.00     0.028 C 
ATOM     10  C   LIG d   1      -2.039  94.920 121.151  0.00  0.00     0.006 C 
ENDBRANCH   8   9
BRANCH   8  11
ATOM     11  C   LIG d   1      -4.923  95.919 119.289  0.00  0.00     0.028 C 
ATOM     12  C   LIG d   1      -4.204  97.272 119.167  0.00  0.00     0.006 C 
ENDBRANCH   8  11
ENDBRANCH   7   8
ENDBRANCH   1   7
BRANCH   6  13
ATOM     13  N   LIG d   1      -2.318  91.582 118.721  0.00  0.00    -0.311 N 
ATOM     14  C   LIG d   1      -1.968  91.368 119.988  0.00  0.00     0.210 C 
ATOM     15  C   LIG d   1      -0.488  91.607 120.299  0.00  0.00     0.109 C 
ATOM     16  O   LIG d   1      -2.737  90.973 120.877  0.00  0.00    -0.276 OA
ATOM     17  H   LIG d   1      -1.624  91.869 118.059  0.00  0.00     0.149 HD
ENDBRANCH   6  13
BRANCH   5  18
ATOM     18  N   LIG d   1      -3.359  89.146 117.198  0.00  0.00     0.381 N 
ATOM     19  H   LIG d   1      -3.397  88.626 116.344  0.00  0.00    -0.090 HD
ATOM     20  H   LIG d   1      -3.993  88.724 117.853  0.00  0.00    -0.090 HD
ATOM     21  H   LIG d   1      -2.432  89.130 117.564  0.00  0.00    -0.090 HD
ENDBRANCH   5  18
BRANCH   3  22
ATOM     22  C   LIG d   1      -6.763  91.951 115.332  0.00  0.00     0.382 C 
ATOM     23  O   LIG d   1      -6.941  93.083 114.821  0.00  0.00    -0.241 OA
ATOM     24  O   LIG d   1      -7.494  91.002 114.990  0.00  0.00    -0.241 OA
ENDBRANCH   3  22
TORSDOF 7
ENDMDL
MODEL 9
REMARK VINA RESULT:      -4.7      2.155      5.231
REMARK  7 active torsions:
REMARK  status: ('A' for Active; 'I' for Inactive)
REMARK    1  A    between atoms: C_2  and  C_3 
REMARK    2  A    between atoms: C_3  and  O_6 
REMARK    3  A    between atoms: C_3  and  C_4 
REMARK    4  A    between atoms: C_7  and  O_6 
REMARK    5  A    between atoms: C_9  and  C_10 
REMARK    6  A    between atoms: N_15  and  C_14 
REMARK    7  A    between atoms: N_20  and  C_19 
REMARK       I    between atoms: C_22  and  N_20 
ROOT
ATOM      1  C   LIG d   1      -4.293  92.851 117.692  0.00  0.00     0.161 C 
ATOM      2  C   LIG d   1      -5.490  92.449 117.078  0.00  0.00     0.016 C 
ATOM      3  C   LIG d   1      -5.724  91.135 116.613  0.00  0.00     0.038 C 
ATOM      4  C   LIG d   1      -4.826  90.087 116.869  0.00  0.00     0.028 C 
ATOM      5  C   LIG d   1      -3.384  90.553 117.039  0.00  0.00    -0.047 C 
ATOM      6  C   LIG d   1      -3.346  91.696 118.080  0.00  0.00     0.091 C 
ENDROOT
BRANCH   1   7
ATOM      7  O   LIG d   1      -4.584  93.668 118.844  0.00  0.00    -0.368 OA
BRANCH   7   8
ATOM      8  C   LIG d   1      -5.987  93.879 119.136  0.00  0.00     0.119 C 
BRANCH   8   9
ATOM      9  C   LIG d   1      -6.259  95.392 119.030  0.00  0.00     0.028 C 
ATOM     10  C   LIG d   1      -7.230  95.735 117.888  0.00  0.00     0.006 C 
ENDBRANCH   8   9
BRANCH   8  11
ATOM     11  C   LIG d   1      -6.316  93.509 120.586  0.00  0.00     0.028 C 
ATOM     12  C   LIG d   1      -6.053  92.027 120.896  0.00  0.00     0.006 C 
ENDBRANCH   8  11
ENDBRANCH   7   8
ENDBRANCH   1   7
BRANCH   6  13
ATOM     13  N   LIG d   1      -1.984  92.267 118.244  0.00  0.00    -0.311 N 
ATOM     14  C   LIG d   1      -1.373  92.379 119.423  0.00  0.00     0.210 C 
ATOM     15  C   LIG d   1       0.020  93.014 119.372  0.00  0.00     0.109 C 
ATOM     16  O   LIG d   1      -1.840  91.984 120.502  0.00  0.00    -0.276 OA
ATOM     17  H   LIG d   1      -1.519  92.584 117.416  0.00  0.00     0.149 HD
ENDBRANCH   6  13
BRANCH   5  18
ATOM     18  N   LIG d   1      -2.581  89.382 117.436  0.00  0.00     0.381 N 
ATOM     19  H   LIG d   1      -3.110  88.544 117.293  0.00  0.00    -0.090 HD
ATOM     20  H   LIG d   1      -2.363  89.454 118.414  0.00  0.00    -0.090 HD
ATOM     21  H   LIG d   1      -1.741  89.348 116.902  0.00  0.00    -0.090 HD
ENDBRANCH   5  18
BRANCH   3  22
ATOM     22  C   LIG d   1      -6.849  90.866 115.848  0.00  0.00     0.382 C 
ATOM     23  O   LIG d   1      -7.268  91.719 115.029  0.00  0.00    -0.241 OA
ATOM     24  O   LIG d   1      -7.475  89.800 115.998  0.00  0.00    -0.241 OA
ENDBRANCH   3  22
TORSDOF 7
ENDMDL
