MODEL 1
REMARK VINA RESULT:      -5.4      0.000      0.000
REMARK  7 active torsions:
REMARK  status: ('A' for Active; 'I' for Inactive)
REMARK    1  A    between atoms: C_2  and  C_3 
REMARK    2  A    between atoms: C_3  and  O_6 
REMARK    3  A    between atoms: C_3  and  C_4 
REMARK    4  A    between atoms: C_7  and  O_6 
REMARK    5  A    between atoms: C_9  and  C_10 
REMARK    6  A    between atoms: N_15  and  C_14 
REMARK    7  A    between atoms: N_20  and  C_19 
REMARK       I    between atoms: C_22  and  N_20 
ROOT
ATOM      1  C   LIG d   1      -4.107  91.783 117.455  0.00  0.00     0.161 C 
ATOM      2  C   LIG d   1      -5.364  92.376 117.250  0.00  0.00     0.016 C 
ATOM      3  C   LIG d   1      -6.308  91.895 116.313  0.00  0.00     0.038 C 
ATOM      4  C   LIG d   1      -6.117  90.691 115.620  0.00  0.00     0.028 C 
ATOM      5  C   LIG d   1      -4.648  90.331 115.424  0.00  0.00    -0.047 C 
ATOM      6  C   LIG d   1      -3.927  90.403 116.789  0.00  0.00     0.091 C 
ENDROOT
BRANCH   1   7
ATOM      7  O   LIG d   1      -3.833  91.697 118.868  0.00  0.00    -0.368 OA
BRANCH   7   8
ATOM      8  C   LIG d   1      -2.741  92.515 119.356  0.00  0.00     0.119 C 
BRANCH   8   9
ATOM      9  C   LIG d   1      -3.345  93.587 120.283  0.00  0.00     0.028 C 
ATOM     10  C   LIG d   1      -3.623  94.909 119.549  0.00  0.00     0.006 C 
ENDBRANCH   8   9
BRANCH   8  11
ATOM     11  C   LIG d   1      -2.075  93.292 118.217  0.00  0.00     0.028 C 
ATOM     12  C   LIG d   1      -0.552  93.094 118.170  0.00  0.00     0.006 C 
ENDBRANCH   8  11
ENDBRANCH   7   8
ENDBRANCH   1   7
BRANCH   6  13
ATOM     13  N   LIG d   1      -2.467  90.147 116.673  0.00  0.00    -0.311 N 
ATOM     14  C   LIG d   1      -1.817  89.260 117.424  0.00  0.00     0.210 C 
ATOM     15  C   LIG d   1      -0.311  89.167 117.157  0.00  0.00     0.109 C 
ATOM     16  O   LIG d   1      -2.349  88.519 118.264  0.00  0.00    -0.276 OA
ATOM     17  H   LIG d   1      -1.963  90.682 115.994  0.00  0.00     0.149 HD
ENDBRANCH   6  13
BRANCH   5  18
ATOM     18  N   LIG d   1      -4.596  88.989 114.812  0.00  0.00     0.381 N 
ATOM     19  H   LIG d   1      -3.679  88.604 114.919  0.00  0.00    -0.090 HD
ATOM     20  H   LIG d   1      -4.791  89.072 113.830  0.00  0.00    -0.090 HD
ATOM     21  H   LIG d   1      -5.268  88.392 115.242  0.00  0.00    -0.090 HD
ENDBRANCH   5  18
BRANCH   3  22
ATOM     22  C   LIG d   1      -7.440  92.645 116.032  0.00  0.00     0.382 C 
ATOM     23  O   LIG d   1      -7.795  93.561 116.812  0.00  0.00    -0.241 OA
ATOM     24  O   LIG d   1      -8.135  92.387 115.031  0.00  0.00    -0.241 OA
ENDBRANCH   3  22
TORSDOF 7
ENDMDL
MODEL 2
REMARK VINA RESULT:      -5.3      2.785      5.263
REMARK  7 active torsions:
REMARK  status: ('A' for Active; 'I' for Inactive)
REMARK    1  A    between atoms: C_2  and  C_3 
REMARK    2  A    between atoms: C_3  and  O_6 
REMARK    3  A    between atoms: C_3  and  C_4 
REMARK    4  A    between atoms: C_7  and  O_6 
REMARK    5  A    between atoms: C_9  and  C_10 
REMARK    6  A    between atoms: N_15  and  C_14 
REMARK    7  A    between atoms: N_20  and  C_19 
REMARK       I    between atoms: C_22  and  N_20 
ROOT
ATOM      1  C   LIG d   1      -6.391  92.474 118.360  0.00  0.00     0.161 C 
ATOM      2  C   LIG d   1      -5.231  93.187 118.704  0.00  0.00     0.016 C 
ATOM      3  C   LIG d   1      -3.955  92.904 118.165  0.00  0.00     0.038 C 
ATOM      4  C   LIG d   1      -3.778  91.980 117.124  0.00  0.00     0.028 C 
ATOM      5  C   LIG d   1      -4.837  90.882 117.103  0.00  0.00    -0.047 C 
ATOM      6  C   LIG d   1      -6.238  91.536 117.145  0.00  0.00     0.091 C 
ENDROOT
BRANCH   1   7
ATOM      7  O   LIG d   1      -7.484  93.390 118.151  0.00  0.00    -0.368 OA
BRANCH   7   8
ATOM      8  C   LIG d   1      -7.443  94.618 118.919  0.00  0.00     0.119 C 
BRANCH   8   9
ATOM      9  C   LIG d   1      -8.452  94.475 120.075  0.00  0.00     0.028 C 
ATOM     10  C   LIG d   1      -7.808  94.716 121.450  0.00  0.00     0.006 C 
ENDBRANCH   8   9
BRANCH   8  11
ATOM     11  C   LIG d   1      -7.937  95.809 118.093  0.00  0.00     0.028 C 
ATOM     12  C   LIG d   1      -9.462  95.989 118.161  0.00  0.00     0.006 C 
ENDBRANCH   8  11
ENDBRANCH   7   8
ENDBRANCH   1   7
BRANCH   6  13
ATOM     13  N   LIG d   1      -7.330  90.531 117.212  0.00  0.00    -0.311 N 
ATOM     14  C   LIG d   1      -7.872  89.964 116.135  0.00  0.00     0.210 C 
ATOM     15  C   LIG d   1      -8.999  88.968 116.426  0.00  0.00     0.109 C 
ATOM     16  O   LIG d   1      -7.504  90.167 114.968  0.00  0.00    -0.276 OA
ATOM     17  H   LIG d   1      -7.668  90.284 118.121  0.00  0.00     0.149 HD
ENDBRANCH   6  13
BRANCH   5  18
ATOM     18  N   LIG d   1      -4.614  90.071 115.891  0.00  0.00     0.381 N 
ATOM     19  H   LIG d   1      -4.929  90.573 115.085  0.00  0.00    -0.090 HD
ATOM     20  H   LIG d   1      -5.149  89.224 115.964  0.00  0.00    -0.090 HD
ATOM     21  H   LIG d   1      -3.646  89.855 115.799  0.00  0.00    -0.090 HD
ENDBRANCH   5  18
BRANCH   3  22
ATOM     22  C   LIG d   1      -2.832  93.521 118.695  0.00  0.00     0.382 C 
ATOM     23  O   LIG d   1      -2.693  93.608 119.939  0.00  0.00    -0.241 OA
ATOM     24  O   LIG d   1      -1.978  94.032 117.945  0.00  0.00    -0.241 OA
ENDBRANCH   3  22
TORSDOF 7
ENDMDL
MODEL 3
REMARK VINA RESULT:      -5.1      2.759      4.613
REMARK  7 active torsions:
REMARK  status: ('A' for Active; 'I' for Inactive)
REMARK    1  A    between atoms: C_2  and  C_3 
REMARK    2  A    between atoms: C_3  and  O_6 
REMARK    3  A    between atoms: C_3  and  C_4 
REMARK    4  A    between atoms: C_7  and  O_6 
REMARK    5  A    between atoms: C_9  and  C_10 
REMARK    6  A    between atoms: N_15  and  C_14 
REMARK    7  A    between atoms: N_20  and  C_19 
REMARK       I    between atoms: C_22  and  N_20 
ROOT
ATOM      1  C   LIG d   1      -4.936  91.802 118.574  0.00  0.00     0.161 C 
ATOM      2  C   LIG d   1      -4.917  90.939 117.465  0.00  0.00     0.016 C 
ATOM      3  C   LIG d   1      -5.754  91.103 116.338  0.00  0.00     0.038 C 
ATOM      4  C   LIG d   1      -6.567  92.234 116.176  0.00  0.00     0.028 C 
ATOM      5  C   LIG d   1      -6.992  92.869 117.496  0.00  0.00    -0.047 C 
ATOM      6  C   LIG d   1      -5.737  93.104 118.367  0.00  0.00     0.091 C 
ENDROOT
BRANCH   1   7
ATOM      7  O   LIG d   1      -3.587  92.103 118.983  0.00  0.00    -0.368 OA
BRANCH   7   8
ATOM      8  C   LIG d   1      -2.612  92.229 117.919  0.00  0.00     0.119 C 
BRANCH   8   9
ATOM      9  C   LIG d   1      -1.364  91.428 118.338  0.00  0.00     0.028 C 
ATOM     10  C   LIG d   1      -0.099  91.879 117.588  0.00  0.00     0.006 C 
ENDBRANCH   8   9
BRANCH   8  11
ATOM     11  C   LIG d   1      -2.134  93.676 117.769  0.00  0.00     0.028 C 
ATOM     12  C   LIG d   1      -2.384  94.520 119.029  0.00  0.00     0.006 C 
ENDBRANCH   8  11
ENDBRANCH   7   8
ENDBRANCH   1   7
BRANCH   6  13
ATOM     13  N   LIG d   1      -6.072  93.645 119.710  0.00  0.00    -0.311 N 
ATOM     14  C   LIG d   1      -6.082  94.946 119.995  0.00  0.00     0.210 C 
ATOM     15  C   LIG d   1      -6.436  95.288 121.446  0.00  0.00     0.109 C 
ATOM     16  O   LIG d   1      -5.863  95.851 119.175  0.00  0.00    -0.276 OA
ATOM     17  H   LIG d   1      -6.293  92.982 120.426  0.00  0.00     0.149 HD
ENDBRANCH   6  13
BRANCH   5  18
ATOM     18  N   LIG d   1      -7.718  94.113 117.179  0.00  0.00     0.381 N 
ATOM     19  H   LIG d   1      -7.521  94.806 117.873  0.00  0.00    -0.090 HD
ATOM     20  H   LIG d   1      -8.705  93.926 117.191  0.00  0.00    -0.090 HD
ATOM     21  H   LIG d   1      -7.447  94.447 116.280  0.00  0.00    -0.090 HD
ENDBRANCH   5  18
BRANCH   3  22
ATOM     22  C   LIG d   1      -5.813  90.106 115.376  0.00  0.00     0.382 C 
ATOM     23  O   LIG d   1      -6.905  89.834 114.821  0.00  0.00    -0.241 OA
ATOM     24  O   LIG d   1      -4.797  89.446 115.087  0.00  0.00    -0.241 OA
ENDBRANCH   3  22
TORSDOF 7
ENDMDL
MODEL 4
REMARK VINA RESULT:      -5.1     33.350     34.997
REMARK  7 active torsions:
REMARK  status: ('A' for Active; 'I' for Inactive)
REMARK    1  A    between atoms: C_2  and  C_3 
REMARK    2  A    between atoms: C_3  and  O_6 
REMARK    3  A    between atoms: C_3  and  C_4 
REMARK    4  A    between atoms: C_7  and  O_6 
REMARK    5  A    between atoms: C_9  and  C_10 
REMARK    6  A    between atoms: N_15  and  C_14 
REMARK    7  A    between atoms: N_20  and  C_19 
REMARK       I    between atoms: C_22  and  N_20 
ROOT
ATOM      1  C   LIG d   1       0.859  57.636 118.337  0.00  0.00     0.161 C 
ATOM      2  C   LIG d   1      -0.290  57.537 117.535  0.00  0.00     0.016 C 
ATOM      3  C   LIG d   1      -0.313  57.875 116.163  0.00  0.00     0.038 C 
ATOM      4  C   LIG d   1       0.858  58.193 115.458  0.00  0.00     0.028 C 
ATOM      5  C   LIG d   1       1.950  58.793 116.337  0.00  0.00    -0.047 C 
ATOM      6  C   LIG d   1       2.171  57.875 117.560  0.00  0.00     0.091 C 
ENDROOT
BRANCH   1   7
ATOM      7  O   LIG d   1       0.976  56.466 119.170  0.00  0.00    -0.368 OA
BRANCH   7   8
ATOM      8  C   LIG d   1       1.795  55.391 118.648  0.00  0.00     0.119 C 
BRANCH   8   9
ATOM      9  C   LIG d   1       0.856  54.221 118.297  0.00  0.00     0.028 C 
ATOM     10  C   LIG d   1       0.732  54.002 116.780  0.00  0.00     0.006 C 
ENDBRANCH   8   9
BRANCH   8  11
ATOM     11  C   LIG d   1       2.744  54.842 119.718  0.00  0.00     0.028 C 
ATOM     12  C   LIG d   1       2.801  55.727 120.973  0.00  0.00     0.006 C 
ENDBRANCH   8  11
ENDBRANCH   7   8
ENDBRANCH   1   7
BRANCH   6  13
ATOM     13  N   LIG d   1       3.164  58.432 118.515  0.00  0.00    -0.311 N 
ATOM     14  C   LIG d   1       4.441  58.053 118.549  0.00  0.00     0.210 C 
ATOM     15  C   LIG d   1       5.290  58.738 119.624  0.00  0.00     0.109 C 
ATOM     16  O   LIG d   1       4.958  57.238 117.770  0.00  0.00    -0.276 OA
ATOM     17  H   LIG d   1       2.837  59.122 119.163  0.00  0.00     0.149 HD
ENDBRANCH   6  13
BRANCH   5  18
ATOM     18  N   LIG d   1       3.157  58.948 115.504  0.00  0.00     0.381 N 
ATOM     19  H   LIG d   1       3.850  58.284 115.786  0.00  0.00    -0.090 HD
ATOM     20  H   LIG d   1       3.531  59.871 115.641  0.00  0.00    -0.090 HD
ATOM     21  H   LIG d   1       2.929  58.813 114.544  0.00  0.00    -0.090 HD
ENDBRANCH   5  18
BRANCH   3  22
ATOM     22  C   LIG d   1      -1.524  57.935 115.490  0.00  0.00     0.382 C 
ATOM     23  O   LIG d   1      -1.812  58.947 114.807  0.00  0.00    -0.241 OA
ATOM     24  O   LIG d   1      -2.351  57.009 115.593  0.00  0.00    -0.241 OA
ENDBRANCH   3  22
TORSDOF 7
ENDMDL
MODEL 5
REMARK VINA RESULT:      -5.0      2.768      4.266
REMARK  7 active torsions:
REMARK  status: ('A' for Active; 'I' for Inactive)
REMARK    1  A    between atoms: C_2  and  C_3 
REMARK    2  A    between atoms: C_3  and  O_6 
REMARK    3  A    between atoms: C_3  and  C_4 
REMARK    4  A    between atoms: C_7  and  O_6 
REMARK    5  A    between atoms: C_9  and  C_10 
REMARK    6  A    between atoms: N_15  and  C_14 
REMARK    7  A    between atoms: N_20  and  C_19 
REMARK       I    between atoms: C_22  and  N_20 
ROOT
ATOM      1  C   LIG d   1      -5.971  92.993 117.979  0.00  0.00     0.161 C 
ATOM      2  C   LIG d   1      -6.939  92.147 117.412  0.00  0.00     0.016 C 
ATOM      3  C   LIG d   1      -6.620  90.963 116.708  0.00  0.00     0.038 C 
ATOM      4  C   LIG d   1      -5.311  90.462 116.653  0.00  0.00     0.028 C 
ATOM      5  C   LIG d   1      -4.243  91.544 116.778  0.00  0.00    -0.047 C 
ATOM      6  C   LIG d   1      -4.545  92.406 118.025  0.00  0.00     0.091 C 
ENDROOT
BRANCH   1   7
ATOM      7  O   LIG d   1      -6.389  93.399 119.297  0.00  0.00    -0.368 OA
BRANCH   7   8
ATOM      8  C   LIG d   1      -7.587  94.210 119.365  0.00  0.00     0.119 C 
BRANCH   8   9
ATOM      9  C   LIG d   1      -7.169  95.675 119.131  0.00  0.00     0.028 C 
ATOM     10  C   LIG d   1      -7.988  96.349 118.018  0.00  0.00     0.006 C 
ENDBRANCH   8   9
BRANCH   8  11
ATOM     11  C   LIG d   1      -8.201  94.182 120.768  0.00  0.00     0.028 C 
ATOM     12  C   LIG d   1      -9.737  94.198 120.747  0.00  0.00     0.006 C 
ENDBRANCH   8  11
ENDBRANCH   7   8
ENDBRANCH   1   7
BRANCH   6  13
ATOM     13  N   LIG d   1      -3.596  93.540 118.174  0.00  0.00    -0.311 N 
ATOM     14  C   LIG d   1      -2.478  93.471 118.895  0.00  0.00     0.210 C 
ATOM     15  C   LIG d   1      -1.652  94.760 118.932  0.00  0.00     0.109 C 
ATOM     16  O   LIG d   1      -2.077  92.454 119.481  0.00  0.00    -0.276 OA
ATOM     17  H   LIG d   1      -3.829  94.394 117.705  0.00  0.00     0.149 HD
ENDBRANCH   6  13
BRANCH   5  18
ATOM     18  N   LIG d   1      -2.932  90.871 116.844  0.00  0.00     0.381 N 
ATOM     19  H   LIG d   1      -2.492  90.897 115.946  0.00  0.00    -0.090 HD
ATOM     20  H   LIG d   1      -3.073  89.909 117.097  0.00  0.00    -0.090 HD
ATOM     21  H   LIG d   1      -2.353  91.318 117.519  0.00  0.00    -0.090 HD
ENDBRANCH   5  18
BRANCH   3  22
ATOM     22  C   LIG d   1      -7.613  90.287 116.015  0.00  0.00     0.382 C 
ATOM     23  O   LIG d   1      -7.929  89.120 116.351  0.00  0.00    -0.241 OA
ATOM     24  O   LIG d   1      -8.166  90.813 115.030  0.00  0.00    -0.241 OA
ENDBRANCH   3  22
TORSDOF 7
ENDMDL
MODEL 6
REMARK VINA RESULT:      -5.0     32.743     35.036
REMARK  7 active torsions:
REMARK  status: ('A' for Active; 'I' for Inactive)
REMARK    1  A    between atoms: C_2  and  C_3 
REMARK    2  A    between atoms: C_3  and  O_6 
REMARK    3  A    between atoms: C_3  and  C_4 
REMARK    4  A    between atoms: C_7  and  O_6 
REMARK    5  A    between atoms: C_9  and  C_10 
REMARK    6  A    between atoms: N_15  and  C_14 
REMARK    7  A    between atoms: N_20  and  C_19 
REMARK       I    between atoms: C_22  and  N_20 
ROOT
ATOM      1  C   LIG d   1       1.992  57.713 117.230  0.00  0.00     0.161 C 
ATOM      2  C   LIG d   1       2.952  58.727 117.073  0.00  0.00     0.016 C 
ATOM      3  C   LIG d   1       4.330  58.540 117.329  0.00  0.00     0.038 C 
ATOM      4  C   LIG d   1       4.865  57.276 117.617  0.00  0.00     0.028 C 
ATOM      5  C   LIG d   1       3.868  56.332 118.280  0.00  0.00    -0.047 C 
ATOM      6  C   LIG d   1       2.572  56.299 117.437  0.00  0.00     0.091 C 
ENDROOT
BRANCH   1   7
ATOM      7  O   LIG d   1       1.083  57.724 116.112  0.00  0.00    -0.368 OA
BRANCH   7   8
ATOM      8  C   LIG d   1      -0.182  58.399 116.324  0.00  0.00     0.119 C 
BRANCH   8   9
ATOM      9  C   LIG d   1      -0.485  58.348 117.834  0.00  0.00     0.028 C 
ATOM     10  C   LIG d   1      -1.222  59.605 118.327  0.00  0.00     0.006 C 
ENDBRANCH   8   9
BRANCH   8  11
ATOM     11  C   LIG d   1      -1.335  57.646 115.653  0.00  0.00     0.028 C 
ATOM     12  C   LIG d   1      -2.231  58.563 114.806  0.00  0.00     0.006 C 
ENDBRANCH   8  11
ENDBRANCH   7   8
ENDBRANCH   1   7
BRANCH   6  13
ATOM     13  N   LIG d   1       1.512  55.464 118.059  0.00  0.00    -0.311 N 
ATOM     14  C   LIG d   1       0.724  54.643 117.366  0.00  0.00     0.210 C 
ATOM     15  C   LIG d   1      -0.317  53.890 118.200  0.00  0.00     0.109 C 
ATOM     16  O   LIG d   1       0.810  54.444 116.145  0.00  0.00    -0.276 OA
ATOM     17  H   LIG d   1       1.394  55.540 119.050  0.00  0.00     0.149 HD
ENDBRANCH   6  13
BRANCH   5  18
ATOM     18  N   LIG d   1       4.514  55.011 118.398  0.00  0.00     0.381 N 
ATOM     19  H   LIG d   1       4.416  54.668 119.332  0.00  0.00    -0.090 HD
ATOM     20  H   LIG d   1       5.494  55.110 118.200  0.00  0.00    -0.090 HD
ATOM     21  H   LIG d   1       4.101  54.370 117.756  0.00  0.00    -0.090 HD
ENDBRANCH   5  18
BRANCH   3  22
ATOM     22  C   LIG d   1       5.182  59.634 117.337  0.00  0.00     0.382 C 
ATOM     23  O   LIG d   1       4.779  60.745 116.918  0.00  0.00    -0.241 OA
ATOM     24  O   LIG d   1       6.362  59.512 117.717  0.00  0.00    -0.241 OA
ENDBRANCH   3  22
TORSDOF 7
ENDMDL
MODEL 7
REMARK VINA RESULT:      -4.9      2.733      4.862
REMARK  7 active torsions:
REMARK  status: ('A' for Active; 'I' for Inactive)
REMARK    1  A    between atoms: C_2  and  C_3 
REMARK    2  A    between atoms: C_3  and  O_6 
REMARK    3  A    between atoms: C_3  and  C_4 
REMARK    4  A    between atoms: C_7  and  O_6 
REMARK    5  A    between atoms: C_9  and  C_10 
REMARK    6  A    between atoms: N_15  and  C_14 
REMARK    7  A    between atoms: N_20  and  C_19 
REMARK       I    between atoms: C_22  and  N_20 
ROOT
ATOM      1  C   LIG d   1      -6.478  92.628 117.657  0.00  0.00     0.161 C 
ATOM      2  C   LIG d   1      -7.423  93.637 117.407  0.00  0.00     0.016 C 
ATOM      3  C   LIG d   1      -7.572  94.783 118.222  0.00  0.00     0.038 C 
ATOM      4  C   LIG d   1      -6.677  95.074 119.263  0.00  0.00     0.028 C 
ATOM      5  C   LIG d   1      -6.023  93.834 119.863  0.00  0.00    -0.047 C 
ATOM      6  C   LIG d   1      -5.420  92.982 118.723  0.00  0.00     0.091 C 
ENDROOT
BRANCH   1   7
ATOM      7  O   LIG d   1      -5.838  92.242 116.425  0.00  0.00    -0.368 OA
BRANCH   7   8
ATOM      8  C   LIG d   1      -6.435  91.127 115.718  0.00  0.00     0.119 C 
BRANCH   8   9
ATOM      9  C   LIG d   1      -7.201  90.280 116.753  0.00  0.00     0.028 C 
ATOM     10  C   LIG d   1      -8.369  89.501 116.125  0.00  0.00     0.006 C 
ENDBRANCH   8   9
BRANCH   8  11
ATOM     11  C   LIG d   1      -5.364  90.194 115.144  0.00  0.00     0.028 C 
ATOM     12  C   LIG d   1      -4.164  90.013 116.087  0.00  0.00     0.006 C 
ENDBRANCH   8  11
ENDBRANCH   7   8
ENDBRANCH   1   7
BRANCH   6  13
ATOM     13  N   LIG d   1      -4.834  91.709 119.215  0.00  0.00    -0.311 N 
ATOM     14  C   LIG d   1      -3.525  91.465 119.240  0.00  0.00     0.210 C 
ATOM     15  C   LIG d   1      -3.134  90.081 119.767  0.00  0.00     0.109 C 
ATOM     16  O   LIG d   1      -2.648  92.276 118.905  0.00  0.00    -0.276 OA
ATOM     17  H   LIG d   1      -5.472  91.007 119.535  0.00  0.00     0.149 HD
ENDBRANCH   6  13
BRANCH   5  18
ATOM     18  N   LIG d   1      -5.015  94.290 120.839  0.00  0.00     0.381 N 
ATOM     19  H   LIG d   1      -4.678  93.510 121.368  0.00  0.00    -0.090 HD
ATOM     20  H   LIG d   1      -5.447  94.938 121.474  0.00  0.00    -0.090 HD
ATOM     21  H   LIG d   1      -4.258  94.732 120.366  0.00  0.00    -0.090 HD
ENDBRANCH   5  18
BRANCH   3  22
ATOM     22  C   LIG d   1      -8.650  95.632 118.024  0.00  0.00     0.382 C 
ATOM     23  O   LIG d   1      -9.821  95.194 118.128  0.00  0.00    -0.241 OA
ATOM     24  O   LIG d   1      -8.466  96.820 117.698  0.00  0.00    -0.241 OA
ENDBRANCH   3  22
TORSDOF 7
ENDMDL
MODEL 8
REMARK VINA RESULT:      -4.7     32.583     34.829
REMARK  7 active torsions:
REMARK  status: ('A' for Active; 'I' for Inactive)
REMARK    1  A    between atoms: C_2  and  C_3 
REMARK    2  A    between atoms: C_3  and  O_6 
REMARK    3  A    between atoms: C_3  and  C_4 
REMARK    4  A    between atoms: C_7  and  O_6 
REMARK    5  A    between atoms: C_9  and  C_10 
REMARK    6  A    between atoms: N_15  and  C_14 
REMARK    7  A    between atoms: N_20  and  C_19 
REMARK       I    between atoms: C_22  and  N_20 
ROOT
ATOM      1  C   LIG d   1       1.602  58.118 117.860  0.00  0.00     0.161 C 
ATOM      2  C   LIG d   1       0.368  58.321 117.219  0.00  0.00     0.016 C 
ATOM      3  C   LIG d   1      -0.163  57.434 116.255  0.00  0.00     0.038 C 
ATOM      4  C   LIG d   1       0.437  56.198 115.974  0.00  0.00     0.028 C 
ATOM      5  C   LIG d   1       1.942  56.184 116.226  0.00  0.00    -0.047 C 
ATOM      6  C   LIG d   1       2.218  56.719 117.649  0.00  0.00     0.091 C 
ENDROOT
BRANCH   1   7
ATOM      7  O   LIG d   1       1.474  58.402 119.267  0.00  0.00    -0.368 OA
BRANCH   7   8
ATOM      8  C   LIG d   1       0.163  58.185 119.845  0.00  0.00     0.119 C 
BRANCH   8   9
ATOM      9  C   LIG d   1      -0.307  59.525 120.444  0.00  0.00     0.028 C 
ATOM     10  C   LIG d   1      -1.713  59.922 119.963  0.00  0.00     0.006 C 
ENDBRANCH   8   9
BRANCH   8  11
ATOM     11  C   LIG d   1       0.228  57.213 121.027  0.00  0.00     0.028 C 
ATOM     12  C   LIG d   1       0.445  55.756 120.589  0.00  0.00     0.006 C 
ENDBRANCH   8  11
ENDBRANCH   7   8
ENDBRANCH   1   7
BRANCH   6  13
ATOM     13  N   LIG d   1       3.671  56.818 117.946  0.00  0.00    -0.311 N 
ATOM     14  C   LIG d   1       4.365  55.850 118.540  0.00  0.00     0.210 C 
ATOM     15  C   LIG d   1       5.847  56.164 118.770  0.00  0.00     0.109 C 
ATOM     16  O   LIG d   1       3.902  54.747 118.870  0.00  0.00    -0.276 OA
ATOM     17  H   LIG d   1       4.133  57.667 117.683  0.00  0.00     0.149 HD
ENDBRANCH   6  13
BRANCH   5  18
ATOM     18  N   LIG d   1       2.414  54.801 116.026  0.00  0.00     0.381 N 
ATOM     19  H   LIG d   1       3.130  54.785 115.328  0.00  0.00    -0.090 HD
ATOM     20  H   LIG d   1       1.646  54.238 115.704  0.00  0.00    -0.090 HD
ATOM     21  H   LIG d   1       2.767  54.434 116.883  0.00  0.00    -0.090 HD
ENDBRANCH   5  18
BRANCH   3  22
ATOM     22  C   LIG d   1      -1.287  57.800 115.529  0.00  0.00     0.382 C 
ATOM     23  O   LIG d   1      -2.316  57.084 115.565  0.00  0.00    -0.241 OA
ATOM     24  O   LIG d   1      -1.269  58.813 114.805  0.00  0.00    -0.241 OA
ENDBRANCH   3  22
TORSDOF 7
ENDMDL
MODEL 9
REMARK VINA RESULT:      -4.7      2.514      5.081
REMARK  7 active torsions:
REMARK  status: ('A' for Active; 'I' for Inactive)
REMARK    1  A    between atoms: C_2  and  C_3 
REMARK    2  A    between atoms: C_3  and  O_6 
REMARK    3  A    between atoms: C_3  and  C_4 
REMARK    4  A    between atoms: C_7  and  O_6 
REMARK    5  A    between atoms: C_9  and  C_10 
REMARK    6  A    between atoms: N_15  and  C_14 
REMARK    7  A    between atoms: N_20  and  C_19 
REMARK       I    between atoms: C_22  and  N_20 
ROOT
ATOM      1  C   LIG d   1      -3.995  92.258 117.272  0.00  0.00     0.161 C 
ATOM      2  C   LIG d   1      -3.273  92.978 118.239  0.00  0.00     0.016 C 
ATOM      3  C   LIG d   1      -3.879  93.627 119.339  0.00  0.00     0.038 C 
ATOM      4  C   LIG d   1      -5.242  93.472 119.632  0.00  0.00     0.028 C 
ATOM      5  C   LIG d   1      -6.096  93.172 118.405  0.00  0.00    -0.047 C 
ATOM      6  C   LIG d   1      -5.470  91.986 117.637  0.00  0.00     0.091 C 
ENDROOT
BRANCH   1   7
ATOM      7  O   LIG d   1      -3.316  91.022 116.975  0.00  0.00    -0.368 OA
BRANCH   7   8
ATOM      8  C   LIG d   1      -2.302  90.608 117.923  0.00  0.00     0.119 C 
BRANCH   8   9
ATOM      9  C   LIG d   1      -1.128  90.019 117.117  0.00  0.00     0.028 C 
ATOM     10  C   LIG d   1       0.200  90.742 117.400  0.00  0.00     0.006 C 
ENDBRANCH   8   9
BRANCH   8  11
ATOM     11  C   LIG d   1      -2.801  89.463 118.809  0.00  0.00     0.028 C 
ATOM     12  C   LIG d   1      -2.931  89.865 120.286  0.00  0.00     0.006 C 
ENDBRANCH   8  11
ENDBRANCH   7   8
ENDBRANCH   1   7
BRANCH   6  13
ATOM     13  N   LIG d   1      -6.196  91.680 116.376  0.00  0.00    -0.311 N 
ATOM     14  C   LIG d   1      -7.209  90.819 116.304  0.00  0.00     0.210 C 
ATOM     15  C   LIG d   1      -7.804  90.636 114.904  0.00  0.00     0.109 C 
ATOM     16  O   LIG d   1      -7.694  90.214 117.272  0.00  0.00    -0.276 OA
ATOM     17  H   LIG d   1      -5.888  92.151 115.548  0.00  0.00     0.149 HD
ENDBRANCH   6  13
BRANCH   5  18
ATOM     18  N   LIG d   1      -7.468  92.899 118.872  0.00  0.00     0.381 N 
ATOM     19  H   LIG d   1      -7.500  92.941 119.871  0.00  0.00    -0.090 HD
ATOM     20  H   LIG d   1      -7.730  91.972 118.587  0.00  0.00    -0.090 HD
ATOM     21  H   LIG d   1      -8.099  93.565 118.484  0.00  0.00    -0.090 HD
ENDBRANCH   5  18
BRANCH   3  22
ATOM     22  C   LIG d   1      -3.126  94.474 120.137  0.00  0.00     0.382 C 
ATOM     23  O   LIG d   1      -1.978  94.129 120.509  0.00  0.00    -0.241 OA
ATOM     24  O   LIG d   1      -3.596  95.559 120.527  0.00  0.00    -0.241 OA
ENDBRANCH   3  22
TORSDOF 7
ENDMDL
