MODEL 1
REMARK VINA RESULT:      -5.1      0.000      0.000
REMARK  7 active torsions:
REMARK  status: ('A' for Active; 'I' for Inactive)
REMARK    1  A    between atoms: C_2  and  C_3 
REMARK    2  A    between atoms: C_3  and  O_6 
REMARK    3  A    between atoms: C_3  and  C_4 
REMARK    4  A    between atoms: C_7  and  O_6 
REMARK    5  A    between atoms: C_9  and  C_10 
REMARK    6  A    between atoms: N_15  and  C_14 
REMARK    7  A    between atoms: N_20  and  C_19 
REMARK       I    between atoms: C_22  and  N_20 
ROOT
ATOM      1  C   LIG d   1      -7.322  77.144 117.403  0.00  0.00     0.161 C 
ATOM      2  C   LIG d   1      -6.822  78.457 117.382  0.00  0.00     0.016 C 
ATOM      3  C   LIG d   1      -7.520  79.564 117.914  0.00  0.00     0.038 C 
ATOM      4  C   LIG d   1      -8.708  79.410 118.645  0.00  0.00     0.028 C 
ATOM      5  C   LIG d   1      -9.502  78.169 118.255  0.00  0.00    -0.047 C 
ATOM      6  C   LIG d   1      -8.565  76.940 118.295  0.00  0.00     0.091 C 
ENDROOT
BRANCH   1   7
ATOM      7  O   LIG d   1      -6.276  76.229 117.785  0.00  0.00    -0.368 OA
BRANCH   7   8
ATOM      8  C   LIG d   1      -5.426  75.749 116.713  0.00  0.00     0.119 C 
BRANCH   8   9
ATOM      9  C   LIG d   1      -6.302  74.898 115.773  0.00  0.00     0.028 C 
ATOM     10  C   LIG d   1      -6.699  73.552 116.401  0.00  0.00     0.006 C 
ENDBRANCH   8   9
BRANCH   8  11
ATOM     11  C   LIG d   1      -4.351  74.795 117.240  0.00  0.00     0.028 C 
ATOM     12  C   LIG d   1      -2.957  75.092 116.664  0.00  0.00     0.006 C 
ENDBRANCH   8  11
ENDBRANCH   7   8
ENDBRANCH   1   7
BRANCH   6  13
ATOM     13  N   LIG d   1      -9.242  75.696 117.845  0.00  0.00    -0.311 N 
ATOM     14  C   LIG d   1      -9.828  74.838 118.678  0.00  0.00     0.210 C 
ATOM     15  C   LIG d   1     -10.450  73.608 118.008  0.00  0.00     0.109 C 
ATOM     16  O   LIG d   1      -9.921  74.995 119.905  0.00  0.00    -0.276 OA
ATOM     17  H   LIG d   1      -9.241  75.506 116.862  0.00  0.00     0.149 HD
ENDBRANCH   6  13
BRANCH   5  18
ATOM     18  N   LIG d   1     -10.641  78.057 119.186  0.00  0.00     0.381 N 
ATOM     19  H   LIG d   1     -10.730  77.112 119.501  0.00  0.00    -0.090 HD
ATOM     20  H   LIG d   1     -11.484  78.309 118.701  0.00  0.00    -0.090 HD
ATOM     21  H   LIG d   1     -10.504  78.663 119.966  0.00  0.00    -0.090 HD
ENDBRANCH   5  18
BRANCH   3  22
ATOM     22  C   LIG d   1      -7.051  80.848 117.684  0.00  0.00     0.382 C 
ATOM     23  O   LIG d   1      -6.532  81.137 116.578  0.00  0.00    -0.241 OA
ATOM     24  O   LIG d   1      -7.099  81.710 118.582  0.00  0.00    -0.241 OA
ENDBRANCH   3  22
TORSDOF 7
ENDMDL
MODEL 2
REMARK VINA RESULT:      -5.0      1.959      4.826
REMARK  7 active torsions:
REMARK  status: ('A' for Active; 'I' for Inactive)
REMARK    1  A    between atoms: C_2  and  C_3 
REMARK    2  A    between atoms: C_3  and  O_6 
REMARK    3  A    between atoms: C_3  and  C_4 
REMARK    4  A    between atoms: C_7  and  O_6 
REMARK    5  A    between atoms: C_9  and  C_10 
REMARK    6  A    between atoms: N_15  and  C_14 
REMARK    7  A    between atoms: N_20  and  C_19 
REMARK       I    between atoms: C_22  and  N_20 
ROOT
ATOM      1  C   LIG d   1      -6.976  77.568 117.489  0.00  0.00     0.161 C 
ATOM      2  C   LIG d   1      -8.151  76.825 117.694  0.00  0.00     0.016 C 
ATOM      3  C   LIG d   1      -9.369  77.399 118.126  0.00  0.00     0.038 C 
ATOM      4  C   LIG d   1      -9.536  78.787 118.239  0.00  0.00     0.028 C 
ATOM      5  C   LIG d   1      -8.237  79.532 118.530  0.00  0.00    -0.047 C 
ATOM      6  C   LIG d   1      -7.169  79.099 117.500  0.00  0.00     0.091 C 
ENDROOT
BRANCH   1   7
ATOM      7  O   LIG d   1      -6.342  77.151 116.264  0.00  0.00    -0.368 OA
BRANCH   7   8
ATOM      8  C   LIG d   1      -5.561  75.933 116.333  0.00  0.00     0.119 C 
BRANCH   8   9
ATOM      9  C   LIG d   1      -4.168  76.243 115.752  0.00  0.00     0.028 C 
ATOM     10  C   LIG d   1      -3.118  75.192 116.152  0.00  0.00     0.006 C 
ENDBRANCH   8   9
BRANCH   8  11
ATOM     11  C   LIG d   1      -6.145  74.844 115.427  0.00  0.00     0.028 C 
ATOM     12  C   LIG d   1      -6.642  73.620 116.212  0.00  0.00     0.006 C 
ENDBRANCH   8  11
ENDBRANCH   7   8
ENDBRANCH   1   7
BRANCH   6  13
ATOM     13  N   LIG d   1      -5.843  79.717 117.764  0.00  0.00    -0.311 N 
ATOM     14  C   LIG d   1      -5.436  80.849 117.194  0.00  0.00     0.210 C 
ATOM     15  C   LIG d   1      -4.026  81.302 117.589  0.00  0.00     0.109 C 
ATOM     16  O   LIG d   1      -6.120  81.539 116.424  0.00  0.00    -0.276 OA
ATOM     17  H   LIG d   1      -5.236  79.239 118.401  0.00  0.00     0.149 HD
ENDBRANCH   6  13
BRANCH   5  18
ATOM     18  N   LIG d   1      -8.531  80.976 118.485  0.00  0.00     0.381 N 
ATOM     19  H   LIG d   1      -8.275  81.346 117.591  0.00  0.00    -0.090 HD
ATOM     20  H   LIG d   1      -7.984  81.442 119.187  0.00  0.00    -0.090 HD
ATOM     21  H   LIG d   1      -9.501  81.132 118.651  0.00  0.00    -0.090 HD
ENDBRANCH   5  18
BRANCH   3  22
ATOM     22  C   LIG d   1     -10.425  76.577 118.490  0.00  0.00     0.382 C 
ATOM     23  O   LIG d   1     -10.212  75.376 118.784  0.00  0.00    -0.241 OA
ATOM     24  O   LIG d   1     -11.593  77.010 118.484  0.00  0.00    -0.241 OA
ENDBRANCH   3  22
TORSDOF 7
ENDMDL
MODEL 3
REMARK VINA RESULT:      -5.0     19.068     21.525
REMARK  7 active torsions:
REMARK  status: ('A' for Active; 'I' for Inactive)
REMARK    1  A    between atoms: C_2  and  C_3 
REMARK    2  A    between atoms: C_3  and  O_6 
REMARK    3  A    between atoms: C_3  and  C_4 
REMARK    4  A    between atoms: C_7  and  O_6 
REMARK    5  A    between atoms: C_9  and  C_10 
REMARK    6  A    between atoms: N_15  and  C_14 
REMARK    7  A    between atoms: N_20  and  C_19 
REMARK       I    between atoms: C_22  and  N_20 
ROOT
ATOM      1  C   LIG d   1       1.202  58.470 118.272  0.00  0.00     0.161 C 
ATOM      2  C   LIG d   1       2.086  59.457 118.739  0.00  0.00     0.016 C 
ATOM      3  C   LIG d   1       3.378  59.172 119.238  0.00  0.00     0.038 C 
ATOM      4  C   LIG d   1       3.935  57.886 119.163  0.00  0.00     0.028 C 
ATOM      5  C   LIG d   1       2.892  56.773 119.165  0.00  0.00    -0.047 C 
ATOM      6  C   LIG d   1       1.834  57.075 118.079  0.00  0.00     0.091 C 
ENDROOT
BRANCH   1   7
ATOM      7  O   LIG d   1       0.578  58.911 117.050  0.00  0.00    -0.368 OA
BRANCH   7   8
ATOM      8  C   LIG d   1      -0.750  59.475 117.180  0.00  0.00     0.119 C 
BRANCH   8   9
ATOM      9  C   LIG d   1      -1.278  59.098 118.578  0.00  0.00     0.028 C 
ATOM     10  C   LIG d   1      -1.918  60.293 119.305  0.00  0.00     0.006 C 
ENDBRANCH   8   9
BRANCH   8  11
ATOM     11  C   LIG d   1      -1.727  58.834 116.190  0.00  0.00     0.028 C 
ATOM     12  C   LIG d   1      -2.295  57.498 116.695  0.00  0.00     0.006 C 
ENDBRANCH   8  11
ENDBRANCH   7   8
ENDBRANCH   1   7
BRANCH   6  13
ATOM     13  N   LIG d   1       0.731  56.079 118.070  0.00  0.00    -0.311 N 
ATOM     14  C   LIG d   1       0.721  55.003 117.286  0.00  0.00     0.210 C 
ATOM     15  C   LIG d   1      -0.521  54.116 117.420  0.00  0.00     0.109 C 
ATOM     16  O   LIG d   1       1.638  54.681 116.516  0.00  0.00    -0.276 OA
ATOM     17  H   LIG d   1      -0.039  56.246 118.688  0.00  0.00     0.149 HD
ENDBRANCH   6  13
BRANCH   5  18
ATOM     18  N   LIG d   1       3.600  55.499 118.943  0.00  0.00     0.381 N 
ATOM     19  H   LIG d   1       4.496  55.527 119.389  0.00  0.00    -0.090 HD
ATOM     20  H   LIG d   1       3.743  55.373 117.957  0.00  0.00    -0.090 HD
ATOM     21  H   LIG d   1       3.063  54.743 119.308  0.00  0.00    -0.090 HD
ENDBRANCH   5  18
BRANCH   3  22
ATOM     22  C   LIG d   1       4.112  60.172 119.857  0.00  0.00     0.382 C 
ATOM     23  O   LIG d   1       4.888  60.890 119.180  0.00  0.00    -0.241 OA
ATOM     24  O   LIG d   1       4.041  60.337 121.089  0.00  0.00    -0.241 OA
ENDBRANCH   3  22
TORSDOF 7
ENDMDL
MODEL 4
REMARK VINA RESULT:      -4.8      2.506      6.416
REMARK  7 active torsions:
REMARK  status: ('A' for Active; 'I' for Inactive)
REMARK    1  A    between atoms: C_2  and  C_3 
REMARK    2  A    between atoms: C_3  and  O_6 
REMARK    3  A    between atoms: C_3  and  C_4 
REMARK    4  A    between atoms: C_7  and  O_6 
REMARK    5  A    between atoms: C_9  and  C_10 
REMARK    6  A    between atoms: N_15  and  C_14 
REMARK    7  A    between atoms: N_20  and  C_19 
REMARK       I    between atoms: C_22  and  N_20 
ROOT
ATOM      1  C   LIG d   1      -8.044  78.835 117.885  0.00  0.00     0.161 C 
ATOM      2  C   LIG d   1      -9.201  78.111 118.217  0.00  0.00     0.016 C 
ATOM      3  C   LIG d   1      -9.322  76.713 118.041  0.00  0.00     0.038 C 
ATOM      4  C   LIG d   1      -8.232  75.917 117.658  0.00  0.00     0.028 C 
ATOM      5  C   LIG d   1      -7.194  76.668 116.830  0.00  0.00    -0.047 C 
ATOM      6  C   LIG d   1      -6.806  77.968 117.571  0.00  0.00     0.091 C 
ENDROOT
BRANCH   1   7
ATOM      7  O   LIG d   1      -7.741  79.779 118.931  0.00  0.00    -0.368 OA
BRANCH   7   8
ATOM      8  C   LIG d   1      -7.812  81.180 118.566  0.00  0.00     0.119 C 
BRANCH   8   9
ATOM      9  C   LIG d   1      -6.762  81.931 119.407  0.00  0.00     0.028 C 
ATOM     10  C   LIG d   1      -7.398  82.763 120.533  0.00  0.00     0.006 C 
ENDBRANCH   8   9
BRANCH   8  11
ATOM     11  C   LIG d   1      -9.160  81.791 118.959  0.00  0.00     0.028 C 
ATOM     12  C   LIG d   1     -10.062  82.074 117.748  0.00  0.00     0.006 C 
ENDBRANCH   8  11
ENDBRANCH   7   8
ENDBRANCH   1   7
BRANCH   6  13
ATOM     13  N   LIG d   1      -5.858  78.804 116.790  0.00  0.00    -0.311 N 
ATOM     14  C   LIG d   1      -4.535  78.732 116.925  0.00  0.00     0.210 C 
ATOM     15  C   LIG d   1      -3.741  79.697 116.038  0.00  0.00     0.109 C 
ATOM     16  O   LIG d   1      -3.942  77.938 117.671  0.00  0.00    -0.276 OA
ATOM     17  H   LIG d   1      -6.252  79.454 116.139  0.00  0.00     0.149 HD
ENDBRANCH   6  13
BRANCH   5  18
ATOM     18  N   LIG d   1      -6.051  75.760 116.619  0.00  0.00     0.381 N 
ATOM     19  H   LIG d   1      -5.360  75.916 117.325  0.00  0.00    -0.090 HD
ATOM     20  H   LIG d   1      -5.639  75.960 115.724  0.00  0.00    -0.090 HD
ATOM     21  H   LIG d   1      -6.358  74.813 116.647  0.00  0.00    -0.090 HD
ENDBRANCH   5  18
BRANCH   3  22
ATOM     22  C   LIG d   1     -10.556  76.104 118.209  0.00  0.00     0.382 C 
ATOM     23  O   LIG d   1     -11.588  76.804 118.341  0.00  0.00    -0.241 OA
ATOM     24  O   LIG d   1     -10.643  74.863 118.275  0.00  0.00    -0.241 OA
ENDBRANCH   3  22
TORSDOF 7
ENDMDL
MODEL 5
REMARK VINA RESULT:      -4.8      2.574      4.523
REMARK  7 active torsions:
REMARK  status: ('A' for Active; 'I' for Inactive)
REMARK    1  A    between atoms: C_2  and  C_3 
REMARK    2  A    between atoms: C_3  and  O_6 
REMARK    3  A    between atoms: C_3  and  C_4 
REMARK    4  A    between atoms: C_7  and  O_6 
REMARK    5  A    between atoms: C_9  and  C_10 
REMARK    6  A    between atoms: N_15  and  C_14 
REMARK    7  A    between atoms: N_20  and  C_19 
REMARK       I    between atoms: C_22  and  N_20 
ROOT
ATOM      1  C   LIG d   1      -7.507  77.965 117.864  0.00  0.00     0.161 C 
ATOM      2  C   LIG d   1      -8.694  78.679 118.098  0.00  0.00     0.016 C 
ATOM      3  C   LIG d   1      -8.803  80.080 117.937  0.00  0.00     0.038 C 
ATOM      4  C   LIG d   1      -7.768  80.845 117.381  0.00  0.00     0.028 C 
ATOM      5  C   LIG d   1      -6.384  80.245 117.604  0.00  0.00    -0.047 C 
ATOM      6  C   LIG d   1      -6.399  78.767 117.151  0.00  0.00     0.091 C 
ENDROOT
BRANCH   1   7
ATOM      7  O   LIG d   1      -7.800  76.757 117.134  0.00  0.00    -0.368 OA
BRANCH   7   8
ATOM      8  C   LIG d   1      -7.819  75.533 117.909  0.00  0.00     0.119 C 
BRANCH   8   9
ATOM      9  C   LIG d   1      -7.270  74.408 117.010  0.00  0.00     0.028 C 
ATOM     10  C   LIG d   1      -6.342  74.939 115.905  0.00  0.00     0.006 C 
ENDBRANCH   8   9
BRANCH   8  11
ATOM     11  C   LIG d   1      -9.251  75.114 118.254  0.00  0.00     0.028 C 
ATOM     12  C   LIG d   1      -9.439  73.588 118.268  0.00  0.00     0.006 C 
ENDBRANCH   8  11
ENDBRANCH   7   8
ENDBRANCH   1   7
BRANCH   6  13
ATOM     13  N   LIG d   1      -5.107  78.081 117.413  0.00  0.00    -0.311 N 
ATOM     14  C   LIG d   1      -4.154  77.937 116.494  0.00  0.00     0.210 C 
ATOM     15  C   LIG d   1      -2.909  77.180 116.967  0.00  0.00     0.109 C 
ATOM     16  O   LIG d   1      -4.208  78.392 115.342  0.00  0.00    -0.276 OA
ATOM     17  H   LIG d   1      -4.966  77.708 118.332  0.00  0.00     0.149 HD
ENDBRANCH   6  13
BRANCH   5  18
ATOM     18  N   LIG d   1      -5.415  81.069 116.857  0.00  0.00     0.381 N 
ATOM     19  H   LIG d   1      -4.489  80.718 117.002  0.00  0.00    -0.090 HD
ATOM     20  H   LIG d   1      -5.453  82.011 117.204  0.00  0.00    -0.090 HD
ATOM     21  H   LIG d   1      -5.634  81.056 115.885  0.00  0.00    -0.090 HD
ENDBRANCH   5  18
BRANCH   3  22
ATOM     22  C   LIG d   1      -9.946  80.734 118.371  0.00  0.00     0.382 C 
ATOM     23  O   LIG d   1     -10.366  81.740 117.751  0.00  0.00    -0.241 OA
ATOM     24  O   LIG d   1     -10.537  80.357 119.401  0.00  0.00    -0.241 OA
ENDBRANCH   3  22
TORSDOF 7
ENDMDL
MODEL 6
REMARK VINA RESULT:      -4.8      1.516      4.831
REMARK  7 active torsions:
REMARK  status: ('A' for Active; 'I' for Inactive)
REMARK    1  A    between atoms: C_2  and  C_3 
REMARK    2  A    between atoms: C_3  and  O_6 
REMARK    3  A    between atoms: C_3  and  C_4 
REMARK    4  A    between atoms: C_7  and  O_6 
REMARK    5  A    between atoms: C_9  and  C_10 
REMARK    6  A    between atoms: N_15  and  C_14 
REMARK    7  A    between atoms: N_20  and  C_19 
REMARK       I    between atoms: C_22  and  N_20 
ROOT
ATOM      1  C   LIG d   1      -7.234  76.671 117.921  0.00  0.00     0.161 C 
ATOM      2  C   LIG d   1      -8.023  75.510 117.892  0.00  0.00     0.016 C 
ATOM      3  C   LIG d   1      -9.420  75.512 118.114  0.00  0.00     0.038 C 
ATOM      4  C   LIG d   1     -10.150  76.704 118.233  0.00  0.00     0.028 C 
ATOM      5  C   LIG d   1      -9.325  77.868 118.772  0.00  0.00    -0.047 C 
ATOM      6  C   LIG d   1      -8.029  77.993 117.938  0.00  0.00     0.091 C 
ENDROOT
BRANCH   1   7
ATOM      7  O   LIG d   1      -6.306  76.659 116.818  0.00  0.00    -0.368 OA
BRANCH   7   8
ATOM      8  C   LIG d   1      -5.530  75.448 116.651  0.00  0.00     0.119 C 
BRANCH   8   9
ATOM      9  C   LIG d   1      -4.045  75.821 116.829  0.00  0.00     0.028 C 
ATOM     10  C   LIG d   1      -3.296  74.832 117.737  0.00  0.00     0.006 C 
ENDBRANCH   8   9
BRANCH   8  11
ATOM     11  C   LIG d   1      -5.643  74.905 115.224  0.00  0.00     0.028 C 
ATOM     12  C   LIG d   1      -6.347  73.540 115.159  0.00  0.00     0.006 C 
ENDBRANCH   8  11
ENDBRANCH   7   8
ENDBRANCH   1   7
BRANCH   6  13
ATOM     13  N   LIG d   1      -7.125  79.055 118.452  0.00  0.00    -0.311 N 
ATOM     14  C   LIG d   1      -7.126  80.305 117.991  0.00  0.00     0.210 C 
ATOM     15  C   LIG d   1      -6.100  81.236 118.646  0.00  0.00     0.109 C 
ATOM     16  O   LIG d   1      -7.900  80.739 117.126  0.00  0.00    -0.276 OA
ATOM     17  H   LIG d   1      -6.485  78.798 119.178  0.00  0.00     0.149 HD
ENDBRANCH   6  13
BRANCH   5  18
ATOM     18  N   LIG d   1     -10.169  79.076 118.714  0.00  0.00     0.381 N 
ATOM     19  H   LIG d   1      -9.592  79.893 118.714  0.00  0.00    -0.090 HD
ATOM     20  H   LIG d   1     -10.754  79.103 119.531  0.00  0.00    -0.090 HD
ATOM     21  H   LIG d   1     -10.733  79.059 117.893  0.00  0.00    -0.090 HD
ENDBRANCH   5  18
BRANCH   3  22
ATOM     22  C   LIG d   1     -10.094  74.309 118.260  0.00  0.00     0.382 C 
ATOM     23  O   LIG d   1     -11.328  74.251 118.040  0.00  0.00    -0.241 OA
ATOM     24  O   LIG d   1      -9.493  73.291 118.652  0.00  0.00    -0.241 OA
ENDBRANCH   3  22
TORSDOF 7
ENDMDL
MODEL 7
REMARK VINA RESULT:      -4.5      2.297      5.276
REMARK  7 active torsions:
REMARK  status: ('A' for Active; 'I' for Inactive)
REMARK    1  A    between atoms: C_2  and  C_3 
REMARK    2  A    between atoms: C_3  and  O_6 
REMARK    3  A    between atoms: C_3  and  C_4 
REMARK    4  A    between atoms: C_7  and  O_6 
REMARK    5  A    between atoms: C_9  and  C_10 
REMARK    6  A    between atoms: N_15  and  C_14 
REMARK    7  A    between atoms: N_20  and  C_19 
REMARK       I    between atoms: C_22  and  N_20 
ROOT
ATOM      1  C   LIG d   1      -6.363  75.173 116.890  0.00  0.00     0.161 C 
ATOM      2  C   LIG d   1      -6.868  73.868 116.769  0.00  0.00     0.016 C 
ATOM      3  C   LIG d   1      -8.095  73.452 117.336  0.00  0.00     0.038 C 
ATOM      4  C   LIG d   1      -8.978  74.361 117.939  0.00  0.00     0.028 C 
ATOM      5  C   LIG d   1      -8.282  75.583 118.527  0.00  0.00    -0.047 C 
ATOM      6  C   LIG d   1      -7.365  76.205 117.449  0.00  0.00     0.091 C 
ENDROOT
BRANCH   1   7
ATOM      7  O   LIG d   1      -5.843  75.615 115.621  0.00  0.00    -0.368 OA
BRANCH   7   8
ATOM      8  C   LIG d   1      -4.406  75.532 115.456  0.00  0.00     0.119 C 
BRANCH   8   9
ATOM      9  C   LIG d   1      -3.781  75.486 116.864  0.00  0.00     0.028 C 
ATOM     10  C   LIG d   1      -2.640  74.460 116.967  0.00  0.00     0.006 C 
ENDBRANCH   8   9
BRANCH   8  11
ATOM     11  C   LIG d   1      -3.845  76.800 114.805  0.00  0.00     0.028 C 
ATOM     12  C   LIG d   1      -3.739  77.977 115.787  0.00  0.00     0.006 C 
ENDBRANCH   8  11
ENDBRANCH   7   8
ENDBRANCH   1   7
BRANCH   6  13
ATOM     13  N   LIG d   1      -6.581  77.357 117.967  0.00  0.00    -0.311 N 
ATOM     14  C   LIG d   1      -6.971  78.624 117.841  0.00  0.00     0.210 C 
ATOM     15  C   LIG d   1      -6.006  79.659 118.428  0.00  0.00     0.109 C 
ATOM     16  O   LIG d   1      -8.040  78.988 117.328  0.00  0.00    -0.276 OA
ATOM     17  H   LIG d   1      -5.716  77.151 118.425  0.00  0.00     0.149 HD
ENDBRANCH   6  13
BRANCH   5  18
ATOM     18  N   LIG d   1      -9.329  76.509 118.998  0.00  0.00     0.381 N 
ATOM     19  H   LIG d   1     -10.036  76.606 118.297  0.00  0.00    -0.090 HD
ATOM     20  H   LIG d   1      -8.917  77.412 119.158  0.00  0.00    -0.090 HD
ATOM     21  H   LIG d   1      -9.732  76.166 119.842  0.00  0.00    -0.090 HD
ENDBRANCH   5  18
BRANCH   3  22
ATOM     22  C   LIG d   1      -8.431  72.107 117.338  0.00  0.00     0.382 C 
ATOM     23  O   LIG d   1      -8.262  71.417 116.304  0.00  0.00    -0.241 OA
ATOM     24  O   LIG d   1      -8.942  71.585 118.347  0.00  0.00    -0.241 OA
ENDBRANCH   3  22
TORSDOF 7
ENDMDL
MODEL 8
REMARK VINA RESULT:      -4.4     18.477     20.803
REMARK  7 active torsions:
REMARK  status: ('A' for Active; 'I' for Inactive)
REMARK    1  A    between atoms: C_2  and  C_3 
REMARK    2  A    between atoms: C_3  and  O_6 
REMARK    3  A    between atoms: C_3  and  C_4 
REMARK    4  A    between atoms: C_7  and  O_6 
REMARK    5  A    between atoms: C_9  and  C_10 
REMARK    6  A    between atoms: N_15  and  C_14 
REMARK    7  A    between atoms: N_20  and  C_19 
REMARK       I    between atoms: C_22  and  N_20 
ROOT
ATOM      1  C   LIG d   1       0.599  58.033 118.449  0.00  0.00     0.161 C 
ATOM      2  C   LIG d   1       1.957  58.242 118.741  0.00  0.00     0.016 C 
ATOM      3  C   LIG d   1       2.410  59.112 119.759  0.00  0.00     0.038 C 
ATOM      4  C   LIG d   1       1.525  59.722 120.660  0.00  0.00     0.028 C 
ATOM      5  C   LIG d   1       0.129  59.937 120.086  0.00  0.00    -0.047 C 
ATOM      6  C   LIG d   1      -0.382  58.604 119.494  0.00  0.00     0.091 C 
ENDROOT
BRANCH   1   7
ATOM      7  O   LIG d   1       0.353  56.628 118.246  0.00  0.00    -0.368 OA
BRANCH   7   8
ATOM      8  C   LIG d   1       0.067  56.220 116.885  0.00  0.00     0.119 C 
BRANCH   8   9
ATOM      9  C   LIG d   1      -1.437  55.894 116.806  0.00  0.00     0.028 C 
ATOM     10  C   LIG d   1      -1.955  55.201 118.078  0.00  0.00     0.006 C 
ENDBRANCH   8   9
BRANCH   8  11
ATOM     11  C   LIG d   1       0.785  54.914 116.532  0.00  0.00     0.028 C 
ATOM     12  C   LIG d   1       1.903  54.562 117.525  0.00  0.00     0.006 C 
ENDBRANCH   8  11
ENDBRANCH   7   8
ENDBRANCH   1   7
BRANCH   6  13
ATOM     13  N   LIG d   1      -1.707  58.746 118.836  0.00  0.00    -0.311 N 
ATOM     14  C   LIG d   1      -1.891  59.404 117.693  0.00  0.00     0.210 C 
ATOM     15  C   LIG d   1      -3.341  59.448 117.199  0.00  0.00     0.109 C 
ATOM     16  O   LIG d   1      -0.987  59.928 117.025  0.00  0.00    -0.276 OA
ATOM     17  H   LIG d   1      -2.491  58.325 119.294  0.00  0.00     0.149 HD
ENDBRANCH   6  13
BRANCH   5  18
ATOM     18  N   LIG d   1      -0.726  60.452 121.173  0.00  0.00     0.381 N 
ATOM     19  H   LIG d   1      -0.439  60.056 122.046  0.00  0.00    -0.090 HD
ATOM     20  H   LIG d   1      -1.676  60.176 120.999  0.00  0.00    -0.090 HD
ATOM     21  H   LIG d   1      -0.663  61.445 121.215  0.00  0.00    -0.090 HD
ENDBRANCH   5  18
BRANCH   3  22
ATOM     22  C   LIG d   1       3.760  59.411 119.857  0.00  0.00     0.382 C 
ATOM     23  O   LIG d   1       4.289  59.559 120.985  0.00  0.00    -0.241 OA
ATOM     24  O   LIG d   1       4.447  59.579 118.832  0.00  0.00    -0.241 OA
ENDBRANCH   3  22
TORSDOF 7
ENDMDL
MODEL 9
REMARK VINA RESULT:      -4.4      2.351      4.410
REMARK  7 active torsions:
REMARK  status: ('A' for Active; 'I' for Inactive)
REMARK    1  A    between atoms: C_2  and  C_3 
REMARK    2  A    between atoms: C_3  and  O_6 
REMARK    3  A    between atoms: C_3  and  C_4 
REMARK    4  A    between atoms: C_7  and  O_6 
REMARK    5  A    between atoms: C_9  and  C_10 
REMARK    6  A    between atoms: N_15  and  C_14 
REMARK    7  A    between atoms: N_20  and  C_19 
REMARK       I    between atoms: C_22  and  N_20 
ROOT
ATOM      1  C   LIG d   1      -8.271  78.480 118.296  0.00  0.00     0.161 C 
ATOM      2  C   LIG d   1      -9.030  79.655 118.427  0.00  0.00     0.016 C 
ATOM      3  C   LIG d   1      -8.566  80.930 118.030  0.00  0.00     0.038 C 
ATOM      4  C   LIG d   1      -7.360  81.095 117.331  0.00  0.00     0.028 C 
ATOM      5  C   LIG d   1      -6.334  80.007 117.627  0.00  0.00    -0.047 C 
ATOM      6  C   LIG d   1      -6.999  78.625 117.435  0.00  0.00     0.091 C 
ENDROOT
BRANCH   1   7
ATOM      7  O   LIG d   1      -9.101  77.416 117.790  0.00  0.00    -0.368 OA
BRANCH   7   8
ATOM      8  C   LIG d   1      -9.426  76.360 118.727  0.00  0.00     0.119 C 
BRANCH   8   9
ATOM      9  C   LIG d   1      -8.675  76.659 120.039  0.00  0.00     0.028 C 
ATOM     10  C   LIG d   1      -9.532  76.372 121.284  0.00  0.00     0.006 C 
ENDBRANCH   8   9
BRANCH   8  11
ATOM     11  C   LIG d   1      -8.887  75.007 118.251  0.00  0.00     0.028 C 
ATOM     12  C   LIG d   1      -9.929  73.882 118.354  0.00  0.00     0.006 C 
ENDBRANCH   8  11
ENDBRANCH   7   8
ENDBRANCH   1   7
BRANCH   6  13
ATOM     13  N   LIG d   1      -6.089  77.504 117.786  0.00  0.00    -0.311 N 
ATOM     14  C   LIG d   1      -5.802  76.504 116.953  0.00  0.00     0.210 C 
ATOM     15  C   LIG d   1      -4.856  75.441 117.521  0.00  0.00     0.109 C 
ATOM     16  O   LIG d   1      -6.215  76.414 115.788  0.00  0.00    -0.276 OA
ATOM     17  H   LIG d   1      -5.684  77.514 118.701  0.00  0.00     0.149 HD
ENDBRANCH   6  13
BRANCH   5  18
ATOM     18  N   LIG d   1      -5.183  80.224 116.731  0.00  0.00     0.381 N 
ATOM     19  H   LIG d   1      -4.335  79.984 117.205  0.00  0.00    -0.090 HD
ATOM     20  H   LIG d   1      -5.142  81.198 116.485  0.00  0.00    -0.090 HD
ATOM     21  H   LIG d   1      -5.281  79.670 115.909  0.00  0.00    -0.090 HD
ENDBRANCH   5  18
BRANCH   3  22
ATOM     22  C   LIG d   1      -9.292  82.062 118.367  0.00  0.00     0.382 C 
ATOM     23  O   LIG d   1      -8.905  82.798 119.307  0.00  0.00    -0.241 OA
ATOM     24  O   LIG d   1     -10.353  82.332 117.773  0.00  0.00    -0.241 OA
ENDBRANCH   3  22
TORSDOF 7
ENDMDL
