MODEL 1
REMARK VINA RESULT:      -5.1      0.000      0.000
REMARK  7 active torsions:
REMARK  status: ('A' for Active; 'I' for Inactive)
REMARK    1  A    between atoms: C_2  and  C_3 
REMARK    2  A    between atoms: C_3  and  O_6 
REMARK    3  A    between atoms: C_3  and  C_4 
REMARK    4  A    between atoms: C_7  and  O_6 
REMARK    5  A    between atoms: C_9  and  C_10 
REMARK    6  A    between atoms: N_15  and  C_14 
REMARK    7  A    between atoms: N_20  and  C_19 
REMARK       I    between atoms: C_22  and  N_20 
ROOT
ATOM      1  C   LIG d   1      -5.352  91.708 119.031  0.00  0.00     0.161 C 
ATOM      2  C   LIG d   1      -4.322  90.992 118.400  0.00  0.00     0.016 C 
ATOM      3  C   LIG d   1      -4.395  90.537 117.063  0.00  0.00     0.038 C 
ATOM      4  C   LIG d   1      -5.450  90.900 116.213  0.00  0.00     0.028 C 
ATOM      5  C   LIG d   1      -6.750  91.196 116.954  0.00  0.00    -0.047 C 
ATOM      6  C   LIG d   1      -6.464  92.210 118.085  0.00  0.00     0.091 C 
ENDROOT
BRANCH   1   7
ATOM      7  O   LIG d   1      -4.797  92.808 119.779  0.00  0.00    -0.368 OA
BRANCH   7   8
ATOM      8  C   LIG d   1      -3.351  92.875 119.833  0.00  0.00     0.119 C 
BRANCH   8   9
ATOM      9  C   LIG d   1      -2.933  92.673 121.303  0.00  0.00     0.028 C 
ATOM     10  C   LIG d   1      -2.324  91.284 121.554  0.00  0.00     0.006 C 
ENDBRANCH   8   9
BRANCH   8  11
ATOM     11  C   LIG d   1      -2.843  94.270 119.456  0.00  0.00     0.028 C 
ATOM     12  C   LIG d   1      -1.337  94.444 119.707  0.00  0.00     0.006 C 
ENDBRANCH   8  11
ENDBRANCH   7   8
ENDBRANCH   1   7
BRANCH   6  13
ATOM     13  N   LIG d   1      -7.666  92.490 118.913  0.00  0.00    -0.311 N 
ATOM     14  C   LIG d   1      -8.530  93.468 118.644  0.00  0.00     0.210 C 
ATOM     15  C   LIG d   1      -9.690  93.597 119.636  0.00  0.00     0.109 C 
ATOM     16  O   LIG d   1      -8.463  94.220 117.660  0.00  0.00    -0.276 OA
ATOM     17  H   LIG d   1      -7.815  91.907 119.714  0.00  0.00     0.149 HD
ENDBRANCH   6  13
BRANCH   5  18
ATOM     18  N   LIG d   1      -7.724  91.694 115.964  0.00  0.00     0.381 N 
ATOM     19  H   LIG d   1      -8.088  90.929 115.432  0.00  0.00    -0.090 HD
ATOM     20  H   LIG d   1      -7.255  92.321 115.334  0.00  0.00    -0.090 HD
ATOM     21  H   LIG d   1      -8.467  92.170 116.426  0.00  0.00    -0.090 HD
ENDBRANCH   5  18
BRANCH   3  22
ATOM     22  C   LIG d   1      -3.424  89.675 116.576  0.00  0.00     0.382 C 
ATOM     23  O   LIG d   1      -2.232  89.802 116.945  0.00  0.00    -0.241 OA
ATOM     24  O   LIG d   1      -3.718  88.800 115.740  0.00  0.00    -0.241 OA
ENDBRANCH   3  22
TORSDOF 7
ENDMDL
MODEL 2
REMARK VINA RESULT:      -5.0     11.520     14.228
REMARK  7 active torsions:
REMARK  status: ('A' for Active; 'I' for Inactive)
REMARK    1  A    between atoms: C_2  and  C_3 
REMARK    2  A    between atoms: C_3  and  O_6 
REMARK    3  A    between atoms: C_3  and  C_4 
REMARK    4  A    between atoms: C_7  and  O_6 
REMARK    5  A    between atoms: C_9  and  C_10 
REMARK    6  A    between atoms: N_15  and  C_14 
REMARK    7  A    between atoms: N_20  and  C_19 
REMARK       I    between atoms: C_22  and  N_20 
ROOT
ATOM      1  C   LIG d   1      -6.058  78.776 117.503  0.00  0.00     0.161 C 
ATOM      2  C   LIG d   1      -7.434  78.591 117.716  0.00  0.00     0.016 C 
ATOM      3  C   LIG d   1      -8.327  79.649 118.000  0.00  0.00     0.038 C 
ATOM      4  C   LIG d   1      -7.928  80.992 117.942  0.00  0.00     0.028 C 
ATOM      5  C   LIG d   1      -6.444  81.196 118.228  0.00  0.00    -0.047 C 
ATOM      6  C   LIG d   1      -5.623  80.246 117.326  0.00  0.00     0.091 C 
ENDROOT
BRANCH   1   7
ATOM      7  O   LIG d   1      -5.626  77.987 116.377  0.00  0.00    -0.368 OA
BRANCH   7   8
ATOM      8  C   LIG d   1      -5.389  76.581 116.638  0.00  0.00     0.119 C 
BRANCH   8   9
ATOM      9  C   LIG d   1      -3.881  76.325 116.455  0.00  0.00     0.028 C 
ATOM     10  C   LIG d   1      -3.296  77.091 115.257  0.00  0.00     0.006 C 
ENDBRANCH   8   9
BRANCH   8  11
ATOM     11  C   LIG d   1      -6.080  75.697 115.595  0.00  0.00     0.028 C 
ATOM     12  C   LIG d   1      -5.772  74.203 115.783  0.00  0.00     0.006 C 
ENDBRANCH   8  11
ENDBRANCH   7   8
ENDBRANCH   1   7
BRANCH   6  13
ATOM     13  N   LIG d   1      -4.165  80.321 117.602  0.00  0.00    -0.311 N 
ATOM     14  C   LIG d   1      -3.251  80.548 116.660  0.00  0.00     0.210 C 
ATOM     15  C   LIG d   1      -1.802  80.566 117.156  0.00  0.00     0.109 C 
ATOM     16  O   LIG d   1      -3.506  80.770 115.467  0.00  0.00    -0.276 OA
ATOM     17  H   LIG d   1      -3.873  80.184 118.550  0.00  0.00     0.149 HD
ENDBRANCH   6  13
BRANCH   5  18
ATOM     18  N   LIG d   1      -6.137  82.620 117.999  0.00  0.00     0.381 N 
ATOM     19  H   LIG d   1      -6.986  83.149 117.965  0.00  0.00    -0.090 HD
ATOM     20  H   LIG d   1      -5.672  82.714 117.113  0.00  0.00    -0.090 HD
ATOM     21  H   LIG d   1      -5.551  82.965 118.727  0.00  0.00    -0.090 HD
ENDBRANCH   5  18
BRANCH   3  22
ATOM     22  C   LIG d   1      -9.628  79.365 118.387  0.00  0.00     0.382 C 
ATOM     23  O   LIG d   1     -10.298  80.223 119.011  0.00  0.00    -0.241 OA
ATOM     24  O   LIG d   1     -10.125  78.246 118.159  0.00  0.00    -0.241 OA
ENDBRANCH   3  22
TORSDOF 7
ENDMDL
MODEL 3
REMARK VINA RESULT:      -4.9      2.485      4.615
REMARK  7 active torsions:
REMARK  status: ('A' for Active; 'I' for Inactive)
REMARK    1  A    between atoms: C_2  and  C_3 
REMARK    2  A    between atoms: C_3  and  O_6 
REMARK    3  A    between atoms: C_3  and  C_4 
REMARK    4  A    between atoms: C_7  and  O_6 
REMARK    5  A    between atoms: C_9  and  C_10 
REMARK    6  A    between atoms: N_15  and  C_14 
REMARK    7  A    between atoms: N_20  and  C_19 
REMARK       I    between atoms: C_22  and  N_20 
ROOT
ATOM      1  C   LIG d   1      -5.630  92.107 118.855  0.00  0.00     0.161 C 
ATOM      2  C   LIG d   1      -6.462  91.696 117.801  0.00  0.00     0.016 C 
ATOM      3  C   LIG d   1      -6.003  90.947 116.693  0.00  0.00     0.038 C 
ATOM      4  C   LIG d   1      -4.702  90.425 116.640  0.00  0.00     0.028 C 
ATOM      5  C   LIG d   1      -3.689  91.239 117.438  0.00  0.00    -0.047 C 
ATOM      6  C   LIG d   1      -4.232  91.452 118.869  0.00  0.00     0.091 C 
ENDROOT
BRANCH   1   7
ATOM      7  O   LIG d   1      -6.296  91.893 120.115  0.00  0.00    -0.368 OA
BRANCH   7   8
ATOM      8  C   LIG d   1      -6.749  93.083 120.807  0.00  0.00     0.119 C 
BRANCH   8   9
ATOM      9  C   LIG d   1      -8.289  93.091 120.753  0.00  0.00     0.028 C 
ATOM     10  C   LIG d   1      -8.831  93.971 119.615  0.00  0.00     0.006 C 
ENDBRANCH   8   9
BRANCH   8  11
ATOM     11  C   LIG d   1      -6.310  94.354 120.074  0.00  0.00     0.028 C 
ATOM     12  C   LIG d   1      -5.323  95.202 120.891  0.00  0.00     0.006 C 
ENDBRANCH   8  11
ENDBRANCH   7   8
ENDBRANCH   1   7
BRANCH   6  13
ATOM     13  N   LIG d   1      -3.341  92.311 119.691  0.00  0.00    -0.311 N 
ATOM     14  C   LIG d   1      -2.828  91.928 120.859  0.00  0.00     0.210 C 
ATOM     15  C   LIG d   1      -1.951  92.975 121.554  0.00  0.00     0.109 C 
ATOM     16  O   LIG d   1      -2.989  90.810 121.370  0.00  0.00    -0.276 OA
ATOM     17  H   LIG d   1      -3.133  93.224 119.336  0.00  0.00     0.149 HD
ENDBRANCH   6  13
BRANCH   5  18
ATOM     18  N   LIG d   1      -2.408  90.509 117.409  0.00  0.00     0.381 N 
ATOM     19  H   LIG d   1      -2.037  90.511 116.479  0.00  0.00    -0.090 HD
ATOM     20  H   LIG d   1      -2.571  89.555 117.680  0.00  0.00    -0.090 HD
ATOM     21  H   LIG d   1      -1.759  90.933 118.034  0.00  0.00    -0.090 HD
ENDBRANCH   5  18
BRANCH   3  22
ATOM     22  C   LIG d   1      -6.838  90.746 115.605  0.00  0.00     0.382 C 
ATOM     23  O   LIG d   1      -6.796  89.663 114.974  0.00  0.00    -0.241 OA
ATOM     24  O   LIG d   1      -7.600  91.652 115.219  0.00  0.00    -0.241 OA
ENDBRANCH   3  22
TORSDOF 7
ENDMDL
MODEL 4
REMARK VINA RESULT:      -4.7      3.710      6.119
REMARK  7 active torsions:
REMARK  status: ('A' for Active; 'I' for Inactive)
REMARK    1  A    between atoms: C_2  and  C_3 
REMARK    2  A    between atoms: C_3  and  O_6 
REMARK    3  A    between atoms: C_3  and  C_4 
REMARK    4  A    between atoms: C_7  and  O_6 
REMARK    5  A    between atoms: C_9  and  C_10 
REMARK    6  A    between atoms: N_15  and  C_14 
REMARK    7  A    between atoms: N_20  and  C_19 
REMARK       I    between atoms: C_22  and  N_20 
ROOT
ATOM      1  C   LIG d   1      -0.983  91.080 117.680  0.00  0.00     0.161 C 
ATOM      2  C   LIG d   1       0.042  91.585 118.497  0.00  0.00     0.016 C 
ATOM      3  C   LIG d   1      -0.187  92.478 119.569  0.00  0.00     0.038 C 
ATOM      4  C   LIG d   1      -1.481  92.812 119.994  0.00  0.00     0.028 C 
ATOM      5  C   LIG d   1      -2.524  92.726 118.884  0.00  0.00    -0.047 C 
ATOM      6  C   LIG d   1      -2.413  91.345 118.197  0.00  0.00     0.091 C 
ENDROOT
BRANCH   1   7
ATOM      7  O   LIG d   1      -0.783  89.670 117.460  0.00  0.00    -0.368 OA
BRANCH   7   8
ATOM      8  C   LIG d   1       0.589  89.207 117.500  0.00  0.00     0.119 C 
BRANCH   8   9
ATOM      9  C   LIG d   1       1.057  89.020 116.044  0.00  0.00     0.028 C 
ATOM     10  C   LIG d   1       2.411  89.697 115.771  0.00  0.00     0.006 C 
ENDBRANCH   8   9
BRANCH   8  11
ATOM     11  C   LIG d   1       0.690  87.819 118.140  0.00  0.00     0.028 C 
ATOM     12  C   LIG d   1       0.254  86.692 117.190  0.00  0.00     0.006 C 
ENDBRANCH   8  11
ENDBRANCH   7   8
ENDBRANCH   1   7
BRANCH   6  13
ATOM     13  N   LIG d   1      -3.341  91.209 117.044  0.00  0.00    -0.311 N 
ATOM     14  C   LIG d   1      -4.581  90.736 117.153  0.00  0.00     0.210 C 
ATOM     15  C   LIG d   1      -5.362  90.661 115.838  0.00  0.00     0.109 C 
ATOM     16  O   LIG d   1      -5.119  90.402 118.219  0.00  0.00    -0.276 OA
ATOM     17  H   LIG d   1      -2.996  91.487 116.146  0.00  0.00     0.149 HD
ENDBRANCH   6  13
BRANCH   5  18
ATOM     18  N   LIG d   1      -3.845  92.963 119.494  0.00  0.00     0.381 N 
ATOM     19  H   LIG d   1      -3.995  93.946 119.607  0.00  0.00    -0.090 HD
ATOM     20  H   LIG d   1      -3.866  92.535 120.403  0.00  0.00    -0.090 HD
ATOM     21  H   LIG d   1      -4.561  92.575 118.920  0.00  0.00    -0.090 HD
ENDBRANCH   5  18
BRANCH   3  22
ATOM     22  C   LIG d   1       0.890  93.080 120.203  0.00  0.00     0.382 C 
ATOM     23  O   LIG d   1       2.061  92.742 119.907  0.00  0.00    -0.241 OA
ATOM     24  O   LIG d   1       0.703  93.925 121.099  0.00  0.00    -0.241 OA
ENDBRANCH   3  22
TORSDOF 7
ENDMDL
MODEL 5
REMARK VINA RESULT:      -4.4     13.500     16.328
REMARK  7 active torsions:
REMARK  status: ('A' for Active; 'I' for Inactive)
REMARK    1  A    between atoms: C_2  and  C_3 
REMARK    2  A    between atoms: C_3  and  O_6 
REMARK    3  A    between atoms: C_3  and  C_4 
REMARK    4  A    between atoms: C_7  and  O_6 
REMARK    5  A    between atoms: C_9  and  C_10 
REMARK    6  A    between atoms: N_15  and  C_14 
REMARK    7  A    between atoms: N_20  and  C_19 
REMARK       I    between atoms: C_22  and  N_20 
ROOT
ATOM      1  C   LIG d   1      -0.713  77.275 115.877  0.00  0.00     0.161 C 
ATOM      2  C   LIG d   1      -2.039  77.101 115.447  0.00  0.00     0.016 C 
ATOM      3  C   LIG d   1      -2.815  75.961 115.758  0.00  0.00     0.038 C 
ATOM      4  C   LIG d   1      -2.364  74.979 116.653  0.00  0.00     0.028 C 
ATOM      5  C   LIG d   1      -0.845  74.863 116.710  0.00  0.00    -0.047 C 
ATOM      6  C   LIG d   1      -0.243  76.267 116.947  0.00  0.00     0.091 C 
ENDROOT
BRANCH   1   7
ATOM      7  O   LIG d   1      -0.524  78.625 116.344  0.00  0.00    -0.368 OA
BRANCH   7   8
ATOM      8  C   LIG d   1      -0.355  79.636 115.320  0.00  0.00     0.119 C 
BRANCH   8   9
ATOM      9  C   LIG d   1       1.072  80.201 115.459  0.00  0.00     0.028 C 
ATOM     10  C   LIG d   1       1.761  79.745 116.756  0.00  0.00     0.006 C 
ENDBRANCH   8   9
BRANCH   8  11
ATOM     11  C   LIG d   1      -1.288  80.828 115.555  0.00  0.00     0.028 C 
ATOM     12  C   LIG d   1      -1.721  80.966 117.023  0.00  0.00     0.006 C 
ENDBRANCH   8  11
ENDBRANCH   7   8
ENDBRANCH   1   7
BRANCH   6  13
ATOM     13  N   LIG d   1       1.243  76.256 116.932  0.00  0.00    -0.311 N 
ATOM     14  C   LIG d   1       1.988  76.264 118.036  0.00  0.00     0.210 C 
ATOM     15  C   LIG d   1       3.501  76.271 117.797  0.00  0.00     0.109 C 
ATOM     16  O   LIG d   1       1.539  76.233 119.192  0.00  0.00    -0.276 OA
ATOM     17  H   LIG d   1       1.691  76.249 116.036  0.00  0.00     0.149 HD
ENDBRANCH   6  13
BRANCH   5  18
ATOM     18  N   LIG d   1      -0.511  73.903 117.780  0.00  0.00     0.381 N 
ATOM     19  H   LIG d   1       0.273  74.238 118.303  0.00  0.00    -0.090 HD
ATOM     20  H   LIG d   1      -0.260  73.025 117.361  0.00  0.00    -0.090 HD
ATOM     21  H   LIG d   1      -1.294  73.779 118.383  0.00  0.00    -0.090 HD
ENDBRANCH   5  18
BRANCH   3  22
ATOM     22  C   LIG d   1      -4.041  75.774 115.139  0.00  0.00     0.382 C 
ATOM     23  O   LIG d   1      -4.804  76.753 114.952  0.00  0.00    -0.241 OA
ATOM     24  O   LIG d   1      -4.414  74.633 114.805  0.00  0.00    -0.241 OA
ENDBRANCH   3  22
TORSDOF 7
ENDMDL
MODEL 6
REMARK VINA RESULT:      -4.4      4.801      7.674
REMARK  7 active torsions:
REMARK  status: ('A' for Active; 'I' for Inactive)
REMARK    1  A    between atoms: C_2  and  C_3 
REMARK    2  A    between atoms: C_3  and  O_6 
REMARK    3  A    between atoms: C_3  and  C_4 
REMARK    4  A    between atoms: C_7  and  O_6 
REMARK    5  A    between atoms: C_9  and  C_10 
REMARK    6  A    between atoms: N_15  and  C_14 
REMARK    7  A    between atoms: N_20  and  C_19 
REMARK       I    between atoms: C_22  and  N_20 
ROOT
ATOM      1  C   LIG d   1      -0.335  89.618 117.305  0.00  0.00     0.161 C 
ATOM      2  C   LIG d   1      -1.727  89.642 117.111  0.00  0.00     0.016 C 
ATOM      3  C   LIG d   1      -2.529  90.776 117.371  0.00  0.00     0.038 C 
ATOM      4  C   LIG d   1      -1.969  92.020 117.700  0.00  0.00     0.028 C 
ATOM      5  C   LIG d   1      -0.617  91.911 118.396  0.00  0.00    -0.047 C 
ATOM      6  C   LIG d   1       0.306  90.998 117.557  0.00  0.00     0.091 C 
ENDROOT
BRANCH   1   7
ATOM      7  O   LIG d   1       0.302  88.965 116.188  0.00  0.00    -0.368 OA
BRANCH   7   8
ATOM      8  C   LIG d   1       0.838  87.644 116.444  0.00  0.00     0.119 C 
BRANCH   8   9
ATOM      9  C   LIG d   1      -0.078  86.628 115.734  0.00  0.00     0.028 C 
ATOM     10  C   LIG d   1      -0.648  85.576 116.701  0.00  0.00     0.006 C 
ENDBRANCH   8   9
BRANCH   8  11
ATOM     11  C   LIG d   1       0.761  87.289 117.931  0.00  0.00     0.028 C 
ATOM     12  C   LIG d   1       2.146  87.142 118.581  0.00  0.00     0.006 C 
ENDBRANCH   8  11
ENDBRANCH   7   8
ENDBRANCH   1   7
BRANCH   6  13
ATOM     13  N   LIG d   1       1.622  90.770 118.209  0.00  0.00    -0.311 N 
ATOM     14  C   LIG d   1       2.779  90.779 117.549  0.00  0.00     0.210 C 
ATOM     15  C   LIG d   1       4.016  90.502 118.409  0.00  0.00     0.109 C 
ATOM     16  O   LIG d   1       2.901  91.023 116.339  0.00  0.00    -0.276 OA
ATOM     17  H   LIG d   1       1.619  90.595 119.195  0.00  0.00     0.149 HD
ENDBRANCH   6  13
BRANCH   5  18
ATOM     18  N   LIG d   1      -0.087  93.278 118.557  0.00  0.00     0.381 N 
ATOM     19  H   LIG d   1       0.041  93.480 119.528  0.00  0.00    -0.090 HD
ATOM     20  H   LIG d   1      -0.753  93.931 118.184  0.00  0.00    -0.090 HD
ATOM     21  H   LIG d   1       0.781  93.366 118.075  0.00  0.00    -0.090 HD
ENDBRANCH   5  18
BRANCH   3  22
ATOM     22  C   LIG d   1      -3.910  90.663 117.341  0.00  0.00     0.382 C 
ATOM     23  O   LIG d   1      -4.535  90.893 116.278  0.00  0.00    -0.241 OA
ATOM     24  O   LIG d   1      -4.543  90.377 118.375  0.00  0.00    -0.241 OA
ENDBRANCH   3  22
TORSDOF 7
ENDMDL
MODEL 7
REMARK VINA RESULT:      -4.3      4.069      6.484
REMARK  7 active torsions:
REMARK  status: ('A' for Active; 'I' for Inactive)
REMARK    1  A    between atoms: C_2  and  C_3 
REMARK    2  A    between atoms: C_3  and  O_6 
REMARK    3  A    between atoms: C_3  and  C_4 
REMARK    4  A    between atoms: C_7  and  O_6 
REMARK    5  A    between atoms: C_9  and  C_10 
REMARK    6  A    between atoms: N_15  and  C_14 
REMARK    7  A    between atoms: N_20  and  C_19 
REMARK       I    between atoms: C_22  and  N_20 
ROOT
ATOM      1  C   LIG d   1      -0.991  90.322 117.803  0.00  0.00     0.161 C 
ATOM      2  C   LIG d   1      -2.196  90.189 117.093  0.00  0.00     0.016 C 
ATOM      3  C   LIG d   1      -3.410  90.787 117.501  0.00  0.00     0.038 C 
ATOM      4  C   LIG d   1      -3.469  91.689 118.573  0.00  0.00     0.028 C 
ATOM      5  C   LIG d   1      -2.384  91.457 119.620  0.00  0.00    -0.047 C 
ATOM      6  C   LIG d   1      -1.011  91.393 118.914  0.00  0.00     0.091 C 
ENDROOT
BRANCH   1   7
ATOM      7  O   LIG d   1       0.092  90.571 116.886  0.00  0.00    -0.368 OA
BRANCH   7   8
ATOM      8  C   LIG d   1       0.798  89.403 116.401  0.00  0.00     0.119 C 
BRANCH   8   9
ATOM      9  C   LIG d   1       0.943  88.425 117.583  0.00  0.00     0.028 C 
ATOM     10  C   LIG d   1       0.528  86.991 117.213  0.00  0.00     0.006 C 
ENDBRANCH   8   9
BRANCH   8  11
ATOM     11  C   LIG d   1       2.230  89.750 115.984  0.00  0.00     0.028 C 
ATOM     12  C   LIG d   1       2.843  90.873 116.836  0.00  0.00     0.006 C 
ENDBRANCH   8  11
ENDBRANCH   7   8
ENDBRANCH   1   7
BRANCH   6  13
ATOM     13  N   LIG d   1       0.097  91.085 119.856  0.00  0.00    -0.311 N 
ATOM     14  C   LIG d   1       1.137  91.893 120.054  0.00  0.00     0.210 C 
ATOM     15  C   LIG d   1       2.177  91.375 121.053  0.00  0.00     0.109 C 
ATOM     16  O   LIG d   1       1.281  93.004 119.522  0.00  0.00    -0.276 OA
ATOM     17  H   LIG d   1       0.045  90.217 120.353  0.00  0.00     0.149 HD
ENDBRANCH   6  13
BRANCH   5  18
ATOM     18  N   LIG d   1      -2.477  92.550 120.607  0.00  0.00     0.381 N 
ATOM     19  H   LIG d   1      -2.981  93.319 120.215  0.00  0.00    -0.090 HD
ATOM     20  H   LIG d   1      -1.549  92.863 120.833  0.00  0.00    -0.090 HD
ATOM     21  H   LIG d   1      -2.936  92.227 121.430  0.00  0.00    -0.090 HD
ENDBRANCH   5  18
BRANCH   3  22
ATOM     22  C   LIG d   1      -4.592  90.452 116.857  0.00  0.00     0.382 C 
ATOM     23  O   LIG d   1      -5.694  90.691 117.405  0.00  0.00    -0.241 OA
ATOM     24  O   LIG d   1      -4.568  89.873 115.754  0.00  0.00    -0.241 OA
ENDBRANCH   3  22
TORSDOF 7
ENDMDL
MODEL 8
REMARK VINA RESULT:      -4.2     12.305     15.259
REMARK  7 active torsions:
REMARK  status: ('A' for Active; 'I' for Inactive)
REMARK    1  A    between atoms: C_2  and  C_3 
REMARK    2  A    between atoms: C_3  and  O_6 
REMARK    3  A    between atoms: C_3  and  C_4 
REMARK    4  A    between atoms: C_7  and  O_6 
REMARK    5  A    between atoms: C_9  and  C_10 
REMARK    6  A    between atoms: N_15  and  C_14 
REMARK    7  A    between atoms: N_20  and  C_19 
REMARK       I    between atoms: C_22  and  N_20 
ROOT
ATOM      1  C   LIG d   1      -4.577  77.710 116.769  0.00  0.00     0.161 C 
ATOM      2  C   LIG d   1      -5.903  78.101 117.019  0.00  0.00     0.016 C 
ATOM      3  C   LIG d   1      -6.252  79.350 117.584  0.00  0.00     0.038 C 
ATOM      4  C   LIG d   1      -5.302  80.358 117.798  0.00  0.00     0.028 C 
ATOM      5  C   LIG d   1      -3.893  79.823 118.032  0.00  0.00    -0.047 C 
ATOM      6  C   LIG d   1      -3.535  78.841 116.893  0.00  0.00     0.091 C 
ENDROOT
BRANCH   1   7
ATOM      7  O   LIG d   1      -4.488  77.087 115.472  0.00  0.00    -0.368 OA
BRANCH   7   8
ATOM      8  C   LIG d   1      -4.121  75.685 115.463  0.00  0.00     0.119 C 
BRANCH   8   9
ATOM      9  C   LIG d   1      -5.322  74.896 114.907  0.00  0.00     0.028 C 
ATOM     10  C   LIG d   1      -5.861  73.863 115.912  0.00  0.00     0.006 C 
ENDBRANCH   8   9
BRANCH   8  11
ATOM     11  C   LIG d   1      -3.909  75.155 116.884  0.00  0.00     0.028 C 
ATOM     12  C   LIG d   1      -2.479  74.646 117.123  0.00  0.00     0.006 C 
ENDBRANCH   8  11
ENDBRANCH   7   8
ENDBRANCH   1   7
BRANCH   6  13
ATOM     13  N   LIG d   1      -2.205  78.206 117.090  0.00  0.00    -0.311 N 
ATOM     14  C   LIG d   1      -1.082  78.676 116.549  0.00  0.00     0.210 C 
ATOM     15  C   LIG d   1       0.176  77.860 116.861  0.00  0.00     0.109 C 
ATOM     16  O   LIG d   1      -1.003  79.709 115.867  0.00  0.00    -0.276 OA
ATOM     17  H   LIG d   1      -2.172  77.381 117.655  0.00  0.00     0.149 HD
ENDBRANCH   6  13
BRANCH   5  18
ATOM     18  N   LIG d   1      -2.982  80.982 118.103  0.00  0.00     0.381 N 
ATOM     19  H   LIG d   1      -3.495  81.800 118.366  0.00  0.00    -0.090 HD
ATOM     20  H   LIG d   1      -2.583  81.138 117.194  0.00  0.00    -0.090 HD
ATOM     21  H   LIG d   1      -2.259  80.807 118.766  0.00  0.00    -0.090 HD
ENDBRANCH   5  18
BRANCH   3  22
ATOM     22  C   LIG d   1      -7.561  79.584 117.977  0.00  0.00     0.382 C 
ATOM     23  O   LIG d   1      -8.215  80.518 117.455  0.00  0.00    -0.241 OA
ATOM     24  O   LIG d   1      -8.082  78.900 118.879  0.00  0.00    -0.241 OA
ENDBRANCH   3  22
TORSDOF 7
ENDMDL
MODEL 9
REMARK VINA RESULT:      -4.2     26.976     28.561
REMARK  7 active torsions:
REMARK  status: ('A' for Active; 'I' for Inactive)
REMARK    1  A    between atoms: C_2  and  C_3 
REMARK    2  A    between atoms: C_3  and  O_6 
REMARK    3  A    between atoms: C_3  and  C_4 
REMARK    4  A    between atoms: C_7  and  O_6 
REMARK    5  A    between atoms: C_9  and  C_10 
REMARK    6  A    between atoms: N_15  and  C_14 
REMARK    7  A    between atoms: N_20  and  C_19 
REMARK       I    between atoms: C_22  and  N_20 
ROOT
ATOM      1  C   LIG d   1     -15.471  65.232 118.475  0.00  0.00     0.161 C 
ATOM      2  C   LIG d   1     -16.034  64.270 117.620  0.00  0.00     0.016 C 
ATOM      3  C   LIG d   1     -16.744  64.597 116.442  0.00  0.00     0.038 C 
ATOM      4  C   LIG d   1     -16.810  65.911 115.956  0.00  0.00     0.028 C 
ATOM      5  C   LIG d   1     -16.689  66.968 117.049  0.00  0.00    -0.047 C 
ATOM      6  C   LIG d   1     -15.436  66.665 117.903  0.00  0.00     0.091 C 
ENDROOT
BRANCH   1   7
ATOM      7  O   LIG d   1     -14.148  64.819 118.870  0.00  0.00    -0.368 OA
BRANCH   7   8
ATOM      8  C   LIG d   1     -14.014  64.322 120.225  0.00  0.00     0.119 C 
BRANCH   8   9
ATOM      9  C   LIG d   1     -15.332  64.628 120.963  0.00  0.00     0.028 C 
ATOM     10  C   LIG d   1     -15.981  63.364 121.552  0.00  0.00     0.006 C 
ENDBRANCH   8   9
BRANCH   8  11
ATOM     11  C   LIG d   1     -12.932  65.086 120.994  0.00  0.00     0.028 C 
ATOM     12  C   LIG d   1     -11.601  64.320 121.070  0.00  0.00     0.006 C 
ENDBRANCH   8  11
ENDBRANCH   7   8
ENDBRANCH   1   7
BRANCH   6  13
ATOM     13  N   LIG d   1     -15.290  67.602 119.047  0.00  0.00    -0.311 N 
ATOM     14  C   LIG d   1     -14.146  68.211 119.354  0.00  0.00     0.210 C 
ATOM     15  C   LIG d   1     -14.208  69.122 120.584  0.00  0.00     0.109 C 
ATOM     16  O   LIG d   1     -13.094  68.109 118.705  0.00  0.00    -0.276 OA
ATOM     17  H   LIG d   1     -16.102  67.767 119.608  0.00  0.00     0.149 HD
ENDBRANCH   6  13
BRANCH   5  18
ATOM     18  N   LIG d   1     -16.634  68.286 116.390  0.00  0.00     0.381 N 
ATOM     19  H   LIG d   1     -16.846  69.005 117.053  0.00  0.00    -0.090 HD
ATOM     20  H   LIG d   1     -17.326  68.315 115.662  0.00  0.00    -0.090 HD
ATOM     21  H   LIG d   1     -15.729  68.437 116.004  0.00  0.00    -0.090 HD
ENDBRANCH   5  18
BRANCH   3  22
ATOM     22  C   LIG d   1     -17.433  63.607 115.757  0.00  0.00     0.382 C 
ATOM     23  O   LIG d   1     -16.972  62.441 115.710  0.00  0.00    -0.241 OA
ATOM     24  O   LIG d   1     -18.487  63.875 115.150  0.00  0.00    -0.241 OA
ENDBRANCH   3  22
TORSDOF 7
ENDMDL
