MODEL 1
REMARK VINA RESULT:      -5.6      0.000      0.000
REMARK  7 active torsions:
REMARK  status: ('A' for Active; 'I' for Inactive)
REMARK    1  A    between atoms: C_2  and  C_3 
REMARK    2  A    between atoms: C_3  and  O_6 
REMARK    3  A    between atoms: C_3  and  C_4 
REMARK    4  A    between atoms: C_7  and  O_6 
REMARK    5  A    between atoms: C_9  and  C_10 
REMARK    6  A    between atoms: N_15  and  C_14 
REMARK    7  A    between atoms: N_20  and  C_19 
REMARK       I    between atoms: C_22  and  N_20 
ROOT
ATOM      1  C   LIG d   1      -8.032  75.149 116.710  0.00  0.00     0.161 C 
ATOM      2  C   LIG d   1      -6.837  74.619 116.196  0.00  0.00     0.016 C 
ATOM      3  C   LIG d   1      -5.618  74.610 116.912  0.00  0.00     0.038 C 
ATOM      4  C   LIG d   1      -5.546  74.998 118.258  0.00  0.00     0.028 C 
ATOM      5  C   LIG d   1      -6.616  76.010 118.655  0.00  0.00    -0.047 C 
ATOM      6  C   LIG d   1      -7.999  75.476 118.218  0.00  0.00     0.091 C 
ENDROOT
BRANCH   1   7
ATOM      7  O   LIG d   1      -9.128  74.262 116.413  0.00  0.00    -0.368 OA
BRANCH   7   8
ATOM      8  C   LIG d   1      -9.209  73.058 117.216  0.00  0.00     0.119 C 
BRANCH   8   9
ATOM      9  C   LIG d   1      -9.267  71.860 116.248  0.00  0.00     0.028 C 
ATOM     10  C   LIG d   1      -7.933  71.098 116.177  0.00  0.00     0.006 C 
ENDBRANCH   8   9
BRANCH   8  11
ATOM     11  C   LIG d   1     -10.518  73.003 118.008  0.00  0.00     0.028 C 
ATOM     12  C   LIG d   1     -11.562  74.013 117.505  0.00  0.00     0.006 C 
ENDBRANCH   8  11
ENDBRANCH   7   8
ENDBRANCH   1   7
BRANCH   6  13
ATOM     13  N   LIG d   1      -9.093  76.443 118.493  0.00  0.00    -0.311 N 
ATOM     14  C   LIG d   1      -9.845  76.407 119.592  0.00  0.00     0.210 C 
ATOM     15  C   LIG d   1     -10.931  77.484 119.668  0.00  0.00     0.109 C 
ATOM     16  O   LIG d   1      -9.694  75.604 120.526  0.00  0.00    -0.276 OA
ATOM     17  H   LIG d   1      -9.264  77.147 117.802  0.00  0.00     0.149 HD
ENDBRANCH   6  13
BRANCH   5  18
ATOM     18  N   LIG d   1      -6.512  76.221 120.111  0.00  0.00     0.381 N 
ATOM     19  H   LIG d   1      -7.037  75.519 120.594  0.00  0.00    -0.090 HD
ATOM     20  H   LIG d   1      -6.902  77.118 120.339  0.00  0.00    -0.090 HD
ATOM     21  H   LIG d   1      -5.557  76.184 120.394  0.00  0.00    -0.090 HD
ENDBRANCH   5  18
BRANCH   3  22
ATOM     22  C   LIG d   1      -4.445  74.247 116.268  0.00  0.00     0.382 C 
ATOM     23  O   LIG d   1      -4.315  74.456 115.037  0.00  0.00    -0.241 OA
ATOM     24  O   LIG d   1      -3.533  73.674 116.892  0.00  0.00    -0.241 OA
ENDBRANCH   3  22
TORSDOF 7
ENDMDL
MODEL 2
REMARK VINA RESULT:      -5.5      2.140      5.054
REMARK  7 active torsions:
REMARK  status: ('A' for Active; 'I' for Inactive)
REMARK    1  A    between atoms: C_2  and  C_3 
REMARK    2  A    between atoms: C_3  and  O_6 
REMARK    3  A    between atoms: C_3  and  C_4 
REMARK    4  A    between atoms: C_7  and  O_6 
REMARK    5  A    between atoms: C_9  and  C_10 
REMARK    6  A    between atoms: N_15  and  C_14 
REMARK    7  A    between atoms: N_20  and  C_19 
REMARK       I    between atoms: C_22  and  N_20 
ROOT
ATOM      1  C   LIG d   1      -8.791  75.134 118.068  0.00  0.00     0.161 C 
ATOM      2  C   LIG d   1     -10.148  75.265 118.407  0.00  0.00     0.016 C 
ATOM      3  C   LIG d   1     -10.730  76.482 118.831  0.00  0.00     0.038 C 
ATOM      4  C   LIG d   1     -10.022  77.693 118.800  0.00  0.00     0.028 C 
ATOM      5  C   LIG d   1      -8.515  77.518 118.947  0.00  0.00    -0.047 C 
ATOM      6  C   LIG d   1      -8.029  76.468 117.921  0.00  0.00     0.091 C 
ENDROOT
BRANCH   1   7
ATOM      7  O   LIG d   1      -8.661  74.348 116.866  0.00  0.00    -0.368 OA
BRANCH   7   8
ATOM      8  C   LIG d   1      -8.393  72.937 117.054  0.00  0.00     0.119 C 
BRANCH   8   9
ATOM      9  C   LIG d   1      -7.267  72.546 116.077  0.00  0.00     0.028 C 
ATOM     10  C   LIG d   1      -6.677  73.763 115.344  0.00  0.00     0.006 C 
ENDBRANCH   8   9
BRANCH   8  11
ATOM     11  C   LIG d   1      -9.597  72.082 116.648  0.00  0.00     0.028 C 
ATOM     12  C   LIG d   1      -9.275  70.579 116.610  0.00  0.00     0.006 C 
ENDBRANCH   8  11
ENDBRANCH   7   8
ENDBRANCH   1   7
BRANCH   6  13
ATOM     13  N   LIG d   1      -6.578  76.175 118.053  0.00  0.00    -0.311 N 
ATOM     14  C   LIG d   1      -5.639  76.773 117.322  0.00  0.00     0.210 C 
ATOM     15  C   LIG d   1      -4.207  76.309 117.604  0.00  0.00     0.109 C 
ATOM     16  O   LIG d   1      -5.854  77.667 116.490  0.00  0.00    -0.276 OA
ATOM     17  H   LIG d   1      -6.312  75.484 118.728  0.00  0.00     0.149 HD
ENDBRANCH   6  13
BRANCH   5  18
ATOM     18  N   LIG d   1      -7.892  78.841 118.758  0.00  0.00     0.381 N 
ATOM     19  H   LIG d   1      -8.577  79.496 118.439  0.00  0.00    -0.090 HD
ATOM     20  H   LIG d   1      -7.176  78.767 118.057  0.00  0.00    -0.090 HD
ATOM     21  H   LIG d   1      -7.495  79.157 119.616  0.00  0.00    -0.090 HD
ENDBRANCH   5  18
BRANCH   3  22
ATOM     22  C   LIG d   1     -12.023  76.487 119.331  0.00  0.00     0.382 C 
ATOM     23  O   LIG d   1     -12.980  76.142 118.597  0.00  0.00    -0.241 OA
ATOM     24  O   LIG d   1     -12.250  76.876 120.493  0.00  0.00    -0.241 OA
ENDBRANCH   3  22
TORSDOF 7
ENDMDL
MODEL 3
REMARK VINA RESULT:      -5.3      2.413      5.445
REMARK  7 active torsions:
REMARK  status: ('A' for Active; 'I' for Inactive)
REMARK    1  A    between atoms: C_2  and  C_3 
REMARK    2  A    between atoms: C_3  and  O_6 
REMARK    3  A    between atoms: C_3  and  C_4 
REMARK    4  A    between atoms: C_7  and  O_6 
REMARK    5  A    between atoms: C_9  and  C_10 
REMARK    6  A    between atoms: N_15  and  C_14 
REMARK    7  A    between atoms: N_20  and  C_19 
REMARK       I    between atoms: C_22  and  N_20 
ROOT
ATOM      1  C   LIG d   1      -8.419  75.506 117.750  0.00  0.00     0.161 C 
ATOM      2  C   LIG d   1      -8.552  76.816 118.241  0.00  0.00     0.016 C 
ATOM      3  C   LIG d   1      -9.793  77.387 118.606  0.00  0.00     0.038 C 
ATOM      4  C   LIG d   1     -10.974  76.631 118.648  0.00  0.00     0.028 C 
ATOM      5  C   LIG d   1     -10.973  75.452 117.681  0.00  0.00    -0.047 C 
ATOM      6  C   LIG d   1      -9.681  74.630 117.894  0.00  0.00     0.091 C 
ENDROOT
BRANCH   1   7
ATOM      7  O   LIG d   1      -7.289  74.864 118.373  0.00  0.00    -0.368 OA
BRANCH   7   8
ATOM      8  C   LIG d   1      -6.045  74.903 117.632  0.00  0.00     0.119 C 
BRANCH   8   9
ATOM      9  C   LIG d   1      -5.951  73.599 116.815  0.00  0.00     0.028 C 
ATOM     10  C   LIG d   1      -6.324  73.805 115.337  0.00  0.00     0.006 C 
ENDBRANCH   8   9
BRANCH   8  11
ATOM     11  C   LIG d   1      -4.835  74.881 118.571  0.00  0.00     0.028 C 
ATOM     12  C   LIG d   1      -3.901  73.688 118.312  0.00  0.00     0.006 C 
ENDBRANCH   8  11
ENDBRANCH   7   8
ENDBRANCH   1   7
BRANCH   6  13
ATOM     13  N   LIG d   1      -9.560  73.505 116.930  0.00  0.00    -0.311 N 
ATOM     14  C   LIG d   1      -9.481  72.228 117.300  0.00  0.00     0.210 C 
ATOM     15  C   LIG d   1      -9.341  71.228 116.148  0.00  0.00     0.109 C 
ATOM     16  O   LIG d   1      -9.546  71.826 118.472  0.00  0.00    -0.276 OA
ATOM     17  H   LIG d   1      -9.531  73.739 115.957  0.00  0.00     0.149 HD
ENDBRANCH   6  13
BRANCH   5  18
ATOM     18  N   LIG d   1     -12.201  74.673 117.928  0.00  0.00     0.381 N 
ATOM     19  H   LIG d   1     -12.447  74.159 117.105  0.00  0.00    -0.090 HD
ATOM     20  H   LIG d   1     -12.951  75.307 118.140  0.00  0.00    -0.090 HD
ATOM     21  H   LIG d   1     -12.060  74.046 118.689  0.00  0.00    -0.090 HD
ENDBRANCH   5  18
BRANCH   3  22
ATOM     22  C   LIG d   1      -9.867  78.741 118.896  0.00  0.00     0.382 C 
ATOM     23  O   LIG d   1     -10.923  79.224 119.372  0.00  0.00    -0.241 OA
ATOM     24  O   LIG d   1      -8.906  79.494 118.647  0.00  0.00    -0.241 OA
ENDBRANCH   3  22
TORSDOF 7
ENDMDL
MODEL 4
REMARK VINA RESULT:      -5.3      2.239      5.111
REMARK  7 active torsions:
REMARK  status: ('A' for Active; 'I' for Inactive)
REMARK    1  A    between atoms: C_2  and  C_3 
REMARK    2  A    between atoms: C_3  and  O_6 
REMARK    3  A    between atoms: C_3  and  C_4 
REMARK    4  A    between atoms: C_7  and  O_6 
REMARK    5  A    between atoms: C_9  and  C_10 
REMARK    6  A    between atoms: N_15  and  C_14 
REMARK    7  A    between atoms: N_20  and  C_19 
REMARK       I    between atoms: C_22  and  N_20 
ROOT
ATOM      1  C   LIG d   1      -8.498  75.321 117.045  0.00  0.00     0.161 C 
ATOM      2  C   LIG d   1      -9.874  75.048 117.135  0.00  0.00     0.016 C 
ATOM      3  C   LIG d   1     -10.754  75.759 117.983  0.00  0.00     0.038 C 
ATOM      4  C   LIG d   1     -10.342  76.898 118.691  0.00  0.00     0.028 C 
ATOM      5  C   LIG d   1      -8.853  76.902 119.020  0.00  0.00    -0.047 C 
ATOM      6  C   LIG d   1      -8.053  76.632 117.726  0.00  0.00     0.091 C 
ENDROOT
BRANCH   1   7
ATOM      7  O   LIG d   1      -8.088  75.309 115.663  0.00  0.00    -0.368 OA
BRANCH   7   8
ATOM      8  C   LIG d   1      -7.303  74.166 115.241  0.00  0.00     0.119 C 
BRANCH   8   9
ATOM      9  C   LIG d   1      -7.096  73.266 116.474  0.00  0.00     0.028 C 
ATOM     10  C   LIG d   1      -7.732  71.876 116.300  0.00  0.00     0.006 C 
ENDBRANCH   8   9
BRANCH   8  11
ATOM     11  C   LIG d   1      -5.896  74.587 114.805  0.00  0.00     0.028 C 
ATOM     12  C   LIG d   1      -4.829  74.291 115.871  0.00  0.00     0.006 C 
ENDBRANCH   8  11
ENDBRANCH   7   8
ENDBRANCH   1   7
BRANCH   6  13
ATOM     13  N   LIG d   1      -6.590  76.535 117.973  0.00  0.00    -0.311 N 
ATOM     14  C   LIG d   1      -5.745  77.546 117.776  0.00  0.00     0.210 C 
ATOM     15  C   LIG d   1      -4.277  77.228 118.074  0.00  0.00     0.109 C 
ATOM     16  O   LIG d   1      -6.077  78.684 117.414  0.00  0.00    -0.276 OA
ATOM     17  H   LIG d   1      -6.240  75.656 118.299  0.00  0.00     0.149 HD
ENDBRANCH   6  13
BRANCH   5  18
ATOM     18  N   LIG d   1      -8.536  78.205 119.634  0.00  0.00     0.381 N 
ATOM     19  H   LIG d   1      -9.233  78.877 119.382  0.00  0.00    -0.090 HD
ATOM     20  H   LIG d   1      -7.650  78.523 119.282  0.00  0.00    -0.090 HD
ATOM     21  H   LIG d   1      -8.495  78.114 120.625  0.00  0.00    -0.090 HD
ENDBRANCH   5  18
BRANCH   3  22
ATOM     22  C   LIG d   1     -12.052  75.307 118.160  0.00  0.00     0.382 C 
ATOM     23  O   LIG d   1     -12.358  74.135 117.833  0.00  0.00    -0.241 OA
ATOM     24  O   LIG d   1     -12.932  76.070 118.601  0.00  0.00    -0.241 OA
ENDBRANCH   3  22
TORSDOF 7
ENDMDL
MODEL 5
REMARK VINA RESULT:      -5.3     16.316     17.988
REMARK  7 active torsions:
REMARK  status: ('A' for Active; 'I' for Inactive)
REMARK    1  A    between atoms: C_2  and  C_3 
REMARK    2  A    between atoms: C_3  and  O_6 
REMARK    3  A    between atoms: C_3  and  C_4 
REMARK    4  A    between atoms: C_7  and  O_6 
REMARK    5  A    between atoms: C_9  and  C_10 
REMARK    6  A    between atoms: N_15  and  C_14 
REMARK    7  A    between atoms: N_20  and  C_19 
REMARK       I    between atoms: C_22  and  N_20 
ROOT
ATOM      1  C   LIG d   1      -4.629  91.491 117.436  0.00  0.00     0.161 C 
ATOM      2  C   LIG d   1      -3.661  92.327 118.016  0.00  0.00     0.016 C 
ATOM      3  C   LIG d   1      -3.979  93.437 118.831  0.00  0.00     0.038 C 
ATOM      4  C   LIG d   1      -5.293  93.699 119.247  0.00  0.00     0.028 C 
ATOM      5  C   LIG d   1      -6.350  93.183 118.277  0.00  0.00    -0.047 C 
ATOM      6  C   LIG d   1      -6.063  91.695 117.968  0.00  0.00     0.091 C 
ENDROOT
BRANCH   1   7
ATOM      7  O   LIG d   1      -4.234  90.112 117.578  0.00  0.00    -0.368 OA
BRANCH   7   8
ATOM      8  C   LIG d   1      -2.845  89.880 117.917  0.00  0.00     0.119 C 
BRANCH   8   9
ATOM      9  C   LIG d   1      -2.218  89.063 116.770  0.00  0.00     0.028 C 
ATOM     10  C   LIG d   1      -0.713  89.336 116.609  0.00  0.00     0.006 C 
ENDBRANCH   8   9
BRANCH   8  11
ATOM     11  C   LIG d   1      -2.715  88.996 119.161  0.00  0.00     0.028 C 
ATOM     12  C   LIG d   1      -2.265  89.780 120.404  0.00  0.00     0.006 C 
ENDBRANCH   8  11
ENDBRANCH   7   8
ENDBRANCH   1   7
BRANCH   6  13
ATOM     13  N   LIG d   1      -7.001  91.134 116.961  0.00  0.00    -0.311 N 
ATOM     14  C   LIG d   1      -6.961  91.447 115.667  0.00  0.00     0.210 C 
ATOM     15  C   LIG d   1      -8.032  90.771 114.805  0.00  0.00     0.109 C 
ATOM     16  O   LIG d   1      -6.119  92.194 115.146  0.00  0.00    -0.276 OA
ATOM     17  H   LIG d   1      -7.697  90.495 117.293  0.00  0.00     0.149 HD
ENDBRANCH   6  13
BRANCH   5  18
ATOM     18  N   LIG d   1      -7.670  93.400 118.899  0.00  0.00     0.381 N 
ATOM     19  H   LIG d   1      -8.178  94.090 118.382  0.00  0.00    -0.090 HD
ATOM     20  H   LIG d   1      -7.537  93.741 119.834  0.00  0.00    -0.090 HD
ATOM     21  H   LIG d   1      -8.182  92.546 118.919  0.00  0.00    -0.090 HD
ENDBRANCH   5  18
BRANCH   3  22
ATOM     22  C   LIG d   1      -2.981  94.323 119.207  0.00  0.00     0.382 C 
ATOM     23  O   LIG d   1      -3.078  94.957 120.285  0.00  0.00    -0.241 OA
ATOM     24  O   LIG d   1      -2.005  94.529 118.460  0.00  0.00    -0.241 OA
ENDBRANCH   3  22
TORSDOF 7
ENDMDL
MODEL 6
REMARK VINA RESULT:      -5.2     17.064     19.127
REMARK  7 active torsions:
REMARK  status: ('A' for Active; 'I' for Inactive)
REMARK    1  A    between atoms: C_2  and  C_3 
REMARK    2  A    between atoms: C_3  and  O_6 
REMARK    3  A    between atoms: C_3  and  C_4 
REMARK    4  A    between atoms: C_7  and  O_6 
REMARK    5  A    between atoms: C_9  and  C_10 
REMARK    6  A    between atoms: N_15  and  C_14 
REMARK    7  A    between atoms: N_20  and  C_19 
REMARK       I    between atoms: C_22  and  N_20 
ROOT
ATOM      1  C   LIG d   1      -6.251  93.310 117.990  0.00  0.00     0.161 C 
ATOM      2  C   LIG d   1      -7.018  92.450 117.187  0.00  0.00     0.016 C 
ATOM      3  C   LIG d   1      -6.477  91.337 116.502  0.00  0.00     0.038 C 
ATOM      4  C   LIG d   1      -5.153  90.918 116.697  0.00  0.00     0.028 C 
ATOM      5  C   LIG d   1      -4.213  92.049 117.103  0.00  0.00    -0.047 C 
ATOM      6  C   LIG d   1      -4.827  92.805 118.304  0.00  0.00     0.091 C 
ENDROOT
BRANCH   1   7
ATOM      7  O   LIG d   1      -6.960  93.600 119.211  0.00  0.00    -0.368 OA
BRANCH   7   8
ATOM      8  C   LIG d   1      -7.623  94.887 119.273  0.00  0.00     0.119 C 
BRANCH   8   9
ATOM      9  C   LIG d   1      -7.105  95.615 120.528  0.00  0.00     0.028 C 
ATOM     10  C   LIG d   1      -5.953  96.583 120.212  0.00  0.00     0.006 C 
ENDBRANCH   8   9
BRANCH   8  11
ATOM     11  C   LIG d   1      -9.131  94.727 119.490  0.00  0.00     0.028 C 
ATOM     12  C   LIG d   1      -9.486  94.334 120.933  0.00  0.00     0.006 C 
ENDBRANCH   8  11
ENDBRANCH   7   8
ENDBRANCH   1   7
BRANCH   6  13
ATOM     13  N   LIG d   1      -4.012  93.979 118.711  0.00  0.00    -0.311 N 
ATOM     14  C   LIG d   1      -3.097  93.937 119.678  0.00  0.00     0.210 C 
ATOM     15  C   LIG d   1      -2.384  95.264 119.952  0.00  0.00     0.109 C 
ATOM     16  O   LIG d   1      -2.786  92.918 120.312  0.00  0.00    -0.276 OA
ATOM     17  H   LIG d   1      -4.178  94.839 118.226  0.00  0.00     0.149 HD
ENDBRANCH   6  13
BRANCH   5  18
ATOM     18  N   LIG d   1      -2.900  91.450 117.407  0.00  0.00     0.381 N 
ATOM     19  H   LIG d   1      -2.658  90.787 116.698  0.00  0.00    -0.090 HD
ATOM     20  H   LIG d   1      -2.960  90.964 118.285  0.00  0.00    -0.090 HD
ATOM     21  H   LIG d   1      -2.205  92.161 117.459  0.00  0.00    -0.090 HD
ENDBRANCH   5  18
BRANCH   3  22
ATOM     22  C   LIG d   1      -7.255  90.654 115.580  0.00  0.00     0.382 C 
ATOM     23  O   LIG d   1      -7.050  89.434 115.368  0.00  0.00    -0.241 OA
ATOM     24  O   LIG d   1      -8.130  91.252 114.925  0.00  0.00    -0.241 OA
ENDBRANCH   3  22
TORSDOF 7
ENDMDL
MODEL 7
REMARK VINA RESULT:      -5.2     16.196     18.032
REMARK  7 active torsions:
REMARK  status: ('A' for Active; 'I' for Inactive)
REMARK    1  A    between atoms: C_2  and  C_3 
REMARK    2  A    between atoms: C_3  and  O_6 
REMARK    3  A    between atoms: C_3  and  C_4 
REMARK    4  A    between atoms: C_7  and  O_6 
REMARK    5  A    between atoms: C_9  and  C_10 
REMARK    6  A    between atoms: N_15  and  C_14 
REMARK    7  A    between atoms: N_20  and  C_19 
REMARK       I    between atoms: C_22  and  N_20 
ROOT
ATOM      1  C   LIG d   1      -4.536  91.274 117.827  0.00  0.00     0.161 C 
ATOM      2  C   LIG d   1      -5.391  90.681 116.883  0.00  0.00     0.016 C 
ATOM      3  C   LIG d   1      -6.558  91.307 116.388  0.00  0.00     0.038 C 
ATOM      4  C   LIG d   1      -6.870  92.640 116.693  0.00  0.00     0.028 C 
ATOM      5  C   LIG d   1      -6.309  93.102 118.034  0.00  0.00    -0.047 C 
ATOM      6  C   LIG d   1      -4.800  92.772 118.088  0.00  0.00     0.091 C 
ENDROOT
BRANCH   1   7
ATOM      7  O   LIG d   1      -3.163  91.067 117.442  0.00  0.00    -0.368 OA
BRANCH   7   8
ATOM      8  C   LIG d   1      -2.468  89.987 118.112  0.00  0.00     0.119 C 
BRANCH   8   9
ATOM      9  C   LIG d   1      -1.171  90.569 118.707  0.00  0.00     0.028 C 
ATOM     10  C   LIG d   1      -1.187  90.587 120.244  0.00  0.00     0.006 C 
ENDBRANCH   8   9
BRANCH   8  11
ATOM     11  C   LIG d   1      -2.013  88.915 117.118  0.00  0.00     0.028 C 
ATOM     12  C   LIG d   1      -0.561  89.111 116.653  0.00  0.00     0.006 C 
ENDBRANCH   8  11
ENDBRANCH   7   8
ENDBRANCH   1   7
BRANCH   6  13
ATOM     13  N   LIG d   1      -4.191  93.115 119.399  0.00  0.00    -0.311 N 
ATOM     14  C   LIG d   1      -3.051  93.791 119.524  0.00  0.00     0.210 C 
ATOM     15  C   LIG d   1      -2.589  94.021 120.966  0.00  0.00     0.109 C 
ATOM     16  O   LIG d   1      -2.394  94.251 118.577  0.00  0.00    -0.276 OA
ATOM     17  H   LIG d   1      -4.674  92.807 120.221  0.00  0.00     0.149 HD
ENDBRANCH   6  13
BRANCH   5  18
ATOM     18  N   LIG d   1      -6.590  94.545 118.161  0.00  0.00     0.381 N 
ATOM     19  H   LIG d   1      -6.979  94.891 117.307  0.00  0.00    -0.090 HD
ATOM     20  H   LIG d   1      -5.728  95.030 118.335  0.00  0.00    -0.090 HD
ATOM     21  H   LIG d   1      -7.226  94.703 118.912  0.00  0.00    -0.090 HD
ENDBRANCH   5  18
BRANCH   3  22
ATOM     22  C   LIG d   1      -7.448  90.584 115.609  0.00  0.00     0.382 C 
ATOM     23  O   LIG d   1      -7.448  89.330 115.658  0.00  0.00    -0.241 OA
ATOM     24  O   LIG d   1      -8.220  91.167 114.826  0.00  0.00    -0.241 OA
ENDBRANCH   3  22
TORSDOF 7
ENDMDL
MODEL 8
REMARK VINA RESULT:      -5.1      1.037      2.048
REMARK  7 active torsions:
REMARK  status: ('A' for Active; 'I' for Inactive)
REMARK    1  A    between atoms: C_2  and  C_3 
REMARK    2  A    between atoms: C_3  and  O_6 
REMARK    3  A    between atoms: C_3  and  C_4 
REMARK    4  A    between atoms: C_7  and  O_6 
REMARK    5  A    between atoms: C_9  and  C_10 
REMARK    6  A    between atoms: N_15  and  C_14 
REMARK    7  A    between atoms: N_20  and  C_19 
REMARK       I    between atoms: C_22  and  N_20 
ROOT
ATOM      1  C   LIG d   1      -7.025  74.734 117.276  0.00  0.00     0.161 C 
ATOM      2  C   LIG d   1      -5.813  74.170 116.846  0.00  0.00     0.016 C 
ATOM      3  C   LIG d   1      -4.548  74.594 117.316  0.00  0.00     0.038 C 
ATOM      4  C   LIG d   1      -4.417  75.514 118.366  0.00  0.00     0.028 C 
ATOM      5  C   LIG d   1      -5.595  76.477 118.478  0.00  0.00    -0.047 C 
ATOM      6  C   LIG d   1      -6.908  75.662 118.503  0.00  0.00     0.091 C 
ENDROOT
BRANCH   1   7
ATOM      7  O   LIG d   1      -7.988  73.691 117.527  0.00  0.00    -0.368 OA
BRANCH   7   8
ATOM      8  C   LIG d   1      -8.898  73.388 116.441  0.00  0.00     0.119 C 
BRANCH   8   9
ATOM      9  C   LIG d   1     -10.225  74.114 116.733  0.00  0.00     0.028 C 
ATOM     10  C   LIG d   1     -10.982  73.497 117.922  0.00  0.00     0.006 C 
ENDBRANCH   8   9
BRANCH   8  11
ATOM     11  C   LIG d   1      -9.249  71.898 116.408  0.00  0.00     0.028 C 
ATOM     12  C   LIG d   1      -8.021  71.001 116.182  0.00  0.00     0.006 C 
ENDBRANCH   8  11
ENDBRANCH   7   8
ENDBRANCH   1   7
BRANCH   6  13
ATOM     13  N   LIG d   1      -8.114  76.531 118.526  0.00  0.00    -0.311 N 
ATOM     14  C   LIG d   1      -9.105  76.386 119.404  0.00  0.00     0.210 C 
ATOM     15  C   LIG d   1     -10.263  77.375 119.240  0.00  0.00     0.109 C 
ATOM     16  O   LIG d   1      -9.120  75.553 120.322  0.00  0.00    -0.276 OA
ATOM     17  H   LIG d   1      -8.169  77.254 117.835  0.00  0.00     0.149 HD
ENDBRANCH   6  13
BRANCH   5  18
ATOM     18  N   LIG d   1      -5.394  77.287 119.694  0.00  0.00     0.381 N 
ATOM     19  H   LIG d   1      -4.434  77.560 119.764  0.00  0.00    -0.090 HD
ATOM     20  H   LIG d   1      -5.622  76.729 120.498  0.00  0.00    -0.090 HD
ATOM     21  H   LIG d   1      -5.975  78.096 119.665  0.00  0.00    -0.090 HD
ENDBRANCH   5  18
BRANCH   3  22
ATOM     22  C   LIG d   1      -3.396  74.124 116.704  0.00  0.00     0.382 C 
ATOM     23  O   LIG d   1      -2.521  73.535 117.384  0.00  0.00    -0.241 OA
ATOM     24  O   LIG d   1      -3.200  74.321 115.490  0.00  0.00    -0.241 OA
ENDBRANCH   3  22
TORSDOF 7
ENDMDL
MODEL 9
REMARK VINA RESULT:      -5.0      1.997      4.331
REMARK  7 active torsions:
REMARK  status: ('A' for Active; 'I' for Inactive)
REMARK    1  A    between atoms: C_2  and  C_3 
REMARK    2  A    between atoms: C_3  and  O_6 
REMARK    3  A    between atoms: C_3  and  C_4 
REMARK    4  A    between atoms: C_7  and  O_6 
REMARK    5  A    between atoms: C_9  and  C_10 
REMARK    6  A    between atoms: N_15  and  C_14 
REMARK    7  A    between atoms: N_20  and  C_19 
REMARK       I    between atoms: C_22  and  N_20 
ROOT
ATOM      1  C   LIG d   1      -7.505  74.779 116.930  0.00  0.00     0.161 C 
ATOM      2  C   LIG d   1      -7.584  73.482 116.395  0.00  0.00     0.016 C 
ATOM      3  C   LIG d   1      -8.665  72.604 116.639  0.00  0.00     0.038 C 
ATOM      4  C   LIG d   1      -9.820  73.021 117.317  0.00  0.00     0.028 C 
ATOM      5  C   LIG d   1      -9.567  74.155 118.304  0.00  0.00    -0.047 C 
ATOM      6  C   LIG d   1      -8.807  75.290 117.581  0.00  0.00     0.091 C 
ENDROOT
BRANCH   1   7
ATOM      7  O   LIG d   1      -7.056  75.699 115.916  0.00  0.00    -0.368 OA
BRANCH   7   8
ATOM      8  C   LIG d   1      -5.713  76.219 116.076  0.00  0.00     0.119 C 
BRANCH   8   9
ATOM      9  C   LIG d   1      -4.795  75.430 115.123  0.00  0.00     0.028 C 
ATOM     10  C   LIG d   1      -3.793  74.539 115.877  0.00  0.00     0.006 C 
ENDBRANCH   8   9
BRANCH   8  11
ATOM     11  C   LIG d   1      -5.173  75.942 117.482  0.00  0.00     0.028 C 
ATOM     12  C   LIG d   1      -4.953  77.225 118.299  0.00  0.00     0.006 C 
ENDBRANCH   8  11
ENDBRANCH   7   8
ENDBRANCH   1   7
BRANCH   6  13
ATOM     13  N   LIG d   1      -8.446  76.404 118.496  0.00  0.00    -0.311 N 
ATOM     14  C   LIG d   1      -9.259  77.423 118.769  0.00  0.00     0.210 C 
ATOM     15  C   LIG d   1      -8.682  78.473 119.722  0.00  0.00     0.109 C 
ATOM     16  O   LIG d   1     -10.416  77.539 118.337  0.00  0.00    -0.276 OA
ATOM     17  H   LIG d   1      -7.537  76.373 118.915  0.00  0.00     0.149 HD
ENDBRANCH   6  13
BRANCH   5  18
ATOM     18  N   LIG d   1     -10.875  74.583 118.837  0.00  0.00     0.381 N 
ATOM     19  H   LIG d   1     -11.610  74.185 118.288  0.00  0.00    -0.090 HD
ATOM     20  H   LIG d   1     -10.940  75.583 118.775  0.00  0.00    -0.090 HD
ATOM     21  H   LIG d   1     -10.966  74.295 119.787  0.00  0.00    -0.090 HD
ENDBRANCH   5  18
BRANCH   3  22
ATOM     22  C   LIG d   1      -8.579  71.280 116.237  0.00  0.00     0.382 C 
ATOM     23  O   LIG d   1      -9.482  70.469 116.553  0.00  0.00    -0.241 OA
ATOM     24  O   LIG d   1      -7.588  70.877 115.599  0.00  0.00    -0.241 OA
ENDBRANCH   3  22
TORSDOF 7
ENDMDL
