MODEL 1
REMARK VINA RESULT:      -5.5      0.000      0.000
REMARK  7 active torsions:
REMARK  status: ('A' for Active; 'I' for Inactive)
REMARK    1  A    between atoms: C_2  and  C_3 
REMARK    2  A    between atoms: C_3  and  O_6 
REMARK    3  A    between atoms: C_3  and  C_4 
REMARK    4  A    between atoms: C_7  and  O_6 
REMARK    5  A    between atoms: C_9  and  C_10 
REMARK    6  A    between atoms: N_15  and  C_14 
REMARK    7  A    between atoms: N_20  and  C_19 
REMARK       I    between atoms: C_22  and  N_20 
ROOT
ATOM      1  C   LIG d   1      -6.448  93.641 117.517  0.00  0.00     0.161 C 
ATOM      2  C   LIG d   1      -6.973  92.490 116.906  0.00  0.00     0.016 C 
ATOM      3  C   LIG d   1      -6.216  91.320 116.669  0.00  0.00     0.038 C 
ATOM      4  C   LIG d   1      -4.914  91.166 117.168  0.00  0.00     0.028 C 
ATOM      5  C   LIG d   1      -4.174  92.487 117.348  0.00  0.00    -0.047 C 
ATOM      6  C   LIG d   1      -5.061  93.452 118.167  0.00  0.00     0.091 C 
ENDROOT
BRANCH   1   7
ATOM      7  O   LIG d   1      -7.388  94.154 118.481  0.00  0.00    -0.368 OA
BRANCH   7   8
ATOM      8  C   LIG d   1      -8.364  95.100 117.978  0.00  0.00     0.119 C 
BRANCH   8   9
ATOM      9  C   LIG d   1      -7.598  96.360 117.528  0.00  0.00     0.028 C 
ATOM     10  C   LIG d   1      -8.456  97.632 117.619  0.00  0.00     0.006 C 
ENDBRANCH   8   9
BRANCH   8  11
ATOM     11  C   LIG d   1      -9.305  95.574 119.090  0.00  0.00     0.028 C 
ATOM     12  C   LIG d   1      -9.771  94.430 120.004  0.00  0.00     0.006 C 
ENDBRANCH   8  11
ENDBRANCH   7   8
ENDBRANCH   1   7
BRANCH   6  13
ATOM     13  N   LIG d   1      -4.448  94.797 118.317  0.00  0.00    -0.311 N 
ATOM     14  C   LIG d   1      -4.346  95.430 119.485  0.00  0.00     0.210 C 
ATOM     15  C   LIG d   1      -3.698  96.817 119.414  0.00  0.00     0.109 C 
ATOM     16  O   LIG d   1      -4.701  94.962 120.577  0.00  0.00    -0.276 OA
ATOM     17  H   LIG d   1      -4.105  95.237 117.486  0.00  0.00     0.149 HD
ENDBRANCH   6  13
BRANCH   5  18
ATOM     18  N   LIG d   1      -2.885  92.191 118.001  0.00  0.00     0.381 N 
ATOM     19  H   LIG d   1      -3.017  91.502 118.714  0.00  0.00    -0.090 HD
ATOM     20  H   LIG d   1      -2.540  93.030 118.434  0.00  0.00    -0.090 HD
ATOM     21  H   LIG d   1      -2.229  91.861 117.328  0.00  0.00    -0.090 HD
ENDBRANCH   5  18
BRANCH   3  22
ATOM     22  C   LIG d   1      -6.748  90.302 115.892  0.00  0.00     0.382 C 
ATOM     23  O   LIG d   1      -5.985  89.525 115.268  0.00  0.00    -0.241 OA
ATOM     24  O   LIG d   1      -7.981  90.179 115.771  0.00  0.00    -0.241 OA
ENDBRANCH   3  22
TORSDOF 7
ENDMDL
MODEL 2
REMARK VINA RESULT:      -5.5      2.342      4.793
REMARK  7 active torsions:
REMARK  status: ('A' for Active; 'I' for Inactive)
REMARK    1  A    between atoms: C_2  and  C_3 
REMARK    2  A    between atoms: C_3  and  O_6 
REMARK    3  A    between atoms: C_3  and  C_4 
REMARK    4  A    between atoms: C_7  and  O_6 
REMARK    5  A    between atoms: C_9  and  C_10 
REMARK    6  A    between atoms: N_15  and  C_14 
REMARK    7  A    between atoms: N_20  and  C_19 
REMARK       I    between atoms: C_22  and  N_20 
ROOT
ATOM      1  C   LIG d   1      -4.754  92.034 118.012  0.00  0.00     0.161 C 
ATOM      2  C   LIG d   1      -5.176  91.139 117.015  0.00  0.00     0.016 C 
ATOM      3  C   LIG d   1      -6.184  91.444 116.072  0.00  0.00     0.038 C 
ATOM      4  C   LIG d   1      -6.737  92.729 115.966  0.00  0.00     0.028 C 
ATOM      5  C   LIG d   1      -6.704  93.512 117.274  0.00  0.00    -0.047 C 
ATOM      6  C   LIG d   1      -5.267  93.480 117.842  0.00  0.00     0.091 C 
ENDROOT
BRANCH   1   7
ATOM      7  O   LIG d   1      -3.316  92.020 118.104  0.00  0.00    -0.368 OA
BRANCH   7   8
ATOM      8  C   LIG d   1      -2.747  91.085 119.053  0.00  0.00     0.119 C 
BRANCH   8   9
ATOM      9  C   LIG d   1      -1.950  91.902 120.088  0.00  0.00     0.028 C 
ATOM     10  C   LIG d   1      -1.128  93.028 119.439  0.00  0.00     0.006 C 
ENDBRANCH   8   9
BRANCH   8  11
ATOM     11  C   LIG d   1      -1.720  90.167 118.383  0.00  0.00     0.028 C 
ATOM     12  C   LIG d   1      -2.319  88.821 117.946  0.00  0.00     0.006 C 
ENDBRANCH   8  11
ENDBRANCH   7   8
ENDBRANCH   1   7
BRANCH   6  13
ATOM     13  N   LIG d   1      -5.165  94.152 119.164  0.00  0.00    -0.311 N 
ATOM     14  C   LIG d   1      -4.280  95.111 119.432  0.00  0.00     0.210 C 
ATOM     15  C   LIG d   1      -4.331  95.655 120.863  0.00  0.00     0.109 C 
ATOM     16  O   LIG d   1      -3.480  95.585 118.612  0.00  0.00    -0.276 OA
ATOM     17  H   LIG d   1      -5.797  93.850 119.879  0.00  0.00     0.149 HD
ENDBRANCH   6  13
BRANCH   5  18
ATOM     18  N   LIG d   1      -7.182  94.878 116.988  0.00  0.00     0.381 N 
ATOM     19  H   LIG d   1      -7.650  95.248 117.791  0.00  0.00    -0.090 HD
ATOM     20  H   LIG d   1      -7.840  94.839 116.229  0.00  0.00    -0.090 HD
ATOM     21  H   LIG d   1      -6.415  95.463 116.742  0.00  0.00    -0.090 HD
ENDBRANCH   5  18
BRANCH   3  22
ATOM     22  C   LIG d   1      -6.678  90.444 115.247  0.00  0.00     0.382 C 
ATOM     23  O   LIG d   1      -7.850  90.518 114.806  0.00  0.00    -0.241 OA
ATOM     24  O   LIG d   1      -5.982  89.448 114.975  0.00  0.00    -0.241 OA
ENDBRANCH   3  22
TORSDOF 7
ENDMDL
MODEL 3
REMARK VINA RESULT:      -5.2      1.271      2.037
REMARK  7 active torsions:
REMARK  status: ('A' for Active; 'I' for Inactive)
REMARK    1  A    between atoms: C_2  and  C_3 
REMARK    2  A    between atoms: C_3  and  O_6 
REMARK    3  A    between atoms: C_3  and  C_4 
REMARK    4  A    between atoms: C_7  and  O_6 
REMARK    5  A    between atoms: C_9  and  C_10 
REMARK    6  A    between atoms: N_15  and  C_14 
REMARK    7  A    between atoms: N_20  and  C_19 
REMARK       I    between atoms: C_22  and  N_20 
ROOT
ATOM      1  C   LIG d   1      -6.425  93.869 117.863  0.00  0.00     0.161 C 
ATOM      2  C   LIG d   1      -6.912  92.706 117.245  0.00  0.00     0.016 C 
ATOM      3  C   LIG d   1      -6.094  91.603 116.907  0.00  0.00     0.038 C 
ATOM      4  C   LIG d   1      -4.751  91.527 117.303  0.00  0.00     0.028 C 
ATOM      5  C   LIG d   1      -4.094  92.892 117.483  0.00  0.00    -0.047 C 
ATOM      6  C   LIG d   1      -4.984  93.759 118.403  0.00  0.00     0.091 C 
ENDROOT
BRANCH   1   7
ATOM      7  O   LIG d   1      -7.324  94.278 118.912  0.00  0.00    -0.368 OA
BRANCH   7   8
ATOM      8  C   LIG d   1      -7.917  93.213 119.695  0.00  0.00     0.119 C 
BRANCH   8   9
ATOM      9  C   LIG d   1      -9.429  93.493 119.786  0.00  0.00     0.028 C 
ATOM     10  C   LIG d   1      -9.748  94.997 119.796  0.00  0.00     0.006 C 
ENDBRANCH   8   9
BRANCH   8  11
ATOM     11  C   LIG d   1      -7.412  93.236 121.141  0.00  0.00     0.028 C 
ATOM     12  C   LIG d   1      -6.108  92.444 121.329  0.00  0.00     0.006 C 
ENDBRANCH   8  11
ENDBRANCH   7   8
ENDBRANCH   1   7
BRANCH   6  13
ATOM     13  N   LIG d   1      -4.457  95.139 118.564  0.00  0.00    -0.311 N 
ATOM     14  C   LIG d   1      -3.718  95.526 119.602  0.00  0.00     0.210 C 
ATOM     15  C   LIG d   1      -3.294  96.998 119.582  0.00  0.00     0.109 C 
ATOM     16  O   LIG d   1      -3.346  94.782 120.522  0.00  0.00    -0.276 OA
ATOM     17  H   LIG d   1      -4.684  95.801 117.847  0.00  0.00     0.149 HD
ENDBRANCH   6  13
BRANCH   5  18
ATOM     18  N   LIG d   1      -2.743  92.667 118.029  0.00  0.00     0.381 N 
ATOM     19  H   LIG d   1      -2.616  91.696 118.233  0.00  0.00    -0.090 HD
ATOM     20  H   LIG d   1      -2.648  93.184 118.886  0.00  0.00    -0.090 HD
ATOM     21  H   LIG d   1      -2.056  92.969 117.374  0.00  0.00    -0.090 HD
ENDBRANCH   5  18
BRANCH   3  22
ATOM     22  C   LIG d   1      -6.610  90.578 116.128  0.00  0.00     0.382 C 
ATOM     23  O   LIG d   1      -7.849  90.491 115.946  0.00  0.00    -0.241 OA
ATOM     24  O   LIG d   1      -5.857  89.713 115.642  0.00  0.00    -0.241 OA
ENDBRANCH   3  22
TORSDOF 7
ENDMDL
MODEL 4
REMARK VINA RESULT:      -5.0     15.010     17.994
REMARK  7 active torsions:
REMARK  status: ('A' for Active; 'I' for Inactive)
REMARK    1  A    between atoms: C_2  and  C_3 
REMARK    2  A    between atoms: C_3  and  O_6 
REMARK    3  A    between atoms: C_3  and  C_4 
REMARK    4  A    between atoms: C_7  and  O_6 
REMARK    5  A    between atoms: C_9  and  C_10 
REMARK    6  A    between atoms: N_15  and  C_14 
REMARK    7  A    between atoms: N_20  and  C_19 
REMARK       I    between atoms: C_22  and  N_20 
ROOT
ATOM      1  C   LIG d   1      -7.040  75.753 117.543  0.00  0.00     0.161 C 
ATOM      2  C   LIG d   1      -7.162  74.369 117.340  0.00  0.00     0.016 C 
ATOM      3  C   LIG d   1      -6.366  73.643 116.424  0.00  0.00     0.038 C 
ATOM      4  C   LIG d   1      -5.283  74.232 115.755  0.00  0.00     0.028 C 
ATOM      5  C   LIG d   1      -5.442  75.734 115.549  0.00  0.00    -0.047 C 
ATOM      6  C   LIG d   1      -5.789  76.392 116.903  0.00  0.00     0.091 C 
ENDROOT
BRANCH   1   7
ATOM      7  O   LIG d   1      -7.086  76.046 118.953  0.00  0.00    -0.368 OA
BRANCH   7   8
ATOM      8  C   LIG d   1      -8.196  76.864 119.398  0.00  0.00     0.119 C 
BRANCH   8   9
ATOM      9  C   LIG d   1      -8.995  76.042 120.427  0.00  0.00     0.028 C 
ATOM     10  C   LIG d   1      -8.135  74.969 121.116  0.00  0.00     0.006 C 
ENDBRANCH   8   9
BRANCH   8  11
ATOM     11  C   LIG d   1      -9.176  77.144 118.254  0.00  0.00     0.028 C 
ATOM     12  C   LIG d   1     -10.646  77.066 118.696  0.00  0.00     0.006 C 
ENDBRANCH   8  11
ENDBRANCH   7   8
ENDBRANCH   1   7
BRANCH   6  13
ATOM     13  N   LIG d   1      -6.045  77.851 116.776  0.00  0.00    -0.311 N 
ATOM     14  C   LIG d   1      -5.480  78.766 117.562  0.00  0.00     0.210 C 
ATOM     15  C   LIG d   1      -5.896  80.212 117.274  0.00  0.00     0.109 C 
ATOM     16  O   LIG d   1      -4.649  78.520 118.449  0.00  0.00    -0.276 OA
ATOM     17  H   LIG d   1      -6.683  78.141 116.061  0.00  0.00     0.149 HD
ENDBRANCH   6  13
BRANCH   5  18
ATOM     18  N   LIG d   1      -4.185  76.240 114.965  0.00  0.00     0.381 N 
ATOM     19  H   LIG d   1      -3.413  75.979 115.545  0.00  0.00    -0.090 HD
ATOM     20  H   LIG d   1      -4.225  77.243 114.927  0.00  0.00    -0.090 HD
ATOM     21  H   LIG d   1      -4.062  75.870 114.049  0.00  0.00    -0.090 HD
ENDBRANCH   5  18
BRANCH   3  22
ATOM     22  C   LIG d   1      -6.676  72.321 116.140  0.00  0.00     0.382 C 
ATOM     23  O   LIG d   1      -7.546  71.723 116.817  0.00  0.00    -0.241 OA
ATOM     24  O   LIG d   1      -6.065  71.707 115.245  0.00  0.00    -0.241 OA
ENDBRANCH   3  22
TORSDOF 7
ENDMDL
MODEL 5
REMARK VINA RESULT:      -4.8     13.245     16.716
REMARK  7 active torsions:
REMARK  status: ('A' for Active; 'I' for Inactive)
REMARK    1  A    between atoms: C_2  and  C_3 
REMARK    2  A    between atoms: C_3  and  O_6 
REMARK    3  A    between atoms: C_3  and  C_4 
REMARK    4  A    between atoms: C_7  and  O_6 
REMARK    5  A    between atoms: C_9  and  C_10 
REMARK    6  A    between atoms: N_15  and  C_14 
REMARK    7  A    between atoms: N_20  and  C_19 
REMARK       I    between atoms: C_22  and  N_20 
ROOT
ATOM      1  C   LIG d   1      -8.930  78.147 118.969  0.00  0.00     0.161 C 
ATOM      2  C   LIG d   1      -8.349  79.165 118.194  0.00  0.00     0.016 C 
ATOM      3  C   LIG d   1      -8.682  80.533 118.330  0.00  0.00     0.038 C 
ATOM      4  C   LIG d   1      -9.514  80.994 119.361  0.00  0.00     0.028 C 
ATOM      5  C   LIG d   1     -10.514  79.950 119.846  0.00  0.00    -0.047 C 
ATOM      6  C   LIG d   1      -9.756  78.643 120.174  0.00  0.00     0.091 C 
ENDROOT
BRANCH   1   7
ATOM      7  O   LIG d   1      -7.912  77.225 119.405  0.00  0.00    -0.368 OA
BRANCH   7   8
ATOM      8  C   LIG d   1      -8.010  75.875 118.887  0.00  0.00     0.119 C 
BRANCH   8   9
ATOM      9  C   LIG d   1      -7.661  74.911 120.037  0.00  0.00     0.028 C 
ATOM     10  C   LIG d   1      -7.639  75.613 121.405  0.00  0.00     0.006 C 
ENDBRANCH   8   9
BRANCH   8  11
ATOM     11  C   LIG d   1      -6.957  75.616 117.806  0.00  0.00     0.028 C 
ATOM     12  C   LIG d   1      -7.495  75.838 116.384  0.00  0.00     0.006 C 
ENDBRANCH   8  11
ENDBRANCH   7   8
ENDBRANCH   1   7
BRANCH   6  13
ATOM     13  N   LIG d   1     -10.671  77.543 120.575  0.00  0.00    -0.311 N 
ATOM     14  C   LIG d   1     -11.478  76.913 119.723  0.00  0.00     0.210 C 
ATOM     15  C   LIG d   1     -12.354  75.822 120.348  0.00  0.00     0.109 C 
ATOM     16  O   LIG d   1     -11.529  77.132 118.503  0.00  0.00    -0.276 OA
ATOM     17  H   LIG d   1     -10.672  77.280 121.541  0.00  0.00     0.149 HD
ENDBRANCH   6  13
BRANCH   5  18
ATOM     18  N   LIG d   1     -11.221  80.517 121.010  0.00  0.00     0.381 N 
ATOM     19  H   LIG d   1     -12.061  80.000 121.180  0.00  0.00    -0.090 HD
ATOM     20  H   LIG d   1     -11.472  81.468 120.807  0.00  0.00    -0.090 HD
ATOM     21  H   LIG d   1     -10.634  80.484 121.814  0.00  0.00    -0.090 HD
ENDBRANCH   5  18
BRANCH   3  22
ATOM     22  C   LIG d   1      -8.212  81.450 117.403  0.00  0.00     0.382 C 
ATOM     23  O   LIG d   1      -9.017  82.195 116.794  0.00  0.00    -0.241 OA
ATOM     24  O   LIG d   1      -6.997  81.511 117.135  0.00  0.00    -0.241 OA
ENDBRANCH   3  22
TORSDOF 7
ENDMDL
MODEL 6
REMARK VINA RESULT:      -4.8     13.318     16.466
REMARK  7 active torsions:
REMARK  status: ('A' for Active; 'I' for Inactive)
REMARK    1  A    between atoms: C_2  and  C_3 
REMARK    2  A    between atoms: C_3  and  O_6 
REMARK    3  A    between atoms: C_3  and  C_4 
REMARK    4  A    between atoms: C_7  and  O_6 
REMARK    5  A    between atoms: C_9  and  C_10 
REMARK    6  A    between atoms: N_15  and  C_14 
REMARK    7  A    between atoms: N_20  and  C_19 
REMARK       I    between atoms: C_22  and  N_20 
ROOT
ATOM      1  C   LIG d   1      -7.556  77.390 119.056  0.00  0.00     0.161 C 
ATOM      2  C   LIG d   1      -8.795  76.731 119.114  0.00  0.00     0.016 C 
ATOM      3  C   LIG d   1     -10.034  77.386 118.934  0.00  0.00     0.038 C 
ATOM      4  C   LIG d   1     -10.112  78.728 118.532  0.00  0.00     0.028 C 
ATOM      5  C   LIG d   1      -8.905  79.558 118.956  0.00  0.00    -0.047 C 
ATOM      6  C   LIG d   1      -7.615  78.832 118.510  0.00  0.00     0.091 C 
ENDROOT
BRANCH   1   7
ATOM      7  O   LIG d   1      -6.618  76.604 118.295  0.00  0.00    -0.368 OA
BRANCH   7   8
ATOM      8  C   LIG d   1      -6.543  76.898 116.878  0.00  0.00     0.119 C 
BRANCH   8   9
ATOM      9  C   LIG d   1      -7.063  75.661 116.121  0.00  0.00     0.028 C 
ATOM     10  C   LIG d   1      -6.754  74.347 116.859  0.00  0.00     0.006 C 
ENDBRANCH   8   9
BRANCH   8  11
ATOM     11  C   LIG d   1      -5.091  77.072 116.421  0.00  0.00     0.028 C 
ATOM     12  C   LIG d   1      -4.089  77.006 117.584  0.00  0.00     0.006 C 
ENDBRANCH   8  11
ENDBRANCH   7   8
ENDBRANCH   1   7
BRANCH   6  13
ATOM     13  N   LIG d   1      -6.385  79.535 118.958  0.00  0.00    -0.311 N 
ATOM     14  C   LIG d   1      -5.700  80.378 118.188  0.00  0.00     0.210 C 
ATOM     15  C   LIG d   1      -4.450  80.979 118.839  0.00  0.00     0.109 C 
ATOM     16  O   LIG d   1      -6.027  80.711 117.039  0.00  0.00    -0.276 OA
ATOM     17  H   LIG d   1      -6.066  79.347 119.889  0.00  0.00     0.149 HD
ENDBRANCH   6  13
BRANCH   5  18
ATOM     18  N   LIG d   1      -9.052  80.897 118.355  0.00  0.00     0.381 N 
ATOM     19  H   LIG d   1      -8.561  80.934 117.484  0.00  0.00    -0.090 HD
ATOM     20  H   LIG d   1      -8.647  81.577 118.974  0.00  0.00    -0.090 HD
ATOM     21  H   LIG d   1     -10.016  81.102 118.211  0.00  0.00    -0.090 HD
ENDBRANCH   5  18
BRANCH   3  22
ATOM     22  C   LIG d   1     -11.215  76.708 119.196  0.00  0.00     0.382 C 
ATOM     23  O   LIG d   1     -11.359  76.096 120.281  0.00  0.00    -0.241 OA
ATOM     24  O   LIG d   1     -12.120  76.663 118.342  0.00  0.00    -0.241 OA
ENDBRANCH   3  22
TORSDOF 7
ENDMDL
MODEL 7
REMARK VINA RESULT:      -4.7     12.260     15.038
REMARK  7 active torsions:
REMARK  status: ('A' for Active; 'I' for Inactive)
REMARK    1  A    between atoms: C_2  and  C_3 
REMARK    2  A    between atoms: C_3  and  O_6 
REMARK    3  A    between atoms: C_3  and  C_4 
REMARK    4  A    between atoms: C_7  and  O_6 
REMARK    5  A    between atoms: C_9  and  C_10 
REMARK    6  A    between atoms: N_15  and  C_14 
REMARK    7  A    between atoms: N_20  and  C_19 
REMARK       I    between atoms: C_22  and  N_20 
ROOT
ATOM      1  C   LIG d   1      -8.533  79.366 118.143  0.00  0.00     0.161 C 
ATOM      2  C   LIG d   1      -9.758  78.883 118.631  0.00  0.00     0.016 C 
ATOM      3  C   LIG d   1     -10.007  77.516 118.893  0.00  0.00     0.038 C 
ATOM      4  C   LIG d   1      -8.991  76.552 118.827  0.00  0.00     0.028 C 
ATOM      5  C   LIG d   1      -7.874  76.914 117.854  0.00  0.00    -0.047 C 
ATOM      6  C   LIG d   1      -7.378  78.344 118.170  0.00  0.00     0.091 C 
ENDROOT
BRANCH   1   7
ATOM      7  O   LIG d   1      -8.160  80.562 118.855  0.00  0.00    -0.368 OA
BRANCH   7   8
ATOM      8  C   LIG d   1      -7.964  81.750 118.049  0.00  0.00     0.119 C 
BRANCH   8   9
ATOM      9  C   LIG d   1      -6.745  82.501 118.618  0.00  0.00     0.028 C 
ATOM     10  C   LIG d   1      -5.923  81.635 119.587  0.00  0.00     0.006 C 
ENDBRANCH   8   9
BRANCH   8  11
ATOM     11  C   LIG d   1      -9.141  82.720 118.191  0.00  0.00     0.028 C 
ATOM     12  C   LIG d   1      -9.746  82.720 119.603  0.00  0.00     0.006 C 
ENDBRANCH   8  11
ENDBRANCH   7   8
ENDBRANCH   1   7
BRANCH   6  13
ATOM     13  N   LIG d   1      -6.343  78.809 117.211  0.00  0.00    -0.311 N 
ATOM     14  C   LIG d   1      -5.034  78.679 117.424  0.00  0.00     0.210 C 
ATOM     15  C   LIG d   1      -4.139  79.245 116.316  0.00  0.00     0.109 C 
ATOM     16  O   LIG d   1      -4.530  78.121 118.410  0.00  0.00    -0.276 OA
ATOM     17  H   LIG d   1      -6.664  79.246 116.369  0.00  0.00     0.149 HD
ENDBRANCH   6  13
BRANCH   5  18
ATOM     18  N   LIG d   1      -6.819  75.893 117.986  0.00  0.00     0.381 N 
ATOM     19  H   LIG d   1      -6.443  75.912 118.914  0.00  0.00    -0.090 HD
ATOM     20  H   LIG d   1      -6.078  76.105 117.342  0.00  0.00    -0.090 HD
ATOM     21  H   LIG d   1      -7.191  74.990 117.790  0.00  0.00    -0.090 HD
ENDBRANCH   5  18
BRANCH   3  22
ATOM     22  C   LIG d   1     -11.296  77.097 119.188  0.00  0.00     0.382 C 
ATOM     23  O   LIG d   1     -11.713  77.136 120.371  0.00  0.00    -0.241 OA
ATOM     24  O   LIG d   1     -12.031  76.637 118.293  0.00  0.00    -0.241 OA
ENDBRANCH   3  22
TORSDOF 7
ENDMDL
MODEL 8
REMARK VINA RESULT:      -4.6     13.607     16.519
REMARK  7 active torsions:
REMARK  status: ('A' for Active; 'I' for Inactive)
REMARK    1  A    between atoms: C_2  and  C_3 
REMARK    2  A    between atoms: C_3  and  O_6 
REMARK    3  A    between atoms: C_3  and  C_4 
REMARK    4  A    between atoms: C_7  and  O_6 
REMARK    5  A    between atoms: C_9  and  C_10 
REMARK    6  A    between atoms: N_15  and  C_14 
REMARK    7  A    between atoms: N_20  and  C_19 
REMARK       I    between atoms: C_22  and  N_20 
ROOT
ATOM      1  C   LIG d   1      -7.872  77.569 117.821  0.00  0.00     0.161 C 
ATOM      2  C   LIG d   1      -7.567  76.240 117.483  0.00  0.00     0.016 C 
ATOM      3  C   LIG d   1      -6.326  75.842 116.936  0.00  0.00     0.038 C 
ATOM      4  C   LIG d   1      -5.243  76.728 116.830  0.00  0.00     0.028 C 
ATOM      5  C   LIG d   1      -5.666  78.186 116.689  0.00  0.00    -0.047 C 
ATOM      6  C   LIG d   1      -6.665  78.531 117.817  0.00  0.00     0.091 C 
ENDROOT
BRANCH   1   7
ATOM      7  O   LIG d   1      -8.538  77.607 119.099  0.00  0.00    -0.368 OA
BRANCH   7   8
ATOM      8  C   LIG d   1      -9.567  76.610 119.311  0.00  0.00     0.119 C 
BRANCH   8   9
ATOM      9  C   LIG d   1     -10.929  77.328 119.247  0.00  0.00     0.028 C 
ATOM     10  C   LIG d   1     -12.095  76.354 119.008  0.00  0.00     0.006 C 
ENDBRANCH   8   9
BRANCH   8  11
ATOM     11  C   LIG d   1      -9.486  76.018 120.721  0.00  0.00     0.028 C 
ATOM     12  C   LIG d   1      -8.288  75.073 120.903  0.00  0.00     0.006 C 
ENDBRANCH   8  11
ENDBRANCH   7   8
ENDBRANCH   1   7
BRANCH   6  13
ATOM     13  N   LIG d   1      -7.193  79.915 117.703  0.00  0.00    -0.311 N 
ATOM     14  C   LIG d   1      -7.040  80.838 118.650  0.00  0.00     0.210 C 
ATOM     15  C   LIG d   1      -7.680  82.195 118.340  0.00  0.00     0.109 C 
ATOM     16  O   LIG d   1      -6.408  80.672 119.704  0.00  0.00    -0.276 OA
ATOM     17  H   LIG d   1      -7.692  80.145 116.866  0.00  0.00     0.149 HD
ENDBRANCH   6  13
BRANCH   5  18
ATOM     18  N   LIG d   1      -4.443  79.010 116.728  0.00  0.00     0.381 N 
ATOM     19  H   LIG d   1      -3.924  78.887 115.881  0.00  0.00    -0.090 HD
ATOM     20  H   LIG d   1      -3.870  78.706 117.495  0.00  0.00    -0.090 HD
ATOM     21  H   LIG d   1      -4.682  79.970 116.843  0.00  0.00    -0.090 HD
ENDBRANCH   5  18
BRANCH   3  22
ATOM     22  C   LIG d   1      -6.171  74.552 116.450  0.00  0.00     0.382 C 
ATOM     23  O   LIG d   1      -5.411  74.336 115.476  0.00  0.00    -0.241 OA
ATOM     24  O   LIG d   1      -6.815  73.609 116.947  0.00  0.00    -0.241 OA
ENDBRANCH   3  22
TORSDOF 7
ENDMDL
MODEL 9
REMARK VINA RESULT:      -4.6     12.670     15.383
REMARK  7 active torsions:
REMARK  status: ('A' for Active; 'I' for Inactive)
REMARK    1  A    between atoms: C_2  and  C_3 
REMARK    2  A    between atoms: C_3  and  O_6 
REMARK    3  A    between atoms: C_3  and  C_4 
REMARK    4  A    between atoms: C_7  and  O_6 
REMARK    5  A    between atoms: C_9  and  C_10 
REMARK    6  A    between atoms: N_15  and  C_14 
REMARK    7  A    between atoms: N_20  and  C_19 
REMARK       I    between atoms: C_22  and  N_20 
ROOT
ATOM      1  C   LIG d   1      -6.941  78.986 117.935  0.00  0.00     0.161 C 
ATOM      2  C   LIG d   1      -5.771  79.169 117.178  0.00  0.00     0.016 C 
ATOM      3  C   LIG d   1      -5.061  78.107 116.573  0.00  0.00     0.038 C 
ATOM      4  C   LIG d   1      -5.561  76.796 116.556  0.00  0.00     0.028 C 
ATOM      5  C   LIG d   1      -6.476  76.481 117.735  0.00  0.00    -0.047 C 
ATOM      6  C   LIG d   1      -7.562  77.577 117.834  0.00  0.00     0.091 C 
ENDROOT
BRANCH   1   7
ATOM      7  O   LIG d   1      -7.913  79.989 117.580  0.00  0.00    -0.368 OA
BRANCH   7   8
ATOM      8  C   LIG d   1      -8.298  80.905 118.635  0.00  0.00     0.119 C 
BRANCH   8   9
ATOM      9  C   LIG d   1      -9.822  81.111 118.537  0.00  0.00     0.028 C 
ATOM     10  C   LIG d   1     -10.202  82.588 118.337  0.00  0.00     0.006 C 
ENDBRANCH   8   9
BRANCH   8  11
ATOM     11  C   LIG d   1      -7.686  82.292 118.419  0.00  0.00     0.028 C 
ATOM     12  C   LIG d   1      -6.333  82.464 119.128  0.00  0.00     0.006 C 
ENDBRANCH   8  11
ENDBRANCH   7   8
ENDBRANCH   1   7
BRANCH   6  13
ATOM     13  N   LIG d   1      -8.448  77.391 119.012  0.00  0.00    -0.311 N 
ATOM     14  C   LIG d   1      -9.768  77.234 118.919  0.00  0.00     0.210 C 
ATOM     15  C   LIG d   1     -10.496  77.078 120.258  0.00  0.00     0.109 C 
ATOM     16  O   LIG d   1     -10.400  77.177 117.854  0.00  0.00    -0.276 OA
ATOM     17  H   LIG d   1      -8.014  77.393 119.915  0.00  0.00     0.149 HD
ENDBRANCH   6  13
BRANCH   5  18
ATOM     18  N   LIG d   1      -7.033  75.133 117.519  0.00  0.00     0.381 N 
ATOM     19  H   LIG d   1      -7.634  74.889 118.281  0.00  0.00    -0.090 HD
ATOM     20  H   LIG d   1      -6.278  74.470 117.489  0.00  0.00    -0.090 HD
ATOM     21  H   LIG d   1      -7.542  75.107 116.663  0.00  0.00    -0.090 HD
ENDBRANCH   5  18
BRANCH   3  22
ATOM     22  C   LIG d   1      -3.817  78.344 116.009  0.00  0.00     0.382 C 
ATOM     23  O   LIG d   1      -3.678  79.255 115.157  0.00  0.00    -0.241 OA
ATOM     24  O   LIG d   1      -2.841  77.631 116.308  0.00  0.00    -0.241 OA
ENDBRANCH   3  22
TORSDOF 7
ENDMDL
