MODEL 1
REMARK VINA RESULT:      -5.6      0.000      0.000
REMARK  7 active torsions:
REMARK  status: ('A' for Active; 'I' for Inactive)
REMARK    1  A    between atoms: C_2  and  C_3 
REMARK    2  A    between atoms: C_3  and  O_6 
REMARK    3  A    between atoms: C_3  and  C_4 
REMARK    4  A    between atoms: C_7  and  O_6 
REMARK    5  A    between atoms: C_9  and  C_10 
REMARK    6  A    between atoms: N_15  and  C_14 
REMARK    7  A    between atoms: N_20  and  C_19 
REMARK       I    between atoms: C_22  and  N_20 
ROOT
ATOM      1  C   LIG d   1      -7.586  76.771 117.635  0.00  0.00     0.161 C 
ATOM      2  C   LIG d   1      -8.822  77.383 117.900  0.00  0.00     0.016 C 
ATOM      3  C   LIG d   1      -8.985  78.781 118.034  0.00  0.00     0.038 C 
ATOM      4  C   LIG d   1      -7.942  79.679 117.760  0.00  0.00     0.028 C 
ATOM      5  C   LIG d   1      -6.556  79.083 117.983  0.00  0.00    -0.047 C 
ATOM      6  C   LIG d   1      -6.459  77.740 117.223  0.00  0.00     0.091 C 
ENDROOT
BRANCH   1   7
ATOM      7  O   LIG d   1      -7.753  75.744 116.637  0.00  0.00    -0.368 OA
BRANCH   7   8
ATOM      8  C   LIG d   1      -7.861  74.386 117.131  0.00  0.00     0.119 C 
BRANCH   8   9
ATOM      9  C   LIG d   1      -6.742  73.562 116.466  0.00  0.00     0.028 C 
ATOM     10  C   LIG d   1      -6.069  74.314 115.306  0.00  0.00     0.006 C 
ENDBRANCH   8   9
BRANCH   8  11
ATOM     11  C   LIG d   1      -9.170  73.731 116.680  0.00  0.00     0.028 C 
ATOM     12  C   LIG d   1      -9.122  72.197 116.748  0.00  0.00     0.006 C 
ENDBRANCH   8  11
ENDBRANCH   7   8
ENDBRANCH   1   7
BRANCH   6  13
ATOM     13  N   LIG d   1      -5.163  77.050 117.457  0.00  0.00    -0.311 N 
ATOM     14  C   LIG d   1      -4.105  77.189 116.661  0.00  0.00     0.210 C 
ATOM     15  C   LIG d   1      -2.875  76.372 117.071  0.00  0.00     0.109 C 
ATOM     16  O   LIG d   1      -4.056  77.936 115.672  0.00  0.00    -0.276 OA
ATOM     17  H   LIG d   1      -5.105  76.448 118.255  0.00  0.00     0.149 HD
ENDBRANCH   6  13
BRANCH   5  18
ATOM     18  N   LIG d   1      -5.565  80.077 117.530  0.00  0.00     0.381 N 
ATOM     19  H   LIG d   1      -4.649  79.800 117.820  0.00  0.00    -0.090 HD
ATOM     20  H   LIG d   1      -5.776  80.963 117.954  0.00  0.00    -0.090 HD
ATOM     21  H   LIG d   1      -5.595  80.161 116.537  0.00  0.00    -0.090 HD
ENDBRANCH   5  18
BRANCH   3  22
ATOM     22  C   LIG d   1     -10.192  79.292 118.485  0.00  0.00     0.382 C 
ATOM     23  O   LIG d   1     -10.597  80.404 118.067  0.00  0.00    -0.241 OA
ATOM     24  O   LIG d   1     -10.860  78.677 119.337  0.00  0.00    -0.241 OA
ENDBRANCH   3  22
TORSDOF 7
ENDMDL
MODEL 2
REMARK VINA RESULT:      -5.6      2.053      5.170
REMARK  7 active torsions:
REMARK  status: ('A' for Active; 'I' for Inactive)
REMARK    1  A    between atoms: C_2  and  C_3 
REMARK    2  A    between atoms: C_3  and  O_6 
REMARK    3  A    between atoms: C_3  and  C_4 
REMARK    4  A    between atoms: C_7  and  O_6 
REMARK    5  A    between atoms: C_9  and  C_10 
REMARK    6  A    between atoms: N_15  and  C_14 
REMARK    7  A    between atoms: N_20  and  C_19 
REMARK       I    between atoms: C_22  and  N_20 
ROOT
ATOM      1  C   LIG d   1      -6.124  76.032 116.592  0.00  0.00     0.161 C 
ATOM      2  C   LIG d   1      -5.054  75.172 116.297  0.00  0.00     0.016 C 
ATOM      3  C   LIG d   1      -3.701  75.503 116.538  0.00  0.00     0.038 C 
ATOM      4  C   LIG d   1      -3.334  76.663 117.235  0.00  0.00     0.028 C 
ATOM      5  C   LIG d   1      -4.346  77.796 117.102  0.00  0.00    -0.047 C 
ATOM      6  C   LIG d   1      -5.751  77.256 117.455  0.00  0.00     0.091 C 
ENDROOT
BRANCH   1   7
ATOM      7  O   LIG d   1      -7.192  75.289 117.213  0.00  0.00    -0.368 OA
BRANCH   7   8
ATOM      8  C   LIG d   1      -8.178  74.722 116.316  0.00  0.00     0.119 C 
BRANCH   8   9
ATOM      9  C   LIG d   1      -9.369  75.698 116.260  0.00  0.00     0.028 C 
ATOM     10  C   LIG d   1      -9.749  76.240 117.648  0.00  0.00     0.006 C 
ENDBRANCH   8   9
BRANCH   8  11
ATOM     11  C   LIG d   1      -8.751  73.415 116.872  0.00  0.00     0.028 C 
ATOM     12  C   LIG d   1      -8.028  72.170 116.334  0.00  0.00     0.006 C 
ENDBRANCH   8  11
ENDBRANCH   7   8
ENDBRANCH   1   7
BRANCH   6  13
ATOM     13  N   LIG d   1      -6.814  78.278 117.269  0.00  0.00    -0.311 N 
ATOM     14  C   LIG d   1      -7.278  79.042 118.257  0.00  0.00     0.210 C 
ATOM     15  C   LIG d   1      -8.388  80.018 117.854  0.00  0.00     0.109 C 
ATOM     16  O   LIG d   1      -6.852  79.026 119.422  0.00  0.00    -0.276 OA
ATOM     17  H   LIG d   1      -7.194  78.379 116.348  0.00  0.00     0.149 HD
ENDBRANCH   6  13
BRANCH   5  18
ATOM     18  N   LIG d   1      -3.909  78.891 117.987  0.00  0.00     0.381 N 
ATOM     19  H   LIG d   1      -4.544  79.661 117.914  0.00  0.00    -0.090 HD
ATOM     20  H   LIG d   1      -3.000  79.204 117.692  0.00  0.00    -0.090 HD
ATOM     21  H   LIG d   1      -3.869  78.573 118.930  0.00  0.00    -0.090 HD
ENDBRANCH   5  18
BRANCH   3  22
ATOM     22  C   LIG d   1      -2.695  74.686 116.044  0.00  0.00     0.382 C 
ATOM     23  O   LIG d   1      -2.518  74.589 114.805  0.00  0.00    -0.241 OA
ATOM     24  O   LIG d   1      -1.992  74.010 116.818  0.00  0.00    -0.241 OA
ENDBRANCH   3  22
TORSDOF 7
ENDMDL
MODEL 3
REMARK VINA RESULT:      -5.4      2.162      5.273
REMARK  7 active torsions:
REMARK  status: ('A' for Active; 'I' for Inactive)
REMARK    1  A    between atoms: C_2  and  C_3 
REMARK    2  A    between atoms: C_3  and  O_6 
REMARK    3  A    between atoms: C_3  and  C_4 
REMARK    4  A    between atoms: C_7  and  O_6 
REMARK    5  A    between atoms: C_9  and  C_10 
REMARK    6  A    between atoms: N_15  and  C_14 
REMARK    7  A    between atoms: N_20  and  C_19 
REMARK       I    between atoms: C_22  and  N_20 
ROOT
ATOM      1  C   LIG d   1      -8.586  76.118 117.235  0.00  0.00     0.161 C 
ATOM      2  C   LIG d   1      -8.900  74.761 117.054  0.00  0.00     0.016 C 
ATOM      3  C   LIG d   1      -7.938  73.776 116.735  0.00  0.00     0.038 C 
ATOM      4  C   LIG d   1      -6.564  74.058 116.723  0.00  0.00     0.028 C 
ATOM      5  C   LIG d   1      -6.247  75.515 116.403  0.00  0.00    -0.047 C 
ATOM      6  C   LIG d   1      -7.077  76.425 117.336  0.00  0.00     0.091 C 
ENDROOT
BRANCH   1   7
ATOM      7  O   LIG d   1      -9.280  76.630 118.390  0.00  0.00    -0.368 OA
BRANCH   7   8
ATOM      8  C   LIG d   1     -10.322  77.602 118.128  0.00  0.00     0.119 C 
BRANCH   8   9
ATOM      9  C   LIG d   1     -10.110  78.781 119.097  0.00  0.00     0.028 C 
ATOM     10  C   LIG d   1     -10.155  80.143 118.383  0.00  0.00     0.006 C 
ENDBRANCH   8   9
BRANCH   8  11
ATOM     11  C   LIG d   1     -11.706  77.040 118.470  0.00  0.00     0.028 C 
ATOM     12  C   LIG d   1     -11.922  76.868 119.982  0.00  0.00     0.006 C 
ENDBRANCH   8  11
ENDBRANCH   7   8
ENDBRANCH   1   7
BRANCH   6  13
ATOM     13  N   LIG d   1      -6.891  77.868 117.032  0.00  0.00    -0.311 N 
ATOM     14  C   LIG d   1      -6.579  78.777 117.955  0.00  0.00     0.210 C 
ATOM     15  C   LIG d   1      -6.453  80.211 117.432  0.00  0.00     0.109 C 
ATOM     16  O   LIG d   1      -6.362  78.526 119.150  0.00  0.00    -0.276 OA
ATOM     17  H   LIG d   1      -7.017  78.154 116.081  0.00  0.00     0.149 HD
ENDBRANCH   6  13
BRANCH   5  18
ATOM     18  N   LIG d   1      -4.792  75.699 116.559  0.00  0.00     0.381 N 
ATOM     19  H   LIG d   1      -4.338  75.576 115.676  0.00  0.00    -0.090 HD
ATOM     20  H   LIG d   1      -4.442  75.003 117.194  0.00  0.00    -0.090 HD
ATOM     21  H   LIG d   1      -4.600  76.610 116.916  0.00  0.00    -0.090 HD
ENDBRANCH   5  18
BRANCH   3  22
ATOM     22  C   LIG d   1      -8.351  72.500 116.383  0.00  0.00     0.382 C 
ATOM     23  O   LIG d   1      -9.561  72.182 116.484  0.00  0.00    -0.241 OA
ATOM     24  O   LIG d   1      -7.523  71.648 116.009  0.00  0.00    -0.241 OA
ENDBRANCH   3  22
TORSDOF 7
ENDMDL
MODEL 4
REMARK VINA RESULT:      -5.3      1.494      2.268
REMARK  7 active torsions:
REMARK  status: ('A' for Active; 'I' for Inactive)
REMARK    1  A    between atoms: C_2  and  C_3 
REMARK    2  A    between atoms: C_3  and  O_6 
REMARK    3  A    between atoms: C_3  and  C_4 
REMARK    4  A    between atoms: C_7  and  O_6 
REMARK    5  A    between atoms: C_9  and  C_10 
REMARK    6  A    between atoms: N_15  and  C_14 
REMARK    7  A    between atoms: N_20  and  C_19 
REMARK       I    between atoms: C_22  and  N_20 
ROOT
ATOM      1  C   LIG d   1      -8.102  76.024 117.428  0.00  0.00     0.161 C 
ATOM      2  C   LIG d   1      -9.460  76.169 117.757  0.00  0.00     0.016 C 
ATOM      3  C   LIG d   1      -9.966  77.253 118.511  0.00  0.00     0.038 C 
ATOM      4  C   LIG d   1      -9.166  78.352 118.860  0.00  0.00     0.028 C 
ATOM      5  C   LIG d   1      -7.686  78.008 118.985  0.00  0.00    -0.047 C 
ATOM      6  C   LIG d   1      -7.233  77.269 117.704  0.00  0.00     0.091 C 
ENDROOT
BRANCH   1   7
ATOM      7  O   LIG d   1      -7.974  75.620 116.051  0.00  0.00    -0.368 OA
BRANCH   7   8
ATOM      8  C   LIG d   1      -7.601  74.238 115.824  0.00  0.00     0.119 C 
BRANCH   8   9
ATOM      9  C   LIG d   1      -8.147  73.412 117.005  0.00  0.00     0.028 C 
ATOM     10  C   LIG d   1      -9.284  72.466 116.583  0.00  0.00     0.006 C 
ENDBRANCH   8   9
BRANCH   8  11
ATOM     11  C   LIG d   1      -6.081  74.056 115.870  0.00  0.00     0.028 C 
ATOM     12  C   LIG d   1      -5.349  74.887 114.805  0.00  0.00     0.006 C 
ENDBRANCH   8  11
ENDBRANCH   7   8
ENDBRANCH   1   7
BRANCH   6  13
ATOM     13  N   LIG d   1      -5.817  76.822 117.779  0.00  0.00    -0.311 N 
ATOM     14  C   LIG d   1      -4.801  77.520 117.276  0.00  0.00     0.210 C 
ATOM     15  C   LIG d   1      -3.424  76.869 117.443  0.00  0.00     0.109 C 
ATOM     16  O   LIG d   1      -4.904  78.631 116.736  0.00  0.00    -0.276 OA
ATOM     17  H   LIG d   1      -5.639  75.945 118.229  0.00  0.00     0.149 HD
ENDBRANCH   6  13
BRANCH   5  18
ATOM     18  N   LIG d   1      -6.954  79.267 119.215  0.00  0.00     0.381 N 
ATOM     19  H   LIG d   1      -7.043  79.863 118.416  0.00  0.00    -0.090 HD
ATOM     20  H   LIG d   1      -5.980  79.058 119.345  0.00  0.00    -0.090 HD
ATOM     21  H   LIG d   1      -7.312  79.727 120.023  0.00  0.00    -0.090 HD
ENDBRANCH   5  18
BRANCH   3  22
ATOM     22  C   LIG d   1     -11.279  77.226 118.958  0.00  0.00     0.382 C 
ATOM     23  O   LIG d   1     -12.217  77.077 118.138  0.00  0.00    -0.241 OA
ATOM     24  O   LIG d   1     -11.539  77.392 120.165  0.00  0.00    -0.241 OA
ENDBRANCH   3  22
TORSDOF 7
ENDMDL
MODEL 5
REMARK VINA RESULT:      -5.2      2.267      3.141
REMARK  7 active torsions:
REMARK  status: ('A' for Active; 'I' for Inactive)
REMARK    1  A    between atoms: C_2  and  C_3 
REMARK    2  A    between atoms: C_3  and  O_6 
REMARK    3  A    between atoms: C_3  and  C_4 
REMARK    4  A    between atoms: C_7  and  O_6 
REMARK    5  A    between atoms: C_9  and  C_10 
REMARK    6  A    between atoms: N_15  and  C_14 
REMARK    7  A    between atoms: N_20  and  C_19 
REMARK       I    between atoms: C_22  and  N_20 
ROOT
ATOM      1  C   LIG d   1      -6.816  79.061 117.810  0.00  0.00     0.161 C 
ATOM      2  C   LIG d   1      -8.130  78.635 118.066  0.00  0.00     0.016 C 
ATOM      3  C   LIG d   1      -9.201  79.522 118.318  0.00  0.00     0.038 C 
ATOM      4  C   LIG d   1      -9.060  80.911 118.180  0.00  0.00     0.028 C 
ATOM      5  C   LIG d   1      -7.637  81.403 118.419  0.00  0.00    -0.047 C 
ATOM      6  C   LIG d   1      -6.667  80.574 117.547  0.00  0.00     0.091 C 
ENDROOT
BRANCH   1   7
ATOM      7  O   LIG d   1      -6.261  78.305 116.716  0.00  0.00    -0.368 OA
BRANCH   7   8
ATOM      8  C   LIG d   1      -6.316  76.863 116.845  0.00  0.00     0.119 C 
BRANCH   8   9
ATOM      9  C   LIG d   1      -4.866  76.350 116.936  0.00  0.00     0.028 C 
ATOM     10  C   LIG d   1      -4.621  75.119 116.048  0.00  0.00     0.006 C 
ENDBRANCH   8   9
BRANCH   8  11
ATOM     11  C   LIG d   1      -6.897  76.213 115.586  0.00  0.00     0.028 C 
ATOM     12  C   LIG d   1      -8.332  75.700 115.788  0.00  0.00     0.006 C 
ENDBRANCH   8  11
ENDBRANCH   7   8
ENDBRANCH   1   7
BRANCH   6  13
ATOM     13  N   LIG d   1      -5.244  80.934 117.782  0.00  0.00    -0.311 N 
ATOM     14  C   LIG d   1      -4.607  81.887 117.105  0.00  0.00     0.210 C 
ATOM     15  C   LIG d   1      -3.137  82.083 117.492  0.00  0.00     0.109 C 
ATOM     16  O   LIG d   1      -5.127  82.610 116.242  0.00  0.00    -0.276 OA
ATOM     17  H   LIG d   1      -4.754  80.418 118.487  0.00  0.00     0.149 HD
ENDBRANCH   6  13
BRANCH   5  18
ATOM     18  N   LIG d   1      -7.605  82.845 118.109  0.00  0.00     0.381 N 
ATOM     19  H   LIG d   1      -7.330  82.980 117.157  0.00  0.00    -0.090 HD
ATOM     20  H   LIG d   1      -6.925  83.289 118.700  0.00  0.00    -0.090 HD
ATOM     21  H   LIG d   1      -8.503  83.247 118.264  0.00  0.00    -0.090 HD
ENDBRANCH   5  18
BRANCH   3  22
ATOM     22  C   LIG d   1     -10.420  79.023 118.750  0.00  0.00     0.382 C 
ATOM     23  O   LIG d   1     -10.913  79.424 119.832  0.00  0.00    -0.241 OA
ATOM     24  O   LIG d   1     -11.011  78.144 118.095  0.00  0.00    -0.241 OA
ENDBRANCH   3  22
TORSDOF 7
ENDMDL
MODEL 6
REMARK VINA RESULT:      -5.1      2.068      5.107
REMARK  7 active torsions:
REMARK  status: ('A' for Active; 'I' for Inactive)
REMARK    1  A    between atoms: C_2  and  C_3 
REMARK    2  A    between atoms: C_3  and  O_6 
REMARK    3  A    between atoms: C_3  and  C_4 
REMARK    4  A    between atoms: C_7  and  O_6 
REMARK    5  A    between atoms: C_9  and  C_10 
REMARK    6  A    between atoms: N_15  and  C_14 
REMARK    7  A    between atoms: N_20  and  C_19 
REMARK       I    between atoms: C_22  and  N_20 
ROOT
ATOM      1  C   LIG d   1      -7.373  76.109 117.474  0.00  0.00     0.161 C 
ATOM      2  C   LIG d   1      -8.022  74.872 117.334  0.00  0.00     0.016 C 
ATOM      3  C   LIG d   1      -7.475  73.782 116.620  0.00  0.00     0.038 C 
ATOM      4  C   LIG d   1      -6.164  73.806 116.121  0.00  0.00     0.028 C 
ATOM      5  C   LIG d   1      -5.663  75.210 115.802  0.00  0.00    -0.047 C 
ATOM      6  C   LIG d   1      -5.894  76.117 117.032  0.00  0.00     0.091 C 
ENDROOT
BRANCH   1   7
ATOM      7  O   LIG d   1      -7.491  76.572 118.834  0.00  0.00    -0.368 OA
BRANCH   7   8
ATOM      8  C   LIG d   1      -8.418  77.663 119.058  0.00  0.00     0.119 C 
BRANCH   8   9
ATOM      9  C   LIG d   1      -9.410  77.676 117.879  0.00  0.00     0.028 C 
ATOM     10  C   LIG d   1     -10.819  77.219 118.292  0.00  0.00     0.006 C 
ENDBRANCH   8   9
BRANCH   8  11
ATOM     11  C   LIG d   1      -7.707  79.019 119.004  0.00  0.00     0.028 C 
ATOM     12  C   LIG d   1      -8.142  79.873 117.803  0.00  0.00     0.006 C 
ENDBRANCH   8  11
ENDBRANCH   7   8
ENDBRANCH   1   7
BRANCH   6  13
ATOM     13  N   LIG d   1      -5.509  77.529 116.776  0.00  0.00    -0.311 N 
ATOM     14  C   LIG d   1      -4.536  78.155 117.435  0.00  0.00     0.210 C 
ATOM     15  C   LIG d   1      -4.314  79.616 117.029  0.00  0.00     0.109 C 
ATOM     16  O   LIG d   1      -3.813  77.630 118.296  0.00  0.00    -0.276 OA
ATOM     17  H   LIG d   1      -6.023  78.022 116.072  0.00  0.00     0.149 HD
ENDBRANCH   6  13
BRANCH   5  18
ATOM     18  N   LIG d   1      -4.241  75.101 115.424  0.00  0.00     0.381 N 
ATOM     19  H   LIG d   1      -4.166  74.788 114.477  0.00  0.00    -0.090 HD
ATOM     20  H   LIG d   1      -3.798  74.421 116.016  0.00  0.00    -0.090 HD
ATOM     21  H   LIG d   1      -3.792  75.984 115.527  0.00  0.00    -0.090 HD
ENDBRANCH   5  18
BRANCH   3  22
ATOM     22  C   LIG d   1      -8.257  72.666 116.364  0.00  0.00     0.382 C 
ATOM     23  O   LIG d   1      -9.503  72.779 116.280  0.00  0.00    -0.241 OA
ATOM     24  O   LIG d   1      -7.735  71.539 116.259  0.00  0.00    -0.241 OA
ENDBRANCH   3  22
TORSDOF 7
ENDMDL
MODEL 7
REMARK VINA RESULT:      -5.0      2.283      5.202
REMARK  7 active torsions:
REMARK  status: ('A' for Active; 'I' for Inactive)
REMARK    1  A    between atoms: C_2  and  C_3 
REMARK    2  A    between atoms: C_3  and  O_6 
REMARK    3  A    between atoms: C_3  and  C_4 
REMARK    4  A    between atoms: C_7  and  O_6 
REMARK    5  A    between atoms: C_9  and  C_10 
REMARK    6  A    between atoms: N_15  and  C_14 
REMARK    7  A    between atoms: N_20  and  C_19 
REMARK       I    between atoms: C_22  and  N_20 
ROOT
ATOM      1  C   LIG d   1      -6.656  75.939 117.438  0.00  0.00     0.161 C 
ATOM      2  C   LIG d   1      -6.911  74.664 116.907  0.00  0.00     0.016 C 
ATOM      3  C   LIG d   1      -8.214  74.164 116.674  0.00  0.00     0.038 C 
ATOM      4  C   LIG d   1      -9.353  74.970 116.815  0.00  0.00     0.028 C 
ATOM      5  C   LIG d   1      -9.176  76.097 117.828  0.00  0.00    -0.047 C 
ATOM      6  C   LIG d   1      -7.882  76.874 117.494  0.00  0.00     0.091 C 
ENDROOT
BRANCH   1   7
ATOM      7  O   LIG d   1      -5.582  76.565 116.709  0.00  0.00    -0.368 OA
BRANCH   7   8
ATOM      8  C   LIG d   1      -4.266  76.471 117.307  0.00  0.00     0.119 C 
BRANCH   8   9
ATOM      9  C   LIG d   1      -3.855  77.889 117.748  0.00  0.00     0.028 C 
ATOM     10  C   LIG d   1      -2.753  78.485 116.856  0.00  0.00     0.006 C 
ENDBRANCH   8   9
BRANCH   8  11
ATOM     11  C   LIG d   1      -3.215  76.047 116.276  0.00  0.00     0.028 C 
ATOM     12  C   LIG d   1      -2.748  74.594 116.464  0.00  0.00     0.006 C 
ENDBRANCH   8  11
ENDBRANCH   7   8
ENDBRANCH   1   7
BRANCH   6  13
ATOM     13  N   LIG d   1      -7.590  77.941 118.486  0.00  0.00    -0.311 N 
ATOM     14  C   LIG d   1      -7.201  79.169 118.149  0.00  0.00     0.210 C 
ATOM     15  C   LIG d   1      -6.932  80.109 119.328  0.00  0.00     0.109 C 
ATOM     16  O   LIG d   1      -7.084  79.579 116.984  0.00  0.00    -0.276 OA
ATOM     17  H   LIG d   1      -7.689  77.704 119.454  0.00  0.00     0.149 HD
ENDBRANCH   6  13
BRANCH   5  18
ATOM     18  N   LIG d   1     -10.386  76.938 117.775  0.00  0.00     0.381 N 
ATOM     19  H   LIG d   1     -10.700  77.021 116.828  0.00  0.00    -0.090 HD
ATOM     20  H   LIG d   1     -10.159  77.857 118.113  0.00  0.00    -0.090 HD
ATOM     21  H   LIG d   1     -11.105  76.538 118.336  0.00  0.00    -0.090 HD
ENDBRANCH   5  18
BRANCH   3  22
ATOM     22  C   LIG d   1      -8.388  72.832 116.332  0.00  0.00     0.382 C 
ATOM     23  O   LIG d   1      -9.533  72.321 116.366  0.00  0.00    -0.241 OA
ATOM     24  O   LIG d   1      -7.408  72.123 116.034  0.00  0.00    -0.241 OA
ENDBRANCH   3  22
TORSDOF 7
ENDMDL
MODEL 8
REMARK VINA RESULT:      -4.8      2.167      4.237
REMARK  7 active torsions:
REMARK  status: ('A' for Active; 'I' for Inactive)
REMARK    1  A    between atoms: C_2  and  C_3 
REMARK    2  A    between atoms: C_3  and  O_6 
REMARK    3  A    between atoms: C_3  and  C_4 
REMARK    4  A    between atoms: C_7  and  O_6 
REMARK    5  A    between atoms: C_9  and  C_10 
REMARK    6  A    between atoms: N_15  and  C_14 
REMARK    7  A    between atoms: N_20  and  C_19 
REMARK       I    between atoms: C_22  and  N_20 
ROOT
ATOM      1  C   LIG d   1      -7.256  77.467 117.447  0.00  0.00     0.161 C 
ATOM      2  C   LIG d   1      -7.192  78.868 117.363  0.00  0.00     0.016 C 
ATOM      3  C   LIG d   1      -8.239  79.722 117.782  0.00  0.00     0.038 C 
ATOM      4  C   LIG d   1      -9.367  79.234 118.458  0.00  0.00     0.028 C 
ATOM      5  C   LIG d   1      -9.703  77.788 118.111  0.00  0.00    -0.047 C 
ATOM      6  C   LIG d   1      -8.433  76.923 118.283  0.00  0.00     0.091 C 
ENDROOT
BRANCH   1   7
ATOM      7  O   LIG d   1      -6.006  76.950 117.945  0.00  0.00    -0.368 OA
BRANCH   7   8
ATOM      8  C   LIG d   1      -4.985  76.688 116.952  0.00  0.00     0.119 C 
BRANCH   8   9
ATOM      9  C   LIG d   1      -5.229  75.271 116.398  0.00  0.00     0.028 C 
ATOM     10  C   LIG d   1      -5.514  75.272 114.887  0.00  0.00     0.006 C 
ENDBRANCH   8   9
BRANCH   8  11
ATOM     11  C   LIG d   1      -3.591  76.642 117.585  0.00  0.00     0.028 C 
ATOM     12  C   LIG d   1      -2.813  77.956 117.410  0.00  0.00     0.006 C 
ENDBRANCH   8  11
ENDBRANCH   7   8
ENDBRANCH   1   7
BRANCH   6  13
ATOM     13  N   LIG d   1      -8.652  75.508 117.884  0.00  0.00    -0.311 N 
ATOM     14  C   LIG d   1      -8.895  75.130 116.630  0.00  0.00     0.210 C 
ATOM     15  C   LIG d   1      -9.112  73.625 116.440  0.00  0.00     0.109 C 
ATOM     16  O   LIG d   1      -8.921  75.893 115.653  0.00  0.00    -0.276 OA
ATOM     17  H   LIG d   1      -8.618  74.819 118.609  0.00  0.00     0.149 HD
ENDBRANCH   6  13
BRANCH   5  18
ATOM     18  N   LIG d   1     -10.813  77.366 118.986  0.00  0.00     0.381 N 
ATOM     19  H   LIG d   1     -10.587  76.495 119.424  0.00  0.00    -0.090 HD
ATOM     20  H   LIG d   1     -11.636  77.232 118.426  0.00  0.00    -0.090 HD
ATOM     21  H   LIG d   1     -10.983  78.060 119.680  0.00  0.00    -0.090 HD
ENDBRANCH   5  18
BRANCH   3  22
ATOM     22  C   LIG d   1      -8.180  81.076 117.490  0.00  0.00     0.382 C 
ATOM     23  O   LIG d   1      -7.168  81.551 116.920  0.00  0.00    -0.241 OA
ATOM     24  O   LIG d   1      -9.107  81.836 117.828  0.00  0.00    -0.241 OA
ENDBRANCH   3  22
TORSDOF 7
ENDMDL
MODEL 9
REMARK VINA RESULT:      -4.3      2.004      4.793
REMARK  7 active torsions:
REMARK  status: ('A' for Active; 'I' for Inactive)
REMARK    1  A    between atoms: C_2  and  C_3 
REMARK    2  A    between atoms: C_3  and  O_6 
REMARK    3  A    between atoms: C_3  and  C_4 
REMARK    4  A    between atoms: C_7  and  O_6 
REMARK    5  A    between atoms: C_9  and  C_10 
REMARK    6  A    between atoms: N_15  and  C_14 
REMARK    7  A    between atoms: N_20  and  C_19 
REMARK       I    between atoms: C_22  and  N_20 
ROOT
ATOM      1  C   LIG d   1      -6.708  77.860 117.166  0.00  0.00     0.161 C 
ATOM      2  C   LIG d   1      -5.420  78.241 116.755  0.00  0.00     0.016 C 
ATOM      3  C   LIG d   1      -4.757  79.393 117.237  0.00  0.00     0.038 C 
ATOM      4  C   LIG d   1      -5.281  80.165 118.284  0.00  0.00     0.028 C 
ATOM      5  C   LIG d   1      -6.802  80.109 118.376  0.00  0.00    -0.047 C 
ATOM      6  C   LIG d   1      -7.249  78.629 118.390  0.00  0.00     0.091 C 
ENDROOT
BRANCH   1   7
ATOM      7  O   LIG d   1      -6.743  76.440 117.411  0.00  0.00    -0.368 OA
BRANCH   7   8
ATOM      8  C   LIG d   1      -7.574  75.660 116.517  0.00  0.00     0.119 C 
BRANCH   8   9
ATOM      9  C   LIG d   1      -8.341  74.635 117.375  0.00  0.00     0.028 C 
ATOM     10  C   LIG d   1      -8.963  73.510 116.530  0.00  0.00     0.006 C 
ENDBRANCH   8   9
BRANCH   8  11
ATOM     11  C   LIG d   1      -6.725  74.827 115.552  0.00  0.00     0.028 C 
ATOM     12  C   LIG d   1      -5.286  74.620 116.051  0.00  0.00     0.006 C 
ENDBRANCH   8  11
ENDBRANCH   7   8
ENDBRANCH   1   7
BRANCH   6  13
ATOM     13  N   LIG d   1      -8.728  78.484 118.394  0.00  0.00    -0.311 N 
ATOM     14  C   LIG d   1      -9.458  78.449 119.507  0.00  0.00     0.210 C 
ATOM     15  C   LIG d   1     -10.964  78.274 119.288  0.00  0.00     0.109 C 
ATOM     16  O   LIG d   1      -9.005  78.579 120.654  0.00  0.00    -0.276 OA
ATOM     17  H   LIG d   1      -9.181  78.404 117.504  0.00  0.00     0.149 HD
ENDBRANCH   6  13
BRANCH   5  18
ATOM     18  N   LIG d   1      -7.202  80.845 119.590  0.00  0.00     0.381 N 
ATOM     19  H   LIG d   1      -7.005  81.819 119.476  0.00  0.00    -0.090 HD
ATOM     20  H   LIG d   1      -6.666  80.504 120.369  0.00  0.00    -0.090 HD
ATOM     21  H   LIG d   1      -8.174  80.714 119.764  0.00  0.00    -0.090 HD
ENDBRANCH   5  18
BRANCH   3  22
ATOM     22  C   LIG d   1      -3.574  79.805 116.642  0.00  0.00     0.382 C 
ATOM     23  O   LIG d   1      -3.565  80.143 115.434  0.00  0.00    -0.241 OA
ATOM     24  O   LIG d   1      -2.508  79.800 117.286  0.00  0.00    -0.241 OA
ENDBRANCH   3  22
TORSDOF 7
ENDMDL
