MODEL 1
REMARK VINA RESULT:      -5.3      0.000      0.000
REMARK  7 active torsions:
REMARK  status: ('A' for Active; 'I' for Inactive)
REMARK    1  A    between atoms: C_2  and  C_3 
REMARK    2  A    between atoms: C_3  and  O_6 
REMARK    3  A    between atoms: C_3  and  C_4 
REMARK    4  A    between atoms: C_7  and  O_6 
REMARK    5  A    between atoms: C_9  and  C_10 
REMARK    6  A    between atoms: N_15  and  C_14 
REMARK    7  A    between atoms: N_20  and  C_19 
REMARK       I    between atoms: C_22  and  N_20 
ROOT
ATOM      1  C   LIG d   1      -6.141  93.405 118.433  0.00  0.00     0.161 C 
ATOM      2  C   LIG d   1      -6.833  92.382 117.765  0.00  0.00     0.016 C 
ATOM      3  C   LIG d   1      -6.191  91.302 117.117  0.00  0.00     0.038 C 
ATOM      4  C   LIG d   1      -4.808  91.090 117.223  0.00  0.00     0.028 C 
ATOM      5  C   LIG d   1      -4.016  92.371 117.462  0.00  0.00    -0.047 C 
ATOM      6  C   LIG d   1      -4.639  93.132 118.655  0.00  0.00     0.091 C 
ENDROOT
BRANCH   1   7
ATOM      7  O   LIG d   1      -6.788  93.695 119.688  0.00  0.00    -0.368 OA
BRANCH   7   8
ATOM      8  C   LIG d   1      -7.166  95.076 119.907  0.00  0.00     0.119 C 
BRANCH   8   9
ATOM      9  C   LIG d   1      -8.558  95.076 120.567  0.00  0.00     0.028 C 
ATOM     10  C   LIG d   1      -9.673  94.673 119.587  0.00  0.00     0.006 C 
ENDBRANCH   8   9
BRANCH   8  11
ATOM     11  C   LIG d   1      -7.346  95.821 118.581  0.00  0.00     0.028 C 
ATOM     12  C   LIG d   1      -6.642  97.187 118.565  0.00  0.00     0.006 C 
ENDBRANCH   8  11
ENDBRANCH   7   8
ENDBRANCH   1   7
BRANCH   6  13
ATOM     13  N   LIG d   1      -3.975  94.438 118.902  0.00  0.00    -0.311 N 
ATOM     14  C   LIG d   1      -2.986  94.604 119.779  0.00  0.00     0.210 C 
ATOM     15  C   LIG d   1      -2.457  96.037 119.894  0.00  0.00     0.109 C 
ATOM     16  O   LIG d   1      -2.475  93.694 120.449  0.00  0.00    -0.276 OA
ATOM     17  H   LIG d   1      -4.306  95.225 118.378  0.00  0.00     0.149 HD
ENDBRANCH   6  13
BRANCH   5  18
ATOM     18  N   LIG d   1      -2.609  91.989 117.690  0.00  0.00     0.381 N 
ATOM     19  H   LIG d   1      -2.116  92.751 118.111  0.00  0.00    -0.090 HD
ATOM     20  H   LIG d   1      -2.180  91.785 116.805  0.00  0.00    -0.090 HD
ATOM     21  H   LIG d   1      -2.565  91.188 118.281  0.00  0.00    -0.090 HD
ENDBRANCH   5  18
BRANCH   3  22
ATOM     22  C   LIG d   1      -6.930  90.442 116.319  0.00  0.00     0.382 C 
ATOM     23  O   LIG d   1      -8.050  90.032 116.708  0.00  0.00    -0.241 OA
ATOM     24  O   LIG d   1      -6.470  90.035 115.235  0.00  0.00    -0.241 OA
ENDBRANCH   3  22
TORSDOF 7
ENDMDL
MODEL 2
REMARK VINA RESULT:      -5.2     14.851     17.772
REMARK  7 active torsions:
REMARK  status: ('A' for Active; 'I' for Inactive)
REMARK    1  A    between atoms: C_2  and  C_3 
REMARK    2  A    between atoms: C_3  and  O_6 
REMARK    3  A    between atoms: C_3  and  C_4 
REMARK    4  A    between atoms: C_7  and  O_6 
REMARK    5  A    between atoms: C_9  and  C_10 
REMARK    6  A    between atoms: N_15  and  C_14 
REMARK    7  A    between atoms: N_20  and  C_19 
REMARK       I    between atoms: C_22  and  N_20 
ROOT
ATOM      1  C   LIG d   1      -4.452  76.516 115.784  0.00  0.00     0.161 C 
ATOM      2  C   LIG d   1      -3.499  75.510 115.552  0.00  0.00     0.016 C 
ATOM      3  C   LIG d   1      -2.394  75.275 116.402  0.00  0.00     0.038 C 
ATOM      4  C   LIG d   1      -2.248  75.938 117.630  0.00  0.00     0.028 C 
ATOM      5  C   LIG d   1      -2.910  77.311 117.659  0.00  0.00    -0.047 C 
ATOM      6  C   LIG d   1      -4.372  77.175 117.177  0.00  0.00     0.091 C 
ENDROOT
BRANCH   1   7
ATOM      7  O   LIG d   1      -5.777  75.997 115.550  0.00  0.00    -0.368 OA
BRANCH   7   8
ATOM      8  C   LIG d   1      -6.197  74.911 116.412  0.00  0.00     0.119 C 
BRANCH   8   9
ATOM      9  C   LIG d   1      -6.363  73.658 115.531  0.00  0.00     0.028 C 
ATOM     10  C   LIG d   1      -6.801  72.426 116.339  0.00  0.00     0.006 C 
ENDBRANCH   8   9
BRANCH   8  11
ATOM     11  C   LIG d   1      -7.584  75.175 117.006  0.00  0.00     0.028 C 
ATOM     12  C   LIG d   1      -8.143  76.554 116.622  0.00  0.00     0.006 C 
ENDBRANCH   8  11
ENDBRANCH   7   8
ENDBRANCH   1   7
BRANCH   6  13
ATOM     13  N   LIG d   1      -5.067  78.486 117.095  0.00  0.00    -0.311 N 
ATOM     14  C   LIG d   1      -5.821  78.978 118.076  0.00  0.00     0.210 C 
ATOM     15  C   LIG d   1      -6.463  80.337 117.778  0.00  0.00     0.109 C 
ATOM     16  O   LIG d   1      -5.995  78.433 119.176  0.00  0.00    -0.276 OA
ATOM     17  H   LIG d   1      -4.955  79.009 116.249  0.00  0.00     0.149 HD
ENDBRANCH   6  13
BRANCH   5  18
ATOM     18  N   LIG d   1      -2.801  77.829 119.036  0.00  0.00     0.381 N 
ATOM     19  H   LIG d   1      -3.134  78.772 119.071  0.00  0.00    -0.090 HD
ATOM     20  H   LIG d   1      -1.834  77.826 119.309  0.00  0.00    -0.090 HD
ATOM     21  H   LIG d   1      -3.331  77.258 119.658  0.00  0.00    -0.090 HD
ENDBRANCH   5  18
BRANCH   3  22
ATOM     22  C   LIG d   1      -1.397  74.397 116.005  0.00  0.00     0.382 C 
ATOM     23  O   LIG d   1      -0.881  73.616 116.840  0.00  0.00    -0.241 OA
ATOM     24  O   LIG d   1      -0.976  74.407 114.833  0.00  0.00    -0.241 OA
ENDBRANCH   3  22
TORSDOF 7
ENDMDL
MODEL 3
REMARK VINA RESULT:      -5.2     13.906     16.393
REMARK  7 active torsions:
REMARK  status: ('A' for Active; 'I' for Inactive)
REMARK    1  A    between atoms: C_2  and  C_3 
REMARK    2  A    between atoms: C_3  and  O_6 
REMARK    3  A    between atoms: C_3  and  C_4 
REMARK    4  A    between atoms: C_7  and  O_6 
REMARK    5  A    between atoms: C_9  and  C_10 
REMARK    6  A    between atoms: N_15  and  C_14 
REMARK    7  A    between atoms: N_20  and  C_19 
REMARK       I    between atoms: C_22  and  N_20 
ROOT
ATOM      1  C   LIG d   1      -6.399  77.535 117.171  0.00  0.00     0.161 C 
ATOM      2  C   LIG d   1      -7.794  77.539 117.333  0.00  0.00     0.016 C 
ATOM      3  C   LIG d   1      -8.509  78.622 117.894  0.00  0.00     0.038 C 
ATOM      4  C   LIG d   1      -7.889  79.844 118.195  0.00  0.00     0.028 C 
ATOM      5  C   LIG d   1      -6.405  79.706 118.519  0.00  0.00    -0.047 C 
ATOM      6  C   LIG d   1      -5.718  78.902 117.392  0.00  0.00     0.091 C 
ENDROOT
BRANCH   1   7
ATOM      7  O   LIG d   1      -6.059  77.009 115.873  0.00  0.00    -0.368 OA
BRANCH   7   8
ATOM      8  C   LIG d   1      -5.388  75.725 115.861  0.00  0.00     0.119 C 
BRANCH   8   9
ATOM      9  C   LIG d   1      -4.207  75.828 114.878  0.00  0.00     0.028 C 
ATOM     10  C   LIG d   1      -2.890  75.317 115.486  0.00  0.00     0.006 C 
ENDBRANCH   8   9
BRANCH   8  11
ATOM     11  C   LIG d   1      -6.295  74.629 115.293  0.00  0.00     0.028 C 
ATOM     12  C   LIG d   1      -6.531  73.478 116.283  0.00  0.00     0.006 C 
ENDBRANCH   8  11
ENDBRANCH   7   8
ENDBRANCH   1   7
BRANCH   6  13
ATOM     13  N   LIG d   1      -4.280  78.648 117.671  0.00  0.00    -0.311 N 
ATOM     14  C   LIG d   1      -3.314  78.843 116.776  0.00  0.00     0.210 C 
ATOM     15  C   LIG d   1      -1.902  78.501 117.263  0.00  0.00     0.109 C 
ATOM     16  O   LIG d   1      -3.488  79.298 115.635  0.00  0.00    -0.276 OA
ATOM     17  H   LIG d   1      -4.046  78.307 118.583  0.00  0.00     0.149 HD
ENDBRANCH   6  13
BRANCH   5  18
ATOM     18  N   LIG d   1      -5.855  81.065 118.678  0.00  0.00     0.381 N 
ATOM     19  H   LIG d   1      -4.877  81.013 118.884  0.00  0.00    -0.090 HD
ATOM     20  H   LIG d   1      -6.316  81.514 119.449  0.00  0.00    -0.090 HD
ATOM     21  H   LIG d   1      -5.998  81.591 117.844  0.00  0.00    -0.090 HD
ENDBRANCH   5  18
BRANCH   3  22
ATOM     22  C   LIG d   1      -9.854  78.475 118.196  0.00  0.00     0.382 C 
ATOM     23  O   LIG d   1     -10.426  77.377 117.991  0.00  0.00    -0.241 OA
ATOM     24  O   LIG d   1     -10.514  79.438 118.630  0.00  0.00    -0.241 OA
ENDBRANCH   3  22
TORSDOF 7
ENDMDL
MODEL 4
REMARK VINA RESULT:      -5.1     14.560     16.835
REMARK  7 active torsions:
REMARK  status: ('A' for Active; 'I' for Inactive)
REMARK    1  A    between atoms: C_2  and  C_3 
REMARK    2  A    between atoms: C_3  and  O_6 
REMARK    3  A    between atoms: C_3  and  C_4 
REMARK    4  A    between atoms: C_7  and  O_6 
REMARK    5  A    between atoms: C_9  and  C_10 
REMARK    6  A    between atoms: N_15  and  C_14 
REMARK    7  A    between atoms: N_20  and  C_19 
REMARK       I    between atoms: C_22  and  N_20 
ROOT
ATOM      1  C   LIG d   1      -6.833  76.982 117.240  0.00  0.00     0.161 C 
ATOM      2  C   LIG d   1      -8.113  77.559 117.276  0.00  0.00     0.016 C 
ATOM      3  C   LIG d   1      -8.492  78.555 118.205  0.00  0.00     0.038 C 
ATOM      4  C   LIG d   1      -7.563  79.155 119.069  0.00  0.00     0.028 C 
ATOM      5  C   LIG d   1      -6.384  78.251 119.412  0.00  0.00    -0.047 C 
ATOM      6  C   LIG d   1      -5.775  77.702 118.102  0.00  0.00     0.091 C 
ENDROOT
BRANCH   1   7
ATOM      7  O   LIG d   1      -6.382  76.879 115.875  0.00  0.00    -0.368 OA
BRANCH   7   8
ATOM      8  C   LIG d   1      -6.295  75.538 115.332  0.00  0.00     0.119 C 
BRANCH   8   9
ATOM      9  C   LIG d   1      -6.729  74.560 116.441  0.00  0.00     0.028 C 
ATOM     10  C   LIG d   1      -6.828  73.110 115.939  0.00  0.00     0.006 C 
ENDBRANCH   8   9
BRANCH   8  11
ATOM     11  C   LIG d   1      -4.847  75.163 115.004  0.00  0.00     0.028 C 
ATOM     12  C   LIG d   1      -3.944  76.390 114.805  0.00  0.00     0.006 C 
ENDBRANCH   8  11
ENDBRANCH   7   8
ENDBRANCH   1   7
BRANCH   6  13
ATOM     13  N   LIG d   1      -4.668  76.741 118.350  0.00  0.00    -0.311 N 
ATOM     14  C   LIG d   1      -3.381  77.085 118.332  0.00  0.00     0.210 C 
ATOM     15  C   LIG d   1      -2.401  75.936 118.593  0.00  0.00     0.109 C 
ATOM     16  O   LIG d   1      -2.959  78.238 118.156  0.00  0.00    -0.276 OA
ATOM     17  H   LIG d   1      -4.922  75.790 118.532  0.00  0.00     0.149 HD
ENDBRANCH   6  13
BRANCH   5  18
ATOM     18  N   LIG d   1      -5.428  79.046 120.205  0.00  0.00     0.381 N 
ATOM     19  H   LIG d   1      -4.683  79.365 119.618  0.00  0.00    -0.090 HD
ATOM     20  H   LIG d   1      -5.036  78.463 120.923  0.00  0.00    -0.090 HD
ATOM     21  H   LIG d   1      -5.892  79.825 120.617  0.00  0.00    -0.090 HD
ENDBRANCH   5  18
BRANCH   3  22
ATOM     22  C   LIG d   1      -9.822  78.934 118.303  0.00  0.00     0.382 C 
ATOM     23  O   LIG d   1     -10.141  80.141 118.177  0.00  0.00    -0.241 OA
ATOM     24  O   LIG d   1     -10.702  78.091 118.559  0.00  0.00    -0.241 OA
ENDBRANCH   3  22
TORSDOF 7
ENDMDL
MODEL 5
REMARK VINA RESULT:      -5.0     15.481     18.393
REMARK  7 active torsions:
REMARK  status: ('A' for Active; 'I' for Inactive)
REMARK    1  A    between atoms: C_2  and  C_3 
REMARK    2  A    between atoms: C_3  and  O_6 
REMARK    3  A    between atoms: C_3  and  C_4 
REMARK    4  A    between atoms: C_7  and  O_6 
REMARK    5  A    between atoms: C_9  and  C_10 
REMARK    6  A    between atoms: N_15  and  C_14 
REMARK    7  A    between atoms: N_20  and  C_19 
REMARK       I    between atoms: C_22  and  N_20 
ROOT
ATOM      1  C   LIG d   1      -4.317  75.192 116.526  0.00  0.00     0.161 C 
ATOM      2  C   LIG d   1      -5.048  74.045 116.174  0.00  0.00     0.016 C 
ATOM      3  C   LIG d   1      -6.457  73.967 116.250  0.00  0.00     0.038 C 
ATOM      4  C   LIG d   1      -7.247  75.089 116.541  0.00  0.00     0.028 C 
ATOM      5  C   LIG d   1      -6.529  76.131 117.393  0.00  0.00    -0.047 C 
ATOM      6  C   LIG d   1      -5.168  76.461 116.739  0.00  0.00     0.091 C 
ENDROOT
BRANCH   1   7
ATOM      7  O   LIG d   1      -3.290  75.436 115.544  0.00  0.00    -0.368 OA
BRANCH   7   8
ATOM      8  C   LIG d   1      -1.975  74.912 115.853  0.00  0.00     0.119 C 
BRANCH   8   9
ATOM      9  C   LIG d   1      -1.771  75.040 117.375  0.00  0.00     0.028 C 
ATOM     10  C   LIG d   1      -1.078  73.807 117.980  0.00  0.00     0.006 C 
ENDBRANCH   8   9
BRANCH   8  11
ATOM     11  C   LIG d   1      -0.872  75.766 115.223  0.00  0.00     0.028 C 
ATOM     12  C   LIG d   1      -0.519  77.002 116.067  0.00  0.00     0.006 C 
ENDBRANCH   8  11
ENDBRANCH   7   8
ENDBRANCH   1   7
BRANCH   6  13
ATOM     13  N   LIG d   1      -4.364  77.410 117.553  0.00  0.00    -0.311 N 
ATOM     14  C   LIG d   1      -3.802  78.509 117.054  0.00  0.00     0.210 C 
ATOM     15  C   LIG d   1      -2.999  79.339 118.061  0.00  0.00     0.109 C 
ATOM     16  O   LIG d   1      -3.919  78.894 115.881  0.00  0.00    -0.276 OA
ATOM     17  H   LIG d   1      -4.244  77.191 118.523  0.00  0.00     0.149 HD
ENDBRANCH   6  13
BRANCH   5  18
ATOM     18  N   LIG d   1      -7.417  77.304 117.504  0.00  0.00     0.381 N 
ATOM     19  H   LIG d   1      -8.055  77.320 116.734  0.00  0.00    -0.090 HD
ATOM     20  H   LIG d   1      -6.858  78.138 117.468  0.00  0.00    -0.090 HD
ATOM     21  H   LIG d   1      -7.921  77.269 118.363  0.00  0.00    -0.090 HD
ENDBRANCH   5  18
BRANCH   3  22
ATOM     22  C   LIG d   1      -7.089  72.745 116.072  0.00  0.00     0.382 C 
ATOM     23  O   LIG d   1      -6.465  71.786 115.557  0.00  0.00    -0.241 OA
ATOM     24  O   LIG d   1      -8.288  72.603 116.378  0.00  0.00    -0.241 OA
ENDBRANCH   3  22
TORSDOF 7
ENDMDL
MODEL 6
REMARK VINA RESULT:      -4.9      2.032      4.454
REMARK  7 active torsions:
REMARK  status: ('A' for Active; 'I' for Inactive)
REMARK    1  A    between atoms: C_2  and  C_3 
REMARK    2  A    between atoms: C_3  and  O_6 
REMARK    3  A    between atoms: C_3  and  C_4 
REMARK    4  A    between atoms: C_7  and  O_6 
REMARK    5  A    between atoms: C_9  and  C_10 
REMARK    6  A    between atoms: N_15  and  C_14 
REMARK    7  A    between atoms: N_20  and  C_19 
REMARK       I    between atoms: C_22  and  N_20 
ROOT
ATOM      1  C   LIG d   1      -4.493  92.272 118.098  0.00  0.00     0.161 C 
ATOM      2  C   LIG d   1      -4.765  91.364 117.061  0.00  0.00     0.016 C 
ATOM      3  C   LIG d   1      -5.994  91.328 116.362  0.00  0.00     0.038 C 
ATOM      4  C   LIG d   1      -6.984  92.303 116.552  0.00  0.00     0.028 C 
ATOM      5  C   LIG d   1      -6.956  92.933 117.940  0.00  0.00    -0.047 C 
ATOM      6  C   LIG d   1      -5.519  93.415 118.243  0.00  0.00     0.091 C 
ENDROOT
BRANCH   1   7
ATOM      7  O   LIG d   1      -3.164  92.809 117.940  0.00  0.00    -0.368 OA
BRANCH   7   8
ATOM      8  C   LIG d   1      -2.202  92.436 118.956  0.00  0.00     0.119 C 
BRANCH   8   9
ATOM      9  C   LIG d   1      -1.793  93.722 119.701  0.00  0.00     0.028 C 
ATOM     10  C   LIG d   1      -1.965  94.981 118.835  0.00  0.00     0.006 C 
ENDBRANCH   8   9
BRANCH   8  11
ATOM     11  C   LIG d   1      -0.910  91.902 118.331  0.00  0.00     0.028 C 
ATOM     12  C   LIG d   1      -1.077  90.500 117.724  0.00  0.00     0.006 C 
ENDBRANCH   8  11
ENDBRANCH   7   8
ENDBRANCH   1   7
BRANCH   6  13
ATOM     13  N   LIG d   1      -5.385  93.968 119.616  0.00  0.00    -0.311 N 
ATOM     14  C   LIG d   1      -5.557  95.257 119.907  0.00  0.00     0.210 C 
ATOM     15  C   LIG d   1      -5.352  95.619 121.381  0.00  0.00     0.109 C 
ATOM     16  O   LIG d   1      -5.891  96.128 119.090  0.00  0.00    -0.276 OA
ATOM     17  H   LIG d   1      -5.146  93.326 120.345  0.00  0.00     0.149 HD
ENDBRANCH   6  13
BRANCH   5  18
ATOM     18  N   LIG d   1      -7.948  94.024 117.954  0.00  0.00     0.381 N 
ATOM     19  H   LIG d   1      -7.479  94.908 117.972  0.00  0.00    -0.090 HD
ATOM     20  H   LIG d   1      -8.505  93.947 118.787  0.00  0.00    -0.090 HD
ATOM     21  H   LIG d   1      -8.531  93.966 117.149  0.00  0.00    -0.090 HD
ENDBRANCH   5  18
BRANCH   3  22
ATOM     22  C   LIG d   1      -6.257  90.283 115.489  0.00  0.00     0.382 C 
ATOM     23  O   LIG d   1      -7.436  90.044 115.134  0.00  0.00    -0.241 OA
ATOM     24  O   LIG d   1      -5.335  89.549 115.086  0.00  0.00    -0.241 OA
ENDBRANCH   3  22
TORSDOF 7
ENDMDL
MODEL 7
REMARK VINA RESULT:      -4.6     12.913     15.802
REMARK  7 active torsions:
REMARK  status: ('A' for Active; 'I' for Inactive)
REMARK    1  A    between atoms: C_2  and  C_3 
REMARK    2  A    between atoms: C_3  and  O_6 
REMARK    3  A    between atoms: C_3  and  C_4 
REMARK    4  A    between atoms: C_7  and  O_6 
REMARK    5  A    between atoms: C_9  and  C_10 
REMARK    6  A    between atoms: N_15  and  C_14 
REMARK    7  A    between atoms: N_20  and  C_19 
REMARK       I    between atoms: C_22  and  N_20 
ROOT
ATOM      1  C   LIG d   1      -5.421  78.052 117.158  0.00  0.00     0.161 C 
ATOM      2  C   LIG d   1      -5.421  76.789 116.544  0.00  0.00     0.016 C 
ATOM      3  C   LIG d   1      -6.589  76.016 116.354  0.00  0.00     0.038 C 
ATOM      4  C   LIG d   1      -7.867  76.523 116.631  0.00  0.00     0.028 C 
ATOM      5  C   LIG d   1      -7.872  77.593 117.717  0.00  0.00    -0.047 C 
ATOM      6  C   LIG d   1      -6.820  78.670 117.365  0.00  0.00     0.091 C 
ENDROOT
BRANCH   1   7
ATOM      7  O   LIG d   1      -4.579  78.956 116.415  0.00  0.00    -0.368 OA
BRANCH   7   8
ATOM      8  C   LIG d   1      -3.317  79.305 117.034  0.00  0.00     0.119 C 
BRANCH   8   9
ATOM      9  C   LIG d   1      -2.224  78.442 116.374  0.00  0.00     0.028 C 
ATOM     10  C   LIG d   1      -0.830  79.085 116.471  0.00  0.00     0.006 C 
ENDBRANCH   8   9
BRANCH   8  11
ATOM     11  C   LIG d   1      -3.297  78.920 118.516  0.00  0.00     0.028 C 
ATOM     12  C   LIG d   1      -3.241  80.141 119.448  0.00  0.00     0.006 C 
ENDBRANCH   8  11
ENDBRANCH   7   8
ENDBRANCH   1   7
BRANCH   6  13
ATOM     13  N   LIG d   1      -6.700  79.711 118.419  0.00  0.00    -0.311 N 
ATOM     14  C   LIG d   1      -6.900  81.008 118.195  0.00  0.00     0.210 C 
ATOM     15  C   LIG d   1      -6.706  81.914 119.415  0.00  0.00     0.109 C 
ATOM     16  O   LIG d   1      -7.252  81.492 117.108  0.00  0.00    -0.276 OA
ATOM     17  H   LIG d   1      -6.448  79.403 119.338  0.00  0.00     0.149 HD
ENDBRANCH   6  13
BRANCH   5  18
ATOM     18  N   LIG d   1      -9.242  78.132 117.807  0.00  0.00     0.381 N 
ATOM     19  H   LIG d   1      -9.424  78.727 117.023  0.00  0.00    -0.090 HD
ATOM     20  H   LIG d   1      -9.322  78.681 118.645  0.00  0.00    -0.090 HD
ATOM     21  H   LIG d   1      -9.901  77.385 117.827  0.00  0.00    -0.090 HD
ENDBRANCH   5  18
BRANCH   3  22
ATOM     22  C   LIG d   1      -6.482  74.704 115.918  0.00  0.00     0.382 C 
ATOM     23  O   LIG d   1      -5.740  74.425 114.946  0.00  0.00    -0.241 OA
ATOM     24  O   LIG d   1      -7.151  73.802 116.457  0.00  0.00    -0.241 OA
ENDBRANCH   3  22
TORSDOF 7
ENDMDL
MODEL 8
REMARK VINA RESULT:      -4.6      2.031      4.833
REMARK  7 active torsions:
REMARK  status: ('A' for Active; 'I' for Inactive)
REMARK    1  A    between atoms: C_2  and  C_3 
REMARK    2  A    between atoms: C_3  and  O_6 
REMARK    3  A    between atoms: C_3  and  C_4 
REMARK    4  A    between atoms: C_7  and  O_6 
REMARK    5  A    between atoms: C_9  and  C_10 
REMARK    6  A    between atoms: N_15  and  C_14 
REMARK    7  A    between atoms: N_20  and  C_19 
REMARK       I    between atoms: C_22  and  N_20 
ROOT
ATOM      1  C   LIG d   1      -5.468  93.183 118.601  0.00  0.00     0.161 C 
ATOM      2  C   LIG d   1      -6.778  93.663 118.431  0.00  0.00     0.016 C 
ATOM      3  C   LIG d   1      -7.214  94.921 118.906  0.00  0.00     0.038 C 
ATOM      4  C   LIG d   1      -6.323  95.856 119.454  0.00  0.00     0.028 C 
ATOM      5  C   LIG d   1      -5.099  95.217 120.103  0.00  0.00    -0.047 C 
ATOM      6  C   LIG d   1      -4.455  94.235 119.099  0.00  0.00     0.091 C 
ENDROOT
BRANCH   1   7
ATOM      7  O   LIG d   1      -5.005  92.581 117.376  0.00  0.00    -0.368 OA
BRANCH   7   8
ATOM      8  C   LIG d   1      -5.135  91.141 117.285  0.00  0.00     0.119 C 
BRANCH   8   9
ATOM      9  C   LIG d   1      -3.731  90.537 117.477  0.00  0.00     0.028 C 
ATOM     10  C   LIG d   1      -3.531  89.954 118.886  0.00  0.00     0.006 C 
ENDBRANCH   8   9
BRANCH   8  11
ATOM     11  C   LIG d   1      -5.574  90.709 115.882  0.00  0.00     0.028 C 
ATOM     12  C   LIG d   1      -6.422  91.774 115.169  0.00  0.00     0.006 C 
ENDBRANCH   8  11
ENDBRANCH   7   8
ENDBRANCH   1   7
BRANCH   6  13
ATOM     13  N   LIG d   1      -3.299  93.504 119.683  0.00  0.00    -0.311 N 
ATOM     14  C   LIG d   1      -2.108  93.425 119.093  0.00  0.00     0.210 C 
ATOM     15  C   LIG d   1      -1.062  92.607 119.856  0.00  0.00     0.109 C 
ATOM     16  O   LIG d   1      -1.809  93.982 118.026  0.00  0.00    -0.276 OA
ATOM     17  H   LIG d   1      -3.445  93.049 120.563  0.00  0.00     0.149 HD
ENDBRANCH   6  13
BRANCH   5  18
ATOM     18  N   LIG d   1      -4.192  96.307 120.510  0.00  0.00     0.381 N 
ATOM     19  H   LIG d   1      -4.088  96.307 121.505  0.00  0.00    -0.090 HD
ATOM     20  H   LIG d   1      -4.594  97.185 120.234  0.00  0.00    -0.090 HD
ATOM     21  H   LIG d   1      -3.302  96.190 120.076  0.00  0.00    -0.090 HD
ENDBRANCH   5  18
BRANCH   3  22
ATOM     22  C   LIG d   1      -8.563  95.239 118.870  0.00  0.00     0.382 C 
ATOM     23  O   LIG d   1      -9.399  94.383 118.494  0.00  0.00    -0.241 OA
ATOM     24  O   LIG d   1      -8.950  96.385 119.167  0.00  0.00    -0.241 OA
ENDBRANCH   3  22
TORSDOF 7
ENDMDL
MODEL 9
REMARK VINA RESULT:      -4.5     27.292     30.499
REMARK  7 active torsions:
REMARK  status: ('A' for Active; 'I' for Inactive)
REMARK    1  A    between atoms: C_2  and  C_3 
REMARK    2  A    between atoms: C_3  and  O_6 
REMARK    3  A    between atoms: C_3  and  C_4 
REMARK    4  A    between atoms: C_7  and  O_6 
REMARK    5  A    between atoms: C_9  and  C_10 
REMARK    6  A    between atoms: N_15  and  C_14 
REMARK    7  A    between atoms: N_20  and  C_19 
REMARK       I    between atoms: C_22  and  N_20 
ROOT
ATOM      1  C   LIG d   1     -15.492  64.946 118.772  0.00  0.00     0.161 C 
ATOM      2  C   LIG d   1     -14.705  65.653 119.696  0.00  0.00     0.016 C 
ATOM      3  C   LIG d   1     -14.450  67.041 119.600  0.00  0.00     0.038 C 
ATOM      4  C   LIG d   1     -15.094  67.848 118.650  0.00  0.00     0.028 C 
ATOM      5  C   LIG d   1     -15.501  67.094 117.389  0.00  0.00    -0.047 C 
ATOM      6  C   LIG d   1     -16.293  65.830 117.794  0.00  0.00     0.091 C 
ENDROOT
BRANCH   1   7
ATOM      7  O   LIG d   1     -16.374  64.045 119.471  0.00  0.00    -0.368 OA
BRANCH   7   8
ATOM      8  C   LIG d   1     -16.121  62.631 119.283  0.00  0.00     0.119 C 
BRANCH   8   9
ATOM      9  C   LIG d   1     -17.469  61.897 119.421  0.00  0.00     0.028 C 
ATOM     10  C   LIG d   1     -18.403  62.154 118.226  0.00  0.00     0.006 C 
ENDBRANCH   8   9
BRANCH   8  11
ATOM     11  C   LIG d   1     -15.237  62.069 120.400  0.00  0.00     0.028 C 
ATOM     12  C   LIG d   1     -15.100  60.540 120.340  0.00  0.00     0.006 C 
ENDBRANCH   8  11
ENDBRANCH   7   8
ENDBRANCH   1   7
BRANCH   6  13
ATOM     13  N   LIG d   1     -16.656  64.989 116.623  0.00  0.00    -0.311 N 
ATOM     14  C   LIG d   1     -17.812  65.100 115.971  0.00  0.00     0.210 C 
ATOM     15  C   LIG d   1     -17.994  64.124 114.805  0.00  0.00     0.109 C 
ATOM     16  O   LIG d   1     -18.691  65.937 116.228  0.00  0.00    -0.276 OA
ATOM     17  H   LIG d   1     -15.987  64.305 116.327  0.00  0.00     0.149 HD
ENDBRANCH   6  13
BRANCH   5  18
ATOM     18  N   LIG d   1     -16.281  68.020 116.547  0.00  0.00     0.381 N 
ATOM     19  H   LIG d   1     -15.698  68.774 116.243  0.00  0.00    -0.090 HD
ATOM     20  H   LIG d   1     -17.032  68.403 117.095  0.00  0.00    -0.090 HD
ATOM     21  H   LIG d   1     -16.649  67.536 115.758  0.00  0.00    -0.090 HD
ENDBRANCH   5  18
BRANCH   3  22
ATOM     22  C   LIG d   1     -13.512  67.627 120.435  0.00  0.00     0.382 C 
ATOM     23  O   LIG d   1     -12.945  66.942 121.320  0.00  0.00    -0.241 OA
ATOM     24  O   LIG d   1     -13.257  68.843 120.344  0.00  0.00    -0.241 OA
ENDBRANCH   3  22
TORSDOF 7
ENDMDL
