MODEL 1
REMARK VINA RESULT:      -6.0      0.000      0.000
REMARK  7 active torsions:
REMARK  status: ('A' for Active; 'I' for Inactive)
REMARK    1  A    between atoms: C_2  and  C_3 
REMARK    2  A    between atoms: C_3  and  O_6 
REMARK    3  A    between atoms: C_3  and  C_4 
REMARK    4  A    between atoms: C_7  and  O_6 
REMARK    5  A    between atoms: C_9  and  C_10 
REMARK    6  A    between atoms: N_15  and  C_14 
REMARK    7  A    between atoms: N_20  and  C_19 
REMARK       I    between atoms: C_22  and  N_20 
ROOT
ATOM      1  C   LIG d   1      -7.588  76.724 117.701  0.00  0.00     0.161 C 
ATOM      2  C   LIG d   1      -8.903  77.057 118.067  0.00  0.00     0.016 C 
ATOM      3  C   LIG d   1      -9.298  78.360 118.448  0.00  0.00     0.038 C 
ATOM      4  C   LIG d   1      -8.431  79.458 118.343  0.00  0.00     0.028 C 
ATOM      5  C   LIG d   1      -6.958  79.081 118.462  0.00  0.00    -0.047 C 
ATOM      6  C   LIG d   1      -6.654  77.931 117.474  0.00  0.00     0.091 C 
ENDROOT
BRANCH   1   7
ATOM      7  O   LIG d   1      -7.604  75.877 116.535  0.00  0.00    -0.368 OA
BRANCH   7   8
ATOM      8  C   LIG d   1      -7.313  74.476 116.761  0.00  0.00     0.119 C 
BRANCH   8   9
ATOM      9  C   LIG d   1      -6.397  74.003 115.616  0.00  0.00     0.028 C 
ATOM     10  C   LIG d   1      -5.818  75.176 114.805  0.00  0.00     0.006 C 
ENDBRANCH   8   9
BRANCH   8  11
ATOM     11  C   LIG d   1      -8.578  73.619 116.648  0.00  0.00     0.028 C 
ATOM     12  C   LIG d   1      -8.281  72.172 116.225  0.00  0.00     0.006 C 
ENDBRANCH   8  11
ENDBRANCH   7   8
ENDBRANCH   1   7
BRANCH   6  13
ATOM     13  N   LIG d   1      -5.254  77.444 117.586  0.00  0.00    -0.311 N 
ATOM     14  C   LIG d   1      -4.283  77.808 116.750  0.00  0.00     0.210 C 
ATOM     15  C   LIG d   1      -2.917  77.174 117.031  0.00  0.00     0.109 C 
ATOM     16  O   LIG d   1      -4.415  78.620 115.823  0.00  0.00    -0.276 OA
ATOM     17  H   LIG d   1      -5.051  76.805 118.329  0.00  0.00     0.149 HD
ENDBRANCH   6  13
BRANCH   5  18
ATOM     18  N   LIG d   1      -6.164  80.296 118.198  0.00  0.00     0.381 N 
ATOM     19  H   LIG d   1      -5.321  80.051 117.719  0.00  0.00    -0.090 HD
ATOM     20  H   LIG d   1      -5.918  80.720 119.074  0.00  0.00    -0.090 HD
ATOM     21  H   LIG d   1      -6.693  80.936 117.647  0.00  0.00    -0.090 HD
ENDBRANCH   5  18
BRANCH   3  22
ATOM     22  C   LIG d   1     -10.562  78.567 118.978  0.00  0.00     0.382 C 
ATOM     23  O   LIG d   1     -10.828  79.645 119.563  0.00  0.00    -0.241 OA
ATOM     24  O   LIG d   1     -11.427  77.673 118.917  0.00  0.00    -0.241 OA
ENDBRANCH   3  22
TORSDOF 7
ENDMDL
MODEL 2
REMARK VINA RESULT:      -5.8      2.576      5.674
REMARK  7 active torsions:
REMARK  status: ('A' for Active; 'I' for Inactive)
REMARK    1  A    between atoms: C_2  and  C_3 
REMARK    2  A    between atoms: C_3  and  O_6 
REMARK    3  A    between atoms: C_3  and  C_4 
REMARK    4  A    between atoms: C_7  and  O_6 
REMARK    5  A    between atoms: C_9  and  C_10 
REMARK    6  A    between atoms: N_15  and  C_14 
REMARK    7  A    between atoms: N_20  and  C_19 
REMARK       I    between atoms: C_22  and  N_20 
ROOT
ATOM      1  C   LIG d   1      -5.076  75.630 116.704  0.00  0.00     0.161 C 
ATOM      2  C   LIG d   1      -4.020  74.769 116.359  0.00  0.00     0.016 C 
ATOM      3  C   LIG d   1      -2.663  75.055 116.630  0.00  0.00     0.038 C 
ATOM      4  C   LIG d   1      -2.278  76.160 117.403  0.00  0.00     0.028 C 
ATOM      5  C   LIG d   1      -3.267  77.319 117.339  0.00  0.00    -0.047 C 
ATOM      6  C   LIG d   1      -4.685  76.787 117.647  0.00  0.00     0.091 C 
ENDROOT
BRANCH   1   7
ATOM      7  O   LIG d   1      -6.162  74.869 117.268  0.00  0.00    -0.368 OA
BRANCH   7   8
ATOM      8  C   LIG d   1      -7.094  74.291 116.321  0.00  0.00     0.119 C 
BRANCH   8   9
ATOM      9  C   LIG d   1      -8.515  74.516 116.874  0.00  0.00     0.028 C 
ATOM     10  C   LIG d   1      -8.786  75.991 117.214  0.00  0.00     0.006 C 
ENDBRANCH   8   9
BRANCH   8  11
ATOM     11  C   LIG d   1      -6.929  72.771 116.234  0.00  0.00     0.028 C 
ATOM     12  C   LIG d   1      -8.272  72.023 116.259  0.00  0.00     0.006 C 
ENDBRANCH   8  11
ENDBRANCH   7   8
ENDBRANCH   1   7
BRANCH   6  13
ATOM     13  N   LIG d   1      -5.726  77.840 117.523  0.00  0.00    -0.311 N 
ATOM     14  C   LIG d   1      -6.337  78.394 118.568  0.00  0.00     0.210 C 
ATOM     15  C   LIG d   1      -7.393  79.447 118.216  0.00  0.00     0.109 C 
ATOM     16  O   LIG d   1      -6.082  78.137 119.754  0.00  0.00    -0.276 OA
ATOM     17  H   LIG d   1      -5.972  78.131 116.597  0.00  0.00     0.149 HD
ENDBRANCH   6  13
BRANCH   5  18
ATOM     18  N   LIG d   1      -2.814  78.346 118.296  0.00  0.00     0.381 N 
ATOM     19  H   LIG d   1      -3.431  79.133 118.266  0.00  0.00    -0.090 HD
ATOM     20  H   LIG d   1      -1.895  78.655 118.031  0.00  0.00    -0.090 HD
ATOM     21  H   LIG d   1      -2.792  77.967 119.217  0.00  0.00    -0.090 HD
ENDBRANCH   5  18
BRANCH   3  22
ATOM     22  C   LIG d   1      -1.670  74.252 116.089  0.00  0.00     0.382 C 
ATOM     23  O   LIG d   1      -0.818  73.718 116.839  0.00  0.00    -0.241 OA
ATOM     24  O   LIG d   1      -1.589  74.091 114.856  0.00  0.00    -0.241 OA
ENDBRANCH   3  22
TORSDOF 7
ENDMDL
MODEL 3
REMARK VINA RESULT:      -5.6      2.754      4.954
REMARK  7 active torsions:
REMARK  status: ('A' for Active; 'I' for Inactive)
REMARK    1  A    between atoms: C_2  and  C_3 
REMARK    2  A    between atoms: C_3  and  O_6 
REMARK    3  A    between atoms: C_3  and  C_4 
REMARK    4  A    between atoms: C_7  and  O_6 
REMARK    5  A    between atoms: C_9  and  C_10 
REMARK    6  A    between atoms: N_15  and  C_14 
REMARK    7  A    between atoms: N_20  and  C_19 
REMARK       I    between atoms: C_22  and  N_20 
ROOT
ATOM      1  C   LIG d   1      -5.558  75.292 117.091  0.00  0.00     0.161 C 
ATOM      2  C   LIG d   1      -6.105  74.068 116.674  0.00  0.00     0.016 C 
ATOM      3  C   LIG d   1      -7.495  73.824 116.593  0.00  0.00     0.038 C 
ATOM      4  C   LIG d   1      -8.439  74.844 116.782  0.00  0.00     0.028 C 
ATOM      5  C   LIG d   1      -7.949  75.962 117.695  0.00  0.00    -0.047 C 
ATOM      6  C   LIG d   1      -6.571  76.452 117.194  0.00  0.00     0.091 C 
ENDROOT
BRANCH   1   7
ATOM      7  O   LIG d   1      -4.464  75.658 116.228  0.00  0.00    -0.368 OA
BRANCH   7   8
ATOM      8  C   LIG d   1      -3.139  75.289 116.685  0.00  0.00     0.119 C 
BRANCH   8   9
ATOM      9  C   LIG d   1      -2.436  76.577 117.155  0.00  0.00     0.028 C 
ATOM     10  C   LIG d   1      -2.446  76.726 118.686  0.00  0.00     0.006 C 
ENDBRANCH   8   9
BRANCH   8  11
ATOM     11  C   LIG d   1      -2.281  74.755 115.535  0.00  0.00     0.028 C 
ATOM     12  C   LIG d   1      -0.837  74.448 115.961  0.00  0.00     0.006 C 
ENDBRANCH   8  11
ENDBRANCH   7   8
ENDBRANCH   1   7
BRANCH   6  13
ATOM     13  N   LIG d   1      -5.980  77.488 118.081  0.00  0.00    -0.311 N 
ATOM     14  C   LIG d   1      -5.510  78.652 117.636  0.00  0.00     0.210 C 
ATOM     15  C   LIG d   1      -4.925  79.568 118.716  0.00  0.00     0.109 C 
ATOM     16  O   LIG d   1      -5.550  79.026 116.455  0.00  0.00    -0.276 OA
ATOM     17  H   LIG d   1      -5.937  77.280 119.059  0.00  0.00     0.149 HD
ENDBRANCH   6  13
BRANCH   5  18
ATOM     18  N   LIG d   1      -8.975  77.022 117.694  0.00  0.00     0.381 N 
ATOM     19  H   LIG d   1      -8.535  77.919 117.643  0.00  0.00    -0.090 HD
ATOM     20  H   LIG d   1      -9.494  76.973 118.552  0.00  0.00    -0.090 HD
ATOM     21  H   LIG d   1      -9.588  76.901 116.918  0.00  0.00    -0.090 HD
ENDBRANCH   5  18
BRANCH   3  22
ATOM     22  C   LIG d   1      -7.955  72.536 116.360  0.00  0.00     0.382 C 
ATOM     23  O   LIG d   1      -9.187  72.318 116.264  0.00  0.00    -0.241 OA
ATOM     24  O   LIG d   1      -7.156  71.584 116.289  0.00  0.00    -0.241 OA
ENDBRANCH   3  22
TORSDOF 7
ENDMDL
MODEL 4
REMARK VINA RESULT:      -5.5      2.100      5.107
REMARK  7 active torsions:
REMARK  status: ('A' for Active; 'I' for Inactive)
REMARK    1  A    between atoms: C_2  and  C_3 
REMARK    2  A    between atoms: C_3  and  O_6 
REMARK    3  A    between atoms: C_3  and  C_4 
REMARK    4  A    between atoms: C_7  and  O_6 
REMARK    5  A    between atoms: C_9  and  C_10 
REMARK    6  A    between atoms: N_15  and  C_14 
REMARK    7  A    between atoms: N_20  and  C_19 
REMARK       I    between atoms: C_22  and  N_20 
ROOT
ATOM      1  C   LIG d   1      -6.957  76.247 117.289  0.00  0.00     0.161 C 
ATOM      2  C   LIG d   1      -7.790  75.143 117.043  0.00  0.00     0.016 C 
ATOM      3  C   LIG d   1      -7.302  73.862 116.695  0.00  0.00     0.038 C 
ATOM      4  C   LIG d   1      -5.933  73.559 116.718  0.00  0.00     0.028 C 
ATOM      5  C   LIG d   1      -5.040  74.770 116.468  0.00  0.00    -0.047 C 
ATOM      6  C   LIG d   1      -5.458  75.908 117.427  0.00  0.00     0.091 C 
ENDROOT
BRANCH   1   7
ATOM      7  O   LIG d   1      -7.420  76.958 118.454  0.00  0.00    -0.368 OA
BRANCH   7   8
ATOM      8  C   LIG d   1      -7.982  78.272 118.217  0.00  0.00     0.119 C 
BRANCH   8   9
ATOM      9  C   LIG d   1      -7.044  79.302 118.876  0.00  0.00     0.028 C 
ATOM     10  C   LIG d   1      -6.467  80.304 117.862  0.00  0.00     0.006 C 
ENDBRANCH   8   9
BRANCH   8  11
ATOM     11  C   LIG d   1      -9.329  78.438 118.926  0.00  0.00     0.028 C 
ATOM     12  C   LIG d   1     -10.109  79.671 118.443  0.00  0.00     0.006 C 
ENDBRANCH   8  11
ENDBRANCH   7   8
ENDBRANCH   1   7
BRANCH   6  13
ATOM     13  N   LIG d   1      -4.691  77.159 117.191  0.00  0.00    -0.311 N 
ATOM     14  C   LIG d   1      -3.587  77.479 117.864  0.00  0.00     0.210 C 
ATOM     15  C   LIG d   1      -2.962  78.824 117.478  0.00  0.00     0.109 C 
ATOM     16  O   LIG d   1      -3.048  76.763 118.721  0.00  0.00    -0.276 OA
ATOM     17  H   LIG d   1      -5.040  77.783 116.491  0.00  0.00     0.149 HD
ENDBRANCH   6  13
BRANCH   5  18
ATOM     18  N   LIG d   1      -3.642  74.340 116.656  0.00  0.00     0.381 N 
ATOM     19  H   LIG d   1      -3.322  73.862 115.838  0.00  0.00    -0.090 HD
ATOM     20  H   LIG d   1      -3.600  73.701 117.431  0.00  0.00    -0.090 HD
ATOM     21  H   LIG d   1      -3.063  75.130 116.836  0.00  0.00    -0.090 HD
ENDBRANCH   5  18
BRANCH   3  22
ATOM     22  C   LIG d   1      -8.188  72.878 116.281  0.00  0.00     0.382 C 
ATOM     23  O   LIG d   1      -9.411  72.989 116.535  0.00  0.00    -0.241 OA
ATOM     24  O   LIG d   1      -7.772  71.861 115.695  0.00  0.00    -0.241 OA
ENDBRANCH   3  22
TORSDOF 7
ENDMDL
MODEL 5
REMARK VINA RESULT:      -5.4     14.343     17.267
REMARK  7 active torsions:
REMARK  status: ('A' for Active; 'I' for Inactive)
REMARK    1  A    between atoms: C_2  and  C_3 
REMARK    2  A    between atoms: C_3  and  O_6 
REMARK    3  A    between atoms: C_3  and  C_4 
REMARK    4  A    between atoms: C_7  and  O_6 
REMARK    5  A    between atoms: C_9  and  C_10 
REMARK    6  A    between atoms: N_15  and  C_14 
REMARK    7  A    between atoms: N_20  and  C_19 
REMARK       I    between atoms: C_22  and  N_20 
ROOT
ATOM      1  C   LIG d   1      -5.866  93.088 118.390  0.00  0.00     0.161 C 
ATOM      2  C   LIG d   1      -4.795  93.891 118.814  0.00  0.00     0.016 C 
ATOM      3  C   LIG d   1      -3.447  93.636 118.472  0.00  0.00     0.038 C 
ATOM      4  C   LIG d   1      -3.092  92.638 117.552  0.00  0.00     0.028 C 
ATOM      5  C   LIG d   1      -4.088  91.486 117.493  0.00  0.00    -0.047 C 
ATOM      6  C   LIG d   1      -5.509  92.061 117.295  0.00  0.00     0.091 C 
ENDROOT
BRANCH   1   7
ATOM      7  O   LIG d   1      -6.961  93.920 117.959  0.00  0.00    -0.368 OA
BRANCH   7   8
ATOM      8  C   LIG d   1      -7.329  95.001 118.851  0.00  0.00     0.119 C 
BRANCH   8   9
ATOM      9  C   LIG d   1      -8.068  94.379 120.051  0.00  0.00     0.028 C 
ATOM     10  C   LIG d   1      -7.522  94.877 121.399  0.00  0.00     0.006 C 
ENDBRANCH   8   9
BRANCH   8  11
ATOM     11  C   LIG d   1      -8.342  95.944 118.195  0.00  0.00     0.028 C 
ATOM     12  C   LIG d   1      -8.231  97.388 118.708  0.00  0.00     0.006 C 
ENDBRANCH   8  11
ENDBRANCH   7   8
ENDBRANCH   1   7
BRANCH   6  13
ATOM     13  N   LIG d   1      -6.555  91.005 117.311  0.00  0.00    -0.311 N 
ATOM     14  C   LIG d   1      -6.967  90.364 116.218  0.00  0.00     0.210 C 
ATOM     15  C   LIG d   1      -8.069  89.327 116.453  0.00  0.00     0.109 C 
ATOM     16  O   LIG d   1      -6.502  90.534 115.081  0.00  0.00    -0.276 OA
ATOM     17  H   LIG d   1      -6.965  90.782 118.197  0.00  0.00     0.149 HD
ENDBRANCH   6  13
BRANCH   5  18
ATOM     18  N   LIG d   1      -3.669  90.589 116.399  0.00  0.00     0.381 N 
ATOM     19  H   LIG d   1      -2.721  90.303 116.540  0.00  0.00    -0.090 HD
ATOM     20  H   LIG d   1      -3.721  91.091 115.530  0.00  0.00    -0.090 HD
ATOM     21  H   LIG d   1      -4.264  89.791 116.366  0.00  0.00    -0.090 HD
ENDBRANCH   5  18
BRANCH   3  22
ATOM     22  C   LIG d   1      -2.434  94.357 119.085  0.00  0.00     0.382 C 
ATOM     23  O   LIG d   1      -1.736  95.154 118.412  0.00  0.00    -0.241 OA
ATOM     24  O   LIG d   1      -2.179  94.188 120.292  0.00  0.00    -0.241 OA
ENDBRANCH   3  22
TORSDOF 7
ENDMDL
MODEL 6
REMARK VINA RESULT:      -5.3     13.917     16.551
REMARK  7 active torsions:
REMARK  status: ('A' for Active; 'I' for Inactive)
REMARK    1  A    between atoms: C_2  and  C_3 
REMARK    2  A    between atoms: C_3  and  O_6 
REMARK    3  A    between atoms: C_3  and  C_4 
REMARK    4  A    between atoms: C_7  and  O_6 
REMARK    5  A    between atoms: C_9  and  C_10 
REMARK    6  A    between atoms: N_15  and  C_14 
REMARK    7  A    between atoms: N_20  and  C_19 
REMARK       I    between atoms: C_22  and  N_20 
ROOT
ATOM      1  C   LIG d   1      -5.597  92.880 117.392  0.00  0.00     0.161 C 
ATOM      2  C   LIG d   1      -6.557  91.928 117.009  0.00  0.00     0.016 C 
ATOM      3  C   LIG d   1      -6.230  90.621 116.583  0.00  0.00     0.038 C 
ATOM      4  C   LIG d   1      -4.920  90.123 116.656  0.00  0.00     0.028 C 
ATOM      5  C   LIG d   1      -3.853  91.208 116.558  0.00  0.00    -0.047 C 
ATOM      6  C   LIG d   1      -4.172  92.319 117.584  0.00  0.00     0.091 C 
ENDROOT
BRANCH   1   7
ATOM      7  O   LIG d   1      -6.033  93.560 118.585  0.00  0.00    -0.368 OA
BRANCH   7   8
ATOM      8  C   LIG d   1      -6.356  94.965 118.436  0.00  0.00     0.119 C 
BRANCH   8   9
ATOM      9  C   LIG d   1      -5.600  95.734 119.536  0.00  0.00     0.028 C 
ATOM     10  C   LIG d   1      -4.844  94.796 120.494  0.00  0.00     0.006 C 
ENDBRANCH   8   9
BRANCH   8  11
ATOM     11  C   LIG d   1      -7.841  95.227 118.706  0.00  0.00     0.028 C 
ATOM     12  C   LIG d   1      -8.321  96.572 118.139  0.00  0.00     0.006 C 
ENDBRANCH   8  11
ENDBRANCH   7   8
ENDBRANCH   1   7
BRANCH   6  13
ATOM     13  N   LIG d   1      -3.224  93.460 117.497  0.00  0.00    -0.311 N 
ATOM     14  C   LIG d   1      -2.144  93.577 118.268  0.00  0.00     0.210 C 
ATOM     15  C   LIG d   1      -1.313  94.841 118.028  0.00  0.00     0.109 C 
ATOM     16  O   LIG d   1      -1.779  92.738 119.105  0.00  0.00    -0.276 OA
ATOM     17  H   LIG d   1      -3.428  94.172 116.822  0.00  0.00     0.149 HD
ENDBRANCH   6  13
BRANCH   5  18
ATOM     18  N   LIG d   1      -2.544  90.568 116.787  0.00  0.00     0.381 N 
ATOM     19  H   LIG d   1      -2.620  89.897 117.525  0.00  0.00    -0.090 HD
ATOM     20  H   LIG d   1      -1.883  91.271 117.066  0.00  0.00    -0.090 HD
ATOM     21  H   LIG d   1      -2.233  90.121 115.953  0.00  0.00    -0.090 HD
ENDBRANCH   5  18
BRANCH   3  22
ATOM     22  C   LIG d   1      -7.214  89.809 116.039  0.00  0.00     0.382 C 
ATOM     23  O   LIG d   1      -7.914  89.086 116.788  0.00  0.00    -0.241 OA
ATOM     24  O   LIG d   1      -7.379  89.756 114.806  0.00  0.00    -0.241 OA
ENDBRANCH   3  22
TORSDOF 7
ENDMDL
MODEL 7
REMARK VINA RESULT:      -5.3      2.677      6.099
REMARK  7 active torsions:
REMARK  status: ('A' for Active; 'I' for Inactive)
REMARK    1  A    between atoms: C_2  and  C_3 
REMARK    2  A    between atoms: C_3  and  O_6 
REMARK    3  A    between atoms: C_3  and  C_4 
REMARK    4  A    between atoms: C_7  and  O_6 
REMARK    5  A    between atoms: C_9  and  C_10 
REMARK    6  A    between atoms: N_15  and  C_14 
REMARK    7  A    between atoms: N_20  and  C_19 
REMARK       I    between atoms: C_22  and  N_20 
ROOT
ATOM      1  C   LIG d   1      -4.978  76.780 117.641  0.00  0.00     0.161 C 
ATOM      2  C   LIG d   1      -4.016  77.796 117.769  0.00  0.00     0.016 C 
ATOM      3  C   LIG d   1      -2.675  77.656 117.341  0.00  0.00     0.038 C 
ATOM      4  C   LIG d   1      -2.242  76.538 116.614  0.00  0.00     0.028 C 
ATOM      5  C   LIG d   1      -3.047  75.276 116.905  0.00  0.00    -0.047 C 
ATOM      6  C   LIG d   1      -4.552  75.595 116.749  0.00  0.00     0.091 C 
ENDROOT
BRANCH   1   7
ATOM      7  O   LIG d   1      -6.220  77.340 117.170  0.00  0.00    -0.368 OA
BRANCH   7   8
ATOM      8  C   LIG d   1      -7.326  77.313 118.105  0.00  0.00     0.119 C 
BRANCH   8   9
ATOM      9  C   LIG d   1      -8.425  76.421 117.495  0.00  0.00     0.028 C 
ATOM     10  C   LIG d   1      -9.833  76.819 117.969  0.00  0.00     0.006 C 
ENDBRANCH   8   9
BRANCH   8  11
ATOM     11  C   LIG d   1      -7.964  78.697 118.255  0.00  0.00     0.028 C 
ATOM     12  C   LIG d   1      -6.939  79.839 118.160  0.00  0.00     0.006 C 
ENDBRANCH   8  11
ENDBRANCH   7   8
ENDBRANCH   1   7
BRANCH   6  13
ATOM     13  N   LIG d   1      -5.416  74.437 117.098  0.00  0.00    -0.311 N 
ATOM     14  C   LIG d   1      -6.196  73.812 116.218  0.00  0.00     0.210 C 
ATOM     15  C   LIG d   1      -7.020  72.655 116.791  0.00  0.00     0.109 C 
ATOM     16  O   LIG d   1      -6.260  74.087 115.010  0.00  0.00    -0.276 OA
ATOM     17  H   LIG d   1      -5.402  74.128 118.051  0.00  0.00     0.149 HD
ENDBRANCH   6  13
BRANCH   5  18
ATOM     18  N   LIG d   1      -2.580  74.226 115.981  0.00  0.00     0.381 N 
ATOM     19  H   LIG d   1      -3.091  74.279 115.122  0.00  0.00    -0.090 HD
ATOM     20  H   LIG d   1      -2.753  73.327 116.396  0.00  0.00    -0.090 HD
ATOM     21  H   LIG d   1      -1.606  74.336 115.804  0.00  0.00    -0.090 HD
ENDBRANCH   5  18
BRANCH   3  22
ATOM     22  C   LIG d   1      -1.743  78.626 117.676  0.00  0.00     0.382 C 
ATOM     23  O   LIG d   1      -1.766  79.152 118.816  0.00  0.00    -0.241 OA
ATOM     24  O   LIG d   1      -0.906  79.014 116.839  0.00  0.00    -0.241 OA
ENDBRANCH   3  22
TORSDOF 7
ENDMDL
MODEL 8
REMARK VINA RESULT:      -5.1      2.066      4.524
REMARK  7 active torsions:
REMARK  status: ('A' for Active; 'I' for Inactive)
REMARK    1  A    between atoms: C_2  and  C_3 
REMARK    2  A    between atoms: C_3  and  O_6 
REMARK    3  A    between atoms: C_3  and  C_4 
REMARK    4  A    between atoms: C_7  and  O_6 
REMARK    5  A    between atoms: C_9  and  C_10 
REMARK    6  A    between atoms: N_15  and  C_14 
REMARK    7  A    between atoms: N_20  and  C_19 
REMARK       I    between atoms: C_22  and  N_20 
ROOT
ATOM      1  C   LIG d   1      -6.978  78.190 118.059  0.00  0.00     0.161 C 
ATOM      2  C   LIG d   1      -8.054  78.939 118.563  0.00  0.00     0.016 C 
ATOM      3  C   LIG d   1      -9.388  78.470 118.585  0.00  0.00     0.038 C 
ATOM      4  C   LIG d   1      -9.714  77.150 118.240  0.00  0.00     0.028 C 
ATOM      5  C   LIG d   1      -8.738  76.523 117.250  0.00  0.00    -0.047 C 
ATOM      6  C   LIG d   1      -7.298  76.706 117.782  0.00  0.00     0.091 C 
ENDROOT
BRANCH   1   7
ATOM      7  O   LIG d   1      -5.848  78.301 118.946  0.00  0.00    -0.368 OA
BRANCH   7   8
ATOM      8  C   LIG d   1      -4.850  79.288 118.585  0.00  0.00     0.119 C 
BRANCH   8   9
ATOM      9  C   LIG d   1      -3.527  78.538 118.334  0.00  0.00     0.028 C 
ATOM     10  C   LIG d   1      -3.510  77.144 118.983  0.00  0.00     0.006 C 
ENDBRANCH   8   9
BRANCH   8  11
ATOM     11  C   LIG d   1      -4.562  80.240 119.750  0.00  0.00     0.028 C 
ATOM     12  C   LIG d   1      -5.547  81.417 119.816  0.00  0.00     0.006 C 
ENDBRANCH   8  11
ENDBRANCH   7   8
ENDBRANCH   1   7
BRANCH   6  13
ATOM     13  N   LIG d   1      -6.275  76.195 116.833  0.00  0.00    -0.311 N 
ATOM     14  C   LIG d   1      -5.837  74.937 116.833  0.00  0.00     0.210 C 
ATOM     15  C   LIG d   1      -4.765  74.625 115.784  0.00  0.00     0.109 C 
ATOM     16  O   LIG d   1      -6.259  74.042 117.581  0.00  0.00    -0.276 OA
ATOM     17  H   LIG d   1      -5.901  76.847 116.171  0.00  0.00     0.149 HD
ENDBRANCH   6  13
BRANCH   5  18
ATOM     18  N   LIG d   1      -9.118  75.107 117.085  0.00  0.00     0.381 N 
ATOM     19  H   LIG d   1     -10.040  74.960 117.445  0.00  0.00    -0.090 HD
ATOM     20  H   LIG d   1      -8.479  74.536 117.610  0.00  0.00    -0.090 HD
ATOM     21  H   LIG d   1      -9.086  74.855 116.122  0.00  0.00    -0.090 HD
ENDBRANCH   5  18
BRANCH   3  22
ATOM     22  C   LIG d   1     -10.417  79.338 118.917  0.00  0.00     0.382 C 
ATOM     23  O   LIG d   1     -10.723  80.274 118.139  0.00  0.00    -0.241 OA
ATOM     24  O   LIG d   1     -11.014  79.223 120.004  0.00  0.00    -0.241 OA
ENDBRANCH   3  22
TORSDOF 7
ENDMDL
MODEL 9
REMARK VINA RESULT:      -5.0     12.985     15.035
REMARK  7 active torsions:
REMARK  status: ('A' for Active; 'I' for Inactive)
REMARK    1  A    between atoms: C_2  and  C_3 
REMARK    2  A    between atoms: C_3  and  O_6 
REMARK    3  A    between atoms: C_3  and  C_4 
REMARK    4  A    between atoms: C_7  and  O_6 
REMARK    5  A    between atoms: C_9  and  C_10 
REMARK    6  A    between atoms: N_15  and  C_14 
REMARK    7  A    between atoms: N_20  and  C_19 
REMARK       I    between atoms: C_22  and  N_20 
ROOT
ATOM      1  C   LIG d   1      -4.054  90.909 117.652  0.00  0.00     0.161 C 
ATOM      2  C   LIG d   1      -5.044  90.270 116.888  0.00  0.00     0.016 C 
ATOM      3  C   LIG d   1      -6.231  90.910 116.461  0.00  0.00     0.038 C 
ATOM      4  C   LIG d   1      -6.437  92.286 116.642  0.00  0.00     0.028 C 
ATOM      5  C   LIG d   1      -5.696  92.857 117.846  0.00  0.00    -0.047 C 
ATOM      6  C   LIG d   1      -4.210  92.440 117.764  0.00  0.00     0.091 C 
ENDROOT
BRANCH   1   7
ATOM      7  O   LIG d   1      -2.749  90.575 117.138  0.00  0.00    -0.368 OA
BRANCH   7   8
ATOM      8  C   LIG d   1      -1.978  89.631 117.921  0.00  0.00     0.119 C 
BRANCH   8   9
ATOM      9  C   LIG d   1      -0.506  90.083 117.873  0.00  0.00     0.028 C 
ATOM     10  C   LIG d   1      -0.302  91.327 116.990  0.00  0.00     0.006 C 
ENDBRANCH   8   9
BRANCH   8  11
ATOM     11  C   LIG d   1      -1.995  88.237 117.288  0.00  0.00     0.028 C 
ATOM     12  C   LIG d   1      -0.602  87.589 117.235  0.00  0.00     0.006 C 
ENDBRANCH   8  11
ENDBRANCH   7   8
ENDBRANCH   1   7
BRANCH   6  13
ATOM     13  N   LIG d   1      -3.430  92.886 118.948  0.00  0.00    -0.311 N 
ATOM     14  C   LIG d   1      -2.448  93.783 118.883  0.00  0.00     0.210 C 
ATOM     15  C   LIG d   1      -1.760  94.087 120.218  0.00  0.00     0.109 C 
ATOM     16  O   LIG d   1      -2.102  94.381 117.853  0.00  0.00    -0.276 OA
ATOM     17  H   LIG d   1      -3.665  92.476 119.830  0.00  0.00     0.149 HD
ENDBRANCH   6  13
BRANCH   5  18
ATOM     18  N   LIG d   1      -5.888  94.319 117.836  0.00  0.00     0.381 N 
ATOM     19  H   LIG d   1      -6.500  94.586 118.581  0.00  0.00    -0.090 HD
ATOM     20  H   LIG d   1      -6.316  94.585 116.966  0.00  0.00    -0.090 HD
ATOM     21  H   LIG d   1      -5.010  94.779 117.936  0.00  0.00    -0.090 HD
ENDBRANCH   5  18
BRANCH   3  22
ATOM     22  C   LIG d   1      -7.243  90.163 115.879  0.00  0.00     0.382 C 
ATOM     23  O   LIG d   1      -7.771  90.548 114.808  0.00  0.00    -0.241 OA
ATOM     24  O   LIG d   1      -7.666  89.132 116.435  0.00  0.00    -0.241 OA
ENDBRANCH   3  22
TORSDOF 7
ENDMDL
