MODEL 1
REMARK VINA RESULT:      -6.0      0.000      0.000
REMARK  7 active torsions:
REMARK  status: ('A' for Active; 'I' for Inactive)
REMARK    1  A    between atoms: C_2  and  C_3 
REMARK    2  A    between atoms: C_3  and  O_6 
REMARK    3  A    between atoms: C_3  and  C_4 
REMARK    4  A    between atoms: C_7  and  O_6 
REMARK    5  A    between atoms: C_9  and  C_10 
REMARK    6  A    between atoms: N_15  and  C_14 
REMARK    7  A    between atoms: N_20  and  C_19 
REMARK       I    between atoms: C_22  and  N_20 
ROOT
ATOM      1  C   LIG d   1      -4.800  91.347 117.804  0.00  0.00     0.161 C 
ATOM      2  C   LIG d   1      -3.778  92.198 118.255  0.00  0.00     0.016 C 
ATOM      3  C   LIG d   1      -4.020  93.436 118.893  0.00  0.00     0.038 C 
ATOM      4  C   LIG d   1      -5.313  93.840 119.261  0.00  0.00     0.028 C 
ATOM      5  C   LIG d   1      -6.406  93.250 118.377  0.00  0.00    -0.047 C 
ATOM      6  C   LIG d   1      -6.215  91.718 118.296  0.00  0.00     0.091 C 
ENDROOT
BRANCH   1   7
ATOM      7  O   LIG d   1      -4.490  89.983 118.153  0.00  0.00    -0.368 OA
BRANCH   7   8
ATOM      8  C   LIG d   1      -3.173  89.751 118.710  0.00  0.00     0.119 C 
BRANCH   8   9
ATOM      9  C   LIG d   1      -2.475  88.700 117.826  0.00  0.00     0.028 C 
ATOM     10  C   LIG d   1      -1.613  87.724 118.645  0.00  0.00     0.006 C 
ENDBRANCH   8   9
BRANCH   8  11
ATOM     11  C   LIG d   1      -3.261  89.117 120.102  0.00  0.00     0.028 C 
ATOM     12  C   LIG d   1      -3.068  90.138 121.235  0.00  0.00     0.006 C 
ENDBRANCH   8  11
ENDBRANCH   7   8
ENDBRANCH   1   7
BRANCH   6  13
ATOM     13  N   LIG d   1      -7.193  91.072 117.383  0.00  0.00    -0.311 N 
ATOM     14  C   LIG d   1      -7.231  91.297 116.071  0.00  0.00     0.210 C 
ATOM     15  C   LIG d   1      -8.331  90.544 115.316  0.00  0.00     0.109 C 
ATOM     16  O   LIG d   1      -6.437  92.025 115.455  0.00  0.00    -0.276 OA
ATOM     17  H   LIG d   1      -7.854  90.442 117.794  0.00  0.00     0.149 HD
ENDBRANCH   6  13
BRANCH   5  18
ATOM     18  N   LIG d   1      -7.706  93.640 118.955  0.00  0.00     0.381 N 
ATOM     19  H   LIG d   1      -8.138  92.847 119.385  0.00  0.00    -0.090 HD
ATOM     20  H   LIG d   1      -8.306  93.965 118.217  0.00  0.00    -0.090 HD
ATOM     21  H   LIG d   1      -7.576  94.362 119.629  0.00  0.00    -0.090 HD
ENDBRANCH   5  18
BRANCH   3  22
ATOM     22  C   LIG d   1      -2.966  94.304 119.133  0.00  0.00     0.382 C 
ATOM     23  O   LIG d   1      -3.021  95.106 120.095  0.00  0.00    -0.241 OA
ATOM     24  O   LIG d   1      -1.979  94.325 118.373  0.00  0.00    -0.241 OA
ENDBRANCH   3  22
TORSDOF 7
ENDMDL
MODEL 2
REMARK VINA RESULT:      -5.5      2.121      4.652
REMARK  7 active torsions:
REMARK  status: ('A' for Active; 'I' for Inactive)
REMARK    1  A    between atoms: C_2  and  C_3 
REMARK    2  A    between atoms: C_3  and  O_6 
REMARK    3  A    between atoms: C_3  and  C_4 
REMARK    4  A    between atoms: C_7  and  O_6 
REMARK    5  A    between atoms: C_9  and  C_10 
REMARK    6  A    between atoms: N_15  and  C_14 
REMARK    7  A    between atoms: N_20  and  C_19 
REMARK       I    between atoms: C_22  and  N_20 
ROOT
ATOM      1  C   LIG d   1      -4.534  92.093 118.468  0.00  0.00     0.161 C 
ATOM      2  C   LIG d   1      -4.849  91.128 117.497  0.00  0.00     0.016 C 
ATOM      3  C   LIG d   1      -6.086  91.085 116.814  0.00  0.00     0.038 C 
ATOM      4  C   LIG d   1      -7.042  92.102 116.948  0.00  0.00     0.028 C 
ATOM      5  C   LIG d   1      -6.977  92.822 118.290  0.00  0.00    -0.047 C 
ATOM      6  C   LIG d   1      -5.522  93.277 118.546  0.00  0.00     0.091 C 
ENDROOT
BRANCH   1   7
ATOM      7  O   LIG d   1      -3.191  92.575 118.262  0.00  0.00    -0.368 OA
BRANCH   7   8
ATOM      8  C   LIG d   1      -2.127  91.718 118.744  0.00  0.00     0.119 C 
BRANCH   8   9
ATOM      9  C   LIG d   1      -2.196  91.715 120.283  0.00  0.00     0.028 C 
ATOM     10  C   LIG d   1      -2.074  90.300 120.873  0.00  0.00     0.006 C 
ENDBRANCH   8   9
BRANCH   8  11
ATOM     11  C   LIG d   1      -0.750  92.295 118.401  0.00  0.00     0.028 C 
ATOM     12  C   LIG d   1      -0.822  93.736 117.872  0.00  0.00     0.006 C 
ENDBRANCH   8  11
ENDBRANCH   7   8
ENDBRANCH   1   7
BRANCH   6  13
ATOM     13  N   LIG d   1      -5.353  93.916 119.877  0.00  0.00    -0.311 N 
ATOM     14  C   LIG d   1      -5.574  95.210 120.102  0.00  0.00     0.210 C 
ATOM     15  C   LIG d   1      -5.321  95.668 121.542  0.00  0.00     0.109 C 
ATOM     16  O   LIG d   1      -5.985  96.015 119.254  0.00  0.00    -0.276 OA
ATOM     17  H   LIG d   1      -5.052  93.328 120.630  0.00  0.00     0.149 HD
ENDBRANCH   6  13
BRANCH   5  18
ATOM     18  N   LIG d   1      -7.933  93.945 118.241  0.00  0.00     0.381 N 
ATOM     19  H   LIG d   1      -7.601  94.697 118.810  0.00  0.00    -0.090 HD
ATOM     20  H   LIG d   1      -8.816  93.636 118.609  0.00  0.00    -0.090 HD
ATOM     21  H   LIG d   1      -8.046  94.255 117.301  0.00  0.00    -0.090 HD
ENDBRANCH   5  18
BRANCH   3  22
ATOM     22  C   LIG d   1      -6.392  89.993 116.016  0.00  0.00     0.382 C 
ATOM     23  O   LIG d   1      -7.492  89.405 116.153  0.00  0.00    -0.241 OA
ATOM     24  O   LIG d   1      -5.565  89.562 115.191  0.00  0.00    -0.241 OA
ENDBRANCH   3  22
TORSDOF 7
ENDMDL
MODEL 3
REMARK VINA RESULT:      -5.3      1.717      2.036
REMARK  7 active torsions:
REMARK  status: ('A' for Active; 'I' for Inactive)
REMARK    1  A    between atoms: C_2  and  C_3 
REMARK    2  A    between atoms: C_3  and  O_6 
REMARK    3  A    between atoms: C_3  and  C_4 
REMARK    4  A    between atoms: C_7  and  O_6 
REMARK    5  A    between atoms: C_9  and  C_10 
REMARK    6  A    between atoms: N_15  and  C_14 
REMARK    7  A    between atoms: N_20  and  C_19 
REMARK       I    between atoms: C_22  and  N_20 
ROOT
ATOM      1  C   LIG d   1      -3.796  92.236 118.207  0.00  0.00     0.161 C 
ATOM      2  C   LIG d   1      -3.496  93.134 119.245  0.00  0.00     0.016 C 
ATOM      3  C   LIG d   1      -4.468  93.936 119.885  0.00  0.00     0.038 C 
ATOM      4  C   LIG d   1      -5.840  93.782 119.632  0.00  0.00     0.028 C 
ATOM      5  C   LIG d   1      -6.142  93.248 118.236  0.00  0.00    -0.047 C 
ATOM      6  C   LIG d   1      -5.301  91.974 117.993  0.00  0.00     0.091 C 
ENDROOT
BRANCH   1   7
ATOM      7  O   LIG d   1      -3.096  90.994 118.418  0.00  0.00    -0.368 OA
BRANCH   7   8
ATOM      8  C   LIG d   1      -2.037  91.019 119.407  0.00  0.00     0.119 C 
BRANCH   8   9
ATOM      9  C   LIG d   1      -0.712  90.736 118.673  0.00  0.00     0.028 C 
ATOM     10  C   LIG d   1      -0.067  92.015 118.114  0.00  0.00     0.006 C 
ENDBRANCH   8   9
BRANCH   8  11
ATOM     11  C   LIG d   1      -2.192  89.879 120.418  0.00  0.00     0.028 C 
ATOM     12  C   LIG d   1      -3.042  88.717 119.880  0.00  0.00     0.006 C 
ENDBRANCH   8  11
ENDBRANCH   7   8
ENDBRANCH   1   7
BRANCH   6  13
ATOM     13  N   LIG d   1      -5.474  91.434 116.619  0.00  0.00    -0.311 N 
ATOM     14  C   LIG d   1      -6.413  90.549 116.292  0.00  0.00     0.210 C 
ATOM     15  C   LIG d   1      -6.403  90.108 114.825  0.00  0.00     0.109 C 
ATOM     16  O   LIG d   1      -7.274  90.110 117.070  0.00  0.00    -0.276 OA
ATOM     17  H   LIG d   1      -4.837  91.760 115.918  0.00  0.00     0.149 HD
ENDBRANCH   6  13
BRANCH   5  18
ATOM     18  N   LIG d   1      -7.595  93.007 118.156  0.00  0.00     0.381 N 
ATOM     19  H   LIG d   1      -8.083  93.880 118.138  0.00  0.00    -0.090 HD
ATOM     20  H   LIG d   1      -7.885  92.500 118.973  0.00  0.00    -0.090 HD
ATOM     21  H   LIG d   1      -7.809  92.482 117.337  0.00  0.00    -0.090 HD
ENDBRANCH   5  18
BRANCH   3  22
ATOM     22  C   LIG d   1      -4.068  94.933 120.762  0.00  0.00     0.382 C 
ATOM     23  O   LIG d   1      -4.928  95.613 121.372  0.00  0.00    -0.241 OA
ATOM     24  O   LIG d   1      -2.859  95.189 120.917  0.00  0.00    -0.241 OA
ENDBRANCH   3  22
TORSDOF 7
ENDMDL
MODEL 4
REMARK VINA RESULT:      -4.9     12.181     15.721
REMARK  7 active torsions:
REMARK  status: ('A' for Active; 'I' for Inactive)
REMARK    1  A    between atoms: C_2  and  C_3 
REMARK    2  A    between atoms: C_3  and  O_6 
REMARK    3  A    between atoms: C_3  and  C_4 
REMARK    4  A    between atoms: C_7  and  O_6 
REMARK    5  A    between atoms: C_9  and  C_10 
REMARK    6  A    between atoms: N_15  and  C_14 
REMARK    7  A    between atoms: N_20  and  C_19 
REMARK       I    between atoms: C_22  and  N_20 
ROOT
ATOM      1  C   LIG d   1      -0.836  77.764 118.047  0.00  0.00     0.161 C 
ATOM      2  C   LIG d   1      -1.314  76.624 117.378  0.00  0.00     0.016 C 
ATOM      3  C   LIG d   1      -1.168  76.421 115.986  0.00  0.00     0.038 C 
ATOM      4  C   LIG d   1      -0.396  77.279 115.188  0.00  0.00     0.028 C 
ATOM      5  C   LIG d   1      -0.322  78.704 115.727  0.00  0.00    -0.047 C 
ATOM      6  C   LIG d   1       0.105  78.657 117.212  0.00  0.00     0.091 C 
ENDROOT
BRANCH   1   7
ATOM      7  O   LIG d   1      -0.196  77.375 119.278  0.00  0.00    -0.368 OA
BRANCH   7   8
ATOM      8  C   LIG d   1       0.448  76.077 119.280  0.00  0.00     0.119 C 
BRANCH   8   9
ATOM      9  C   LIG d   1      -0.325  75.178 120.264  0.00  0.00     0.028 C 
ATOM     10  C   LIG d   1       0.609  74.300 121.114  0.00  0.00     0.006 C 
ENDBRANCH   8   9
BRANCH   8  11
ATOM     11  C   LIG d   1       1.871  76.162 119.839  0.00  0.00     0.028 C 
ATOM     12  C   LIG d   1       2.837  76.900 118.899  0.00  0.00     0.006 C 
ENDBRANCH   8  11
ENDBRANCH   7   8
ENDBRANCH   1   7
BRANCH   6  13
ATOM     13  N   LIG d   1       0.121  80.004 117.840  0.00  0.00    -0.311 N 
ATOM     14  C   LIG d   1       1.220  80.747 117.952  0.00  0.00     0.210 C 
ATOM     15  C   LIG d   1       1.020  82.096 118.650  0.00  0.00     0.109 C 
ATOM     16  O   LIG d   1       2.336  80.432 117.512  0.00  0.00    -0.276 OA
ATOM     17  H   LIG d   1      -0.748  80.351 118.197  0.00  0.00     0.149 HD
ENDBRANCH   6  13
BRANCH   5  18
ATOM     18  N   LIG d   1       0.623  79.453 114.877  0.00  0.00     0.381 N 
ATOM     19  H   LIG d   1       0.201  79.647 113.991  0.00  0.00    -0.090 HD
ATOM     20  H   LIG d   1       1.438  78.887 114.721  0.00  0.00    -0.090 HD
ATOM     21  H   LIG d   1       0.881  80.305 115.324  0.00  0.00    -0.090 HD
ENDBRANCH   5  18
BRANCH   3  22
ATOM     22  C   LIG d   1      -1.832  75.370 115.372  0.00  0.00     0.382 C 
ATOM     23  O   LIG d   1      -3.040  75.492 115.054  0.00  0.00    -0.241 OA
ATOM     24  O   LIG d   1      -1.251  74.287 115.172  0.00  0.00    -0.241 OA
ENDBRANCH   3  22
TORSDOF 7
ENDMDL
MODEL 5
REMARK VINA RESULT:      -4.9     31.561     33.539
REMARK  7 active torsions:
REMARK  status: ('A' for Active; 'I' for Inactive)
REMARK    1  A    between atoms: C_2  and  C_3 
REMARK    2  A    between atoms: C_3  and  O_6 
REMARK    3  A    between atoms: C_3  and  C_4 
REMARK    4  A    between atoms: C_7  and  O_6 
REMARK    5  A    between atoms: C_9  and  C_10 
REMARK    6  A    between atoms: N_15  and  C_14 
REMARK    7  A    between atoms: N_20  and  C_19 
REMARK       I    between atoms: C_22  and  N_20 
ROOT
ATOM      1  C   LIG d   1      -0.000  59.238 121.027  0.00  0.00     0.161 C 
ATOM      2  C   LIG d   1      -1.398  59.104 120.993  0.00  0.00     0.016 C 
ATOM      3  C   LIG d   1      -2.193  59.512 119.898  0.00  0.00     0.038 C 
ATOM      4  C   LIG d   1      -1.625  59.946 118.691  0.00  0.00     0.028 C 
ATOM      5  C   LIG d   1      -0.245  60.572 118.861  0.00  0.00    -0.047 C 
ATOM      6  C   LIG d   1       0.646  59.607 119.675  0.00  0.00     0.091 C 
ENDROOT
BRANCH   1   7
ATOM      7  O   LIG d   1       0.593  58.036 121.555  0.00  0.00    -0.368 OA
BRANCH   7   8
ATOM      8  C   LIG d   1       0.827  56.969 120.603  0.00  0.00     0.119 C 
BRANCH   8   9
ATOM      9  C   LIG d   1      -0.047  55.772 121.025  0.00  0.00     0.028 C 
ATOM     10  C   LIG d   1      -0.646  55.028 119.819  0.00  0.00     0.006 C 
ENDBRANCH   8   9
BRANCH   8  11
ATOM     11  C   LIG d   1       2.270  56.462 120.676  0.00  0.00     0.028 C 
ATOM     12  C   LIG d   1       2.886  56.214 119.290  0.00  0.00     0.006 C 
ENDBRANCH   8  11
ENDBRANCH   7   8
ENDBRANCH   1   7
BRANCH   6  13
ATOM     13  N   LIG d   1       1.988  60.178 119.960  0.00  0.00    -0.311 N 
ATOM     14  C   LIG d   1       3.037  60.025 119.153  0.00  0.00     0.210 C 
ATOM     15  C   LIG d   1       4.332  60.679 119.644  0.00  0.00     0.109 C 
ATOM     16  O   LIG d   1       3.009  59.437 118.061  0.00  0.00    -0.276 OA
ATOM     17  H   LIG d   1       2.092  60.697 120.810  0.00  0.00     0.149 HD
ENDBRANCH   6  13
BRANCH   5  18
ATOM     18  N   LIG d   1       0.286  60.852 117.514  0.00  0.00     0.381 N 
ATOM     19  H   LIG d   1      -0.082  60.191 116.860  0.00  0.00    -0.090 HD
ATOM     20  H   LIG d   1       1.286  60.754 117.532  0.00  0.00    -0.090 HD
ATOM     21  H   LIG d   1       0.041  61.777 117.236  0.00  0.00    -0.090 HD
ENDBRANCH   5  18
BRANCH   3  22
ATOM     22  C   LIG d   1      -3.574  59.526 120.018  0.00  0.00     0.382 C 
ATOM     23  O   LIG d   1      -4.157  58.618 120.660  0.00  0.00    -0.241 OA
ATOM     24  O   LIG d   1      -4.249  60.409 119.456  0.00  0.00    -0.241 OA
ENDBRANCH   3  22
TORSDOF 7
ENDMDL
MODEL 6
REMARK VINA RESULT:      -4.8      2.467      5.207
REMARK  7 active torsions:
REMARK  status: ('A' for Active; 'I' for Inactive)
REMARK    1  A    between atoms: C_2  and  C_3 
REMARK    2  A    between atoms: C_3  and  O_6 
REMARK    3  A    between atoms: C_3  and  C_4 
REMARK    4  A    between atoms: C_7  and  O_6 
REMARK    5  A    between atoms: C_9  and  C_10 
REMARK    6  A    between atoms: N_15  and  C_14 
REMARK    7  A    between atoms: N_20  and  C_19 
REMARK       I    between atoms: C_22  and  N_20 
ROOT
ATOM      1  C   LIG d   1      -4.614  93.220 119.160  0.00  0.00     0.161 C 
ATOM      2  C   LIG d   1      -4.639  92.097 118.317  0.00  0.00     0.016 C 
ATOM      3  C   LIG d   1      -5.752  91.749 117.517  0.00  0.00     0.038 C 
ATOM      4  C   LIG d   1      -6.867  92.591 117.392  0.00  0.00     0.028 C 
ATOM      5  C   LIG d   1      -7.096  93.478 118.611  0.00  0.00    -0.047 C 
ATOM      6  C   LIG d   1      -5.779  94.211 118.953  0.00  0.00     0.091 C 
ENDROOT
BRANCH   1   7
ATOM      7  O   LIG d   1      -3.350  93.899 119.032  0.00  0.00    -0.368 OA
BRANCH   7   8
ATOM      8  C   LIG d   1      -2.456  93.803 120.169  0.00  0.00     0.119 C 
BRANCH   8   9
ATOM      9  C   LIG d   1      -1.816  95.189 120.373  0.00  0.00     0.028 C 
ATOM     10  C   LIG d   1      -2.435  95.954 121.555  0.00  0.00     0.006 C 
ENDBRANCH   8   9
BRANCH   8  11
ATOM     11  C   LIG d   1      -1.288  92.855 119.880  0.00  0.00     0.028 C 
ATOM     12  C   LIG d   1      -0.569  93.180 118.562  0.00  0.00     0.006 C 
ENDBRANCH   8  11
ENDBRANCH   7   8
ENDBRANCH   1   7
BRANCH   6  13
ATOM     13  N   LIG d   1      -5.893  95.035 120.184  0.00  0.00    -0.311 N 
ATOM     14  C   LIG d   1      -5.946  96.366 120.172  0.00  0.00     0.210 C 
ATOM     15  C   LIG d   1      -6.042  97.022 121.554  0.00  0.00     0.109 C 
ATOM     16  O   LIG d   1      -5.956  97.065 119.148  0.00  0.00    -0.276 OA
ATOM     17  H   LIG d   1      -5.922  94.548 121.058  0.00  0.00     0.149 HD
ENDBRANCH   6  13
BRANCH   5  18
ATOM     18  N   LIG d   1      -8.204  94.398 118.290  0.00  0.00     0.381 N 
ATOM     19  H   LIG d   1      -8.329  95.050 119.038  0.00  0.00    -0.090 HD
ATOM     20  H   LIG d   1      -9.050  93.866 118.190  0.00  0.00    -0.090 HD
ATOM     21  H   LIG d   1      -8.007  94.886 117.444  0.00  0.00    -0.090 HD
ENDBRANCH   5  18
BRANCH   3  22
ATOM     22  C   LIG d   1      -5.772  90.527 116.862  0.00  0.00     0.382 C 
ATOM     23  O   LIG d   1      -4.701  89.906 116.659  0.00  0.00    -0.241 OA
ATOM     24  O   LIG d   1      -6.844  90.058 116.433  0.00  0.00    -0.241 OA
ENDBRANCH   3  22
TORSDOF 7
ENDMDL
MODEL 7
REMARK VINA RESULT:      -4.6     27.281     29.596
REMARK  7 active torsions:
REMARK  status: ('A' for Active; 'I' for Inactive)
REMARK    1  A    between atoms: C_2  and  C_3 
REMARK    2  A    between atoms: C_3  and  O_6 
REMARK    3  A    between atoms: C_3  and  C_4 
REMARK    4  A    between atoms: C_7  and  O_6 
REMARK    5  A    between atoms: C_9  and  C_10 
REMARK    6  A    between atoms: N_15  and  C_14 
REMARK    7  A    between atoms: N_20  and  C_19 
REMARK       I    between atoms: C_22  and  N_20 
ROOT
ATOM      1  C   LIG d   1     -16.972  64.740 117.992  0.00  0.00     0.161 C 
ATOM      2  C   LIG d   1     -17.252  63.767 117.018  0.00  0.00     0.016 C 
ATOM      3  C   LIG d   1     -18.189  63.957 115.976  0.00  0.00     0.038 C 
ATOM      4  C   LIG d   1     -18.803  65.197 115.747  0.00  0.00     0.028 C 
ATOM      5  C   LIG d   1     -18.931  66.050 117.005  0.00  0.00    -0.047 C 
ATOM      6  C   LIG d   1     -17.550  66.139 117.694  0.00  0.00     0.091 C 
ENDROOT
BRANCH   1   7
ATOM      7  O   LIG d   1     -15.549  64.820 118.207  0.00  0.00    -0.368 OA
BRANCH   7   8
ATOM      8  C   LIG d   1     -15.096  64.591 119.564  0.00  0.00     0.119 C 
BRANCH   8   9
ATOM      9  C   LIG d   1     -14.052  65.676 119.893  0.00  0.00     0.028 C 
ATOM     10  C   LIG d   1     -13.215  65.328 121.135  0.00  0.00     0.006 C 
ENDBRANCH   8   9
BRANCH   8  11
ATOM     11  C   LIG d   1     -14.348  63.260 119.684  0.00  0.00     0.028 C 
ATOM     12  C   LIG d   1     -15.275  62.085 120.031  0.00  0.00     0.006 C 
ENDBRANCH   8  11
ENDBRANCH   7   8
ENDBRANCH   1   7
BRANCH   6  13
ATOM     13  N   LIG d   1     -17.604  66.886 118.978  0.00  0.00    -0.311 N 
ATOM     14  C   LIG d   1     -16.840  67.944 119.243  0.00  0.00     0.210 C 
ATOM     15  C   LIG d   1     -17.040  68.554 120.634  0.00  0.00     0.109 C 
ATOM     16  O   LIG d   1     -16.038  68.454 118.447  0.00  0.00    -0.276 OA
ATOM     17  H   LIG d   1     -18.250  66.559 119.669  0.00  0.00     0.149 HD
ENDBRANCH   6  13
BRANCH   5  18
ATOM     18  N   LIG d   1     -19.460  67.366 116.599  0.00  0.00     0.381 N 
ATOM     19  H   LIG d   1     -20.238  67.611 117.177  0.00  0.00    -0.090 HD
ATOM     20  H   LIG d   1     -19.779  67.309 115.648  0.00  0.00    -0.090 HD
ATOM     21  H   LIG d   1     -18.748  68.059 116.676  0.00  0.00    -0.090 HD
ENDBRANCH   5  18
BRANCH   3  22
ATOM     22  C   LIG d   1     -18.549  62.885 115.173  0.00  0.00     0.382 C 
ATOM     23  O   LIG d   1     -19.742  62.751 114.806  0.00  0.00    -0.241 OA
ATOM     24  O   LIG d   1     -17.707  62.028 114.847  0.00  0.00    -0.241 OA
ENDBRANCH   3  22
TORSDOF 7
ENDMDL
MODEL 8
REMARK VINA RESULT:      -4.6      1.999      4.679
REMARK  7 active torsions:
REMARK  status: ('A' for Active; 'I' for Inactive)
REMARK    1  A    between atoms: C_2  and  C_3 
REMARK    2  A    between atoms: C_3  and  O_6 
REMARK    3  A    between atoms: C_3  and  C_4 
REMARK    4  A    between atoms: C_7  and  O_6 
REMARK    5  A    between atoms: C_9  and  C_10 
REMARK    6  A    between atoms: N_15  and  C_14 
REMARK    7  A    between atoms: N_20  and  C_19 
REMARK       I    between atoms: C_22  and  N_20 
ROOT
ATOM      1  C   LIG d   1      -4.391  91.589 118.573  0.00  0.00     0.161 C 
ATOM      2  C   LIG d   1      -5.247  90.912 117.688  0.00  0.00     0.016 C 
ATOM      3  C   LIG d   1      -6.450  91.464 117.193  0.00  0.00     0.038 C 
ATOM      4  C   LIG d   1      -6.806  92.800 117.432  0.00  0.00     0.028 C 
ATOM      5  C   LIG d   1      -6.228  93.359 118.728  0.00  0.00    -0.047 C 
ATOM      6  C   LIG d   1      -4.706  93.088 118.756  0.00  0.00     0.091 C 
ENDROOT
BRANCH   1   7
ATOM      7  O   LIG d   1      -3.022  91.412 118.160  0.00  0.00    -0.368 OA
BRANCH   7   8
ATOM      8  C   LIG d   1      -2.075  91.096 119.210  0.00  0.00     0.119 C 
BRANCH   8   9
ATOM      9  C   LIG d   1      -0.906  92.094 119.095  0.00  0.00     0.028 C 
ATOM     10  C   LIG d   1       0.437  91.476 119.518  0.00  0.00     0.006 C 
ENDBRANCH   8   9
BRANCH   8  11
ATOM     11  C   LIG d   1      -1.450  89.714 118.999  0.00  0.00     0.028 C 
ATOM     12  C   LIG d   1      -2.082  88.946 117.827  0.00  0.00     0.006 C 
ENDBRANCH   8  11
ENDBRANCH   7   8
ENDBRANCH   1   7
BRANCH   6  13
ATOM     13  N   LIG d   1      -4.076  93.528 120.029  0.00  0.00    -0.311 N 
ATOM     14  C   LIG d   1      -3.426  94.683 120.164  0.00  0.00     0.210 C 
ATOM     15  C   LIG d   1      -2.835  94.932 121.555  0.00  0.00     0.109 C 
ATOM     16  O   LIG d   1      -3.311  95.538 119.274  0.00  0.00    -0.276 OA
ATOM     17  H   LIG d   1      -4.149  92.908 120.812  0.00  0.00     0.149 HD
ENDBRANCH   6  13
BRANCH   5  18
ATOM     18  N   LIG d   1      -6.562  94.794 118.782  0.00  0.00     0.381 N 
ATOM     19  H   LIG d   1      -5.722  95.338 118.769  0.00  0.00    -0.090 HD
ATOM     20  H   LIG d   1      -7.046  94.983 119.642  0.00  0.00    -0.090 HD
ATOM     21  H   LIG d   1      -7.137  95.040 118.007  0.00  0.00    -0.090 HD
ENDBRANCH   5  18
BRANCH   3  22
ATOM     22  C   LIG d   1      -7.332  90.665 116.482  0.00  0.00     0.382 C 
ATOM     23  O   LIG d   1      -8.341  91.175 115.938  0.00  0.00    -0.241 OA
ATOM     24  O   LIG d   1      -7.156  89.434 116.415  0.00  0.00    -0.241 OA
ENDBRANCH   3  22
TORSDOF 7
ENDMDL
MODEL 9
REMARK VINA RESULT:      -4.6     27.548     29.593
REMARK  7 active torsions:
REMARK  status: ('A' for Active; 'I' for Inactive)
REMARK    1  A    between atoms: C_2  and  C_3 
REMARK    2  A    between atoms: C_3  and  O_6 
REMARK    3  A    between atoms: C_3  and  C_4 
REMARK    4  A    between atoms: C_7  and  O_6 
REMARK    5  A    between atoms: C_9  and  C_10 
REMARK    6  A    between atoms: N_15  and  C_14 
REMARK    7  A    between atoms: N_20  and  C_19 
REMARK       I    between atoms: C_22  and  N_20 
ROOT
ATOM      1  C   LIG d   1     -17.135  64.897 116.832  0.00  0.00     0.161 C 
ATOM      2  C   LIG d   1     -15.915  65.502 117.177  0.00  0.00     0.016 C 
ATOM      3  C   LIG d   1     -15.825  66.736 117.863  0.00  0.00     0.038 C 
ATOM      4  C   LIG d   1     -16.957  67.377 118.387  0.00  0.00     0.028 C 
ATOM      5  C   LIG d   1     -18.239  67.060 117.625  0.00  0.00    -0.047 C 
ATOM      6  C   LIG d   1     -18.379  65.527 117.493  0.00  0.00     0.091 C 
ENDROOT
BRANCH   1   7
ATOM      7  O   LIG d   1     -17.077  63.485 117.116  0.00  0.00    -0.368 OA
BRANCH   7   8
ATOM      8  C   LIG d   1     -17.449  63.089 118.459  0.00  0.00     0.119 C 
BRANCH   8   9
ATOM      9  C   LIG d   1     -16.199  62.484 119.127  0.00  0.00     0.028 C 
ATOM     10  C   LIG d   1     -15.634  63.384 120.239  0.00  0.00     0.006 C 
ENDBRANCH   8   9
BRANCH   8  11
ATOM     11  C   LIG d   1     -18.485  61.961 118.440  0.00  0.00     0.028 C 
ATOM     12  C   LIG d   1     -18.896  61.553 117.017  0.00  0.00     0.006 C 
ENDBRANCH   8  11
ENDBRANCH   7   8
ENDBRANCH   1   7
BRANCH   6  13
ATOM     13  N   LIG d   1     -19.564  65.133 116.687  0.00  0.00    -0.311 N 
ATOM     14  C   LIG d   1     -20.734  64.792 117.223  0.00  0.00     0.210 C 
ATOM     15  C   LIG d   1     -21.818  64.400 116.214  0.00  0.00     0.109 C 
ATOM     16  O   LIG d   1     -20.988  64.807 118.437  0.00  0.00    -0.276 OA
ATOM     17  H   LIG d   1     -19.456  65.123 115.692  0.00  0.00     0.149 HD
ENDBRANCH   6  13
BRANCH   5  18
ATOM     18  N   LIG d   1     -19.358  67.682 118.358  0.00  0.00     0.381 N 
ATOM     19  H   LIG d   1     -20.157  67.754 117.760  0.00  0.00    -0.090 HD
ATOM     20  H   LIG d   1     -19.089  68.608 118.638  0.00  0.00    -0.090 HD
ATOM     21  H   LIG d   1     -19.584  67.137 119.161  0.00  0.00    -0.090 HD
ENDBRANCH   5  18
BRANCH   3  22
ATOM     22  C   LIG d   1     -14.594  67.360 117.995  0.00  0.00     0.382 C 
ATOM     23  O   LIG d   1     -14.049  67.440 119.123  0.00  0.00    -0.241 OA
ATOM     24  O   LIG d   1     -14.041  67.883 117.009  0.00  0.00    -0.241 OA
ENDBRANCH   3  22
TORSDOF 7
ENDMDL
