MODEL 1
REMARK VINA RESULT:      -5.7      0.000      0.000
REMARK  7 active torsions:
REMARK  status: ('A' for Active; 'I' for Inactive)
REMARK    1  A    between atoms: C_2  and  C_3 
REMARK    2  A    between atoms: C_3  and  O_6 
REMARK    3  A    between atoms: C_3  and  C_4 
REMARK    4  A    between atoms: C_7  and  O_6 
REMARK    5  A    between atoms: C_9  and  C_10 
REMARK    6  A    between atoms: N_15  and  C_14 
REMARK    7  A    between atoms: N_20  and  C_19 
REMARK       I    between atoms: C_22  and  N_20 
ROOT
ATOM      1  C   LIG d   1      -6.083  91.872 118.743  0.00  0.00     0.161 C 
ATOM      2  C   LIG d   1      -5.219  91.105 117.945  0.00  0.00     0.016 C 
ATOM      3  C   LIG d   1      -5.477  90.800 116.588  0.00  0.00     0.038 C 
ATOM      4  C   LIG d   1      -6.551  91.373 115.891  0.00  0.00     0.028 C 
ATOM      5  C   LIG d   1      -7.726  91.747 116.789  0.00  0.00    -0.047 C 
ATOM      6  C   LIG d   1      -7.204  92.598 117.969  0.00  0.00     0.091 C 
ENDROOT
BRANCH   1   7
ATOM      7  O   LIG d   1      -5.321  92.815 119.522  0.00  0.00    -0.368 OA
BRANCH   7   8
ATOM      8  C   LIG d   1      -3.921  92.497 119.716  0.00  0.00     0.119 C 
BRANCH   8   9
ATOM      9  C   LIG d   1      -3.764  91.947 121.147  0.00  0.00     0.028 C 
ATOM     10  C   LIG d   1      -2.997  90.615 121.184  0.00  0.00     0.006 C 
ENDBRANCH   8   9
BRANCH   8  11
ATOM     11  C   LIG d   1      -3.051  93.756 119.668  0.00  0.00     0.028 C 
ATOM     12  C   LIG d   1      -1.862  93.623 118.703  0.00  0.00     0.006 C 
ENDBRANCH   8  11
ENDBRANCH   7   8
ENDBRANCH   1   7
BRANCH   6  13
ATOM     13  N   LIG d   1      -8.276  92.936 118.942  0.00  0.00    -0.311 N 
ATOM     14  C   LIG d   1      -8.683  94.181 119.180  0.00  0.00     0.210 C 
ATOM     15  C   LIG d   1      -9.787  94.310 120.235  0.00  0.00     0.109 C 
ATOM     16  O   LIG d   1      -8.259  95.189 118.594  0.00  0.00    -0.276 OA
ATOM     17  H   LIG d   1      -8.697  92.176 119.439  0.00  0.00     0.149 HD
ENDBRANCH   6  13
BRANCH   5  18
ATOM     18  N   LIG d   1      -8.715  92.457 115.957  0.00  0.00     0.381 N 
ATOM     19  H   LIG d   1      -8.327  92.642 115.053  0.00  0.00    -0.090 HD
ATOM     20  H   LIG d   1      -8.934  93.336 116.391  0.00  0.00    -0.090 HD
ATOM     21  H   LIG d   1      -9.541  91.908 115.865  0.00  0.00    -0.090 HD
ENDBRANCH   5  18
BRANCH   3  22
ATOM     22  C   LIG d   1      -4.677  89.881 115.926  0.00  0.00     0.382 C 
ATOM     23  O   LIG d   1      -3.501  89.680 116.313  0.00  0.00    -0.241 OA
ATOM     24  O   LIG d   1      -5.103  89.283 114.920  0.00  0.00    -0.241 OA
ENDBRANCH   3  22
TORSDOF 7
ENDMDL
MODEL 2
REMARK VINA RESULT:      -5.6      2.579      4.490
REMARK  7 active torsions:
REMARK  status: ('A' for Active; 'I' for Inactive)
REMARK    1  A    between atoms: C_2  and  C_3 
REMARK    2  A    between atoms: C_3  and  O_6 
REMARK    3  A    between atoms: C_3  and  C_4 
REMARK    4  A    between atoms: C_7  and  O_6 
REMARK    5  A    between atoms: C_9  and  C_10 
REMARK    6  A    between atoms: N_15  and  C_14 
REMARK    7  A    between atoms: N_20  and  C_19 
REMARK       I    between atoms: C_22  and  N_20 
ROOT
ATOM      1  C   LIG d   1      -6.039  92.037 118.320  0.00  0.00     0.161 C 
ATOM      2  C   LIG d   1      -7.145  91.638 117.552  0.00  0.00     0.016 C 
ATOM      3  C   LIG d   1      -7.050  90.753 116.453  0.00  0.00     0.038 C 
ATOM      4  C   LIG d   1      -5.857  90.084 116.140  0.00  0.00     0.028 C 
ATOM      5  C   LIG d   1      -4.607  90.841 116.574  0.00  0.00    -0.047 C 
ATOM      6  C   LIG d   1      -4.748  91.232 118.063  0.00  0.00     0.091 C 
ENDROOT
BRANCH   1   7
ATOM      7  O   LIG d   1      -6.379  92.004 119.721  0.00  0.00    -0.368 OA
BRANCH   7   8
ATOM      8  C   LIG d   1      -6.589  93.289 120.356  0.00  0.00     0.119 C 
BRANCH   8   9
ATOM      9  C   LIG d   1      -6.640  94.353 119.242  0.00  0.00     0.028 C 
ATOM     10  C   LIG d   1      -8.030  94.998 119.110  0.00  0.00     0.006 C 
ENDBRANCH   8   9
BRANCH   8  11
ATOM     11  C   LIG d   1      -5.396  93.678 121.234  0.00  0.00     0.028 C 
ATOM     12  C   LIG d   1      -4.591  94.854 120.658  0.00  0.00     0.006 C 
ENDBRANCH   8  11
ENDBRANCH   7   8
ENDBRANCH   1   7
BRANCH   6  13
ATOM     13  N   LIG d   1      -3.604  92.049 118.546  0.00  0.00    -0.311 N 
ATOM     14  C   LIG d   1      -2.759  91.642 119.491  0.00  0.00     0.210 C 
ATOM     15  C   LIG d   1      -1.661  92.647 119.854  0.00  0.00     0.109 C 
ATOM     16  O   LIG d   1      -2.794  90.530 120.040  0.00  0.00    -0.276 OA
ATOM     17  H   LIG d   1      -3.482  92.953 118.132  0.00  0.00     0.149 HD
ENDBRANCH   6  13
BRANCH   5  18
ATOM     18  N   LIG d   1      -3.445  89.971 116.312  0.00  0.00     0.381 N 
ATOM     19  H   LIG d   1      -2.891  89.887 117.141  0.00  0.00    -0.090 HD
ATOM     20  H   LIG d   1      -2.880  90.390 115.596  0.00  0.00    -0.090 HD
ATOM     21  H   LIG d   1      -3.754  89.070 116.017  0.00  0.00    -0.090 HD
ENDBRANCH   5  18
BRANCH   3  22
ATOM     22  C   LIG d   1      -8.149  90.560 115.630  0.00  0.00     0.382 C 
ATOM     23  O   LIG d   1      -8.647  91.531 115.010  0.00  0.00    -0.241 OA
ATOM     24  O   LIG d   1      -8.676  89.435 115.534  0.00  0.00    -0.241 OA
ENDBRANCH   3  22
TORSDOF 7
ENDMDL
MODEL 3
REMARK VINA RESULT:      -5.4      2.436      5.778
REMARK  7 active torsions:
REMARK  status: ('A' for Active; 'I' for Inactive)
REMARK    1  A    between atoms: C_2  and  C_3 
REMARK    2  A    between atoms: C_3  and  O_6 
REMARK    3  A    between atoms: C_3  and  C_4 
REMARK    4  A    between atoms: C_7  and  O_6 
REMARK    5  A    between atoms: C_9  and  C_10 
REMARK    6  A    between atoms: N_15  and  C_14 
REMARK    7  A    between atoms: N_20  and  C_19 
REMARK       I    between atoms: C_22  and  N_20 
ROOT
ATOM      1  C   LIG d   1      -6.290  91.911 119.141  0.00  0.00     0.161 C 
ATOM      2  C   LIG d   1      -7.451  92.660 118.889  0.00  0.00     0.016 C 
ATOM      3  C   LIG d   1      -7.499  94.071 118.964  0.00  0.00     0.038 C 
ATOM      4  C   LIG d   1      -6.343  94.843 119.151  0.00  0.00     0.028 C 
ATOM      5  C   LIG d   1      -5.242  94.111 119.910  0.00  0.00    -0.047 C 
ATOM      6  C   LIG d   1      -4.993  92.742 119.237  0.00  0.00     0.091 C 
ENDROOT
BRANCH   1   7
ATOM      7  O   LIG d   1      -6.149  90.877 118.147  0.00  0.00    -0.368 OA
BRANCH   7   8
ATOM      8  C   LIG d   1      -6.383  91.276 116.774  0.00  0.00     0.119 C 
BRANCH   8   9
ATOM      9  C   LIG d   1      -7.602  90.484 116.263  0.00  0.00     0.028 C 
ATOM     10  C   LIG d   1      -8.348  91.218 115.135  0.00  0.00     0.006 C 
ENDBRANCH   8   9
BRANCH   8  11
ATOM     11  C   LIG d   1      -5.221  90.861 115.867  0.00  0.00     0.028 C 
ATOM     12  C   LIG d   1      -4.097  90.143 116.630  0.00  0.00     0.006 C 
ENDBRANCH   8  11
ENDBRANCH   7   8
ENDBRANCH   1   7
BRANCH   6  13
ATOM     13  N   LIG d   1      -3.989  91.926 119.967  0.00  0.00    -0.311 N 
ATOM     14  C   LIG d   1      -2.698  91.887 119.640  0.00  0.00     0.210 C 
ATOM     15  C   LIG d   1      -1.838  90.965 120.511  0.00  0.00     0.109 C 
ATOM     16  O   LIG d   1      -2.178  92.552 118.732  0.00  0.00    -0.276 OA
ATOM     17  H   LIG d   1      -4.319  91.379 120.738  0.00  0.00     0.149 HD
ENDBRANCH   6  13
BRANCH   5  18
ATOM     18  N   LIG d   1      -4.050  94.980 119.912  0.00  0.00     0.381 N 
ATOM     19  H   LIG d   1      -4.257  95.838 120.382  0.00  0.00    -0.090 HD
ATOM     20  H   LIG d   1      -3.800  95.193 118.963  0.00  0.00    -0.090 HD
ATOM     21  H   LIG d   1      -3.293  94.518 120.367  0.00  0.00    -0.090 HD
ENDBRANCH   5  18
BRANCH   3  22
ATOM     22  C   LIG d   1      -8.722  94.722 118.892  0.00  0.00     0.382 C 
ATOM     23  O   LIG d   1      -9.786  94.076 119.046  0.00  0.00    -0.241 OA
ATOM     24  O   LIG d   1      -8.775  95.938 118.630  0.00  0.00    -0.241 OA
ENDBRANCH   3  22
TORSDOF 7
ENDMDL
MODEL 4
REMARK VINA RESULT:      -5.4     16.307     18.186
REMARK  7 active torsions:
REMARK  status: ('A' for Active; 'I' for Inactive)
REMARK    1  A    between atoms: C_2  and  C_3 
REMARK    2  A    between atoms: C_3  and  O_6 
REMARK    3  A    between atoms: C_3  and  C_4 
REMARK    4  A    between atoms: C_7  and  O_6 
REMARK    5  A    between atoms: C_9  and  C_10 
REMARK    6  A    between atoms: N_15  and  C_14 
REMARK    7  A    between atoms: N_20  and  C_19 
REMARK       I    between atoms: C_22  and  N_20 
ROOT
ATOM      1  C   LIG d   1      -5.567  74.452 117.593  0.00  0.00     0.161 C 
ATOM      2  C   LIG d   1      -4.368  74.174 116.917  0.00  0.00     0.016 C 
ATOM      3  C   LIG d   1      -3.120  74.727 117.285  0.00  0.00     0.038 C 
ATOM      4  C   LIG d   1      -2.961  75.483 118.456  0.00  0.00     0.028 C 
ATOM      5  C   LIG d   1      -4.233  76.204 118.889  0.00  0.00    -0.047 C 
ATOM      6  C   LIG d   1      -5.395  75.186 118.940  0.00  0.00     0.091 C 
ENDROOT
BRANCH   1   7
ATOM      7  O   LIG d   1      -6.318  73.236 117.778  0.00  0.00    -0.368 OA
BRANCH   7   8
ATOM      8  C   LIG d   1      -7.341  72.961 116.790  0.00  0.00     0.119 C 
BRANCH   8   9
ATOM      9  C   LIG d   1      -8.679  73.476 117.354  0.00  0.00     0.028 C 
ATOM     10  C   LIG d   1      -9.123  74.795 116.699  0.00  0.00     0.006 C 
ENDBRANCH   8   9
BRANCH   8  11
ATOM     11  C   LIG d   1      -7.536  71.455 116.594  0.00  0.00     0.028 C 
ATOM     12  C   LIG d   1      -9.000  71.017 116.761  0.00  0.00     0.006 C 
ENDBRANCH   8  11
ENDBRANCH   7   8
ENDBRANCH   1   7
BRANCH   6  13
ATOM     13  N   LIG d   1      -6.694  75.825 119.273  0.00  0.00    -0.311 N 
ATOM     14  C   LIG d   1      -7.177  75.902 120.512  0.00  0.00     0.210 C 
ATOM     15  C   LIG d   1      -8.543  76.584 120.633  0.00  0.00     0.109 C 
ATOM     16  O   LIG d   1      -6.589  75.499 121.527  0.00  0.00    -0.276 OA
ATOM     17  H   LIG d   1      -7.223  76.207 118.514  0.00  0.00     0.149 HD
ENDBRANCH   6  13
BRANCH   5  18
ATOM     18  N   LIG d   1      -3.963  76.839 120.193  0.00  0.00     0.381 N 
ATOM     19  H   LIG d   1      -4.753  76.723 120.796  0.00  0.00    -0.090 HD
ATOM     20  H   LIG d   1      -3.816  77.823 120.051  0.00  0.00    -0.090 HD
ATOM     21  H   LIG d   1      -3.155  76.432 120.610  0.00  0.00    -0.090 HD
ENDBRANCH   5  18
BRANCH   3  22
ATOM     22  C   LIG d   1      -2.022  74.558 116.456  0.00  0.00     0.382 C 
ATOM     23  O   LIG d   1      -2.039  75.023 115.290  0.00  0.00    -0.241 OA
ATOM     24  O   LIG d   1      -1.032  73.909 116.843  0.00  0.00    -0.241 OA
ENDBRANCH   3  22
TORSDOF 7
ENDMDL
MODEL 5
REMARK VINA RESULT:      -5.4     15.328     17.637
REMARK  7 active torsions:
REMARK  status: ('A' for Active; 'I' for Inactive)
REMARK    1  A    between atoms: C_2  and  C_3 
REMARK    2  A    between atoms: C_3  and  O_6 
REMARK    3  A    between atoms: C_3  and  C_4 
REMARK    4  A    between atoms: C_7  and  O_6 
REMARK    5  A    between atoms: C_9  and  C_10 
REMARK    6  A    between atoms: N_15  and  C_14 
REMARK    7  A    between atoms: N_20  and  C_19 
REMARK       I    between atoms: C_22  and  N_20 
ROOT
ATOM      1  C   LIG d   1      -6.894  75.029 119.137  0.00  0.00     0.161 C 
ATOM      2  C   LIG d   1      -8.197  75.480 118.867  0.00  0.00     0.016 C 
ATOM      3  C   LIG d   1      -8.483  76.756 118.328  0.00  0.00     0.038 C 
ATOM      4  C   LIG d   1      -7.469  77.615 117.879  0.00  0.00     0.028 C 
ATOM      5  C   LIG d   1      -6.139  77.409 118.597  0.00  0.00    -0.047 C 
ATOM      6  C   LIG d   1      -5.770  75.909 118.551  0.00  0.00     0.091 C 
ENDROOT
BRANCH   1   7
ATOM      7  O   LIG d   1      -6.747  73.666 118.692  0.00  0.00    -0.368 OA
BRANCH   7   8
ATOM      8  C   LIG d   1      -7.457  73.311 117.480  0.00  0.00     0.119 C 
BRANCH   8   9
ATOM      9  C   LIG d   1      -8.340  72.090 117.802  0.00  0.00     0.028 C 
ATOM     10  C   LIG d   1      -8.860  71.391 116.534  0.00  0.00     0.006 C 
ENDBRANCH   8   9
BRANCH   8  11
ATOM     11  C   LIG d   1      -6.493  72.838 116.388  0.00  0.00     0.028 C 
ATOM     12  C   LIG d   1      -5.898  73.998 115.575  0.00  0.00     0.006 C 
ENDBRANCH   8  11
ENDBRANCH   7   8
ENDBRANCH   1   7
BRANCH   6  13
ATOM     13  N   LIG d   1      -4.525  75.607 119.303  0.00  0.00    -0.311 N 
ATOM     14  C   LIG d   1      -3.316  75.594 118.744  0.00  0.00     0.210 C 
ATOM     15  C   LIG d   1      -2.168  75.240 119.694  0.00  0.00     0.109 C 
ATOM     16  O   LIG d   1      -3.082  75.873 117.558  0.00  0.00    -0.276 OA
ATOM     17  H   LIG d   1      -4.619  75.400 120.278  0.00  0.00     0.149 HD
ENDBRANCH   6  13
BRANCH   5  18
ATOM     18  N   LIG d   1      -5.139  78.271 117.938  0.00  0.00     0.381 N 
ATOM     19  H   LIG d   1      -4.786  78.941 118.591  0.00  0.00    -0.090 HD
ATOM     20  H   LIG d   1      -5.583  78.767 117.186  0.00  0.00    -0.090 HD
ATOM     21  H   LIG d   1      -4.391  77.715 117.583  0.00  0.00    -0.090 HD
ENDBRANCH   5  18
BRANCH   3  22
ATOM     22  C   LIG d   1      -9.795  77.199 118.271  0.00  0.00     0.382 C 
ATOM     23  O   LIG d   1     -10.733  76.372 118.168  0.00  0.00    -0.241 OA
ATOM     24  O   LIG d   1     -10.051  78.418 118.277  0.00  0.00    -0.241 OA
ENDBRANCH   3  22
TORSDOF 7
ENDMDL
MODEL 6
REMARK VINA RESULT:      -5.3     15.776     17.653
REMARK  7 active torsions:
REMARK  status: ('A' for Active; 'I' for Inactive)
REMARK    1  A    between atoms: C_2  and  C_3 
REMARK    2  A    between atoms: C_3  and  O_6 
REMARK    3  A    between atoms: C_3  and  C_4 
REMARK    4  A    between atoms: C_7  and  O_6 
REMARK    5  A    between atoms: C_9  and  C_10 
REMARK    6  A    between atoms: N_15  and  C_14 
REMARK    7  A    between atoms: N_20  and  C_19 
REMARK       I    between atoms: C_22  and  N_20 
ROOT
ATOM      1  C   LIG d   1      -6.271  74.523 118.530  0.00  0.00     0.161 C 
ATOM      2  C   LIG d   1      -6.469  73.283 117.901  0.00  0.00     0.016 C 
ATOM      3  C   LIG d   1      -7.680  72.913 117.273  0.00  0.00     0.038 C 
ATOM      4  C   LIG d   1      -8.733  73.824 117.099  0.00  0.00     0.028 C 
ATOM      5  C   LIG d   1      -8.768  74.919 118.159  0.00  0.00    -0.047 C 
ATOM      6  C   LIG d   1      -7.369  75.571 118.253  0.00  0.00     0.091 C 
ENDROOT
BRANCH   1   7
ATOM      7  O   LIG d   1      -4.976  75.049 118.177  0.00  0.00    -0.368 OA
BRANCH   7   8
ATOM      8  C   LIG d   1      -4.300  74.392 117.077  0.00  0.00     0.119 C 
BRANCH   8   9
ATOM      9  C   LIG d   1      -2.811  74.268 117.457  0.00  0.00     0.028 C 
ATOM     10  C   LIG d   1      -1.877  74.755 116.336  0.00  0.00     0.006 C 
ENDBRANCH   8   9
BRANCH   8  11
ATOM     11  C   LIG d   1      -4.325  75.254 115.812  0.00  0.00     0.028 C 
ATOM     12  C   LIG d   1      -5.399  74.807 114.808  0.00  0.00     0.006 C 
ENDBRANCH   8  11
ENDBRANCH   7   8
ENDBRANCH   1   7
BRANCH   6  13
ATOM     13  N   LIG d   1      -7.293  76.597 119.325  0.00  0.00    -0.311 N 
ATOM     14  C   LIG d   1      -7.513  77.894 119.116  0.00  0.00     0.210 C 
ATOM     15  C   LIG d   1      -7.363  78.783 120.355  0.00  0.00     0.109 C 
ATOM     16  O   LIG d   1      -7.849  78.388 118.030  0.00  0.00    -0.276 OA
ATOM     17  H   LIG d   1      -7.057  76.279 120.245  0.00  0.00     0.149 HD
ENDBRANCH   6  13
BRANCH   5  18
ATOM     18  N   LIG d   1      -9.826  75.874 117.778  0.00  0.00     0.381 N 
ATOM     19  H   LIG d   1     -10.386  75.485 117.046  0.00  0.00    -0.090 HD
ATOM     20  H   LIG d   1      -9.397  76.715 117.433  0.00  0.00    -0.090 HD
ATOM     21  H   LIG d   1     -10.396  76.084 118.568  0.00  0.00    -0.090 HD
ENDBRANCH   5  18
BRANCH   3  22
ATOM     22  C   LIG d   1      -7.863  71.606 116.847  0.00  0.00     0.382 C 
ATOM     23  O   LIG d   1      -6.890  70.814 116.820  0.00  0.00    -0.241 OA
ATOM     24  O   LIG d   1      -8.978  71.222 116.448  0.00  0.00    -0.241 OA
ENDBRANCH   3  22
TORSDOF 7
ENDMDL
MODEL 7
REMARK VINA RESULT:      -5.3     32.725     34.278
REMARK  7 active torsions:
REMARK  status: ('A' for Active; 'I' for Inactive)
REMARK    1  A    between atoms: C_2  and  C_3 
REMARK    2  A    between atoms: C_3  and  O_6 
REMARK    3  A    between atoms: C_3  and  C_4 
REMARK    4  A    between atoms: C_7  and  O_6 
REMARK    5  A    between atoms: C_9  and  C_10 
REMARK    6  A    between atoms: N_15  and  C_14 
REMARK    7  A    between atoms: N_20  and  C_19 
REMARK       I    between atoms: C_22  and  N_20 
ROOT
ATOM      1  C   LIG d   1      -0.030  58.417 117.583  0.00  0.00     0.161 C 
ATOM      2  C   LIG d   1       1.091  58.789 116.822  0.00  0.00     0.016 C 
ATOM      3  C   LIG d   1       2.382  58.965 117.372  0.00  0.00     0.038 C 
ATOM      4  C   LIG d   1       2.672  58.631 118.704  0.00  0.00     0.028 C 
ATOM      5  C   LIG d   1       1.465  58.734 119.631  0.00  0.00    -0.047 C 
ATOM      6  C   LIG d   1       0.290  57.940 119.015  0.00  0.00     0.091 C 
ENDROOT
BRANCH   1   7
ATOM      7  O   LIG d   1      -0.787  57.413 116.878  0.00  0.00    -0.368 OA
BRANCH   7   8
ATOM      8  C   LIG d   1      -2.025  57.858 116.271  0.00  0.00     0.119 C 
BRANCH   8   9
ATOM      9  C   LIG d   1      -2.063  59.395 116.371  0.00  0.00     0.028 C 
ATOM     10  C   LIG d   1      -3.436  59.919 116.824  0.00  0.00     0.006 C 
ENDBRANCH   8   9
BRANCH   8  11
ATOM     11  C   LIG d   1      -3.241  57.369 117.063  0.00  0.00     0.028 C 
ATOM     12  C   LIG d   1      -2.942  56.118 117.903  0.00  0.00     0.006 C 
ENDBRANCH   8  11
ENDBRANCH   7   8
ENDBRANCH   1   7
BRANCH   6  13
ATOM     13  N   LIG d   1      -0.955  58.059 119.817  0.00  0.00    -0.311 N 
ATOM     14  C   LIG d   1      -1.558  59.220 120.069  0.00  0.00     0.210 C 
ATOM     15  C   LIG d   1      -2.819  59.120 120.933  0.00  0.00     0.109 C 
ATOM     16  O   LIG d   1      -1.185  60.319 119.632  0.00  0.00    -0.276 OA
ATOM     17  H   LIG d   1      -1.344  57.212 120.184  0.00  0.00     0.149 HD
ENDBRANCH   6  13
BRANCH   5  18
ATOM     18  N   LIG d   1       1.875  58.227 120.954  0.00  0.00     0.381 N 
ATOM     19  H   LIG d   1       1.205  58.500 121.644  0.00  0.00    -0.090 HD
ATOM     20  H   LIG d   1       2.762  58.633 121.197  0.00  0.00    -0.090 HD
ATOM     21  H   LIG d   1       1.952  57.234 120.930  0.00  0.00    -0.090 HD
ENDBRANCH   5  18
BRANCH   3  22
ATOM     22  C   LIG d   1       3.390  59.518 116.597  0.00  0.00     0.382 C 
ATOM     23  O   LIG d   1       4.534  59.684 117.083  0.00  0.00    -0.241 OA
ATOM     24  O   LIG d   1       3.157  59.894 115.433  0.00  0.00    -0.241 OA
ENDBRANCH   3  22
TORSDOF 7
ENDMDL
MODEL 8
REMARK VINA RESULT:      -5.0     33.221     35.410
REMARK  7 active torsions:
REMARK  status: ('A' for Active; 'I' for Inactive)
REMARK    1  A    between atoms: C_2  and  C_3 
REMARK    2  A    between atoms: C_3  and  O_6 
REMARK    3  A    between atoms: C_3  and  C_4 
REMARK    4  A    between atoms: C_7  and  O_6 
REMARK    5  A    between atoms: C_9  and  C_10 
REMARK    6  A    between atoms: N_15  and  C_14 
REMARK    7  A    between atoms: N_20  and  C_19 
REMARK       I    between atoms: C_22  and  N_20 
ROOT
ATOM      1  C   LIG d   1      -0.250  58.122 118.236  0.00  0.00     0.161 C 
ATOM      2  C   LIG d   1       0.763  58.793 117.531  0.00  0.00     0.016 C 
ATOM      3  C   LIG d   1       2.112  58.369 117.515  0.00  0.00     0.038 C 
ATOM      4  C   LIG d   1       2.514  57.151 118.083  0.00  0.00     0.028 C 
ATOM      5  C   LIG d   1       1.622  56.697 119.234  0.00  0.00    -0.047 C 
ATOM      6  C   LIG d   1       0.148  56.730 118.770  0.00  0.00     0.091 C 
ENDROOT
BRANCH   1   7
ATOM      7  O   LIG d   1      -1.432  58.025 117.418  0.00  0.00    -0.368 OA
BRANCH   7   8
ATOM      8  C   LIG d   1      -2.563  58.828 117.836  0.00  0.00     0.119 C 
BRANCH   8   9
ATOM      9  C   LIG d   1      -3.689  57.862 118.252  0.00  0.00     0.028 C 
ATOM     10  C   LIG d   1      -3.619  56.521 117.502  0.00  0.00     0.006 C 
ENDBRANCH   8   9
BRANCH   8  11
ATOM     11  C   LIG d   1      -3.135  59.636 116.667  0.00  0.00     0.028 C 
ATOM     12  C   LIG d   1      -4.664  59.779 116.732  0.00  0.00     0.006 C 
ENDBRANCH   8  11
ENDBRANCH   7   8
ENDBRANCH   1   7
BRANCH   6  13
ATOM     13  N   LIG d   1      -0.798  56.380 119.862  0.00  0.00    -0.311 N 
ATOM     14  C   LIG d   1      -1.283  55.154 120.047  0.00  0.00     0.210 C 
ATOM     15  C   LIG d   1      -2.259  55.015 121.219  0.00  0.00     0.109 C 
ATOM     16  O   LIG d   1      -0.973  54.161 119.371  0.00  0.00    -0.276 OA
ATOM     17  H   LIG d   1      -1.078  57.119 120.477  0.00  0.00     0.149 HD
ENDBRANCH   6  13
BRANCH   5  18
ATOM     18  N   LIG d   1       2.071  55.352 119.642  0.00  0.00     0.381 N 
ATOM     19  H   LIG d   1       2.489  54.884 118.863  0.00  0.00    -0.090 HD
ATOM     20  H   LIG d   1       1.272  54.819 119.937  0.00  0.00    -0.090 HD
ATOM     21  H   LIG d   1       2.727  55.423 120.388  0.00  0.00    -0.090 HD
ENDBRANCH   5  18
BRANCH   3  22
ATOM     22  C   LIG d   1       3.083  59.188 116.959  0.00  0.00     0.382 C 
ATOM     23  O   LIG d   1       2.856  59.785 115.879  0.00  0.00    -0.241 OA
ATOM     24  O   LIG d   1       4.199  59.303 117.500  0.00  0.00    -0.241 OA
ENDBRANCH   3  22
TORSDOF 7
ENDMDL
MODEL 9
REMARK VINA RESULT:      -4.9     13.764     16.356
REMARK  7 active torsions:
REMARK  status: ('A' for Active; 'I' for Inactive)
REMARK    1  A    between atoms: C_2  and  C_3 
REMARK    2  A    between atoms: C_3  and  O_6 
REMARK    3  A    between atoms: C_3  and  C_4 
REMARK    4  A    between atoms: C_7  and  O_6 
REMARK    5  A    between atoms: C_9  and  C_10 
REMARK    6  A    between atoms: N_15  and  C_14 
REMARK    7  A    between atoms: N_20  and  C_19 
REMARK       I    between atoms: C_22  and  N_20 
ROOT
ATOM      1  C   LIG d   1      -6.758  76.680 117.473  0.00  0.00     0.161 C 
ATOM      2  C   LIG d   1      -7.923  77.273 117.989  0.00  0.00     0.016 C 
ATOM      3  C   LIG d   1      -8.082  78.670 118.140  0.00  0.00     0.038 C 
ATOM      4  C   LIG d   1      -7.140  79.582 117.643  0.00  0.00     0.028 C 
ATOM      5  C   LIG d   1      -5.726  79.015 117.572  0.00  0.00    -0.047 C 
ATOM      6  C   LIG d   1      -5.765  77.664 116.822  0.00  0.00     0.091 C 
ENDROOT
BRANCH   1   7
ATOM      7  O   LIG d   1      -7.112  75.637 116.544  0.00  0.00    -0.368 OA
BRANCH   7   8
ATOM      8  C   LIG d   1      -7.178  74.295 117.086  0.00  0.00     0.119 C 
BRANCH   8   9
ATOM      9  C   LIG d   1      -6.340  73.383 116.168  0.00  0.00     0.028 C 
ATOM     10  C   LIG d   1      -5.648  74.164 115.039  0.00  0.00     0.006 C 
ENDBRANCH   8   9
BRANCH   8  11
ATOM     11  C   LIG d   1      -8.602  73.736 117.022  0.00  0.00     0.028 C 
ATOM     12  C   LIG d   1      -8.638  72.223 116.758  0.00  0.00     0.006 C 
ENDBRANCH   8  11
ENDBRANCH   7   8
ENDBRANCH   1   7
BRANCH   6  13
ATOM     13  N   LIG d   1      -4.435  77.000 116.782  0.00  0.00    -0.311 N 
ATOM     14  C   LIG d   1      -3.568  77.157 115.784  0.00  0.00     0.210 C 
ATOM     15  C   LIG d   1      -2.264  76.366 115.930  0.00  0.00     0.109 C 
ATOM     16  O   LIG d   1      -3.741  77.900 114.806  0.00  0.00    -0.276 OA
ATOM     17  H   LIG d   1      -4.200  76.403 117.550  0.00  0.00     0.149 HD
ENDBRANCH   6  13
BRANCH   5  18
ATOM     18  N   LIG d   1      -4.875  80.021 116.909  0.00  0.00     0.381 N 
ATOM     19  H   LIG d   1      -3.932  79.689 116.863  0.00  0.00    -0.090 HD
ATOM     20  H   LIG d   1      -4.886  80.866 117.452  0.00  0.00    -0.090 HD
ATOM     21  H   LIG d   1      -5.216  80.203 115.990  0.00  0.00    -0.090 HD
ENDBRANCH   5  18
BRANCH   3  22
ATOM     22  C   LIG d   1      -9.177  79.166 118.832  0.00  0.00     0.382 C 
ATOM     23  O   LIG d   1      -9.079  79.429 120.055  0.00  0.00    -0.241 OA
ATOM     24  O   LIG d   1     -10.273  79.311 118.260  0.00  0.00    -0.241 OA
ENDBRANCH   3  22
TORSDOF 7
ENDMDL
