MODEL 1
REMARK VINA RESULT:      -5.6      0.000      0.000
REMARK  7 active torsions:
REMARK  status: ('A' for Active; 'I' for Inactive)
REMARK    1  A    between atoms: C_2  and  C_3 
REMARK    2  A    between atoms: C_3  and  O_6 
REMARK    3  A    between atoms: C_3  and  C_4 
REMARK    4  A    between atoms: C_7  and  O_6 
REMARK    5  A    between atoms: C_9  and  C_10 
REMARK    6  A    between atoms: N_15  and  C_14 
REMARK    7  A    between atoms: N_20  and  C_19 
REMARK       I    between atoms: C_22  and  N_20 
ROOT
ATOM      1  C   LIG d   1      -6.048  91.586 119.343  0.00  0.00     0.161 C 
ATOM      2  C   LIG d   1      -7.369  92.034 119.505  0.00  0.00     0.016 C 
ATOM      3  C   LIG d   1      -7.717  93.398 119.643  0.00  0.00     0.038 C 
ATOM      4  C   LIG d   1      -6.775  94.423 119.475  0.00  0.00     0.028 C 
ATOM      5  C   LIG d   1      -5.350  93.998 119.812  0.00  0.00    -0.047 C 
ATOM      6  C   LIG d   1      -5.020  92.697 119.046  0.00  0.00     0.091 C 
ENDROOT
BRANCH   1   7
ATOM      7  O   LIG d   1      -5.999  90.571 118.320  0.00  0.00    -0.368 OA
BRANCH   7   8
ATOM      8  C   LIG d   1      -6.344  91.000 116.980  0.00  0.00     0.119 C 
BRANCH   8   9
ATOM      9  C   LIG d   1      -7.276  89.931 116.378  0.00  0.00     0.028 C 
ATOM     10  C   LIG d   1      -7.436  90.082 114.856  0.00  0.00     0.006 C 
ENDBRANCH   8   9
BRANCH   8  11
ATOM     11  C   LIG d   1      -5.113  91.024 116.069  0.00  0.00     0.028 C 
ATOM     12  C   LIG d   1      -4.040  90.007 116.489  0.00  0.00     0.006 C 
ENDBRANCH   8  11
ENDBRANCH   7   8
ENDBRANCH   1   7
BRANCH   6  13
ATOM     13  N   LIG d   1      -3.673  92.166 119.384  0.00  0.00    -0.311 N 
ATOM     14  C   LIG d   1      -2.578  92.442 118.678  0.00  0.00     0.210 C 
ATOM     15  C   LIG d   1      -1.296  91.776 119.187  0.00  0.00     0.109 C 
ATOM     16  O   LIG d   1      -2.541  93.201 117.698  0.00  0.00    -0.276 OA
ATOM     17  H   LIG d   1      -3.607  91.567 120.183  0.00  0.00     0.149 HD
ENDBRANCH   6  13
BRANCH   5  18
ATOM     18  N   LIG d   1      -4.456  95.118 119.462  0.00  0.00     0.381 N 
ATOM     19  H   LIG d   1      -3.832  95.305 120.222  0.00  0.00    -0.090 HD
ATOM     20  H   LIG d   1      -5.012  95.940 119.301  0.00  0.00    -0.090 HD
ATOM     21  H   LIG d   1      -3.935  94.895 118.642  0.00  0.00    -0.090 HD
ENDBRANCH   5  18
BRANCH   3  22
ATOM     22  C   LIG d   1      -9.013  93.745 119.992  0.00  0.00     0.382 C 
ATOM     23  O   LIG d   1      -9.705  92.964 120.690  0.00  0.00    -0.241 OA
ATOM     24  O   LIG d   1      -9.515  94.808 119.580  0.00  0.00    -0.241 OA
ENDBRANCH   3  22
TORSDOF 7
ENDMDL
MODEL 2
REMARK VINA RESULT:      -5.4     13.916     15.804
REMARK  7 active torsions:
REMARK  status: ('A' for Active; 'I' for Inactive)
REMARK    1  A    between atoms: C_2  and  C_3 
REMARK    2  A    between atoms: C_3  and  O_6 
REMARK    3  A    between atoms: C_3  and  C_4 
REMARK    4  A    between atoms: C_7  and  O_6 
REMARK    5  A    between atoms: C_9  and  C_10 
REMARK    6  A    between atoms: N_15  and  C_14 
REMARK    7  A    between atoms: N_20  and  C_19 
REMARK       I    between atoms: C_22  and  N_20 
ROOT
ATOM      1  C   LIG d   1      -7.439  76.488 117.683  0.00  0.00     0.161 C 
ATOM      2  C   LIG d   1      -8.630  77.100 118.108  0.00  0.00     0.016 C 
ATOM      3  C   LIG d   1      -8.749  78.488 118.348  0.00  0.00     0.038 C 
ATOM      4  C   LIG d   1      -7.718  79.386 118.032  0.00  0.00     0.028 C 
ATOM      5  C   LIG d   1      -6.330  78.756 118.078  0.00  0.00    -0.047 C 
ATOM      6  C   LIG d   1      -6.337  77.466 117.226  0.00  0.00     0.091 C 
ENDROOT
BRANCH   1   7
ATOM      7  O   LIG d   1      -7.725  75.533 116.641  0.00  0.00    -0.368 OA
BRANCH   7   8
ATOM      8  C   LIG d   1      -7.828  74.149 117.056  0.00  0.00     0.119 C 
BRANCH   8   9
ATOM      9  C   LIG d   1      -7.078  73.297 116.013  0.00  0.00     0.028 C 
ATOM     10  C   LIG d   1      -6.167  74.144 115.109  0.00  0.00     0.006 C 
ENDBRANCH   8   9
BRANCH   8  11
ATOM     11  C   LIG d   1      -9.278  73.660 117.012  0.00  0.00     0.028 C 
ATOM     12  C   LIG d   1      -9.394  72.171 116.646  0.00  0.00     0.006 C 
ENDBRANCH   8  11
ENDBRANCH   7   8
ENDBRANCH   1   7
BRANCH   6  13
ATOM     13  N   LIG d   1      -5.040  76.741 117.285  0.00  0.00    -0.311 N 
ATOM     14  C   LIG d   1      -4.068  76.904 116.389  0.00  0.00     0.210 C 
ATOM     15  C   LIG d   1      -2.822  76.045 116.625  0.00  0.00     0.109 C 
ATOM     16  O   LIG d   1      -4.107  77.701 115.440  0.00  0.00    -0.276 OA
ATOM     17  H   LIG d   1      -4.912  76.097 118.041  0.00  0.00     0.149 HD
ENDBRANCH   6  13
BRANCH   5  18
ATOM     18  N   LIG d   1      -5.367  79.763 117.594  0.00  0.00     0.381 N 
ATOM     19  H   LIG d   1      -5.393  80.568 118.187  0.00  0.00    -0.090 HD
ATOM     20  H   LIG d   1      -5.630  80.046 116.667  0.00  0.00    -0.090 HD
ATOM     21  H   LIG d   1      -4.448  79.378 117.584  0.00  0.00    -0.090 HD
ENDBRANCH   5  18
BRANCH   3  22
ATOM     22  C   LIG d   1      -9.895  78.987 118.948  0.00  0.00     0.382 C 
ATOM     23  O   LIG d   1     -10.614  78.234 119.647  0.00  0.00    -0.241 OA
ATOM     24  O   LIG d   1     -10.243  80.168 118.762  0.00  0.00    -0.241 OA
ENDBRANCH   3  22
TORSDOF 7
ENDMDL
MODEL 3
REMARK VINA RESULT:      -5.4      1.941      4.533
REMARK  7 active torsions:
REMARK  status: ('A' for Active; 'I' for Inactive)
REMARK    1  A    between atoms: C_2  and  C_3 
REMARK    2  A    between atoms: C_3  and  O_6 
REMARK    3  A    between atoms: C_3  and  C_4 
REMARK    4  A    between atoms: C_7  and  O_6 
REMARK    5  A    between atoms: C_9  and  C_10 
REMARK    6  A    between atoms: N_15  and  C_14 
REMARK    7  A    between atoms: N_20  and  C_19 
REMARK       I    between atoms: C_22  and  N_20 
ROOT
ATOM      1  C   LIG d   1      -5.879  92.948 118.404  0.00  0.00     0.161 C 
ATOM      2  C   LIG d   1      -6.634  91.970 117.736  0.00  0.00     0.016 C 
ATOM      3  C   LIG d   1      -6.057  90.874 117.054  0.00  0.00     0.038 C 
ATOM      4  C   LIG d   1      -4.683  90.597 117.124  0.00  0.00     0.028 C 
ATOM      5  C   LIG d   1      -3.827  91.836 117.365  0.00  0.00    -0.047 C 
ATOM      6  C   LIG d   1      -4.387  92.603 118.585  0.00  0.00     0.091 C 
ENDROOT
BRANCH   1   7
ATOM      7  O   LIG d   1      -6.483  93.244 119.679  0.00  0.00    -0.368 OA
BRANCH   7   8
ATOM      8  C   LIG d   1      -7.203  94.498 119.768  0.00  0.00     0.119 C 
BRANCH   8   9
ATOM      9  C   LIG d   1      -8.707  94.166 119.814  0.00  0.00     0.028 C 
ATOM     10  C   LIG d   1      -9.001  92.880 120.604  0.00  0.00     0.006 C 
ENDBRANCH   8   9
BRANCH   8  11
ATOM     11  C   LIG d   1      -7.012  95.341 118.504  0.00  0.00     0.028 C 
ATOM     12  C   LIG d   1      -8.335  95.634 117.778  0.00  0.00     0.006 C 
ENDBRANCH   8  11
ENDBRANCH   7   8
ENDBRANCH   1   7
BRANCH   6  13
ATOM     13  N   LIG d   1      -3.658  93.873 118.839  0.00  0.00    -0.311 N 
ATOM     14  C   LIG d   1      -2.637  93.976 119.688  0.00  0.00     0.210 C 
ATOM     15  C   LIG d   1      -2.041  95.381 119.816  0.00  0.00     0.109 C 
ATOM     16  O   LIG d   1      -2.148  93.030 120.324  0.00  0.00    -0.276 OA
ATOM     17  H   LIG d   1      -3.969  94.684 118.342  0.00  0.00     0.149 HD
ENDBRANCH   6  13
BRANCH   5  18
ATOM     18  N   LIG d   1      -2.435  91.386 117.553  0.00  0.00     0.381 N 
ATOM     19  H   LIG d   1      -1.806  92.134 117.341  0.00  0.00    -0.090 HD
ATOM     20  H   LIG d   1      -2.250  90.629 116.920  0.00  0.00    -0.090 HD
ATOM     21  H   LIG d   1      -2.298  91.084 118.493  0.00  0.00    -0.090 HD
ENDBRANCH   5  18
BRANCH   3  22
ATOM     22  C   LIG d   1      -6.852  90.062 116.259  0.00  0.00     0.382 C 
ATOM     23  O   LIG d   1      -7.734  89.341 116.785  0.00  0.00    -0.241 OA
ATOM     24  O   LIG d   1      -6.670  90.010 115.028  0.00  0.00    -0.241 OA
ENDBRANCH   3  22
TORSDOF 7
ENDMDL
MODEL 4
REMARK VINA RESULT:      -5.3     13.768     16.202
REMARK  7 active torsions:
REMARK  status: ('A' for Active; 'I' for Inactive)
REMARK    1  A    between atoms: C_2  and  C_3 
REMARK    2  A    between atoms: C_3  and  O_6 
REMARK    3  A    between atoms: C_3  and  C_4 
REMARK    4  A    between atoms: C_7  and  O_6 
REMARK    5  A    between atoms: C_9  and  C_10 
REMARK    6  A    between atoms: N_15  and  C_14 
REMARK    7  A    between atoms: N_20  and  C_19 
REMARK       I    between atoms: C_22  and  N_20 
ROOT
ATOM      1  C   LIG d   1      -6.530  76.837 116.845  0.00  0.00     0.161 C 
ATOM      2  C   LIG d   1      -5.257  77.095 116.310  0.00  0.00     0.016 C 
ATOM      3  C   LIG d   1      -4.475  78.218 116.668  0.00  0.00     0.038 C 
ATOM      4  C   LIG d   1      -4.852  79.084 117.705  0.00  0.00     0.028 C 
ATOM      5  C   LIG d   1      -6.360  79.149 117.922  0.00  0.00    -0.047 C 
ATOM      6  C   LIG d   1      -6.910  77.710 118.059  0.00  0.00     0.091 C 
ENDROOT
BRANCH   1   7
ATOM      7  O   LIG d   1      -6.647  75.440 117.177  0.00  0.00    -0.368 OA
BRANCH   7   8
ATOM      8  C   LIG d   1      -7.397  74.624 116.244  0.00  0.00     0.119 C 
BRANCH   8   9
ATOM      9  C   LIG d   1      -8.487  73.887 117.046  0.00  0.00     0.028 C 
ATOM     10  C   LIG d   1      -9.828  74.639 117.042  0.00  0.00     0.006 C 
ENDBRANCH   8   9
BRANCH   8  11
ATOM     11  C   LIG d   1      -6.522  73.521 115.640  0.00  0.00     0.028 C 
ATOM     12  C   LIG d   1      -6.988  72.109 116.031  0.00  0.00     0.006 C 
ENDBRANCH   8  11
ENDBRANCH   7   8
ENDBRANCH   1   7
BRANCH   6  13
ATOM     13  N   LIG d   1      -8.390  77.679 118.190  0.00  0.00    -0.311 N 
ATOM     14  C   LIG d   1      -9.021  77.574 119.358  0.00  0.00     0.210 C 
ATOM     15  C   LIG d   1     -10.550  77.540 119.266  0.00  0.00     0.109 C 
ATOM     16  O   LIG d   1      -8.461  77.537 120.464  0.00  0.00    -0.276 OA
ATOM     17  H   LIG d   1      -8.924  77.735 117.344  0.00  0.00     0.149 HD
ENDBRANCH   6  13
BRANCH   5  18
ATOM     18  N   LIG d   1      -6.604  79.978 119.117  0.00  0.00     0.381 N 
ATOM     19  H   LIG d   1      -7.570  80.232 119.162  0.00  0.00    -0.090 HD
ATOM     20  H   LIG d   1      -6.060  80.819 119.045  0.00  0.00    -0.090 HD
ATOM     21  H   LIG d   1      -6.346  79.476 119.938  0.00  0.00    -0.090 HD
ENDBRANCH   5  18
BRANCH   3  22
ATOM     22  C   LIG d   1      -3.320  78.505 115.957  0.00  0.00     0.382 C 
ATOM     23  O   LIG d   1      -3.398  78.995 114.805  0.00  0.00    -0.241 OA
ATOM     24  O   LIG d   1      -2.201  78.240 116.436  0.00  0.00    -0.241 OA
ENDBRANCH   3  22
TORSDOF 7
ENDMDL
MODEL 5
REMARK VINA RESULT:      -5.1     14.798     17.246
REMARK  7 active torsions:
REMARK  status: ('A' for Active; 'I' for Inactive)
REMARK    1  A    between atoms: C_2  and  C_3 
REMARK    2  A    between atoms: C_3  and  O_6 
REMARK    3  A    between atoms: C_3  and  C_4 
REMARK    4  A    between atoms: C_7  and  O_6 
REMARK    5  A    between atoms: C_9  and  C_10 
REMARK    6  A    between atoms: N_15  and  C_14 
REMARK    7  A    between atoms: N_20  and  C_19 
REMARK       I    between atoms: C_22  and  N_20 
ROOT
ATOM      1  C   LIG d   1      -6.499  76.358 116.044  0.00  0.00     0.161 C 
ATOM      2  C   LIG d   1      -5.234  75.949 115.587  0.00  0.00     0.016 C 
ATOM      3  C   LIG d   1      -4.041  76.151 116.317  0.00  0.00     0.038 C 
ATOM      4  C   LIG d   1      -4.049  76.644 117.631  0.00  0.00     0.028 C 
ATOM      5  C   LIG d   1      -5.248  77.536 117.935  0.00  0.00    -0.047 C 
ATOM      6  C   LIG d   1      -6.541  76.796 117.523  0.00  0.00     0.091 C 
ENDROOT
BRANCH   1   7
ATOM      7  O   LIG d   1      -7.465  75.317 115.802  0.00  0.00    -0.368 OA
BRANCH   7   8
ATOM      8  C   LIG d   1      -7.379  74.154 116.662  0.00  0.00     0.119 C 
BRANCH   8   9
ATOM      9  C   LIG d   1      -6.779  73.005 115.828  0.00  0.00     0.028 C 
ATOM     10  C   LIG d   1      -7.281  71.625 116.284  0.00  0.00     0.006 C 
ENDBRANCH   8   9
BRANCH   8  11
ATOM     11  C   LIG d   1      -8.768  73.667 117.083  0.00  0.00     0.028 C 
ATOM     12  C   LIG d   1      -9.823  74.785 117.061  0.00  0.00     0.006 C 
ENDBRANCH   8  11
ENDBRANCH   7   8
ENDBRANCH   1   7
BRANCH   6  13
ATOM     13  N   LIG d   1      -7.756  77.632 117.709  0.00  0.00    -0.311 N 
ATOM     14  C   LIG d   1      -8.471  77.646 118.833  0.00  0.00     0.210 C 
ATOM     15  C   LIG d   1      -9.697  78.563 118.808  0.00  0.00     0.109 C 
ATOM     16  O   LIG d   1      -8.187  77.011 119.860  0.00  0.00    -0.276 OA
ATOM     17  H   LIG d   1      -8.040  78.202 116.937  0.00  0.00     0.149 HD
ENDBRANCH   6  13
BRANCH   5  18
ATOM     18  N   LIG d   1      -5.204  77.865 119.372  0.00  0.00     0.381 N 
ATOM     19  H   LIG d   1      -4.261  77.813 119.703  0.00  0.00    -0.090 HD
ATOM     20  H   LIG d   1      -5.753  77.192 119.877  0.00  0.00    -0.090 HD
ATOM     21  H   LIG d   1      -5.567  78.781 119.523  0.00  0.00    -0.090 HD
ENDBRANCH   5  18
BRANCH   3  22
ATOM     22  C   LIG d   1      -2.817  75.897 115.717  0.00  0.00     0.382 C 
ATOM     23  O   LIG d   1      -2.106  74.946 116.123  0.00  0.00    -0.241 OA
ATOM     24  O   LIG d   1      -2.395  76.632 114.805  0.00  0.00    -0.241 OA
ENDBRANCH   3  22
TORSDOF 7
ENDMDL
MODEL 6
REMARK VINA RESULT:      -5.1     12.452     14.351
REMARK  7 active torsions:
REMARK  status: ('A' for Active; 'I' for Inactive)
REMARK    1  A    between atoms: C_2  and  C_3 
REMARK    2  A    between atoms: C_3  and  O_6 
REMARK    3  A    between atoms: C_3  and  C_4 
REMARK    4  A    between atoms: C_7  and  O_6 
REMARK    5  A    between atoms: C_9  and  C_10 
REMARK    6  A    between atoms: N_15  and  C_14 
REMARK    7  A    between atoms: N_20  and  C_19 
REMARK       I    between atoms: C_22  and  N_20 
ROOT
ATOM      1  C   LIG d   1      -7.313  78.185 118.256  0.00  0.00     0.161 C 
ATOM      2  C   LIG d   1      -8.510  77.491 118.500  0.00  0.00     0.016 C 
ATOM      3  C   LIG d   1      -9.699  78.120 118.937  0.00  0.00     0.038 C 
ATOM      4  C   LIG d   1      -9.814  79.516 119.015  0.00  0.00     0.028 C 
ATOM      5  C   LIG d   1      -8.484  80.220 119.264  0.00  0.00    -0.047 C 
ATOM      6  C   LIG d   1      -7.451  79.722 118.229  0.00  0.00     0.091 C 
ENDROOT
BRANCH   1   7
ATOM      7  O   LIG d   1      -6.716  77.714 117.032  0.00  0.00    -0.368 OA
BRANCH   7   8
ATOM      8  C   LIG d   1      -6.208  76.357 117.052  0.00  0.00     0.119 C 
BRANCH   8   9
ATOM      9  C   LIG d   1      -4.678  76.433 116.882  0.00  0.00     0.028 C 
ATOM     10  C   LIG d   1      -4.136  75.337 115.949  0.00  0.00     0.006 C 
ENDBRANCH   8   9
BRANCH   8  11
ATOM     11  C   LIG d   1      -6.710  75.556 115.847  0.00  0.00     0.028 C 
ATOM     12  C   LIG d   1      -7.798  74.536 116.221  0.00  0.00     0.006 C 
ENDBRANCH   8  11
ENDBRANCH   7   8
ENDBRANCH   1   7
BRANCH   6  13
ATOM     13  N   LIG d   1      -6.100  80.299 118.454  0.00  0.00    -0.311 N 
ATOM     14  C   LIG d   1      -5.639  81.364 117.801  0.00  0.00     0.210 C 
ATOM     15  C   LIG d   1      -4.213  81.782 118.170  0.00  0.00     0.109 C 
ATOM     16  O   LIG d   1      -6.289  82.023 116.975  0.00  0.00    -0.276 OA
ATOM     17  H   LIG d   1      -5.517  79.845 119.130  0.00  0.00     0.149 HD
ENDBRANCH   6  13
BRANCH   5  18
ATOM     18  N   LIG d   1      -8.728  81.673 119.185  0.00  0.00     0.381 N 
ATOM     19  H   LIG d   1      -9.567  81.848 118.668  0.00  0.00    -0.090 HD
ATOM     20  H   LIG d   1      -7.962  82.105 118.700  0.00  0.00    -0.090 HD
ATOM     21  H   LIG d   1      -8.809  82.055 120.101  0.00  0.00    -0.090 HD
ENDBRANCH   5  18
BRANCH   3  22
ATOM     22  C   LIG d   1     -10.777  77.346 119.341  0.00  0.00     0.382 C 
ATOM     23  O   LIG d   1     -11.353  76.596 118.517  0.00  0.00    -0.241 OA
ATOM     24  O   LIG d   1     -11.208  77.423 120.507  0.00  0.00    -0.241 OA
ENDBRANCH   3  22
TORSDOF 7
ENDMDL
MODEL 7
REMARK VINA RESULT:      -5.1     14.526     16.963
REMARK  7 active torsions:
REMARK  status: ('A' for Active; 'I' for Inactive)
REMARK    1  A    between atoms: C_2  and  C_3 
REMARK    2  A    between atoms: C_3  and  O_6 
REMARK    3  A    between atoms: C_3  and  C_4 
REMARK    4  A    between atoms: C_7  and  O_6 
REMARK    5  A    between atoms: C_9  and  C_10 
REMARK    6  A    between atoms: N_15  and  C_14 
REMARK    7  A    between atoms: N_20  and  C_19 
REMARK       I    between atoms: C_22  and  N_20 
ROOT
ATOM      1  C   LIG d   1      -5.732  75.883 116.419  0.00  0.00     0.161 C 
ATOM      2  C   LIG d   1      -6.143  74.597 116.029  0.00  0.00     0.016 C 
ATOM      3  C   LIG d   1      -7.392  74.038 116.386  0.00  0.00     0.038 C 
ATOM      4  C   LIG d   1      -8.383  74.790 117.034  0.00  0.00     0.028 C 
ATOM      5  C   LIG d   1      -7.822  75.923 117.888  0.00  0.00    -0.047 C 
ATOM      6  C   LIG d   1      -6.844  76.760 117.032  0.00  0.00     0.091 C 
ENDROOT
BRANCH   1   7
ATOM      7  O   LIG d   1      -5.119  76.559 115.303  0.00  0.00    -0.368 OA
BRANCH   7   8
ATOM      8  C   LIG d   1      -3.676  76.467 115.216  0.00  0.00     0.119 C 
BRANCH   8   9
ATOM      9  C   LIG d   1      -3.144  76.190 116.635  0.00  0.00     0.028 C 
ATOM     10  C   LIG d   1      -2.169  75.001 116.675  0.00  0.00     0.006 C 
ENDBRANCH   8   9
BRANCH   8  11
ATOM     11  C   LIG d   1      -3.056  77.806 114.805  0.00  0.00     0.028 C 
ATOM     12  C   LIG d   1      -3.279  78.911 115.849  0.00  0.00     0.006 C 
ENDBRANCH   8  11
ENDBRANCH   7   8
ENDBRANCH   1   7
BRANCH   6  13
ATOM     13  N   LIG d   1      -6.187  77.839 117.814  0.00  0.00    -0.311 N 
ATOM     14  C   LIG d   1      -6.738  79.033 118.022  0.00  0.00     0.210 C 
ATOM     15  C   LIG d   1      -5.882  80.007 118.839  0.00  0.00     0.109 C 
ATOM     16  O   LIG d   1      -7.868  79.368 117.636  0.00  0.00    -0.276 OA
ATOM     17  H   LIG d   1      -5.280  77.641 118.191  0.00  0.00     0.149 HD
ENDBRANCH   6  13
BRANCH   5  18
ATOM     18  N   LIG d   1      -8.965  76.707 118.393  0.00  0.00     0.381 N 
ATOM     19  H   LIG d   1      -9.734  76.098 118.588  0.00  0.00    -0.090 HD
ATOM     20  H   LIG d   1      -9.251  77.359 117.684  0.00  0.00    -0.090 HD
ATOM     21  H   LIG d   1      -8.703  77.198 119.220  0.00  0.00    -0.090 HD
ENDBRANCH   5  18
BRANCH   3  22
ATOM     22  C   LIG d   1      -7.643  72.699 116.129  0.00  0.00     0.382 C 
ATOM     23  O   LIG d   1      -6.770  71.993 115.569  0.00  0.00    -0.241 OA
ATOM     24  O   LIG d   1      -8.749  72.199 116.409  0.00  0.00    -0.241 OA
ENDBRANCH   3  22
TORSDOF 7
ENDMDL
MODEL 8
REMARK VINA RESULT:      -4.9     13.451     16.037
REMARK  7 active torsions:
REMARK  status: ('A' for Active; 'I' for Inactive)
REMARK    1  A    between atoms: C_2  and  C_3 
REMARK    2  A    between atoms: C_3  and  O_6 
REMARK    3  A    between atoms: C_3  and  C_4 
REMARK    4  A    between atoms: C_7  and  O_6 
REMARK    5  A    between atoms: C_9  and  C_10 
REMARK    6  A    between atoms: N_15  and  C_14 
REMARK    7  A    between atoms: N_20  and  C_19 
REMARK       I    between atoms: C_22  and  N_20 
ROOT
ATOM      1  C   LIG d   1      -6.922  77.250 117.623  0.00  0.00     0.161 C 
ATOM      2  C   LIG d   1      -6.485  76.221 116.772  0.00  0.00     0.016 C 
ATOM      3  C   LIG d   1      -7.321  75.171 116.329  0.00  0.00     0.038 C 
ATOM      4  C   LIG d   1      -8.700  75.161 116.587  0.00  0.00     0.028 C 
ATOM      5  C   LIG d   1      -9.083  75.908 117.860  0.00  0.00    -0.047 C 
ATOM      6  C   LIG d   1      -8.450  77.318 117.825  0.00  0.00     0.091 C 
ENDROOT
BRANCH   1   7
ATOM      7  O   LIG d   1      -6.422  78.518 117.154  0.00  0.00    -0.368 OA
BRANCH   7   8
ATOM      8  C   LIG d   1      -5.324  79.089 117.907  0.00  0.00     0.119 C 
BRANCH   8   9
ATOM      9  C   LIG d   1      -5.878  80.296 118.689  0.00  0.00     0.028 C 
ATOM     10  C   LIG d   1      -6.723  81.229 117.807  0.00  0.00     0.006 C 
ENDBRANCH   8   9
BRANCH   8  11
ATOM     11  C   LIG d   1      -4.251  79.665 116.978  0.00  0.00     0.028 C 
ATOM     12  C   LIG d   1      -3.391  78.578 116.314  0.00  0.00     0.006 C 
ENDBRANCH   8  11
ENDBRANCH   7   8
ENDBRANCH   1   7
BRANCH   6  13
ATOM     13  N   LIG d   1      -8.705  78.085 119.072  0.00  0.00    -0.311 N 
ATOM     14  C   LIG d   1      -9.524  79.134 119.133  0.00  0.00     0.210 C 
ATOM     15  C   LIG d   1      -9.629  79.793 120.512  0.00  0.00     0.109 C 
ATOM     16  O   LIG d   1     -10.197  79.562 118.183  0.00  0.00    -0.276 OA
ATOM     17  H   LIG d   1      -8.224  77.787 119.898  0.00  0.00     0.149 HD
ENDBRANCH   6  13
BRANCH   5  18
ATOM     18  N   LIG d   1     -10.556  75.937 117.934  0.00  0.00     0.381 N 
ATOM     19  H   LIG d   1     -10.850  76.659 118.561  0.00  0.00    -0.090 HD
ATOM     20  H   LIG d   1     -10.881  75.057 118.292  0.00  0.00    -0.090 HD
ATOM     21  H   LIG d   1     -10.940  76.098 117.028  0.00  0.00    -0.090 HD
ENDBRANCH   5  18
BRANCH   3  22
ATOM     22  C   LIG d   1      -6.770  74.094 115.651  0.00  0.00     0.382 C 
ATOM     23  O   LIG d   1      -7.143  72.926 115.922  0.00  0.00    -0.241 OA
ATOM     24  O   LIG d   1      -5.874  74.271 114.805  0.00  0.00    -0.241 OA
ENDBRANCH   3  22
TORSDOF 7
ENDMDL
MODEL 9
REMARK VINA RESULT:      -4.9      1.623      2.350
REMARK  7 active torsions:
REMARK  status: ('A' for Active; 'I' for Inactive)
REMARK    1  A    between atoms: C_2  and  C_3 
REMARK    2  A    between atoms: C_3  and  O_6 
REMARK    3  A    between atoms: C_3  and  C_4 
REMARK    4  A    between atoms: C_7  and  O_6 
REMARK    5  A    between atoms: C_9  and  C_10 
REMARK    6  A    between atoms: N_15  and  C_14 
REMARK    7  A    between atoms: N_20  and  C_19 
REMARK       I    between atoms: C_22  and  N_20 
ROOT
ATOM      1  C   LIG d   1      -5.585  92.910 119.339  0.00  0.00     0.161 C 
ATOM      2  C   LIG d   1      -6.984  92.831 119.436  0.00  0.00     0.016 C 
ATOM      3  C   LIG d   1      -7.786  93.865 119.971  0.00  0.00     0.038 C 
ATOM      4  C   LIG d   1      -7.253  95.118 120.309  0.00  0.00     0.028 C 
ATOM      5  C   LIG d   1      -5.780  95.064 120.700  0.00  0.00    -0.047 C 
ATOM      6  C   LIG d   1      -4.997  94.313 119.599  0.00  0.00     0.091 C 
ENDROOT
BRANCH   1   7
ATOM      7  O   LIG d   1      -5.156  92.418 118.054  0.00  0.00    -0.368 OA
BRANCH   7   8
ATOM      8  C   LIG d   1      -5.093  90.977 117.913  0.00  0.00     0.119 C 
BRANCH   8   9
ATOM      9  C   LIG d   1      -3.787  90.503 118.581  0.00  0.00     0.028 C 
ATOM     10  C   LIG d   1      -2.546  91.210 118.011  0.00  0.00     0.006 C 
ENDBRANCH   8   9
BRANCH   8  11
ATOM     11  C   LIG d   1      -4.968  90.567 116.442  0.00  0.00     0.028 C 
ATOM     12  C   LIG d   1      -5.768  91.479 115.499  0.00  0.00     0.006 C 
ENDBRANCH   8  11
ENDBRANCH   7   8
ENDBRANCH   1   7
BRANCH   6  13
ATOM     13  N   LIG d   1      -3.561  94.142 119.943  0.00  0.00    -0.311 N 
ATOM     14  C   LIG d   1      -2.610  94.996 119.569  0.00  0.00     0.210 C 
ATOM     15  C   LIG d   1      -1.193  94.622 120.011  0.00  0.00     0.109 C 
ATOM     16  O   LIG d   1      -2.811  96.046 118.940  0.00  0.00    -0.276 OA
ATOM     17  H   LIG d   1      -3.313  93.332 120.478  0.00  0.00     0.149 HD
ENDBRANCH   6  13
BRANCH   5  18
ATOM     18  N   LIG d   1      -5.319  96.452 120.893  0.00  0.00     0.381 N 
ATOM     19  H   LIG d   1      -4.394  96.555 120.527  0.00  0.00    -0.090 HD
ATOM     20  H   LIG d   1      -5.294  96.652 121.877  0.00  0.00    -0.090 HD
ATOM     21  H   LIG d   1      -5.938  97.084 120.434  0.00  0.00    -0.090 HD
ENDBRANCH   5  18
BRANCH   3  22
ATOM     22  C   LIG d   1      -9.133  93.636 120.211  0.00  0.00     0.382 C 
ATOM     23  O   LIG d   1      -9.503  92.552 120.723  0.00  0.00    -0.241 OA
ATOM     24  O   LIG d   1      -9.986  94.481 119.880  0.00  0.00    -0.241 OA
ENDBRANCH   3  22
TORSDOF 7
ENDMDL
