MODEL 1
REMARK VINA RESULT:      -5.5      0.000      0.000
REMARK  7 active torsions:
REMARK  status: ('A' for Active; 'I' for Inactive)
REMARK    1  A    between atoms: C_2  and  C_3 
REMARK    2  A    between atoms: C_3  and  O_6 
REMARK    3  A    between atoms: C_3  and  C_4 
REMARK    4  A    between atoms: C_7  and  O_6 
REMARK    5  A    between atoms: C_9  and  C_10 
REMARK    6  A    between atoms: N_15  and  C_14 
REMARK    7  A    between atoms: N_20  and  C_19 
REMARK       I    between atoms: C_22  and  N_20 
ROOT
ATOM      1  C   LIG d   1      -4.902  92.045 118.091  0.00  0.00     0.161 C 
ATOM      2  C   LIG d   1      -5.126  91.177 117.009  0.00  0.00     0.016 C 
ATOM      3  C   LIG d   1      -6.359  91.093 116.321  0.00  0.00     0.038 C 
ATOM      4  C   LIG d   1      -7.411  91.985 116.574  0.00  0.00     0.028 C 
ATOM      5  C   LIG d   1      -7.407  92.541 117.994  0.00  0.00    -0.047 C 
ATOM      6  C   LIG d   1      -6.003  93.105 118.308  0.00  0.00     0.091 C 
ENDROOT
BRANCH   1   7
ATOM      7  O   LIG d   1      -3.616  92.680 117.949  0.00  0.00    -0.368 OA
BRANCH   7   8
ATOM      8  C   LIG d   1      -2.495  91.993 118.557  0.00  0.00     0.119 C 
BRANCH   8   9
ATOM      9  C   LIG d   1      -2.908  91.613 119.992  0.00  0.00     0.028 C 
ATOM     10  C   LIG d   1      -2.585  92.721 121.009  0.00  0.00     0.006 C 
ENDBRANCH   8   9
BRANCH   8  11
ATOM     11  C   LIG d   1      -1.289  92.923 118.715  0.00  0.00     0.028 C 
ATOM     12  C   LIG d   1      -1.258  94.041 117.661  0.00  0.00     0.006 C 
ENDBRANCH   8  11
ENDBRANCH   7   8
ENDBRANCH   1   7
BRANCH   6  13
ATOM     13  N   LIG d   1      -5.888  93.592 119.708  0.00  0.00    -0.311 N 
ATOM     14  C   LIG d   1      -6.103  94.857 120.063  0.00  0.00     0.210 C 
ATOM     15  C   LIG d   1      -5.911  95.151 121.554  0.00  0.00     0.109 C 
ATOM     16  O   LIG d   1      -6.465  95.757 119.291  0.00  0.00    -0.276 OA
ATOM     17  H   LIG d   1      -5.628  92.921 120.404  0.00  0.00     0.149 HD
ENDBRANCH   6  13
BRANCH   5  18
ATOM     18  N   LIG d   1      -8.471  93.559 118.077  0.00  0.00     0.381 N 
ATOM     19  H   LIG d   1      -8.722  93.710 119.034  0.00  0.00    -0.090 HD
ATOM     20  H   LIG d   1      -9.282  93.222 117.588  0.00  0.00    -0.090 HD
ATOM     21  H   LIG d   1      -8.159  94.413 117.670  0.00  0.00    -0.090 HD
ENDBRANCH   5  18
BRANCH   3  22
ATOM     22  C   LIG d   1      -6.561  90.080 115.396  0.00  0.00     0.382 C 
ATOM     23  O   LIG d   1      -7.700  89.904 114.898  0.00  0.00    -0.241 OA
ATOM     24  O   LIG d   1      -5.631  89.313 115.086  0.00  0.00    -0.241 OA
ENDBRANCH   3  22
TORSDOF 7
ENDMDL
MODEL 2
REMARK VINA RESULT:      -5.4      2.022      4.219
REMARK  7 active torsions:
REMARK  status: ('A' for Active; 'I' for Inactive)
REMARK    1  A    between atoms: C_2  and  C_3 
REMARK    2  A    between atoms: C_3  and  O_6 
REMARK    3  A    between atoms: C_3  and  C_4 
REMARK    4  A    between atoms: C_7  and  O_6 
REMARK    5  A    between atoms: C_9  and  C_10 
REMARK    6  A    between atoms: N_15  and  C_14 
REMARK    7  A    between atoms: N_20  and  C_19 
REMARK       I    between atoms: C_22  and  N_20 
ROOT
ATOM      1  C   LIG d   1      -6.221  93.311 118.770  0.00  0.00     0.161 C 
ATOM      2  C   LIG d   1      -7.062  92.537 117.954  0.00  0.00     0.016 C 
ATOM      3  C   LIG d   1      -6.598  91.475 117.144  0.00  0.00     0.038 C 
ATOM      4  C   LIG d   1      -5.275  91.014 117.211  0.00  0.00     0.028 C 
ATOM      5  C   LIG d   1      -4.281  92.088 117.642  0.00  0.00    -0.047 C 
ATOM      6  C   LIG d   1      -4.793  92.753 118.941  0.00  0.00     0.091 C 
ENDROOT
BRANCH   1   7
ATOM      7  O   LIG d   1      -6.838  93.511 120.057  0.00  0.00    -0.368 OA
BRANCH   7   8
ATOM      8  C   LIG d   1      -7.260  94.864 120.358  0.00  0.00     0.119 C 
BRANCH   8   9
ATOM      9  C   LIG d   1      -8.800  94.890 120.309  0.00  0.00     0.028 C 
ATOM     10  C   LIG d   1      -9.336  95.389 118.956  0.00  0.00     0.006 C 
ENDBRANCH   8   9
BRANCH   8  11
ATOM     11  C   LIG d   1      -6.804  95.845 119.273  0.00  0.00     0.028 C 
ATOM     12  C   LIG d   1      -5.819  96.900 119.801  0.00  0.00     0.006 C 
ENDBRANCH   8  11
ENDBRANCH   7   8
ENDBRANCH   1   7
BRANCH   6  13
ATOM     13  N   LIG d   1      -3.922  93.872 119.386  0.00  0.00    -0.311 N 
ATOM     14  C   LIG d   1      -2.929  93.725 120.261  0.00  0.00     0.210 C 
ATOM     15  C   LIG d   1      -2.168  95.012 120.597  0.00  0.00     0.109 C 
ATOM     16  O   LIG d   1      -2.585  92.646 120.766  0.00  0.00    -0.276 OA
ATOM     17  H   LIG d   1      -4.111  94.777 119.002  0.00  0.00     0.149 HD
ENDBRANCH   6  13
BRANCH   5  18
ATOM     18  N   LIG d   1      -2.966  91.440 117.804  0.00  0.00     0.381 N 
ATOM     19  H   LIG d   1      -2.578  91.233 116.905  0.00  0.00    -0.090 HD
ATOM     20  H   LIG d   1      -3.089  90.575 118.301  0.00  0.00    -0.090 HD
ATOM     21  H   LIG d   1      -2.351  92.038 118.310  0.00  0.00    -0.090 HD
ENDBRANCH   5  18
BRANCH   3  22
ATOM     22  C   LIG d   1      -7.454  90.887 116.225  0.00  0.00     0.382 C 
ATOM     23  O   LIG d   1      -8.431  91.533 115.775  0.00  0.00    -0.241 OA
ATOM     24  O   LIG d   1      -7.288  89.703 115.874  0.00  0.00    -0.241 OA
ENDBRANCH   3  22
TORSDOF 7
ENDMDL
MODEL 3
REMARK VINA RESULT:      -5.1     13.121     15.385
REMARK  7 active torsions:
REMARK  status: ('A' for Active; 'I' for Inactive)
REMARK    1  A    between atoms: C_2  and  C_3 
REMARK    2  A    between atoms: C_3  and  O_6 
REMARK    3  A    between atoms: C_3  and  C_4 
REMARK    4  A    between atoms: C_7  and  O_6 
REMARK    5  A    between atoms: C_9  and  C_10 
REMARK    6  A    between atoms: N_15  and  C_14 
REMARK    7  A    between atoms: N_20  and  C_19 
REMARK       I    between atoms: C_22  and  N_20 
ROOT
ATOM      1  C   LIG d   1      -7.077  77.714 117.651  0.00  0.00     0.161 C 
ATOM      2  C   LIG d   1      -8.415  78.141 117.635  0.00  0.00     0.016 C 
ATOM      3  C   LIG d   1      -8.882  79.266 118.352  0.00  0.00     0.038 C 
ATOM      4  C   LIG d   1      -8.006  80.136 119.019  0.00  0.00     0.028 C 
ATOM      5  C   LIG d   1      -6.718  79.462 119.480  0.00  0.00    -0.047 C 
ATOM      6  C   LIG d   1      -6.087  78.715 118.283  0.00  0.00     0.091 C 
ENDROOT
BRANCH   1   7
ATOM      7  O   LIG d   1      -6.657  77.370 116.316  0.00  0.00    -0.368 OA
BRANCH   7   8
ATOM      8  C   LIG d   1      -6.853  75.990 115.922  0.00  0.00     0.119 C 
BRANCH   8   9
ATOM      9  C   LIG d   1      -6.480  75.107 117.128  0.00  0.00     0.028 C 
ATOM     10  C   LIG d   1      -6.847  73.629 116.909  0.00  0.00     0.006 C 
ENDBRANCH   8   9
BRANCH   8  11
ATOM     11  C   LIG d   1      -5.883  75.585 114.807  0.00  0.00     0.028 C 
ATOM     12  C   LIG d   1      -4.413  75.833 115.178  0.00  0.00     0.006 C 
ENDBRANCH   8  11
ENDBRANCH   7   8
ENDBRANCH   1   7
BRANCH   6  13
ATOM     13  N   LIG d   1      -4.866  77.959 118.667  0.00  0.00    -0.311 N 
ATOM     14  C   LIG d   1      -3.696  78.090 118.044  0.00  0.00     0.210 C 
ATOM     15  C   LIG d   1      -2.572  77.202 118.586  0.00  0.00     0.109 C 
ATOM     16  O   LIG d   1      -3.475  78.880 117.114  0.00  0.00    -0.276 OA
ATOM     17  H   LIG d   1      -4.948  77.318 119.432  0.00  0.00     0.149 HD
ENDBRANCH   6  13
BRANCH   5  18
ATOM     18  N   LIG d   1      -5.841  80.511 120.035  0.00  0.00     0.381 N 
ATOM     19  H   LIG d   1      -6.154  81.411 119.730  0.00  0.00    -0.090 HD
ATOM     20  H   LIG d   1      -4.907  80.369 119.691  0.00  0.00    -0.090 HD
ATOM     21  H   LIG d   1      -5.847  80.469 121.030  0.00  0.00    -0.090 HD
ENDBRANCH   5  18
BRANCH   3  22
ATOM     22  C   LIG d   1     -10.244  79.508 118.441  0.00  0.00     0.382 C 
ATOM     23  O   LIG d   1     -11.017  78.603 118.840  0.00  0.00    -0.241 OA
ATOM     24  O   LIG d   1     -10.716  80.604 118.084  0.00  0.00    -0.241 OA
ENDBRANCH   3  22
TORSDOF 7
ENDMDL
MODEL 4
REMARK VINA RESULT:      -5.0     14.752     17.149
REMARK  7 active torsions:
REMARK  status: ('A' for Active; 'I' for Inactive)
REMARK    1  A    between atoms: C_2  and  C_3 
REMARK    2  A    between atoms: C_3  and  O_6 
REMARK    3  A    between atoms: C_3  and  C_4 
REMARK    4  A    between atoms: C_7  and  O_6 
REMARK    5  A    between atoms: C_9  and  C_10 
REMARK    6  A    between atoms: N_15  and  C_14 
REMARK    7  A    between atoms: N_20  and  C_19 
REMARK       I    between atoms: C_22  and  N_20 
ROOT
ATOM      1  C   LIG d   1      -4.102  76.366 115.803  0.00  0.00     0.161 C 
ATOM      2  C   LIG d   1      -3.092  75.423 115.553  0.00  0.00     0.016 C 
ATOM      3  C   LIG d   1      -1.966  75.249 116.390  0.00  0.00     0.038 C 
ATOM      4  C   LIG d   1      -1.850  75.908 117.623  0.00  0.00     0.028 C 
ATOM      5  C   LIG d   1      -2.594  77.238 117.672  0.00  0.00    -0.047 C 
ATOM      6  C   LIG d   1      -4.049  77.016 117.201  0.00  0.00     0.091 C 
ENDROOT
BRANCH   1   7
ATOM      7  O   LIG d   1      -5.395  75.770 115.576  0.00  0.00    -0.368 OA
BRANCH   7   8
ATOM      8  C   LIG d   1      -5.901  74.924 116.638  0.00  0.00     0.119 C 
BRANCH   8   9
ATOM      9  C   LIG d   1      -6.153  73.528 116.037  0.00  0.00     0.028 C 
ATOM     10  C   LIG d   1      -7.222  72.739 116.813  0.00  0.00     0.006 C 
ENDBRANCH   8   9
BRANCH   8  11
ATOM     11  C   LIG d   1      -7.269  75.406 117.131  0.00  0.00     0.028 C 
ATOM     12  C   LIG d   1      -7.966  76.343 116.131  0.00  0.00     0.006 C 
ENDBRANCH   8  11
ENDBRANCH   7   8
ENDBRANCH   1   7
BRANCH   6  13
ATOM     13  N   LIG d   1      -4.824  78.283 117.138  0.00  0.00    -0.311 N 
ATOM     14  C   LIG d   1      -5.660  78.680 118.097  0.00  0.00     0.210 C 
ATOM     15  C   LIG d   1      -6.373  80.008 117.823  0.00  0.00     0.109 C 
ATOM     16  O   LIG d   1      -5.854  78.074 119.161  0.00  0.00    -0.276 OA
ATOM     17  H   LIG d   1      -4.703  78.852 116.323  0.00  0.00     0.149 HD
ENDBRANCH   6  13
BRANCH   5  18
ATOM     18  N   LIG d   1      -2.504  77.749 119.053  0.00  0.00     0.381 N 
ATOM     19  H   LIG d   1      -2.676  78.734 119.061  0.00  0.00    -0.090 HD
ATOM     20  H   LIG d   1      -1.574  77.588 119.399  0.00  0.00    -0.090 HD
ATOM     21  H   LIG d   1      -3.167  77.283 119.632  0.00  0.00    -0.090 HD
ENDBRANCH   5  18
BRANCH   3  22
ATOM     22  C   LIG d   1      -0.921  74.437 115.976  0.00  0.00     0.382 C 
ATOM     23  O   LIG d   1      -0.363  73.667 116.794  0.00  0.00    -0.241 OA
ATOM     24  O   LIG d   1      -0.499  74.498 114.805  0.00  0.00    -0.241 OA
ENDBRANCH   3  22
TORSDOF 7
ENDMDL
MODEL 5
REMARK VINA RESULT:      -4.8     33.548     35.348
REMARK  7 active torsions:
REMARK  status: ('A' for Active; 'I' for Inactive)
REMARK    1  A    between atoms: C_2  and  C_3 
REMARK    2  A    between atoms: C_3  and  O_6 
REMARK    3  A    between atoms: C_3  and  C_4 
REMARK    4  A    between atoms: C_7  and  O_6 
REMARK    5  A    between atoms: C_9  and  C_10 
REMARK    6  A    between atoms: N_15  and  C_14 
REMARK    7  A    between atoms: N_20  and  C_19 
REMARK       I    between atoms: C_22  and  N_20 
ROOT
ATOM      1  C   LIG d   1       3.691  58.645 117.790  0.00  0.00     0.161 C 
ATOM      2  C   LIG d   1       2.601  59.464 117.448  0.00  0.00     0.016 C 
ATOM      3  C   LIG d   1       1.362  58.959 116.990  0.00  0.00     0.038 C 
ATOM      4  C   LIG d   1       1.077  57.586 116.986  0.00  0.00     0.028 C 
ATOM      5  C   LIG d   1       2.317  56.710 116.843  0.00  0.00    -0.047 C 
ATOM      6  C   LIG d   1       3.361  57.141 117.898  0.00  0.00     0.091 C 
ENDROOT
BRANCH   1   7
ATOM      7  O   LIG d   1       4.291  59.115 119.013  0.00  0.00    -0.368 OA
BRANCH   7   8
ATOM      8  C   LIG d   1       3.883  60.433 119.457  0.00  0.00     0.119 C 
BRANCH   8   9
ATOM      9  C   LIG d   1       5.124  61.346 119.397  0.00  0.00     0.028 C 
ATOM     10  C   LIG d   1       6.197  60.946 120.424  0.00  0.00     0.006 C 
ENDBRANCH   8   9
BRANCH   8  11
ATOM     11  C   LIG d   1       3.461  60.419 120.929  0.00  0.00     0.028 C 
ATOM     12  C   LIG d   1       2.354  59.395 121.222  0.00  0.00     0.006 C 
ENDBRANCH   8  11
ENDBRANCH   7   8
ENDBRANCH   1   7
BRANCH   6  13
ATOM     13  N   LIG d   1       4.637  56.391 117.773  0.00  0.00    -0.311 N 
ATOM     14  C   LIG d   1       5.222  55.764 118.792  0.00  0.00     0.210 C 
ATOM     15  C   LIG d   1       6.543  55.067 118.450  0.00  0.00     0.109 C 
ATOM     16  O   LIG d   1       4.757  55.692 119.939  0.00  0.00    -0.276 OA
ATOM     17  H   LIG d   1       5.068  56.372 116.869  0.00  0.00     0.149 HD
ENDBRANCH   6  13
BRANCH   5  18
ATOM     18  N   LIG d   1       1.890  55.306 116.993  0.00  0.00     0.381 N 
ATOM     19  H   LIG d   1       0.994  55.176 116.566  0.00  0.00    -0.090 HD
ATOM     20  H   LIG d   1       1.806  55.094 117.972  0.00  0.00    -0.090 HD
ATOM     21  H   LIG d   1       2.558  54.699 116.571  0.00  0.00    -0.090 HD
ENDBRANCH   5  18
BRANCH   3  22
ATOM     22  C   LIG d   1       0.407  59.832 116.491  0.00  0.00     0.382 C 
ATOM     23  O   LIG d   1       0.643  60.491 115.450  0.00  0.00    -0.241 OA
ATOM     24  O   LIG d   1      -0.670  60.001 117.094  0.00  0.00    -0.241 OA
ENDBRANCH   3  22
TORSDOF 7
ENDMDL
MODEL 6
REMARK VINA RESULT:      -4.6     14.215     16.347
REMARK  7 active torsions:
REMARK  status: ('A' for Active; 'I' for Inactive)
REMARK    1  A    between atoms: C_2  and  C_3 
REMARK    2  A    between atoms: C_3  and  O_6 
REMARK    3  A    between atoms: C_3  and  C_4 
REMARK    4  A    between atoms: C_7  and  O_6 
REMARK    5  A    between atoms: C_9  and  C_10 
REMARK    6  A    between atoms: N_15  and  C_14 
REMARK    7  A    between atoms: N_20  and  C_19 
REMARK       I    between atoms: C_22  and  N_20 
ROOT
ATOM      1  C   LIG d   1      -5.561  77.538 116.567  0.00  0.00     0.161 C 
ATOM      2  C   LIG d   1      -6.919  77.557 116.927  0.00  0.00     0.016 C 
ATOM      3  C   LIG d   1      -7.736  76.403 116.939  0.00  0.00     0.038 C 
ATOM      4  C   LIG d   1      -7.209  75.119 116.737  0.00  0.00     0.028 C 
ATOM      5  C   LIG d   1      -5.950  75.109 115.877  0.00  0.00    -0.047 C 
ATOM      6  C   LIG d   1      -4.941  76.130 116.452  0.00  0.00     0.091 C 
ENDROOT
BRANCH   1   7
ATOM      7  O   LIG d   1      -4.801  78.346 117.488  0.00  0.00    -0.368 OA
BRANCH   7   8
ATOM      8  C   LIG d   1      -4.364  77.688 118.703  0.00  0.00     0.119 C 
BRANCH   8   9
ATOM      9  C   LIG d   1      -4.995  78.442 119.889  0.00  0.00     0.028 C 
ATOM     10  C   LIG d   1      -5.386  79.885 119.527  0.00  0.00     0.006 C 
ENDBRANCH   8   9
BRANCH   8  11
ATOM     11  C   LIG d   1      -2.851  77.821 118.895  0.00  0.00     0.028 C 
ATOM     12  C   LIG d   1      -2.194  78.729 117.844  0.00  0.00     0.006 C 
ENDBRANCH   8  11
ENDBRANCH   7   8
ENDBRANCH   1   7
BRANCH   6  13
ATOM     13  N   LIG d   1      -3.715  76.244 115.620  0.00  0.00    -0.311 N 
ATOM     14  C   LIG d   1      -2.610  75.535 115.842  0.00  0.00     0.210 C 
ATOM     15  C   LIG d   1      -1.453  75.821 114.879  0.00  0.00     0.109 C 
ATOM     16  O   LIG d   1      -2.488  74.673 116.725  0.00  0.00    -0.276 OA
ATOM     17  H   LIG d   1      -3.737  76.899 114.862  0.00  0.00     0.149 HD
ENDBRANCH   6  13
BRANCH   5  18
ATOM     18  N   LIG d   1      -5.431  73.729 115.862  0.00  0.00     0.381 N 
ATOM     19  H   LIG d   1      -5.334  73.393 116.800  0.00  0.00    -0.090 HD
ATOM     20  H   LIG d   1      -4.523  73.727 115.432  0.00  0.00    -0.090 HD
ATOM     21  H   LIG d   1      -6.049  73.137 115.352  0.00  0.00    -0.090 HD
ENDBRANCH   5  18
BRANCH   3  22
ATOM     22  C   LIG d   1      -9.105  76.533 117.117  0.00  0.00     0.382 C 
ATOM     23  O   LIG d   1      -9.577  77.587 117.608  0.00  0.00    -0.241 OA
ATOM     24  O   LIG d   1      -9.871  75.592 116.833  0.00  0.00    -0.241 OA
ENDBRANCH   3  22
TORSDOF 7
ENDMDL
MODEL 7
REMARK VINA RESULT:      -4.5     13.750     16.414
REMARK  7 active torsions:
REMARK  status: ('A' for Active; 'I' for Inactive)
REMARK    1  A    between atoms: C_2  and  C_3 
REMARK    2  A    between atoms: C_3  and  O_6 
REMARK    3  A    between atoms: C_3  and  C_4 
REMARK    4  A    between atoms: C_7  and  O_6 
REMARK    5  A    between atoms: C_9  and  C_10 
REMARK    6  A    between atoms: N_15  and  C_14 
REMARK    7  A    between atoms: N_20  and  C_19 
REMARK       I    between atoms: C_22  and  N_20 
ROOT
ATOM      1  C   LIG d   1      -5.218  77.001 118.133  0.00  0.00     0.161 C 
ATOM      2  C   LIG d   1      -5.942  77.892 118.943  0.00  0.00     0.016 C 
ATOM      3  C   LIG d   1      -5.372  79.042 119.537  0.00  0.00     0.038 C 
ATOM      4  C   LIG d   1      -4.068  79.463 119.237  0.00  0.00     0.028 C 
ATOM      5  C   LIG d   1      -3.143  78.322 118.825  0.00  0.00    -0.047 C 
ATOM      6  C   LIG d   1      -3.824  77.504 117.704  0.00  0.00     0.091 C 
ENDROOT
BRANCH   1   7
ATOM      7  O   LIG d   1      -6.000  76.646 116.976  0.00  0.00    -0.368 OA
BRANCH   7   8
ATOM      8  C   LIG d   1      -7.153  75.803 117.220  0.00  0.00     0.119 C 
BRANCH   8   9
ATOM      9  C   LIG d   1      -6.787  74.376 116.768  0.00  0.00     0.028 C 
ATOM     10  C   LIG d   1      -5.818  74.369 115.574  0.00  0.00     0.006 C 
ENDBRANCH   8   9
BRANCH   8  11
ATOM     11  C   LIG d   1      -8.340  76.214 116.344  0.00  0.00     0.028 C 
ATOM     12  C   LIG d   1      -9.681  75.678 116.867  0.00  0.00     0.006 C 
ENDBRANCH   8  11
ENDBRANCH   7   8
ENDBRANCH   1   7
BRANCH   6  13
ATOM     13  N   LIG d   1      -3.022  76.319 117.302  0.00  0.00    -0.311 N 
ATOM     14  C   LIG d   1      -2.614  76.100 116.053  0.00  0.00     0.210 C 
ATOM     15  C   LIG d   1      -1.816  74.808 115.851  0.00  0.00     0.109 C 
ATOM     16  O   LIG d   1      -2.808  76.870 115.100  0.00  0.00    -0.276 OA
ATOM     17  H   LIG d   1      -2.793  75.658 118.018  0.00  0.00     0.149 HD
ENDBRANCH   6  13
BRANCH   5  18
ATOM     18  N   LIG d   1      -1.860  78.918 118.408  0.00  0.00     0.381 N 
ATOM     19  H   LIG d   1      -1.612  79.660 119.032  0.00  0.00    -0.090 HD
ATOM     20  H   LIG d   1      -1.964  79.303 117.486  0.00  0.00    -0.090 HD
ATOM     21  H   LIG d   1      -1.146  78.223 118.408  0.00  0.00    -0.090 HD
ENDBRANCH   5  18
BRANCH   3  22
ATOM     22  C   LIG d   1      -6.097  79.762 120.474  0.00  0.00     0.382 C 
ATOM     23  O   LIG d   1      -7.098  79.243 121.025  0.00  0.00    -0.241 OA
ATOM     24  O   LIG d   1      -5.790  80.938 120.743  0.00  0.00    -0.241 OA
ENDBRANCH   3  22
TORSDOF 7
ENDMDL
MODEL 8
REMARK VINA RESULT:      -4.4     34.091     35.827
REMARK  7 active torsions:
REMARK  status: ('A' for Active; 'I' for Inactive)
REMARK    1  A    between atoms: C_2  and  C_3 
REMARK    2  A    between atoms: C_3  and  O_6 
REMARK    3  A    between atoms: C_3  and  C_4 
REMARK    4  A    between atoms: C_7  and  O_6 
REMARK    5  A    between atoms: C_9  and  C_10 
REMARK    6  A    between atoms: N_15  and  C_14 
REMARK    7  A    between atoms: N_20  and  C_19 
REMARK       I    between atoms: C_22  and  N_20 
ROOT
ATOM      1  C   LIG d   1       3.850  58.276 118.700  0.00  0.00     0.161 C 
ATOM      2  C   LIG d   1       3.222  59.405 118.150  0.00  0.00     0.016 C 
ATOM      3  C   LIG d   1       2.274  59.336 117.103  0.00  0.00     0.038 C 
ATOM      4  C   LIG d   1       1.774  58.111 116.635  0.00  0.00     0.028 C 
ATOM      5  C   LIG d   1       2.749  56.952 116.812  0.00  0.00    -0.047 C 
ATOM      6  C   LIG d   1       3.235  56.924 118.279  0.00  0.00     0.091 C 
ENDROOT
BRANCH   1   7
ATOM      7  O   LIG d   1       3.881  58.385 120.137  0.00  0.00    -0.368 OA
BRANCH   7   8
ATOM      8  C   LIG d   1       5.176  58.659 120.727  0.00  0.00     0.119 C 
BRANCH   8   9
ATOM      9  C   LIG d   1       5.186  60.139 121.156  0.00  0.00     0.028 C 
ATOM     10  C   LIG d   1       5.946  61.033 120.163  0.00  0.00     0.006 C 
ENDBRANCH   8   9
BRANCH   8  11
ATOM     11  C   LIG d   1       6.298  58.530 119.693  0.00  0.00     0.028 C 
ATOM     12  C   LIG d   1       7.263  57.373 120.002  0.00  0.00     0.006 C 
ENDBRANCH   8  11
ENDBRANCH   7   8
ENDBRANCH   1   7
BRANCH   6  13
ATOM     13  N   LIG d   1       4.257  55.872 118.517  0.00  0.00    -0.311 N 
ATOM     14  C   LIG d   1       4.178  54.985 119.508  0.00  0.00     0.210 C 
ATOM     15  C   LIG d   1       5.348  53.998 119.587  0.00  0.00     0.109 C 
ATOM     16  O   LIG d   1       3.235  54.900 120.308  0.00  0.00    -0.276 OA
ATOM     17  H   LIG d   1       5.041  55.848 117.895  0.00  0.00     0.149 HD
ENDBRANCH   6  13
BRANCH   5  18
ATOM     18  N   LIG d   1       2.050  55.717 116.411  0.00  0.00     0.381 N 
ATOM     19  H   LIG d   1       2.703  54.961 116.356  0.00  0.00    -0.090 HD
ATOM     20  H   LIG d   1       1.647  55.852 115.500  0.00  0.00    -0.090 HD
ATOM     21  H   LIG d   1       1.334  55.501 117.070  0.00  0.00    -0.090 HD
ENDBRANCH   5  18
BRANCH   3  22
ATOM     22  C   LIG d   1       1.846  60.501 116.486  0.00  0.00     0.382 C 
ATOM     23  O   LIG d   1       0.848  60.477 115.724  0.00  0.00    -0.241 OA
ATOM     24  O   LIG d   1       2.470  61.567 116.645  0.00  0.00    -0.241 OA
ENDBRANCH   3  22
TORSDOF 7
ENDMDL
MODEL 9
REMARK VINA RESULT:      -4.4     12.890     15.185
REMARK  7 active torsions:
REMARK  status: ('A' for Active; 'I' for Inactive)
REMARK    1  A    between atoms: C_2  and  C_3 
REMARK    2  A    between atoms: C_3  and  O_6 
REMARK    3  A    between atoms: C_3  and  C_4 
REMARK    4  A    between atoms: C_7  and  O_6 
REMARK    5  A    between atoms: C_9  and  C_10 
REMARK    6  A    between atoms: N_15  and  C_14 
REMARK    7  A    between atoms: N_20  and  C_19 
REMARK       I    between atoms: C_22  and  N_20 
ROOT
ATOM      1  C   LIG d   1      -5.575  78.701 117.140  0.00  0.00     0.161 C 
ATOM      2  C   LIG d   1      -4.172  78.624 117.170  0.00  0.00     0.016 C 
ATOM      3  C   LIG d   1      -3.425  78.507 118.365  0.00  0.00     0.038 C 
ATOM      4  C   LIG d   1      -4.042  78.306 119.609  0.00  0.00     0.028 C 
ATOM      5  C   LIG d   1      -5.452  78.882 119.685  0.00  0.00    -0.047 C 
ATOM      6  C   LIG d   1      -6.270  78.371 118.477  0.00  0.00     0.091 C 
ENDROOT
BRANCH   1   7
ATOM      7  O   LIG d   1      -6.087  77.859 116.088  0.00  0.00    -0.368 OA
BRANCH   7   8
ATOM      8  C   LIG d   1      -6.471  76.517 116.476  0.00  0.00     0.119 C 
BRANCH   8   9
ATOM      9  C   LIG d   1      -5.411  75.551 115.911  0.00  0.00     0.028 C 
ATOM     10  C   LIG d   1      -5.899  74.093 115.886  0.00  0.00     0.006 C 
ENDBRANCH   8   9
BRANCH   8  11
ATOM     11  C   LIG d   1      -7.789  76.101 115.817  0.00  0.00     0.028 C 
ATOM     12  C   LIG d   1      -8.961  76.048 116.810  0.00  0.00     0.006 C 
ENDBRANCH   8  11
ENDBRANCH   7   8
ENDBRANCH   1   7
BRANCH   6  13
ATOM     13  N   LIG d   1      -7.636  78.954 118.430  0.00  0.00    -0.311 N 
ATOM     14  C   LIG d   1      -7.879  80.229 118.131  0.00  0.00     0.210 C 
ATOM     15  C   LIG d   1      -9.357  80.630 118.158  0.00  0.00     0.109 C 
ATOM     16  O   LIG d   1      -7.013  81.059 117.814  0.00  0.00    -0.276 OA
ATOM     17  H   LIG d   1      -8.400  78.344 118.643  0.00  0.00     0.149 HD
ENDBRANCH   6  13
BRANCH   5  18
ATOM     18  N   LIG d   1      -6.027  78.482 120.984  0.00  0.00     0.381 N 
ATOM     19  H   LIG d   1      -7.000  78.275 120.874  0.00  0.00    -0.090 HD
ATOM     20  H   LIG d   1      -5.938  79.247 121.628  0.00  0.00    -0.090 HD
ATOM     21  H   LIG d   1      -5.548  77.683 121.337  0.00  0.00    -0.090 HD
ENDBRANCH   5  18
BRANCH   3  22
ATOM     22  C   LIG d   1      -2.045  78.631 118.327  0.00  0.00     0.382 C 
ATOM     23  O   LIG d   1      -1.519  79.602 117.731  0.00  0.00    -0.241 OA
ATOM     24  O   LIG d   1      -1.318  77.761 118.843  0.00  0.00    -0.241 OA
ENDBRANCH   3  22
TORSDOF 7
ENDMDL
