MODEL 1
REMARK VINA RESULT:      -5.5      0.000      0.000
REMARK  7 active torsions:
REMARK  status: ('A' for Active; 'I' for Inactive)
REMARK    1  A    between atoms: C_2  and  C_3 
REMARK    2  A    between atoms: C_3  and  O_6 
REMARK    3  A    between atoms: C_3  and  C_4 
REMARK    4  A    between atoms: C_7  and  O_6 
REMARK    5  A    between atoms: C_9  and  C_10 
REMARK    6  A    between atoms: N_15  and  C_14 
REMARK    7  A    between atoms: N_20  and  C_19 
REMARK       I    between atoms: C_22  and  N_20 
ROOT
ATOM      1  C   LIG d   1      -6.954  76.605 116.577  0.00  0.00     0.161 C 
ATOM      2  C   LIG d   1      -5.841  76.036 115.937  0.00  0.00     0.016 C 
ATOM      3  C   LIG d   1      -4.547  76.607 115.971  0.00  0.00     0.038 C 
ATOM      4  C   LIG d   1      -4.246  77.713 116.781  0.00  0.00     0.028 C 
ATOM      5  C   LIG d   1      -5.447  78.615 117.044  0.00  0.00    -0.047 C 
ATOM      6  C   LIG d   1      -6.622  77.751 117.556  0.00  0.00     0.091 C 
ENDROOT
BRANCH   1   7
ATOM      7  O   LIG d   1      -7.710  75.577 117.247  0.00  0.00    -0.368 OA
BRANCH   7   8
ATOM      8  C   LIG d   1      -8.320  74.577 116.395  0.00  0.00     0.119 C 
BRANCH   8   9
ATOM      9  C   LIG d   1      -9.831  74.876 116.337  0.00  0.00     0.028 C 
ATOM     10  C   LIG d   1     -10.252  75.964 117.339  0.00  0.00     0.006 C 
ENDBRANCH   8   9
BRANCH   8  11
ATOM     11  C   LIG d   1      -8.208  73.178 117.008  0.00  0.00     0.028 C 
ATOM     12  C   LIG d   1      -9.137  72.156 116.336  0.00  0.00     0.006 C 
ENDBRANCH   8  11
ENDBRANCH   7   8
ENDBRANCH   1   7
BRANCH   6  13
ATOM     13  N   LIG d   1      -7.863  78.543 117.759  0.00  0.00    -0.311 N 
ATOM     14  C   LIG d   1      -8.273  78.971 118.951  0.00  0.00     0.210 C 
ATOM     15  C   LIG d   1      -9.589  79.754 118.940  0.00  0.00     0.109 C 
ATOM     16  O   LIG d   1      -7.654  78.804 120.014  0.00  0.00    -0.276 OA
ATOM     17  H   LIG d   1      -8.409  78.751 116.946  0.00  0.00     0.149 HD
ENDBRANCH   6  13
BRANCH   5  18
ATOM     18  N   LIG d   1      -5.025  79.648 118.010  0.00  0.00     0.381 N 
ATOM     19  H   LIG d   1      -4.414  80.300 117.562  0.00  0.00    -0.090 HD
ATOM     20  H   LIG d   1      -4.522  79.206 118.758  0.00  0.00    -0.090 HD
ATOM     21  H   LIG d   1      -5.823  80.123 118.371  0.00  0.00    -0.090 HD
ENDBRANCH   5  18
BRANCH   3  22
ATOM     22  C   LIG d   1      -3.548  76.094 115.159  0.00  0.00     0.382 C 
ATOM     23  O   LIG d   1      -3.579  74.889 114.812  0.00  0.00    -0.241 OA
ATOM     24  O   LIG d   1      -2.592  76.809 114.805  0.00  0.00    -0.241 OA
ENDBRANCH   3  22
TORSDOF 7
ENDMDL
MODEL 2
REMARK VINA RESULT:      -5.3     14.122     17.062
REMARK  7 active torsions:
REMARK  status: ('A' for Active; 'I' for Inactive)
REMARK    1  A    between atoms: C_2  and  C_3 
REMARK    2  A    between atoms: C_3  and  O_6 
REMARK    3  A    between atoms: C_3  and  C_4 
REMARK    4  A    between atoms: C_7  and  O_6 
REMARK    5  A    between atoms: C_9  and  C_10 
REMARK    6  A    between atoms: N_15  and  C_14 
REMARK    7  A    between atoms: N_20  and  C_19 
REMARK       I    between atoms: C_22  and  N_20 
ROOT
ATOM      1  C   LIG d   1      -5.907  93.032 117.943  0.00  0.00     0.161 C 
ATOM      2  C   LIG d   1      -6.901  92.272 117.305  0.00  0.00     0.016 C 
ATOM      3  C   LIG d   1      -6.634  91.072 116.606  0.00  0.00     0.038 C 
ATOM      4  C   LIG d   1      -5.368  90.468 116.626  0.00  0.00     0.028 C 
ATOM      5  C   LIG d   1      -4.228  91.459 116.832  0.00  0.00    -0.047 C 
ATOM      6  C   LIG d   1      -4.538  92.331 118.070  0.00  0.00     0.091 C 
ENDROOT
BRANCH   1   7
ATOM      7  O   LIG d   1      -6.374  93.458 119.239  0.00  0.00    -0.368 OA
BRANCH   7   8
ATOM      8  C   LIG d   1      -6.679  94.868 119.375  0.00  0.00     0.119 C 
BRANCH   8   9
ATOM      9  C   LIG d   1      -5.704  95.455 120.414  0.00  0.00     0.028 C 
ATOM     10  C   LIG d   1      -4.944  96.680 119.879  0.00  0.00     0.006 C 
ENDBRANCH   8   9
BRANCH   8  11
ATOM     11  C   LIG d   1      -8.076  95.081 119.964  0.00  0.00     0.028 C 
ATOM     12  C   LIG d   1      -9.008  95.859 119.022  0.00  0.00     0.006 C 
ENDBRANCH   8  11
ENDBRANCH   7   8
ENDBRANCH   1   7
BRANCH   6  13
ATOM     13  N   LIG d   1      -3.513  93.384 118.294  0.00  0.00    -0.311 N 
ATOM     14  C   LIG d   1      -2.787  93.476 119.406  0.00  0.00     0.210 C 
ATOM     15  C   LIG d   1      -1.801  94.647 119.440  0.00  0.00     0.109 C 
ATOM     16  O   LIG d   1      -2.844  92.679 120.356  0.00  0.00    -0.276 OA
ATOM     17  H   LIG d   1      -3.379  94.054 117.561  0.00  0.00     0.149 HD
ENDBRANCH   6  13
BRANCH   5  18
ATOM     18  N   LIG d   1      -2.981  90.682 116.970  0.00  0.00     0.381 N 
ATOM     19  H   LIG d   1      -3.155  89.722 116.752  0.00  0.00    -0.090 HD
ATOM     20  H   LIG d   1      -2.667  90.738 117.923  0.00  0.00    -0.090 HD
ATOM     21  H   LIG d   1      -2.283  91.047 116.361  0.00  0.00    -0.090 HD
ENDBRANCH   5  18
BRANCH   3  22
ATOM     22  C   LIG d   1      -7.632  90.485 115.843  0.00  0.00     0.382 C 
ATOM     23  O   LIG d   1      -8.056  89.342 116.139  0.00  0.00    -0.241 OA
ATOM     24  O   LIG d   1      -8.083  91.065 114.837  0.00  0.00    -0.241 OA
ENDBRANCH   3  22
TORSDOF 7
ENDMDL
MODEL 3
REMARK VINA RESULT:      -5.3      1.953      5.344
REMARK  7 active torsions:
REMARK  status: ('A' for Active; 'I' for Inactive)
REMARK    1  A    between atoms: C_2  and  C_3 
REMARK    2  A    between atoms: C_3  and  O_6 
REMARK    3  A    between atoms: C_3  and  C_4 
REMARK    4  A    between atoms: C_7  and  O_6 
REMARK    5  A    between atoms: C_9  and  C_10 
REMARK    6  A    between atoms: N_15  and  C_14 
REMARK    7  A    between atoms: N_20  and  C_19 
REMARK       I    between atoms: C_22  and  N_20 
ROOT
ATOM      1  C   LIG d   1      -7.571  78.248 118.412  0.00  0.00     0.161 C 
ATOM      2  C   LIG d   1      -8.681  78.941 118.923  0.00  0.00     0.016 C 
ATOM      3  C   LIG d   1      -8.584  80.192 119.574  0.00  0.00     0.038 C 
ATOM      4  C   LIG d   1      -7.380  80.910 119.626  0.00  0.00     0.028 C 
ATOM      5  C   LIG d   1      -6.142  80.022 119.570  0.00  0.00    -0.047 C 
ATOM      6  C   LIG d   1      -6.264  79.067 118.361  0.00  0.00     0.091 C 
ENDROOT
BRANCH   1   7
ATOM      7  O   LIG d   1      -7.883  77.719 117.108  0.00  0.00    -0.368 OA
BRANCH   7   8
ATOM      8  C   LIG d   1      -7.952  76.276 117.005  0.00  0.00     0.119 C 
BRANCH   8   9
ATOM      9  C   LIG d   1      -7.524  75.892 115.575  0.00  0.00     0.028 C 
ATOM     10  C   LIG d   1      -6.177  75.151 115.545  0.00  0.00     0.006 C 
ENDBRANCH   8   9
BRANCH   8  11
ATOM     11  C   LIG d   1      -9.392  75.775 117.145  0.00  0.00     0.028 C 
ATOM     12  C   LIG d   1      -9.556  74.305 116.730  0.00  0.00     0.006 C 
ENDBRANCH   8  11
ENDBRANCH   7   8
ENDBRANCH   1   7
BRANCH   6  13
ATOM     13  N   LIG d   1      -5.134  78.105 118.281  0.00  0.00    -0.311 N 
ATOM     14  C   LIG d   1      -4.420  77.902 117.175  0.00  0.00     0.210 C 
ATOM     15  C   LIG d   1      -3.312  76.852 117.304  0.00  0.00     0.109 C 
ATOM     16  O   LIG d   1      -4.579  78.515 116.109  0.00  0.00    -0.276 OA
ATOM     17  H   LIG d   1      -4.916  77.588 119.110  0.00  0.00     0.149 HD
ENDBRANCH   6  13
BRANCH   5  18
ATOM     18  N   LIG d   1      -4.963  80.905 119.493  0.00  0.00     0.381 N 
ATOM     19  H   LIG d   1      -4.126  80.358 119.550  0.00  0.00    -0.090 HD
ATOM     20  H   LIG d   1      -4.980  81.538 120.272  0.00  0.00    -0.090 HD
ATOM     21  H   LIG d   1      -4.975  81.417 118.638  0.00  0.00    -0.090 HD
ENDBRANCH   5  18
BRANCH   3  22
ATOM     22  C   LIG d   1      -9.693  80.719 120.218  0.00  0.00     0.382 C 
ATOM     23  O   LIG d   1     -10.670  79.980 120.491  0.00  0.00    -0.241 OA
ATOM     24  O   LIG d   1      -9.748  81.934 120.490  0.00  0.00    -0.241 OA
ENDBRANCH   3  22
TORSDOF 7
ENDMDL
MODEL 4
REMARK VINA RESULT:      -5.1      1.966      4.949
REMARK  7 active torsions:
REMARK  status: ('A' for Active; 'I' for Inactive)
REMARK    1  A    between atoms: C_2  and  C_3 
REMARK    2  A    between atoms: C_3  and  O_6 
REMARK    3  A    between atoms: C_3  and  C_4 
REMARK    4  A    between atoms: C_7  and  O_6 
REMARK    5  A    between atoms: C_9  and  C_10 
REMARK    6  A    between atoms: N_15  and  C_14 
REMARK    7  A    between atoms: N_20  and  C_19 
REMARK       I    between atoms: C_22  and  N_20 
ROOT
ATOM      1  C   LIG d   1      -6.353  77.334 117.021  0.00  0.00     0.161 C 
ATOM      2  C   LIG d   1      -7.006  76.154 116.629  0.00  0.00     0.016 C 
ATOM      3  C   LIG d   1      -8.383  75.917 116.848  0.00  0.00     0.038 C 
ATOM      4  C   LIG d   1      -9.237  76.914 117.342  0.00  0.00     0.028 C 
ATOM      5  C   LIG d   1      -8.528  77.941 118.217  0.00  0.00    -0.047 C 
ATOM      6  C   LIG d   1      -7.291  78.478 117.460  0.00  0.00     0.091 C 
ENDROOT
BRANCH   1   7
ATOM      7  O   LIG d   1      -5.478  77.782 115.967  0.00  0.00    -0.368 OA
BRANCH   7   8
ATOM      8  C   LIG d   1      -4.064  77.533 116.163  0.00  0.00     0.119 C 
BRANCH   8   9
ATOM      9  C   LIG d   1      -3.715  76.231 115.415  0.00  0.00     0.028 C 
ATOM     10  C   LIG d   1      -3.183  75.138 116.357  0.00  0.00     0.006 C 
ENDBRANCH   8   9
BRANCH   8  11
ATOM     11  C   LIG d   1      -3.747  77.253 117.635  0.00  0.00     0.028 C 
ATOM     12  C   LIG d   1      -3.033  78.426 118.325  0.00  0.00     0.006 C 
ENDBRANCH   8  11
ENDBRANCH   7   8
ENDBRANCH   1   7
BRANCH   6  13
ATOM     13  N   LIG d   1      -6.492  79.426 118.279  0.00  0.00    -0.311 N 
ATOM     14  C   LIG d   1      -6.601  80.750 118.183  0.00  0.00     0.210 C 
ATOM     15  C   LIG d   1      -5.671  81.544 119.105  0.00  0.00     0.109 C 
ATOM     16  O   LIG d   1      -7.403  81.342 117.445  0.00  0.00    -0.276 OA
ATOM     17  H   LIG d   1      -5.839  79.031 118.927  0.00  0.00     0.149 HD
ENDBRANCH   6  13
BRANCH   5  18
ATOM     18  N   LIG d   1      -9.505  78.995 118.549  0.00  0.00     0.381 N 
ATOM     19  H   LIG d   1      -9.261  79.421 119.421  0.00  0.00    -0.090 HD
ATOM     20  H   LIG d   1     -10.414  78.577 118.645  0.00  0.00    -0.090 HD
ATOM     21  H   LIG d   1      -9.522  79.683 117.829  0.00  0.00    -0.090 HD
ENDBRANCH   5  18
BRANCH   3  22
ATOM     22  C   LIG d   1      -8.910  74.657 116.609  0.00  0.00     0.382 C 
ATOM     23  O   LIG d   1     -10.112  74.534 116.272  0.00  0.00    -0.241 OA
ATOM     24  O   LIG d   1      -8.210  73.639 116.770  0.00  0.00    -0.241 OA
ENDBRANCH   3  22
TORSDOF 7
ENDMDL
MODEL 5
REMARK VINA RESULT:      -5.1      2.416      3.417
REMARK  7 active torsions:
REMARK  status: ('A' for Active; 'I' for Inactive)
REMARK    1  A    between atoms: C_2  and  C_3 
REMARK    2  A    between atoms: C_3  and  O_6 
REMARK    3  A    between atoms: C_3  and  C_4 
REMARK    4  A    between atoms: C_7  and  O_6 
REMARK    5  A    between atoms: C_9  and  C_10 
REMARK    6  A    between atoms: N_15  and  C_14 
REMARK    7  A    between atoms: N_20  and  C_19 
REMARK       I    between atoms: C_22  and  N_20 
ROOT
ATOM      1  C   LIG d   1      -6.218  79.031 117.383  0.00  0.00     0.161 C 
ATOM      2  C   LIG d   1      -5.018  78.383 117.721  0.00  0.00     0.016 C 
ATOM      3  C   LIG d   1      -4.481  78.373 119.029  0.00  0.00     0.038 C 
ATOM      4  C   LIG d   1      -5.190  78.886 120.126  0.00  0.00     0.028 C 
ATOM      5  C   LIG d   1      -6.169  79.993 119.749  0.00  0.00    -0.047 C 
ATOM      6  C   LIG d   1      -7.061  79.501 118.587  0.00  0.00     0.091 C 
ENDROOT
BRANCH   1   7
ATOM      7  O   LIG d   1      -7.003  78.184 116.521  0.00  0.00    -0.368 OA
BRANCH   7   8
ATOM      8  C   LIG d   1      -7.017  76.774 116.852  0.00  0.00     0.119 C 
BRANCH   8   9
ATOM      9  C   LIG d   1      -6.875  75.987 115.535  0.00  0.00     0.028 C 
ATOM     10  C   LIG d   1      -5.499  75.316 115.397  0.00  0.00     0.006 C 
ENDBRANCH   8   9
BRANCH   8  11
ATOM     11  C   LIG d   1      -8.369  76.351 117.434  0.00  0.00     0.028 C 
ATOM     12  C   LIG d   1      -9.080  75.290 116.579  0.00  0.00     0.006 C 
ENDBRANCH   8  11
ENDBRANCH   7   8
ENDBRANCH   1   7
BRANCH   6  13
ATOM     13  N   LIG d   1      -7.991  80.553 118.101  0.00  0.00    -0.311 N 
ATOM     14  C   LIG d   1      -9.312  80.393 118.041  0.00  0.00     0.210 C 
ATOM     15  C   LIG d   1     -10.085  81.596 117.490  0.00  0.00     0.109 C 
ATOM     16  O   LIG d   1      -9.920  79.382 118.423  0.00  0.00    -0.276 OA
ATOM     17  H   LIG d   1      -7.585  81.418 117.801  0.00  0.00     0.149 HD
ENDBRANCH   6  13
BRANCH   5  18
ATOM     18  N   LIG d   1      -6.937  80.340 120.960  0.00  0.00     0.381 N 
ATOM     19  H   LIG d   1      -6.849  81.318 121.149  0.00  0.00    -0.090 HD
ATOM     20  H   LIG d   1      -6.560  79.832 121.741  0.00  0.00    -0.090 HD
ATOM     21  H   LIG d   1      -7.897  80.104 120.834  0.00  0.00    -0.090 HD
ENDBRANCH   5  18
BRANCH   3  22
ATOM     22  C   LIG d   1      -3.203  77.881 119.244  0.00  0.00     0.382 C 
ATOM     23  O   LIG d   1      -2.709  77.049 118.445  0.00  0.00    -0.241 OA
ATOM     24  O   LIG d   1      -2.554  78.225 120.250  0.00  0.00    -0.241 OA
ENDBRANCH   3  22
TORSDOF 7
ENDMDL
MODEL 6
REMARK VINA RESULT:      -5.0     12.876     15.354
REMARK  7 active torsions:
REMARK  status: ('A' for Active; 'I' for Inactive)
REMARK    1  A    between atoms: C_2  and  C_3 
REMARK    2  A    between atoms: C_3  and  O_6 
REMARK    3  A    between atoms: C_3  and  C_4 
REMARK    4  A    between atoms: C_7  and  O_6 
REMARK    5  A    between atoms: C_9  and  C_10 
REMARK    6  A    between atoms: N_15  and  C_14 
REMARK    7  A    between atoms: N_20  and  C_19 
REMARK       I    between atoms: C_22  and  N_20 
ROOT
ATOM      1  C   LIG d   1      -4.366  90.821 117.227  0.00  0.00     0.161 C 
ATOM      2  C   LIG d   1      -3.289  91.644 117.598  0.00  0.00     0.016 C 
ATOM      3  C   LIG d   1      -3.442  92.840 118.336  0.00  0.00     0.038 C 
ATOM      4  C   LIG d   1      -4.676  93.218 118.887  0.00  0.00     0.028 C 
ATOM      5  C   LIG d   1      -5.875  92.683 118.112  0.00  0.00    -0.047 C 
ATOM      6  C   LIG d   1      -5.705  91.159 117.914  0.00  0.00     0.091 C 
ENDROOT
BRANCH   1   7
ATOM      7  O   LIG d   1      -4.023  89.439 117.450  0.00  0.00    -0.368 OA
BRANCH   7   8
ATOM      8  C   LIG d   1      -2.860  89.196 118.279  0.00  0.00     0.119 C 
BRANCH   8   9
ATOM      9  C   LIG d   1      -2.063  88.046 117.633  0.00  0.00     0.028 C 
ATOM     10  C   LIG d   1      -1.572  87.019 118.668  0.00  0.00     0.006 C 
ENDBRANCH   8   9
BRANCH   8  11
ATOM     11  C   LIG d   1      -3.261  88.683 119.665  0.00  0.00     0.028 C 
ATOM     12  C   LIG d   1      -3.115  89.750 120.762  0.00  0.00     0.006 C 
ENDBRANCH   8  11
ENDBRANCH   7   8
ENDBRANCH   1   7
BRANCH   6  13
ATOM     13  N   LIG d   1      -6.794  90.569 117.092  0.00  0.00    -0.311 N 
ATOM     14  C   LIG d   1      -7.117  91.011 115.878  0.00  0.00     0.210 C 
ATOM     15  C   LIG d   1      -8.284  90.275 115.212  0.00  0.00     0.109 C 
ATOM     16  O   LIG d   1      -6.528  91.921 115.276  0.00  0.00    -0.276 OA
ATOM     17  H   LIG d   1      -7.304  89.806 117.491  0.00  0.00     0.149 HD
ENDBRANCH   6  13
BRANCH   5  18
ATOM     18  N   LIG d   1      -7.090  93.035 118.871  0.00  0.00     0.381 N 
ATOM     19  H   LIG d   1      -7.384  92.253 119.421  0.00  0.00    -0.090 HD
ATOM     20  H   LIG d   1      -7.824  93.260 118.224  0.00  0.00    -0.090 HD
ATOM     21  H   LIG d   1      -6.908  93.816 119.463  0.00  0.00    -0.090 HD
ENDBRANCH   5  18
BRANCH   3  22
ATOM     22  C   LIG d   1      -2.361  93.693 118.495  0.00  0.00     0.382 C 
ATOM     23  O   LIG d   1      -2.125  94.204 119.616  0.00  0.00    -0.241 OA
ATOM     24  O   LIG d   1      -1.644  93.992 117.522  0.00  0.00    -0.241 OA
ENDBRANCH   3  22
TORSDOF 7
ENDMDL
MODEL 7
REMARK VINA RESULT:      -5.0     12.732     14.971
REMARK  7 active torsions:
REMARK  status: ('A' for Active; 'I' for Inactive)
REMARK    1  A    between atoms: C_2  and  C_3 
REMARK    2  A    between atoms: C_3  and  O_6 
REMARK    3  A    between atoms: C_3  and  C_4 
REMARK    4  A    between atoms: C_7  and  O_6 
REMARK    5  A    between atoms: C_9  and  C_10 
REMARK    6  A    between atoms: N_15  and  C_14 
REMARK    7  A    between atoms: N_20  and  C_19 
REMARK       I    between atoms: C_22  and  N_20 
ROOT
ATOM      1  C   LIG d   1      -2.861  89.806 118.288  0.00  0.00     0.161 C 
ATOM      2  C   LIG d   1      -4.249  89.882 118.088  0.00  0.00     0.016 C 
ATOM      3  C   LIG d   1      -4.912  91.060 117.672  0.00  0.00     0.038 C 
ATOM      4  C   LIG d   1      -4.208  92.208 117.281  0.00  0.00     0.028 C 
ATOM      5  C   LIG d   1      -2.843  92.339 117.949  0.00  0.00    -0.047 C 
ATOM      6  C   LIG d   1      -2.064  91.018 117.760  0.00  0.00     0.091 C 
ENDROOT
BRANCH   1   7
ATOM      7  O   LIG d   1      -2.350  88.584 117.719  0.00  0.00    -0.368 OA
BRANCH   7   8
ATOM      8  C   LIG d   1      -2.140  87.490 118.645  0.00  0.00     0.119 C 
BRANCH   8   9
ATOM      9  C   LIG d   1      -1.948  88.099 120.047  0.00  0.00     0.028 C 
ATOM     10  C   LIG d   1      -2.693  87.311 121.137  0.00  0.00     0.006 C 
ENDBRANCH   8   9
BRANCH   8  11
ATOM     11  C   LIG d   1      -0.835  86.748 118.343  0.00  0.00     0.028 C 
ATOM     12  C   LIG d   1      -0.130  87.272 117.082  0.00  0.00     0.006 C 
ENDBRANCH   8  11
ENDBRANCH   7   8
ENDBRANCH   1   7
BRANCH   6  13
ATOM     13  N   LIG d   1      -0.750  91.030 118.455  0.00  0.00    -0.311 N 
ATOM     14  C   LIG d   1       0.417  90.945 117.819  0.00  0.00     0.210 C 
ATOM     15  C   LIG d   1       1.650  90.956 118.727  0.00  0.00     0.109 C 
ATOM     16  O   LIG d   1       0.549  90.895 116.587  0.00  0.00    -0.276 OA
ATOM     17  H   LIG d   1      -0.764  91.100 119.454  0.00  0.00     0.149 HD
ENDBRANCH   6  13
BRANCH   5  18
ATOM     18  N   LIG d   1      -2.163  93.502 117.349  0.00  0.00     0.381 N 
ATOM     19  H   LIG d   1      -1.394  93.779 117.925  0.00  0.00    -0.090 HD
ATOM     20  H   LIG d   1      -2.812  94.268 117.299  0.00  0.00    -0.090 HD
ATOM     21  H   LIG d   1      -1.838  93.274 116.435  0.00  0.00    -0.090 HD
ENDBRANCH   5  18
BRANCH   3  22
ATOM     22  C   LIG d   1      -6.298  91.108 117.683  0.00  0.00     0.382 C 
ATOM     23  O   LIG d   1      -6.890  91.945 118.407  0.00  0.00    -0.241 OA
ATOM     24  O   LIG d   1      -6.964  90.296 117.013  0.00  0.00    -0.241 OA
ENDBRANCH   3  22
TORSDOF 7
ENDMDL
MODEL 8
REMARK VINA RESULT:      -4.8     13.448     15.989
REMARK  7 active torsions:
REMARK  status: ('A' for Active; 'I' for Inactive)
REMARK    1  A    between atoms: C_2  and  C_3 
REMARK    2  A    between atoms: C_3  and  O_6 
REMARK    3  A    between atoms: C_3  and  C_4 
REMARK    4  A    between atoms: C_7  and  O_6 
REMARK    5  A    between atoms: C_9  and  C_10 
REMARK    6  A    between atoms: N_15  and  C_14 
REMARK    7  A    between atoms: N_20  and  C_19 
REMARK       I    between atoms: C_22  and  N_20 
ROOT
ATOM      1  C   LIG d   1      -4.016  91.371 117.764  0.00  0.00     0.161 C 
ATOM      2  C   LIG d   1      -4.713  90.761 116.709  0.00  0.00     0.016 C 
ATOM      3  C   LIG d   1      -5.956  91.228 116.224  0.00  0.00     0.038 C 
ATOM      4  C   LIG d   1      -6.518  92.435 116.665  0.00  0.00     0.028 C 
ATOM      5  C   LIG d   1      -6.100  92.816 118.081  0.00  0.00    -0.047 C 
ATOM      6  C   LIG d   1      -4.559  92.754 118.183  0.00  0.00     0.091 C 
ENDROOT
BRANCH   1   7
ATOM      7  O   LIG d   1      -2.615  91.461 117.437  0.00  0.00    -0.368 OA
BRANCH   7   8
ATOM      8  C   LIG d   1      -1.822  90.277 117.699  0.00  0.00     0.119 C 
BRANCH   8   9
ATOM      9  C   LIG d   1      -2.247  89.731 119.077  0.00  0.00     0.028 C 
ATOM     10  C   LIG d   1      -2.702  88.264 119.011  0.00  0.00     0.006 C 
ENDBRANCH   8   9
BRANCH   8  11
ATOM     11  C   LIG d   1      -0.337  90.621 117.840  0.00  0.00     0.028 C 
ATOM     12  C   LIG d   1      -0.096  91.904 118.651  0.00  0.00     0.006 C 
ENDBRANCH   8  11
ENDBRANCH   7   8
ENDBRANCH   1   7
BRANCH   6  13
ATOM     13  N   LIG d   1      -4.070  93.030 119.559  0.00  0.00    -0.311 N 
ATOM     14  C   LIG d   1      -3.150  93.952 119.839  0.00  0.00     0.210 C 
ATOM     15  C   LIG d   1      -2.774  94.061 121.320  0.00  0.00     0.109 C 
ATOM     16  O   LIG d   1      -2.632  94.711 119.006  0.00  0.00    -0.276 OA
ATOM     17  H   LIG d   1      -4.460  92.482 120.301  0.00  0.00     0.149 HD
ENDBRANCH   6  13
BRANCH   5  18
ATOM     18  N   LIG d   1      -6.644  94.158 118.361  0.00  0.00     0.381 N 
ATOM     19  H   LIG d   1      -7.408  94.087 119.003  0.00  0.00    -0.090 HD
ATOM     20  H   LIG d   1      -6.988  94.555 117.504  0.00  0.00    -0.090 HD
ATOM     21  H   LIG d   1      -5.933  94.742 118.744  0.00  0.00    -0.090 HD
ENDBRANCH   5  18
BRANCH   3  22
ATOM     22  C   LIG d   1      -6.671  90.463 115.315  0.00  0.00     0.382 C 
ATOM     23  O   LIG d   1      -6.147  89.443 114.805  0.00  0.00    -0.241 OA
ATOM     24  O   LIG d   1      -7.817  90.804 114.965  0.00  0.00    -0.241 OA
ENDBRANCH   3  22
TORSDOF 7
ENDMDL
MODEL 9
REMARK VINA RESULT:      -4.6     21.817     24.319
REMARK  7 active torsions:
REMARK  status: ('A' for Active; 'I' for Inactive)
REMARK    1  A    between atoms: C_2  and  C_3 
REMARK    2  A    between atoms: C_3  and  O_6 
REMARK    3  A    between atoms: C_3  and  C_4 
REMARK    4  A    between atoms: C_7  and  O_6 
REMARK    5  A    between atoms: C_9  and  C_10 
REMARK    6  A    between atoms: N_15  and  C_14 
REMARK    7  A    between atoms: N_20  and  C_19 
REMARK       I    between atoms: C_22  and  N_20 
ROOT
ATOM      1  C   LIG d   1     -20.659  96.667 119.107  0.00  0.00     0.161 C 
ATOM      2  C   LIG d   1     -20.078  95.511 119.654  0.00  0.00     0.016 C 
ATOM      3  C   LIG d   1     -20.530  94.202 119.366  0.00  0.00     0.038 C 
ATOM      4  C   LIG d   1     -21.503  93.953 118.387  0.00  0.00     0.028 C 
ATOM      5  C   LIG d   1     -22.466  95.117 118.179  0.00  0.00    -0.047 C 
ATOM      6  C   LIG d   1     -21.650  96.409 117.952  0.00  0.00     0.091 C 
ENDROOT
BRANCH   1   7
ATOM      7  O   LIG d   1     -19.627  97.581 118.687  0.00  0.00    -0.368 OA
BRANCH   7   8
ATOM      8  C   LIG d   1     -18.551  97.011 117.903  0.00  0.00     0.119 C 
BRANCH   8   9
ATOM      9  C   LIG d   1     -17.223  97.485 118.524  0.00  0.00     0.028 C 
ATOM     10  C   LIG d   1     -16.439  96.337 119.181  0.00  0.00     0.006 C 
ENDBRANCH   8   9
BRANCH   8  11
ATOM     11  C   LIG d   1     -18.550  97.562 116.474  0.00  0.00     0.028 C 
ATOM     12  C   LIG d   1     -19.046  96.538 115.440  0.00  0.00     0.006 C 
ENDBRANCH   8  11
ENDBRANCH   7   8
ENDBRANCH   1   7
BRANCH   6  13
ATOM     13  N   LIG d   1     -22.515  97.611 117.824  0.00  0.00    -0.311 N 
ATOM     14  C   LIG d   1     -22.684  98.274 116.681  0.00  0.00     0.210 C 
ATOM     15  C   LIG d   1     -23.602  99.497 116.773  0.00  0.00     0.109 C 
ATOM     16  O   LIG d   1     -22.187  97.947 115.593  0.00  0.00    -0.276 OA
ATOM     17  H   LIG d   1     -22.981  97.927 118.652  0.00  0.00     0.149 HD
ENDBRANCH   6  13
BRANCH   5  18
ATOM     18  N   LIG d   1     -23.338  94.776 117.040  0.00  0.00     0.381 N 
ATOM     19  H   LIG d   1     -23.787  95.602 116.698  0.00  0.00    -0.090 HD
ATOM     20  H   LIG d   1     -24.048  94.137 117.353  0.00  0.00    -0.090 HD
ATOM     21  H   LIG d   1     -22.802  94.356 116.313  0.00  0.00    -0.090 HD
ENDBRANCH   5  18
BRANCH   3  22
ATOM     22  C   LIG d   1     -20.033  93.129 120.090  0.00  0.00     0.382 C 
ATOM     23  O   LIG d   1     -19.340  93.332 121.116  0.00  0.00    -0.241 OA
ATOM     24  O   LIG d   1     -20.233  91.961 119.706  0.00  0.00    -0.241 OA
ENDBRANCH   3  22
TORSDOF 7
ENDMDL
