MODEL 1
REMARK VINA RESULT:      -5.6      0.000      0.000
REMARK  7 active torsions:
REMARK  status: ('A' for Active; 'I' for Inactive)
REMARK    1  A    between atoms: C_2  and  C_3 
REMARK    2  A    between atoms: C_3  and  O_6 
REMARK    3  A    between atoms: C_3  and  C_4 
REMARK    4  A    between atoms: C_7  and  O_6 
REMARK    5  A    between atoms: C_9  and  C_10 
REMARK    6  A    between atoms: N_15  and  C_14 
REMARK    7  A    between atoms: N_20  and  C_19 
REMARK       I    between atoms: C_22  and  N_20 
ROOT
ATOM      1  C   LIG d   1      -4.400  92.524 118.065  0.00  0.00     0.161 C 
ATOM      2  C   LIG d   1      -4.949  91.714 117.057  0.00  0.00     0.016 C 
ATOM      3  C   LIG d   1      -6.186  91.985 116.429  0.00  0.00     0.038 C 
ATOM      4  C   LIG d   1      -6.892  93.175 116.663  0.00  0.00     0.028 C 
ATOM      5  C   LIG d   1      -6.628  93.775 118.040  0.00  0.00    -0.047 C 
ATOM      6  C   LIG d   1      -5.101  93.885 118.255  0.00  0.00     0.091 C 
ENDROOT
BRANCH   1   7
ATOM      7  O   LIG d   1      -2.991  92.715 117.826  0.00  0.00    -0.368 OA
BRANCH   7   8
ATOM      8  C   LIG d   1      -2.093  92.084 118.771  0.00  0.00     0.119 C 
BRANCH   8   9
ATOM      9  C   LIG d   1      -0.850  92.986 118.900  0.00  0.00     0.028 C 
ATOM     10  C   LIG d   1      -0.011  93.016 117.611  0.00  0.00     0.006 C 
ENDBRANCH   8   9
BRANCH   8  11
ATOM     11  C   LIG d   1      -1.571  90.747 118.238  0.00  0.00     0.028 C 
ATOM     12  C   LIG d   1      -2.241  89.536 118.906  0.00  0.00     0.006 C 
ENDBRANCH   8  11
ENDBRANCH   7   8
ENDBRANCH   1   7
BRANCH   6  13
ATOM     13  N   LIG d   1      -4.754  94.385 119.611  0.00  0.00    -0.311 N 
ATOM     14  C   LIG d   1      -4.542  95.670 119.886  0.00  0.00     0.210 C 
ATOM     15  C   LIG d   1      -4.177  95.967 121.344  0.00  0.00     0.109 C 
ATOM     16  O   LIG d   1      -4.653  96.596 119.069  0.00  0.00    -0.276 OA
ATOM     17  H   LIG d   1      -4.674  93.704 120.341  0.00  0.00     0.149 HD
ENDBRANCH   6  13
BRANCH   5  18
ATOM     18  N   LIG d   1      -7.316  95.078 118.097  0.00  0.00     0.381 N 
ATOM     19  H   LIG d   1      -7.832  95.152 118.951  0.00  0.00    -0.090 HD
ATOM     20  H   LIG d   1      -7.963  95.138 117.331  0.00  0.00    -0.090 HD
ATOM     21  H   LIG d   1      -6.651  95.818 118.038  0.00  0.00    -0.090 HD
ENDBRANCH   5  18
BRANCH   3  22
ATOM     22  C   LIG d   1      -6.750  91.040 115.585  0.00  0.00     0.382 C 
ATOM     23  O   LIG d   1      -6.082  90.039 115.230  0.00  0.00    -0.241 OA
ATOM     24  O   LIG d   1      -7.903  91.198 115.140  0.00  0.00    -0.241 OA
ENDBRANCH   3  22
TORSDOF 7
ENDMDL
MODEL 2
REMARK VINA RESULT:      -5.6     13.623     16.122
REMARK  7 active torsions:
REMARK  status: ('A' for Active; 'I' for Inactive)
REMARK    1  A    between atoms: C_2  and  C_3 
REMARK    2  A    between atoms: C_3  and  O_6 
REMARK    3  A    between atoms: C_3  and  C_4 
REMARK    4  A    between atoms: C_7  and  O_6 
REMARK    5  A    between atoms: C_9  and  C_10 
REMARK    6  A    between atoms: N_15  and  C_14 
REMARK    7  A    between atoms: N_20  and  C_19 
REMARK       I    between atoms: C_22  and  N_20 
ROOT
ATOM      1  C   LIG d   1      -7.323  77.458 117.974  0.00  0.00     0.161 C 
ATOM      2  C   LIG d   1      -8.528  78.114 118.276  0.00  0.00     0.016 C 
ATOM      3  C   LIG d   1      -8.636  79.517 118.419  0.00  0.00     0.038 C 
ATOM      4  C   LIG d   1      -7.569  80.377 118.119  0.00  0.00     0.028 C 
ATOM      5  C   LIG d   1      -6.200  79.730 118.300  0.00  0.00    -0.047 C 
ATOM      6  C   LIG d   1      -6.173  78.388 117.533  0.00  0.00     0.091 C 
ENDROOT
BRANCH   1   7
ATOM      7  O   LIG d   1      -7.557  76.443 116.978  0.00  0.00    -0.368 OA
BRANCH   7   8
ATOM      8  C   LIG d   1      -8.069  75.178 117.465  0.00  0.00     0.119 C 
BRANCH   8   9
ATOM      9  C   LIG d   1      -7.191  74.062 116.866  0.00  0.00     0.028 C 
ATOM     10  C   LIG d   1      -6.002  74.617 116.064  0.00  0.00     0.006 C 
ENDBRANCH   8   9
BRANCH   8  11
ATOM     11  C   LIG d   1      -9.482  74.909 116.939  0.00  0.00     0.028 C 
ATOM     12  C   LIG d   1      -9.899  73.436 117.077  0.00  0.00     0.006 C 
ENDBRANCH   8  11
ENDBRANCH   7   8
ENDBRANCH   1   7
BRANCH   6  13
ATOM     13  N   LIG d   1      -4.898  77.649 117.727  0.00  0.00    -0.311 N 
ATOM     14  C   LIG d   1      -3.885  77.697 116.864  0.00  0.00     0.210 C 
ATOM     15  C   LIG d   1      -2.671  76.844 117.245  0.00  0.00     0.109 C 
ATOM     16  O   LIG d   1      -3.864  78.389 115.835  0.00  0.00    -0.276 OA
ATOM     17  H   LIG d   1      -4.818  77.087 118.552  0.00  0.00     0.149 HD
ENDBRANCH   6  13
BRANCH   5  18
ATOM     18  N   LIG d   1      -5.187  80.689 117.821  0.00  0.00     0.381 N 
ATOM     19  H   LIG d   1      -4.601  80.251 117.139  0.00  0.00    -0.090 HD
ATOM     20  H   LIG d   1      -4.612  80.969 118.597  0.00  0.00    -0.090 HD
ATOM     21  H   LIG d   1      -5.633  81.486 117.424  0.00  0.00    -0.090 HD
ENDBRANCH   5  18
BRANCH   3  22
ATOM     22  C   LIG d   1      -9.810  80.070 118.906  0.00  0.00     0.382 C 
ATOM     23  O   LIG d   1     -10.338  81.043 118.315  0.00  0.00    -0.241 OA
ATOM     24  O   LIG d   1     -10.325  79.637 119.955  0.00  0.00    -0.241 OA
ENDBRANCH   3  22
TORSDOF 7
ENDMDL
MODEL 3
REMARK VINA RESULT:      -5.4     33.834     35.594
REMARK  7 active torsions:
REMARK  status: ('A' for Active; 'I' for Inactive)
REMARK    1  A    between atoms: C_2  and  C_3 
REMARK    2  A    between atoms: C_3  and  O_6 
REMARK    3  A    between atoms: C_3  and  C_4 
REMARK    4  A    between atoms: C_7  and  O_6 
REMARK    5  A    between atoms: C_9  and  C_10 
REMARK    6  A    between atoms: N_15  and  C_14 
REMARK    7  A    between atoms: N_20  and  C_19 
REMARK       I    between atoms: C_22  and  N_20 
ROOT
ATOM      1  C   LIG d   1       0.202  58.522 119.528  0.00  0.00     0.161 C 
ATOM      2  C   LIG d   1      -1.167  58.253 119.364  0.00  0.00     0.016 C 
ATOM      3  C   LIG d   1      -1.857  58.441 118.145  0.00  0.00     0.038 C 
ATOM      4  C   LIG d   1      -1.187  58.772 116.957  0.00  0.00     0.028 C 
ATOM      5  C   LIG d   1       0.108  59.542 117.187  0.00  0.00    -0.047 C 
ATOM      6  C   LIG d   1       0.972  58.777 118.215  0.00  0.00     0.091 C 
ENDROOT
BRANCH   1   7
ATOM      7  O   LIG d   1       0.824  57.458 120.275  0.00  0.00    -0.368 OA
BRANCH   7   8
ATOM      8  C   LIG d   1       0.268  56.134 120.082  0.00  0.00     0.119 C 
BRANCH   8   9
ATOM      9  C   LIG d   1       0.185  55.460 121.465  0.00  0.00     0.028 C 
ATOM     10  C   LIG d   1      -0.175  53.968 121.370  0.00  0.00     0.006 C 
ENDBRANCH   8   9
BRANCH   8  11
ATOM     11  C   LIG d   1       1.207  55.250 119.256  0.00  0.00     0.028 C 
ATOM     12  C   LIG d   1       0.789  55.152 117.780  0.00  0.00     0.006 C 
ENDBRANCH   8  11
ENDBRANCH   7   8
ENDBRANCH   1   7
BRANCH   6  13
ATOM     13  N   LIG d   1       2.221  59.505 118.560  0.00  0.00    -0.311 N 
ATOM     14  C   LIG d   1       3.409  58.913 118.670  0.00  0.00     0.210 C 
ATOM     15  C   LIG d   1       4.563  59.844 119.054  0.00  0.00     0.109 C 
ATOM     16  O   LIG d   1       3.622  57.710 118.454  0.00  0.00    -0.276 OA
ATOM     17  H   LIG d   1       2.145  60.490 118.722  0.00  0.00     0.149 HD
ENDBRANCH   6  13
BRANCH   5  18
ATOM     18  N   LIG d   1       0.771  59.700 115.878  0.00  0.00     0.381 N 
ATOM     19  H   LIG d   1       0.832  58.813 115.421  0.00  0.00    -0.090 HD
ATOM     20  H   LIG d   1       1.703  60.044 116.026  0.00  0.00    -0.090 HD
ATOM     21  H   LIG d   1       0.258  60.339 115.312  0.00  0.00    -0.090 HD
ENDBRANCH   5  18
BRANCH   3  22
ATOM     22  C   LIG d   1      -3.240  58.338 118.115  0.00  0.00     0.382 C 
ATOM     23  O   LIG d   1      -3.803  57.320 118.583  0.00  0.00    -0.241 OA
ATOM     24  O   LIG d   1      -3.928  59.231 117.585  0.00  0.00    -0.241 OA
ENDBRANCH   3  22
TORSDOF 7
ENDMDL
MODEL 4
REMARK VINA RESULT:      -5.4     33.967     36.140
REMARK  7 active torsions:
REMARK  status: ('A' for Active; 'I' for Inactive)
REMARK    1  A    between atoms: C_2  and  C_3 
REMARK    2  A    between atoms: C_3  and  O_6 
REMARK    3  A    between atoms: C_3  and  C_4 
REMARK    4  A    between atoms: C_7  and  O_6 
REMARK    5  A    between atoms: C_9  and  C_10 
REMARK    6  A    between atoms: N_15  and  C_14 
REMARK    7  A    between atoms: N_20  and  C_19 
REMARK       I    between atoms: C_22  and  N_20 
ROOT
ATOM      1  C   LIG d   1       1.357  57.768 118.271  0.00  0.00     0.161 C 
ATOM      2  C   LIG d   1       0.432  58.696 117.763  0.00  0.00     0.016 C 
ATOM      3  C   LIG d   1      -0.689  58.329 116.983  0.00  0.00     0.038 C 
ATOM      4  C   LIG d   1      -1.046  56.988 116.783  0.00  0.00     0.028 C 
ATOM      5  C   LIG d   1       0.137  56.029 116.851  0.00  0.00    -0.047 C 
ATOM      6  C   LIG d   1       0.922  56.292 118.157  0.00  0.00     0.091 C 
ENDROOT
BRANCH   1   7
ATOM      7  O   LIG d   1       1.673  58.093 119.639  0.00  0.00    -0.368 OA
BRANCH   7   8
ATOM      8  C   LIG d   1       3.064  58.383 119.920  0.00  0.00     0.119 C 
BRANCH   8   9
ATOM      9  C   LIG d   1       3.128  59.796 120.532  0.00  0.00     0.028 C 
ATOM     10  C   LIG d   1       1.780  60.241 121.124  0.00  0.00     0.006 C 
ENDBRANCH   8   9
BRANCH   8  11
ATOM     11  C   LIG d   1       3.888  58.462 118.632  0.00  0.00     0.028 C 
ATOM     12  C   LIG d   1       4.450  59.868 118.369  0.00  0.00     0.006 C 
ENDBRANCH   8  11
ENDBRANCH   7   8
ENDBRANCH   1   7
BRANCH   6  13
ATOM     13  N   LIG d   1       2.144  55.453 118.262  0.00  0.00    -0.311 N 
ATOM     14  C   LIG d   1       2.176  54.280 118.892  0.00  0.00     0.210 C 
ATOM     15  C   LIG d   1       3.543  53.588 118.901  0.00  0.00     0.109 C 
ATOM     16  O   LIG d   1       1.195  53.732 119.416  0.00  0.00    -0.276 OA
ATOM     17  H   LIG d   1       2.979  55.808 117.838  0.00  0.00     0.149 HD
ENDBRANCH   6  13
BRANCH   5  18
ATOM     18  N   LIG d   1      -0.396  54.656 116.764  0.00  0.00     0.381 N 
ATOM     19  H   LIG d   1       0.352  54.012 116.598  0.00  0.00    -0.090 HD
ATOM     20  H   LIG d   1      -1.034  54.604 115.989  0.00  0.00    -0.090 HD
ATOM     21  H   LIG d   1      -0.867  54.419 117.608  0.00  0.00    -0.090 HD
ENDBRANCH   5  18
BRANCH   3  22
ATOM     22  C   LIG d   1      -1.443  59.312 116.360  0.00  0.00     0.382 C 
ATOM     23  O   LIG d   1      -1.206  59.622 115.167  0.00  0.00    -0.241 OA
ATOM     24  O   LIG d   1      -2.328  59.923 116.988  0.00  0.00    -0.241 OA
ENDBRANCH   3  22
TORSDOF 7
ENDMDL
MODEL 5
REMARK VINA RESULT:      -5.3     33.781     35.756
REMARK  7 active torsions:
REMARK  status: ('A' for Active; 'I' for Inactive)
REMARK    1  A    between atoms: C_2  and  C_3 
REMARK    2  A    between atoms: C_3  and  O_6 
REMARK    3  A    between atoms: C_3  and  C_4 
REMARK    4  A    between atoms: C_7  and  O_6 
REMARK    5  A    between atoms: C_9  and  C_10 
REMARK    6  A    between atoms: N_15  and  C_14 
REMARK    7  A    between atoms: N_20  and  C_19 
REMARK       I    between atoms: C_22  and  N_20 
ROOT
ATOM      1  C   LIG d   1       0.939  57.763 119.399  0.00  0.00     0.161 C 
ATOM      2  C   LIG d   1      -0.405  57.448 119.135  0.00  0.00     0.016 C 
ATOM      3  C   LIG d   1      -1.168  58.079 118.125  0.00  0.00     0.038 C 
ATOM      4  C   LIG d   1      -0.591  58.967 117.206  0.00  0.00     0.028 C 
ATOM      5  C   LIG d   1       0.635  59.692 117.751  0.00  0.00    -0.047 C 
ATOM      6  C   LIG d   1       1.617  58.649 118.334  0.00  0.00     0.091 C 
ENDROOT
BRANCH   1   7
ATOM      7  O   LIG d   1       1.694  56.551 119.597  0.00  0.00    -0.368 OA
BRANCH   7   8
ATOM      8  C   LIG d   1       2.308  55.982 118.415  0.00  0.00     0.119 C 
BRANCH   8   9
ATOM      9  C   LIG d   1       1.554  54.679 118.084  0.00  0.00     0.028 C 
ATOM     10  C   LIG d   1       0.730  54.791 116.791  0.00  0.00     0.006 C 
ENDBRANCH   8   9
BRANCH   8  11
ATOM     11  C   LIG d   1       3.754  55.556 118.688  0.00  0.00     0.028 C 
ATOM     12  C   LIG d   1       3.887  54.052 118.976  0.00  0.00     0.006 C 
ENDBRANCH   8  11
ENDBRANCH   7   8
ENDBRANCH   1   7
BRANCH   6  13
ATOM     13  N   LIG d   1       2.805  59.280 118.964  0.00  0.00    -0.311 N 
ATOM     14  C   LIG d   1       3.896  59.632 118.285  0.00  0.00     0.210 C 
ATOM     15  C   LIG d   1       5.014  60.248 119.131  0.00  0.00     0.109 C 
ATOM     16  O   LIG d   1       4.031  59.520 117.057  0.00  0.00    -0.276 OA
ATOM     17  H   LIG d   1       2.769  59.436 119.953  0.00  0.00     0.149 HD
ENDBRANCH   6  13
BRANCH   5  18
ATOM     18  N   LIG d   1       1.216  60.479 116.647  0.00  0.00     0.381 N 
ATOM     19  H   LIG d   1       0.637  60.401 115.834  0.00  0.00    -0.090 HD
ATOM     20  H   LIG d   1       2.123  60.108 116.425  0.00  0.00    -0.090 HD
ATOM     21  H   LIG d   1       1.297  61.435 116.915  0.00  0.00    -0.090 HD
ENDBRANCH   5  18
BRANCH   3  22
ATOM     22  C   LIG d   1      -2.534  57.852 118.054  0.00  0.00     0.382 C 
ATOM     23  O   LIG d   1      -2.988  56.696 118.232  0.00  0.00    -0.241 OA
ATOM     24  O   LIG d   1      -3.314  58.781 117.770  0.00  0.00    -0.241 OA
ENDBRANCH   3  22
TORSDOF 7
ENDMDL
MODEL 6
REMARK VINA RESULT:      -5.2     11.954     14.085
REMARK  7 active torsions:
REMARK  status: ('A' for Active; 'I' for Inactive)
REMARK    1  A    between atoms: C_2  and  C_3 
REMARK    2  A    between atoms: C_3  and  O_6 
REMARK    3  A    between atoms: C_3  and  C_4 
REMARK    4  A    between atoms: C_7  and  O_6 
REMARK    5  A    between atoms: C_9  and  C_10 
REMARK    6  A    between atoms: N_15  and  C_14 
REMARK    7  A    between atoms: N_20  and  C_19 
REMARK       I    between atoms: C_22  and  N_20 
ROOT
ATOM      1  C   LIG d   1      -6.087  79.123 117.885  0.00  0.00     0.161 C 
ATOM      2  C   LIG d   1      -7.464  79.003 118.139  0.00  0.00     0.016 C 
ATOM      3  C   LIG d   1      -8.297  80.103 118.445  0.00  0.00     0.038 C 
ATOM      4  C   LIG d   1      -7.837  81.426 118.368  0.00  0.00     0.028 C 
ATOM      5  C   LIG d   1      -6.337  81.560 118.609  0.00  0.00    -0.047 C 
ATOM      6  C   LIG d   1      -5.590  80.570 117.687  0.00  0.00     0.091 C 
ENDROOT
BRANCH   1   7
ATOM      7  O   LIG d   1      -5.727  78.310 116.750  0.00  0.00    -0.368 OA
BRANCH   7   8
ATOM      8  C   LIG d   1      -5.224  76.985 117.049  0.00  0.00     0.119 C 
BRANCH   8   9
ATOM      9  C   LIG d   1      -3.761  76.926 116.569  0.00  0.00     0.028 C 
ATOM     10  C   LIG d   1      -2.758  77.011 117.731  0.00  0.00     0.006 C 
ENDBRANCH   8   9
BRANCH   8  11
ATOM     11  C   LIG d   1      -5.961  75.913 116.240  0.00  0.00     0.028 C 
ATOM     12  C   LIG d   1      -7.260  75.445 116.914  0.00  0.00     0.006 C 
ENDBRANCH   8  11
ENDBRANCH   7   8
ENDBRANCH   1   7
BRANCH   6  13
ATOM     13  N   LIG d   1      -4.122  80.577 117.920  0.00  0.00    -0.311 N 
ATOM     14  C   LIG d   1      -3.224  80.615 116.936  0.00  0.00     0.210 C 
ATOM     15  C   LIG d   1      -1.763  80.594 117.394  0.00  0.00     0.109 C 
ATOM     16  O   LIG d   1      -3.500  80.696 115.730  0.00  0.00    -0.276 OA
ATOM     17  H   LIG d   1      -3.810  80.544 118.871  0.00  0.00     0.149 HD
ENDBRANCH   6  13
BRANCH   5  18
ATOM     18  N   LIG d   1      -5.971  82.968 118.364  0.00  0.00     0.381 N 
ATOM     19  H   LIG d   1      -5.730  83.092 117.401  0.00  0.00    -0.090 HD
ATOM     20  H   LIG d   1      -5.167  83.197 118.922  0.00  0.00    -0.090 HD
ATOM     21  H   LIG d   1      -6.731  83.565 118.604  0.00  0.00    -0.090 HD
ENDBRANCH   5  18
BRANCH   3  22
ATOM     22  C   LIG d   1      -9.598  79.882 118.871  0.00  0.00     0.382 C 
ATOM     23  O   LIG d   1     -10.214  78.855 118.498  0.00  0.00    -0.241 OA
ATOM     24  O   LIG d   1     -10.178  80.719 119.589  0.00  0.00    -0.241 OA
ENDBRANCH   3  22
TORSDOF 7
ENDMDL
MODEL 7
REMARK VINA RESULT:      -5.1     13.936     16.302
REMARK  7 active torsions:
REMARK  status: ('A' for Active; 'I' for Inactive)
REMARK    1  A    between atoms: C_2  and  C_3 
REMARK    2  A    between atoms: C_3  and  O_6 
REMARK    3  A    between atoms: C_3  and  C_4 
REMARK    4  A    between atoms: C_7  and  O_6 
REMARK    5  A    between atoms: C_9  and  C_10 
REMARK    6  A    between atoms: N_15  and  C_14 
REMARK    7  A    between atoms: N_20  and  C_19 
REMARK       I    between atoms: C_22  and  N_20 
ROOT
ATOM      1  C   LIG d   1      -7.203  77.498 117.202  0.00  0.00     0.161 C 
ATOM      2  C   LIG d   1      -8.409  76.801 117.381  0.00  0.00     0.016 C 
ATOM      3  C   LIG d   1      -8.563  75.425 117.097  0.00  0.00     0.038 C 
ATOM      4  C   LIG d   1      -7.472  74.612 116.755  0.00  0.00     0.028 C 
ATOM      5  C   LIG d   1      -6.339  75.373 116.075  0.00  0.00    -0.047 C 
ATOM      6  C   LIG d   1      -5.973  76.604 116.936  0.00  0.00     0.091 C 
ENDROOT
BRANCH   1   7
ATOM      7  O   LIG d   1      -6.962  78.357 118.334  0.00  0.00    -0.368 OA
BRANCH   7   8
ATOM      8  C   LIG d   1      -7.057  79.781 118.085  0.00  0.00     0.119 C 
BRANCH   8   9
ATOM      9  C   LIG d   1      -5.996  80.476 118.960  0.00  0.00     0.028 C 
ATOM     10  C   LIG d   1      -4.948  81.230 118.125  0.00  0.00     0.006 C 
ENDBRANCH   8   9
BRANCH   8  11
ATOM     11  C   LIG d   1      -8.402  80.341 118.556  0.00  0.00     0.028 C 
ATOM     12  C   LIG d   1      -8.647  81.782 118.082  0.00  0.00     0.006 C 
ENDBRANCH   8  11
ENDBRANCH   7   8
ENDBRANCH   1   7
BRANCH   6  13
ATOM     13  N   LIG d   1      -4.931  77.451 116.300  0.00  0.00    -0.311 N 
ATOM     14  C   LIG d   1      -3.837  77.868 116.935  0.00  0.00     0.210 C 
ATOM     15  C   LIG d   1      -2.901  78.748 116.102  0.00  0.00     0.109 C 
ATOM     16  O   LIG d   1      -3.537  77.565 118.100  0.00  0.00    -0.276 OA
ATOM     17  H   LIG d   1      -5.078  77.717 115.346  0.00  0.00     0.149 HD
ENDBRANCH   6  13
BRANCH   5  18
ATOM     18  N   LIG d   1      -5.214  74.436 115.899  0.00  0.00     0.381 N 
ATOM     19  H   LIG d   1      -4.507  74.623 116.581  0.00  0.00    -0.090 HD
ATOM     20  H   LIG d   1      -4.817  74.572 114.986  0.00  0.00    -0.090 HD
ATOM     21  H   LIG d   1      -5.535  73.497 115.992  0.00  0.00    -0.090 HD
ENDBRANCH   5  18
BRANCH   3  22
ATOM     22  C   LIG d   1      -9.827  74.856 117.115  0.00  0.00     0.382 C 
ATOM     23  O   LIG d   1     -10.831  75.567 117.362  0.00  0.00    -0.241 OA
ATOM     24  O   LIG d   1      -9.973  73.633 116.932  0.00  0.00    -0.241 OA
ENDBRANCH   3  22
TORSDOF 7
ENDMDL
MODEL 8
REMARK VINA RESULT:      -5.1     14.879     17.357
REMARK  7 active torsions:
REMARK  status: ('A' for Active; 'I' for Inactive)
REMARK    1  A    between atoms: C_2  and  C_3 
REMARK    2  A    between atoms: C_3  and  O_6 
REMARK    3  A    between atoms: C_3  and  C_4 
REMARK    4  A    between atoms: C_7  and  O_6 
REMARK    5  A    between atoms: C_9  and  C_10 
REMARK    6  A    between atoms: N_15  and  C_14 
REMARK    7  A    between atoms: N_20  and  C_19 
REMARK       I    between atoms: C_22  and  N_20 
ROOT
ATOM      1  C   LIG d   1      -7.073  76.909 116.230  0.00  0.00     0.161 C 
ATOM      2  C   LIG d   1      -8.332  76.418 116.615  0.00  0.00     0.016 C 
ATOM      3  C   LIG d   1      -8.587  75.052 116.878  0.00  0.00     0.038 C 
ATOM      4  C   LIG d   1      -7.557  74.100 116.921  0.00  0.00     0.028 C 
ATOM      5  C   LIG d   1      -6.362  74.462 116.046  0.00  0.00    -0.047 C 
ATOM      6  C   LIG d   1      -5.913  75.903 116.380  0.00  0.00     0.091 C 
ENDROOT
BRANCH   1   7
ATOM      7  O   LIG d   1      -6.780  78.122 116.952  0.00  0.00    -0.368 OA
BRANCH   7   8
ATOM      8  C   LIG d   1      -7.495  78.310 118.198  0.00  0.00     0.119 C 
BRANCH   8   9
ATOM      9  C   LIG d   1      -8.007  79.763 118.223  0.00  0.00     0.028 C 
ATOM     10  C   LIG d   1      -9.428  79.875 118.801  0.00  0.00     0.006 C 
ENDBRANCH   8   9
BRANCH   8  11
ATOM     11  C   LIG d   1      -6.556  78.191 119.403  0.00  0.00     0.028 C 
ATOM     12  C   LIG d   1      -5.096  78.520 119.055  0.00  0.00     0.006 C 
ENDBRANCH   8  11
ENDBRANCH   7   8
ENDBRANCH   1   7
BRANCH   6  13
ATOM     13  N   LIG d   1      -4.801  76.366 115.509  0.00  0.00    -0.311 N 
ATOM     14  C   LIG d   1      -3.515  76.245 115.836  0.00  0.00     0.210 C 
ATOM     15  C   LIG d   1      -2.531  76.806 114.805  0.00  0.00     0.109 C 
ATOM     16  O   LIG d   1      -3.096  75.698 116.867  0.00  0.00    -0.276 OA
ATOM     17  H   LIG d   1      -5.050  76.794 114.639  0.00  0.00     0.149 HD
ENDBRANCH   6  13
BRANCH   5  18
ATOM     18  N   LIG d   1      -5.310  73.457 116.291  0.00  0.00     0.381 N 
ATOM     19  H   LIG d   1      -4.632  73.825 116.928  0.00  0.00    -0.090 HD
ATOM     20  H   LIG d   1      -4.848  73.251 115.423  0.00  0.00    -0.090 HD
ATOM     21  H   LIG d   1      -5.713  72.626 116.666  0.00  0.00    -0.090 HD
ENDBRANCH   5  18
BRANCH   3  22
ATOM     22  C   LIG d   1      -9.892  74.620 117.063  0.00  0.00     0.382 C 
ATOM     23  O   LIG d   1     -10.778  75.435 117.416  0.00  0.00    -0.241 OA
ATOM     24  O   LIG d   1     -10.184  73.418 116.924  0.00  0.00    -0.241 OA
ENDBRANCH   3  22
TORSDOF 7
ENDMDL
MODEL 9
REMARK VINA RESULT:      -5.0     33.464     36.442
REMARK  7 active torsions:
REMARK  status: ('A' for Active; 'I' for Inactive)
REMARK    1  A    between atoms: C_2  and  C_3 
REMARK    2  A    between atoms: C_3  and  O_6 
REMARK    3  A    between atoms: C_3  and  C_4 
REMARK    4  A    between atoms: C_7  and  O_6 
REMARK    5  A    between atoms: C_9  and  C_10 
REMARK    6  A    between atoms: N_15  and  C_14 
REMARK    7  A    between atoms: N_20  and  C_19 
REMARK       I    between atoms: C_22  and  N_20 
ROOT
ATOM      1  C   LIG d   1       1.352  57.440 118.375  0.00  0.00     0.161 C 
ATOM      2  C   LIG d   1       0.850  58.611 118.968  0.00  0.00     0.016 C 
ATOM      3  C   LIG d   1      -0.503  59.012 118.875  0.00  0.00     0.038 C 
ATOM      4  C   LIG d   1      -1.484  58.186 118.306  0.00  0.00     0.028 C 
ATOM      5  C   LIG d   1      -0.934  57.230 117.252  0.00  0.00    -0.047 C 
ATOM      6  C   LIG d   1       0.274  56.471 117.845  0.00  0.00     0.091 C 
ENDROOT
BRANCH   1   7
ATOM      7  O   LIG d   1       2.226  56.761 119.297  0.00  0.00    -0.368 OA
BRANCH   7   8
ATOM      8  C   LIG d   1       3.564  57.304 119.424  0.00  0.00     0.119 C 
BRANCH   8   9
ATOM      9  C   LIG d   1       4.550  56.218 118.952  0.00  0.00     0.028 C 
ATOM     10  C   LIG d   1       3.922  54.814 118.951  0.00  0.00     0.006 C 
ENDBRANCH   8   9
BRANCH   8  11
ATOM     11  C   LIG d   1       3.921  57.567 120.890  0.00  0.00     0.028 C 
ATOM     12  C   LIG d   1       3.785  59.047 121.280  0.00  0.00     0.006 C 
ENDBRANCH   8  11
ENDBRANCH   7   8
ENDBRANCH   1   7
BRANCH   6  13
ATOM     13  N   LIG d   1       0.924  55.576 116.852  0.00  0.00    -0.311 N 
ATOM     14  C   LIG d   1       0.898  54.247 116.935  0.00  0.00     0.210 C 
ATOM     15  C   LIG d   1       1.647  53.514 115.818  0.00  0.00     0.109 C 
ATOM     16  O   LIG d   1       0.298  53.605 117.810  0.00  0.00    -0.276 OA
ATOM     17  H   LIG d   1       1.407  56.013 116.091  0.00  0.00     0.149 HD
ENDBRANCH   6  13
BRANCH   5  18
ATOM     18  N   LIG d   1      -2.035  56.337 116.843  0.00  0.00     0.381 N 
ATOM     19  H   LIG d   1      -1.672  55.430 116.627  0.00  0.00    -0.090 HD
ATOM     20  H   LIG d   1      -2.465  56.710 116.015  0.00  0.00    -0.090 HD
ATOM     21  H   LIG d   1      -2.708  56.268 117.574  0.00  0.00    -0.090 HD
ENDBRANCH   5  18
BRANCH   3  22
ATOM     22  C   LIG d   1      -0.878  60.270 119.319  0.00  0.00     0.382 C 
ATOM     23  O   LIG d   1      -0.558  61.289 118.661  0.00  0.00    -0.241 OA
ATOM     24  O   LIG d   1      -1.495  60.403 120.393  0.00  0.00    -0.241 OA
ENDBRANCH   3  22
TORSDOF 7
ENDMDL
