MODEL 1
REMARK VINA RESULT:      -5.5      0.000      0.000
REMARK  7 active torsions:
REMARK  status: ('A' for Active; 'I' for Inactive)
REMARK    1  A    between atoms: C_2  and  C_3 
REMARK    2  A    between atoms: C_3  and  O_6 
REMARK    3  A    between atoms: C_3  and  C_4 
REMARK    4  A    between atoms: C_7  and  O_6 
REMARK    5  A    between atoms: C_9  and  C_10 
REMARK    6  A    between atoms: N_15  and  C_14 
REMARK    7  A    between atoms: N_20  and  C_19 
REMARK       I    between atoms: C_22  and  N_20 
ROOT
ATOM      1  C   LIG d   1      -7.667  75.011 117.774  0.00  0.00     0.161 C 
ATOM      2  C   LIG d   1      -8.824  75.795 117.913  0.00  0.00     0.016 C 
ATOM      3  C   LIG d   1      -8.811  77.209 117.907  0.00  0.00     0.038 C 
ATOM      4  C   LIG d   1      -7.651  77.938 117.609  0.00  0.00     0.028 C 
ATOM      5  C   LIG d   1      -6.364  77.201 117.962  0.00  0.00    -0.047 C 
ATOM      6  C   LIG d   1      -6.408  75.788 117.337  0.00  0.00     0.091 C 
ENDROOT
BRANCH   1   7
ATOM      7  O   LIG d   1      -7.922  73.919 116.868  0.00  0.00    -0.368 OA
BRANCH   7   8
ATOM      8  C   LIG d   1      -8.401  72.691 117.469  0.00  0.00     0.119 C 
BRANCH   8   9
ATOM      9  C   LIG d   1      -7.715  71.520 116.739  0.00  0.00     0.028 C 
ATOM     10  C   LIG d   1      -6.873  71.988 115.541  0.00  0.00     0.006 C 
ENDBRANCH   8   9
BRANCH   8  11
ATOM     11  C   LIG d   1      -9.901  72.499 117.224  0.00  0.00     0.028 C 
ATOM     12  C   LIG d   1     -10.294  71.022 117.063  0.00  0.00     0.006 C 
ENDBRANCH   8  11
ENDBRANCH   7   8
ENDBRANCH   1   7
BRANCH   6  13
ATOM     13  N   LIG d   1      -5.223  74.969 117.704  0.00  0.00    -0.311 N 
ATOM     14  C   LIG d   1      -4.120  74.900 116.961  0.00  0.00     0.210 C 
ATOM     15  C   LIG d   1      -3.025  73.981 117.512  0.00  0.00     0.109 C 
ATOM     16  O   LIG d   1      -3.932  75.538 115.914  0.00  0.00    -0.276 OA
ATOM     17  H   LIG d   1      -5.278  74.443 118.554  0.00  0.00     0.149 HD
ENDBRANCH   6  13
BRANCH   5  18
ATOM     18  N   LIG d   1      -5.235  78.015 117.473  0.00  0.00     0.381 N 
ATOM     19  H   LIG d   1      -4.995  77.736 116.543  0.00  0.00    -0.090 HD
ATOM     20  H   LIG d   1      -4.439  77.856 118.065  0.00  0.00    -0.090 HD
ATOM     21  H   LIG d   1      -5.480  78.980 117.486  0.00  0.00    -0.090 HD
ENDBRANCH   5  18
BRANCH   3  22
ATOM     22  C   LIG d   1      -9.961  77.908 118.242  0.00  0.00     0.382 C 
ATOM     23  O   LIG d   1     -10.969  77.291 118.664  0.00  0.00    -0.241 OA
ATOM     24  O   LIG d   1     -10.018  79.142 118.084  0.00  0.00    -0.241 OA
ENDBRANCH   3  22
TORSDOF 7
ENDMDL
MODEL 2
REMARK VINA RESULT:      -5.1     16.009     19.020
REMARK  7 active torsions:
REMARK  status: ('A' for Active; 'I' for Inactive)
REMARK    1  A    between atoms: C_2  and  C_3 
REMARK    2  A    between atoms: C_3  and  O_6 
REMARK    3  A    between atoms: C_3  and  C_4 
REMARK    4  A    between atoms: C_7  and  O_6 
REMARK    5  A    between atoms: C_9  and  C_10 
REMARK    6  A    between atoms: N_15  and  C_14 
REMARK    7  A    between atoms: N_20  and  C_19 
REMARK       I    between atoms: C_22  and  N_20 
ROOT
ATOM      1  C   LIG d   1      -5.961  93.758 117.886  0.00  0.00     0.161 C 
ATOM      2  C   LIG d   1      -6.710  92.846 117.124  0.00  0.00     0.016 C 
ATOM      3  C   LIG d   1      -6.181  91.638 116.614  0.00  0.00     0.038 C 
ATOM      4  C   LIG d   1      -4.899  91.185 116.961  0.00  0.00     0.028 C 
ATOM      5  C   LIG d   1      -3.933  92.312 117.313  0.00  0.00    -0.047 C 
ATOM      6  C   LIG d   1      -4.594  93.228 118.369  0.00  0.00     0.091 C 
ENDROOT
BRANCH   1   7
ATOM      7  O   LIG d   1      -6.743  94.218 119.006  0.00  0.00    -0.368 OA
BRANCH   7   8
ATOM      8  C   LIG d   1      -6.847  95.654 119.164  0.00  0.00     0.119 C 
BRANCH   8   9
ATOM      9  C   LIG d   1      -8.013  95.930 120.132  0.00  0.00     0.028 C 
ATOM     10  C   LIG d   1      -8.294  94.742 121.067  0.00  0.00     0.006 C 
ENDBRANCH   8   9
BRANCH   8  11
ATOM     11  C   LIG d   1      -7.242  96.333 117.849  0.00  0.00     0.028 C 
ATOM     12  C   LIG d   1      -8.744  96.215 117.546  0.00  0.00     0.006 C 
ENDBRANCH   8  11
ENDBRANCH   7   8
ENDBRANCH   1   7
BRANCH   6  13
ATOM     13  N   LIG d   1      -3.750  94.403 118.707  0.00  0.00    -0.311 N 
ATOM     14  C   LIG d   1      -2.894  94.422 119.727  0.00  0.00     0.210 C 
ATOM     15  C   LIG d   1      -2.137  95.740 119.913  0.00  0.00     0.109 C 
ATOM     16  O   LIG d   1      -2.666  93.460 120.477  0.00  0.00    -0.276 OA
ATOM     17  H   LIG d   1      -3.848  95.216 118.131  0.00  0.00     0.149 HD
ENDBRANCH   6  13
BRANCH   5  18
ATOM     18  N   LIG d   1      -2.681  91.693 117.787  0.00  0.00     0.381 N 
ATOM     19  H   LIG d   1      -2.062  92.401 118.128  0.00  0.00    -0.090 HD
ATOM     20  H   LIG d   1      -2.235  91.229 117.016  0.00  0.00    -0.090 HD
ATOM     21  H   LIG d   1      -2.877  91.037 118.511  0.00  0.00    -0.090 HD
ENDBRANCH   5  18
BRANCH   3  22
ATOM     22  C   LIG d   1      -6.922  90.889 115.713  0.00  0.00     0.382 C 
ATOM     23  O   LIG d   1      -6.502  89.770 115.333  0.00  0.00    -0.241 OA
ATOM     24  O   LIG d   1      -7.984  91.338 115.241  0.00  0.00    -0.241 OA
ENDBRANCH   3  22
TORSDOF 7
ENDMDL
MODEL 3
REMARK VINA RESULT:      -5.1      2.140      3.522
REMARK  7 active torsions:
REMARK  status: ('A' for Active; 'I' for Inactive)
REMARK    1  A    between atoms: C_2  and  C_3 
REMARK    2  A    between atoms: C_3  and  O_6 
REMARK    3  A    between atoms: C_3  and  C_4 
REMARK    4  A    between atoms: C_7  and  O_6 
REMARK    5  A    between atoms: C_9  and  C_10 
REMARK    6  A    between atoms: N_15  and  C_14 
REMARK    7  A    between atoms: N_20  and  C_19 
REMARK       I    between atoms: C_22  and  N_20 
ROOT
ATOM      1  C   LIG d   1      -6.281  76.885 116.822  0.00  0.00     0.161 C 
ATOM      2  C   LIG d   1      -7.646  76.649 117.058  0.00  0.00     0.016 C 
ATOM      3  C   LIG d   1      -8.512  77.607 117.635  0.00  0.00     0.038 C 
ATOM      4  C   LIG d   1      -8.103  78.927 117.876  0.00  0.00     0.028 C 
ATOM      5  C   LIG d   1      -6.604  79.061 118.122  0.00  0.00    -0.047 C 
ATOM      6  C   LIG d   1      -5.843  78.356 116.976  0.00  0.00     0.091 C 
ENDROOT
BRANCH   1   7
ATOM      7  O   LIG d   1      -5.919  76.388 115.519  0.00  0.00    -0.368 OA
BRANCH   7   8
ATOM      8  C   LIG d   1      -4.989  75.277 115.496  0.00  0.00     0.119 C 
BRANCH   8   9
ATOM      9  C   LIG d   1      -5.716  74.077 114.859  0.00  0.00     0.028 C 
ATOM     10  C   LIG d   1      -6.473  73.231 115.897  0.00  0.00     0.006 C 
ENDBRANCH   8   9
BRANCH   8  11
ATOM     11  C   LIG d   1      -4.626  74.825 116.914  0.00  0.00     0.028 C 
ATOM     12  C   LIG d   1      -3.112  74.838 117.174  0.00  0.00     0.006 C 
ENDBRANCH   8  11
ENDBRANCH   7   8
ENDBRANCH   1   7
BRANCH   6  13
ATOM     13  N   LIG d   1      -4.371  78.367 117.182  0.00  0.00    -0.311 N 
ATOM     14  C   LIG d   1      -3.499  78.692 116.229  0.00  0.00     0.210 C 
ATOM     15  C   LIG d   1      -2.027  78.619 116.647  0.00  0.00     0.109 C 
ATOM     16  O   LIG d   1      -3.807  79.065 115.087  0.00  0.00    -0.276 OA
ATOM     17  H   LIG d   1      -4.035  78.108 118.090  0.00  0.00     0.149 HD
ENDBRANCH   6  13
BRANCH   5  18
ATOM     18  N   LIG d   1      -6.296  80.500 118.222  0.00  0.00     0.381 N 
ATOM     19  H   LIG d   1      -5.427  80.693 117.765  0.00  0.00    -0.090 HD
ATOM     20  H   LIG d   1      -6.203  80.746 119.192  0.00  0.00    -0.090 HD
ATOM     21  H   LIG d   1      -7.025  81.035 117.804  0.00  0.00    -0.090 HD
ENDBRANCH   5  18
BRANCH   3  22
ATOM     22  C   LIG d   1      -9.793  77.235 118.013  0.00  0.00     0.382 C 
ATOM     23  O   LIG d   1     -10.205  76.074 117.776  0.00  0.00    -0.241 OA
ATOM     24  O   LIG d   1     -10.559  78.059 118.548  0.00  0.00    -0.241 OA
ENDBRANCH   3  22
TORSDOF 7
ENDMDL
MODEL 4
REMARK VINA RESULT:      -5.1      1.770      2.846
REMARK  7 active torsions:
REMARK  status: ('A' for Active; 'I' for Inactive)
REMARK    1  A    between atoms: C_2  and  C_3 
REMARK    2  A    between atoms: C_3  and  O_6 
REMARK    3  A    between atoms: C_3  and  C_4 
REMARK    4  A    between atoms: C_7  and  O_6 
REMARK    5  A    between atoms: C_9  and  C_10 
REMARK    6  A    between atoms: N_15  and  C_14 
REMARK    7  A    between atoms: N_20  and  C_19 
REMARK       I    between atoms: C_22  and  N_20 
ROOT
ATOM      1  C   LIG d   1      -6.884  76.791 117.643  0.00  0.00     0.161 C 
ATOM      2  C   LIG d   1      -8.220  76.697 118.065  0.00  0.00     0.016 C 
ATOM      3  C   LIG d   1      -9.048  77.822 118.286  0.00  0.00     0.038 C 
ATOM      4  C   LIG d   1      -8.637  79.121 117.951  0.00  0.00     0.028 C 
ATOM      5  C   LIG d   1      -7.125  79.309 117.999  0.00  0.00    -0.047 C 
ATOM      6  C   LIG d   1      -6.454  78.194 117.166  0.00  0.00     0.091 C 
ENDROOT
BRANCH   1   7
ATOM      7  O   LIG d   1      -6.626  75.812 116.617  0.00  0.00    -0.368 OA
BRANCH   7   8
ATOM      8  C   LIG d   1      -6.044  74.561 117.060  0.00  0.00     0.119 C 
BRANCH   8   9
ATOM      9  C   LIG d   1      -4.627  74.472 116.462  0.00  0.00     0.028 C 
ATOM     10  C   LIG d   1      -3.529  74.636 117.526  0.00  0.00     0.006 C 
ENDBRANCH   8   9
BRANCH   8  11
ATOM     11  C   LIG d   1      -6.802  73.360 116.488  0.00  0.00     0.028 C 
ATOM     12  C   LIG d   1      -7.865  72.811 117.454  0.00  0.00     0.006 C 
ENDBRANCH   8  11
ENDBRANCH   7   8
ENDBRANCH   1   7
BRANCH   6  13
ATOM     13  N   LIG d   1      -4.970  78.255 117.228  0.00  0.00    -0.311 N 
ATOM     14  C   LIG d   1      -4.186  78.142 116.157  0.00  0.00     0.210 C 
ATOM     15  C   LIG d   1      -2.683  78.212 116.446  0.00  0.00     0.109 C 
ATOM     16  O   LIG d   1      -4.593  78.022 114.992  0.00  0.00    -0.276 OA
ATOM     17  H   LIG d   1      -4.556  78.381 118.131  0.00  0.00     0.149 HD
ENDBRANCH   6  13
BRANCH   5  18
ATOM     18  N   LIG d   1      -6.829  80.664 117.496  0.00  0.00     0.381 N 
ATOM     19  H   LIG d   1      -7.401  80.862 116.699  0.00  0.00    -0.090 HD
ATOM     20  H   LIG d   1      -5.866  80.702 117.210  0.00  0.00    -0.090 HD
ATOM     21  H   LIG d   1      -6.997  81.338 118.211  0.00  0.00    -0.090 HD
ENDBRANCH   5  18
BRANCH   3  22
ATOM     22  C   LIG d   1     -10.287  77.656 118.885  0.00  0.00     0.382 C 
ATOM     23  O   LIG d   1     -10.518  78.177 120.003  0.00  0.00    -0.241 OA
ATOM     24  O   LIG d   1     -11.163  76.956 118.343  0.00  0.00    -0.241 OA
ENDBRANCH   3  22
TORSDOF 7
ENDMDL
MODEL 5
REMARK VINA RESULT:      -5.0      2.431      5.211
REMARK  7 active torsions:
REMARK  status: ('A' for Active; 'I' for Inactive)
REMARK    1  A    between atoms: C_2  and  C_3 
REMARK    2  A    between atoms: C_3  and  O_6 
REMARK    3  A    between atoms: C_3  and  C_4 
REMARK    4  A    between atoms: C_7  and  O_6 
REMARK    5  A    between atoms: C_9  and  C_10 
REMARK    6  A    between atoms: N_15  and  C_14 
REMARK    7  A    between atoms: N_20  and  C_19 
REMARK       I    between atoms: C_22  and  N_20 
ROOT
ATOM      1  C   LIG d   1      -5.080  75.004 116.400  0.00  0.00     0.161 C 
ATOM      2  C   LIG d   1      -4.640  76.338 116.376  0.00  0.00     0.016 C 
ATOM      3  C   LIG d   1      -5.471  77.437 116.692  0.00  0.00     0.038 C 
ATOM      4  C   LIG d   1      -6.766  77.264 117.204  0.00  0.00     0.028 C 
ATOM      5  C   LIG d   1      -7.421  75.959 116.767  0.00  0.00    -0.047 C 
ATOM      6  C   LIG d   1      -6.456  74.788 117.064  0.00  0.00     0.091 C 
ENDROOT
BRANCH   1   7
ATOM      7  O   LIG d   1      -4.085  74.173 117.030  0.00  0.00    -0.368 OA
BRANCH   7   8
ATOM      8  C   LIG d   1      -2.841  74.826 117.386  0.00  0.00     0.119 C 
BRANCH   8   9
ATOM      9  C   LIG d   1      -1.724  74.189 116.537  0.00  0.00     0.028 C 
ATOM     10  C   LIG d   1      -1.029  75.210 115.621  0.00  0.00     0.006 C 
ENDBRANCH   8   9
BRANCH   8  11
ATOM     11  C   LIG d   1      -2.458  74.539 118.841  0.00  0.00     0.028 C 
ATOM     12  C   LIG d   1      -1.745  73.189 119.014  0.00  0.00     0.006 C 
ENDBRANCH   8  11
ENDBRANCH   7   8
ENDBRANCH   1   7
BRANCH   6  13
ATOM     13  N   LIG d   1      -6.985  73.483 116.589  0.00  0.00    -0.311 N 
ATOM     14  C   LIG d   1      -7.760  72.693 117.330  0.00  0.00     0.210 C 
ATOM     15  C   LIG d   1      -8.179  71.382 116.657  0.00  0.00     0.109 C 
ATOM     16  O   LIG d   1      -8.167  72.968 118.469  0.00  0.00    -0.276 OA
ATOM     17  H   LIG d   1      -6.730  73.197 115.664  0.00  0.00     0.149 HD
ENDBRANCH   6  13
BRANCH   5  18
ATOM     18  N   LIG d   1      -8.707  75.844 117.482  0.00  0.00     0.381 N 
ATOM     19  H   LIG d   1      -8.720  75.002 118.022  0.00  0.00    -0.090 HD
ATOM     20  H   LIG d   1      -9.450  75.798 116.808  0.00  0.00    -0.090 HD
ATOM     21  H   LIG d   1      -8.837  76.632 118.077  0.00  0.00    -0.090 HD
ENDBRANCH   5  18
BRANCH   3  22
ATOM     22  C   LIG d   1      -5.022  78.728 116.459  0.00  0.00     0.382 C 
ATOM     23  O   LIG d   1      -5.537  79.692 117.075  0.00  0.00    -0.241 OA
ATOM     24  O   LIG d   1      -4.139  78.945 115.607  0.00  0.00    -0.241 OA
ENDBRANCH   3  22
TORSDOF 7
ENDMDL
MODEL 6
REMARK VINA RESULT:      -4.9      3.012      4.697
REMARK  7 active torsions:
REMARK  status: ('A' for Active; 'I' for Inactive)
REMARK    1  A    between atoms: C_2  and  C_3 
REMARK    2  A    between atoms: C_3  and  O_6 
REMARK    3  A    between atoms: C_3  and  C_4 
REMARK    4  A    between atoms: C_7  and  O_6 
REMARK    5  A    between atoms: C_9  and  C_10 
REMARK    6  A    between atoms: N_15  and  C_14 
REMARK    7  A    between atoms: N_20  and  C_19 
REMARK       I    between atoms: C_22  and  N_20 
ROOT
ATOM      1  C   LIG d   1      -4.057  75.347 117.706  0.00  0.00     0.161 C 
ATOM      2  C   LIG d   1      -4.424  76.473 116.951  0.00  0.00     0.016 C 
ATOM      3  C   LIG d   1      -3.493  77.415 116.456  0.00  0.00     0.038 C 
ATOM      4  C   LIG d   1      -2.109  77.211 116.555  0.00  0.00     0.028 C 
ATOM      5  C   LIG d   1      -1.707  76.348 117.746  0.00  0.00    -0.047 C 
ATOM      6  C   LIG d   1      -2.543  75.048 117.729  0.00  0.00     0.091 C 
ENDROOT
BRANCH   1   7
ATOM      7  O   LIG d   1      -4.788  74.192 117.248  0.00  0.00    -0.368 OA
BRANCH   7   8
ATOM      8  C   LIG d   1      -6.006  74.461 116.511  0.00  0.00     0.119 C 
BRANCH   8   9
ATOM      9  C   LIG d   1      -7.185  74.310 117.493  0.00  0.00     0.028 C 
ATOM     10  C   LIG d   1      -8.053  75.577 117.566  0.00  0.00     0.006 C 
ENDBRANCH   8   9
BRANCH   8  11
ATOM     11  C   LIG d   1      -6.245  73.406 115.426  0.00  0.00     0.028 C 
ATOM     12  C   LIG d   1      -7.064  72.207 115.930  0.00  0.00     0.006 C 
ENDBRANCH   8  11
ENDBRANCH   7   8
ENDBRANCH   1   7
BRANCH   6  13
ATOM     13  N   LIG d   1      -2.273  74.185 118.908  0.00  0.00    -0.311 N 
ATOM     14  C   LIG d   1      -1.383  73.194 118.902  0.00  0.00     0.210 C 
ATOM     15  C   LIG d   1      -1.275  72.414 120.216  0.00  0.00     0.109 C 
ATOM     16  O   LIG d   1      -0.651  72.907 117.943  0.00  0.00    -0.276 OA
ATOM     17  H   LIG d   1      -2.801  74.368 119.739  0.00  0.00     0.149 HD
ENDBRANCH   6  13
BRANCH   5  18
ATOM     18  N   LIG d   1      -0.255  76.103 117.649  0.00  0.00     0.381 N 
ATOM     19  H   LIG d   1       0.234  76.975 117.616  0.00  0.00    -0.090 HD
ATOM     20  H   LIG d   1      -0.066  75.603 116.798  0.00  0.00    -0.090 HD
ATOM     21  H   LIG d   1       0.053  75.569 118.432  0.00  0.00    -0.090 HD
ENDBRANCH   5  18
BRANCH   3  22
ATOM     22  C   LIG d   1      -3.946  78.596 115.889  0.00  0.00     0.382 C 
ATOM     23  O   LIG d   1      -5.069  79.055 116.209  0.00  0.00    -0.241 OA
ATOM     24  O   LIG d   1      -3.265  79.186 115.029  0.00  0.00    -0.241 OA
ENDBRANCH   3  22
TORSDOF 7
ENDMDL
MODEL 7
REMARK VINA RESULT:      -4.8      2.489      5.329
REMARK  7 active torsions:
REMARK  status: ('A' for Active; 'I' for Inactive)
REMARK    1  A    between atoms: C_2  and  C_3 
REMARK    2  A    between atoms: C_3  and  O_6 
REMARK    3  A    between atoms: C_3  and  C_4 
REMARK    4  A    between atoms: C_7  and  O_6 
REMARK    5  A    between atoms: C_9  and  C_10 
REMARK    6  A    between atoms: N_15  and  C_14 
REMARK    7  A    between atoms: N_20  and  C_19 
REMARK       I    between atoms: C_22  and  N_20 
ROOT
ATOM      1  C   LIG d   1      -5.450  74.727 116.956  0.00  0.00     0.161 C 
ATOM      2  C   LIG d   1      -6.100  73.495 116.780  0.00  0.00     0.016 C 
ATOM      3  C   LIG d   1      -7.485  73.309 116.995  0.00  0.00     0.038 C 
ATOM      4  C   LIG d   1      -8.346  74.385 117.257  0.00  0.00     0.028 C 
ATOM      5  C   LIG d   1      -7.656  75.561 117.939  0.00  0.00    -0.047 C 
ATOM      6  C   LIG d   1      -6.392  75.937 117.133  0.00  0.00     0.091 C 
ENDROOT
BRANCH   1   7
ATOM      7  O   LIG d   1      -4.538  74.959 115.864  0.00  0.00    -0.368 OA
BRANCH   7   8
ATOM      8  C   LIG d   1      -3.133  74.751 116.153  0.00  0.00     0.119 C 
BRANCH   8   9
ATOM      9  C   LIG d   1      -2.968  74.761 117.685  0.00  0.00     0.028 C 
ATOM     10  C   LIG d   1      -2.202  73.531 118.200  0.00  0.00     0.006 C 
ENDBRANCH   8   9
BRANCH   8  11
ATOM     11  C   LIG d   1      -2.282  75.920 115.647  0.00  0.00     0.028 C 
ATOM     12  C   LIG d   1      -0.838  75.507 115.318  0.00  0.00     0.006 C 
ENDBRANCH   8  11
ENDBRANCH   7   8
ENDBRANCH   1   7
BRANCH   6  13
ATOM     13  N   LIG d   1      -5.611  77.024 117.779  0.00  0.00    -0.311 N 
ATOM     14  C   LIG d   1      -5.122  78.069 117.113  0.00  0.00     0.210 C 
ATOM     15  C   LIG d   1      -4.329  79.065 117.966  0.00  0.00     0.109 C 
ATOM     16  O   LIG d   1      -5.296  78.283 115.904  0.00  0.00    -0.276 OA
ATOM     17  H   LIG d   1      -5.449  76.947 118.764  0.00  0.00     0.149 HD
ENDBRANCH   6  13
BRANCH   5  18
ATOM     18  N   LIG d   1      -8.634  76.662 118.027  0.00  0.00     0.381 N 
ATOM     19  H   LIG d   1      -8.365  77.403 117.412  0.00  0.00    -0.090 HD
ATOM     20  H   LIG d   1      -8.639  77.018 118.967  0.00  0.00    -0.090 HD
ATOM     21  H   LIG d   1      -9.542  76.331 117.784  0.00  0.00    -0.090 HD
ENDBRANCH   5  18
BRANCH   3  22
ATOM     22  C   LIG d   1      -8.015  72.027 116.989  0.00  0.00     0.382 C 
ATOM     23  O   LIG d   1      -8.299  71.461 118.072  0.00  0.00    -0.241 OA
ATOM     24  O   LIG d   1      -8.172  71.414 115.916  0.00  0.00    -0.241 OA
ENDBRANCH   3  22
TORSDOF 7
ENDMDL
MODEL 8
REMARK VINA RESULT:      -4.7      2.657      5.882
REMARK  7 active torsions:
REMARK  status: ('A' for Active; 'I' for Inactive)
REMARK    1  A    between atoms: C_2  and  C_3 
REMARK    2  A    between atoms: C_3  and  O_6 
REMARK    3  A    between atoms: C_3  and  C_4 
REMARK    4  A    between atoms: C_7  and  O_6 
REMARK    5  A    between atoms: C_9  and  C_10 
REMARK    6  A    between atoms: N_15  and  C_14 
REMARK    7  A    between atoms: N_20  and  C_19 
REMARK       I    between atoms: C_22  and  N_20 
ROOT
ATOM      1  C   LIG d   1      -4.036  74.821 116.359  0.00  0.00     0.161 C 
ATOM      2  C   LIG d   1      -3.251  75.915 115.958  0.00  0.00     0.016 C 
ATOM      3  C   LIG d   1      -3.778  77.203 115.713  0.00  0.00     0.038 C 
ATOM      4  C   LIG d   1      -5.113  77.524 115.999  0.00  0.00     0.028 C 
ATOM      5  C   LIG d   1      -6.054  76.327 115.924  0.00  0.00    -0.047 C 
ATOM      6  C   LIG d   1      -5.476  75.179 116.783  0.00  0.00     0.091 C 
ENDROOT
BRANCH   1   7
ATOM      7  O   LIG d   1      -3.368  74.099 117.412  0.00  0.00    -0.368 OA
BRANCH   7   8
ATOM      8  C   LIG d   1      -2.206  74.744 117.990  0.00  0.00     0.119 C 
BRANCH   8   9
ATOM      9  C   LIG d   1      -1.044  73.734 117.939  0.00  0.00     0.028 C 
ATOM     10  C   LIG d   1      -0.963  72.869 119.208  0.00  0.00     0.006 C 
ENDBRANCH   8   9
BRANCH   8  11
ATOM     11  C   LIG d   1      -2.418  75.046 119.476  0.00  0.00     0.028 C 
ATOM     12  C   LIG d   1      -3.406  76.198 119.716  0.00  0.00     0.006 C 
ENDBRANCH   8  11
ENDBRANCH   7   8
ENDBRANCH   1   7
BRANCH   6  13
ATOM     13  N   LIG d   1      -6.292  73.940 116.698  0.00  0.00    -0.311 N 
ATOM     14  C   LIG d   1      -7.311  73.676 117.514  0.00  0.00     0.210 C 
ATOM     15  C   LIG d   1      -8.005  72.333 117.266  0.00  0.00     0.109 C 
ATOM     16  O   LIG d   1      -7.725  74.440 118.398  0.00  0.00    -0.276 OA
ATOM     17  H   LIG d   1      -6.044  73.279 115.988  0.00  0.00     0.149 HD
ENDBRANCH   6  13
BRANCH   5  18
ATOM     18  N   LIG d   1      -7.384  76.775 116.378  0.00  0.00     0.381 N 
ATOM     19  H   LIG d   1      -7.907  75.993 116.718  0.00  0.00    -0.090 HD
ATOM     20  H   LIG d   1      -7.878  77.169 115.597  0.00  0.00    -0.090 HD
ATOM     21  H   LIG d   1      -7.287  77.457 117.097  0.00  0.00    -0.090 HD
ENDBRANCH   5  18
BRANCH   3  22
ATOM     22  C   LIG d   1      -2.975  78.176 115.137  0.00  0.00     0.382 C 
ATOM     23  O   LIG d   1      -1.767  77.934 114.902  0.00  0.00    -0.241 OA
ATOM     24  O   LIG d   1      -3.433  79.308 114.891  0.00  0.00    -0.241 OA
ENDBRANCH   3  22
TORSDOF 7
ENDMDL
MODEL 9
REMARK VINA RESULT:      -4.7     16.099     18.790
REMARK  7 active torsions:
REMARK  status: ('A' for Active; 'I' for Inactive)
REMARK    1  A    between atoms: C_2  and  C_3 
REMARK    2  A    between atoms: C_3  and  O_6 
REMARK    3  A    between atoms: C_3  and  C_4 
REMARK    4  A    between atoms: C_7  and  O_6 
REMARK    5  A    between atoms: C_9  and  C_10 
REMARK    6  A    between atoms: N_15  and  C_14 
REMARK    7  A    between atoms: N_20  and  C_19 
REMARK       I    between atoms: C_22  and  N_20 
ROOT
ATOM      1  C   LIG d   1      -4.560  92.568 118.867  0.00  0.00     0.161 C 
ATOM      2  C   LIG d   1      -4.466  91.577 117.876  0.00  0.00     0.016 C 
ATOM      3  C   LIG d   1      -5.291  91.543 116.728  0.00  0.00     0.038 C 
ATOM      4  C   LIG d   1      -6.170  92.591 116.416  0.00  0.00     0.028 C 
ATOM      5  C   LIG d   1      -6.658  93.357 117.641  0.00  0.00    -0.047 C 
ATOM      6  C   LIG d   1      -5.436  93.780 118.488  0.00  0.00     0.091 C 
ENDROOT
BRANCH   1   7
ATOM      7  O   LIG d   1      -3.240  93.004 119.248  0.00  0.00    -0.368 OA
BRANCH   7   8
ATOM      8  C   LIG d   1      -2.157  92.597 118.376  0.00  0.00     0.119 C 
BRANCH   8   9
ATOM      9  C   LIG d   1      -1.053  91.987 119.261  0.00  0.00     0.028 C 
ATOM     10  C   LIG d   1      -1.463  90.631 119.860  0.00  0.00     0.006 C 
ENDBRANCH   8   9
BRANCH   8  11
ATOM     11  C   LIG d   1      -1.509  93.804 117.692  0.00  0.00     0.028 C 
ATOM     12  C   LIG d   1       0.019  93.677 117.582  0.00  0.00     0.006 C 
ENDBRANCH   8  11
ENDBRANCH   7   8
ENDBRANCH   1   7
BRANCH   6  13
ATOM     13  N   LIG d   1      -5.829  94.462 119.749  0.00  0.00    -0.311 N 
ATOM     14  C   LIG d   1      -5.494  95.718 120.038  0.00  0.00     0.210 C 
ATOM     15  C   LIG d   1      -5.984  96.221 121.400  0.00  0.00     0.109 C 
ATOM     16  O   LIG d   1      -4.865  96.474 119.283  0.00  0.00    -0.276 OA
ATOM     17  H   LIG d   1      -6.368  93.932 120.406  0.00  0.00     0.149 HD
ENDBRANCH   6  13
BRANCH   5  18
ATOM     18  N   LIG d   1      -7.454  94.503 117.162  0.00  0.00     0.381 N 
ATOM     19  H   LIG d   1      -8.151  94.186 116.518  0.00  0.00    -0.090 HD
ATOM     20  H   LIG d   1      -6.847  95.142 116.680  0.00  0.00    -0.090 HD
ATOM     21  H   LIG d   1      -7.888  94.963 117.933  0.00  0.00    -0.090 HD
ENDBRANCH   5  18
BRANCH   3  22
ATOM     22  C   LIG d   1      -5.270  90.432 115.899  0.00  0.00     0.382 C 
ATOM     23  O   LIG d   1      -4.178  89.887 115.609  0.00  0.00    -0.241 OA
ATOM     24  O   LIG d   1      -6.325  89.996 115.400  0.00  0.00    -0.241 OA
ENDBRANCH   3  22
TORSDOF 7
ENDMDL
