MODEL 1
REMARK VINA RESULT:      -5.5      0.000      0.000
REMARK  7 active torsions:
REMARK  status: ('A' for Active; 'I' for Inactive)
REMARK    1  A    between atoms: C_2  and  C_3 
REMARK    2  A    between atoms: C_3  and  O_6 
REMARK    3  A    between atoms: C_3  and  C_4 
REMARK    4  A    between atoms: C_7  and  O_6 
REMARK    5  A    between atoms: C_9  and  C_10 
REMARK    6  A    between atoms: N_15  and  C_14 
REMARK    7  A    between atoms: N_20  and  C_19 
REMARK       I    between atoms: C_22  and  N_20 
ROOT
ATOM      1  C   LIG d   1      -7.057  77.181 117.536  0.00  0.00     0.161 C 
ATOM      2  C   LIG d   1      -8.333  77.721 117.768  0.00  0.00     0.016 C 
ATOM      3  C   LIG d   1      -8.603  79.108 117.770  0.00  0.00     0.038 C 
ATOM      4  C   LIG d   1      -7.637  80.052 117.388  0.00  0.00     0.028 C 
ATOM      5  C   LIG d   1      -6.206  79.588 117.636  0.00  0.00    -0.047 C 
ATOM      6  C   LIG d   1      -6.015  78.189 117.008  0.00  0.00     0.091 C 
ENDROOT
BRANCH   1   7
ATOM      7  O   LIG d   1      -7.159  76.052 116.645  0.00  0.00    -0.368 OA
BRANCH   7   8
ATOM      8  C   LIG d   1      -6.718  74.779 117.178  0.00  0.00     0.119 C 
BRANCH   8   9
ATOM      9  C   LIG d   1      -5.812  74.122 116.118  0.00  0.00     0.028 C 
ATOM     10  C   LIG d   1      -5.657  74.992 114.858  0.00  0.00     0.006 C 
ENDBRANCH   8   9
BRANCH   8  11
ATOM     11  C   LIG d   1      -7.893  73.814 117.361  0.00  0.00     0.028 C 
ATOM     12  C   LIG d   1      -7.588  72.399 116.846  0.00  0.00     0.006 C 
ENDBRANCH   8  11
ENDBRANCH   7   8
ENDBRANCH   1   7
BRANCH   6  13
ATOM     13  N   LIG d   1      -4.667  77.625 117.278  0.00  0.00    -0.311 N 
ATOM     14  C   LIG d   1      -3.647  77.724 116.427  0.00  0.00     0.210 C 
ATOM     15  C   LIG d   1      -2.350  77.055 116.892  0.00  0.00     0.109 C 
ATOM     16  O   LIG d   1      -3.685  78.329 115.345  0.00  0.00    -0.276 OA
ATOM     17  H   LIG d   1      -4.539  77.144 118.147  0.00  0.00     0.149 HD
ENDBRANCH   6  13
BRANCH   5  18
ATOM     18  N   LIG d   1      -5.303  80.606 117.067  0.00  0.00     0.381 N 
ATOM     19  H   LIG d   1      -5.160  80.426 116.093  0.00  0.00    -0.090 HD
ATOM     20  H   LIG d   1      -4.414  80.548 117.532  0.00  0.00    -0.090 HD
ATOM     21  H   LIG d   1      -5.692  81.515 117.191  0.00  0.00    -0.090 HD
ENDBRANCH   5  18
BRANCH   3  22
ATOM     22  C   LIG d   1      -9.840  79.568 118.196  0.00  0.00     0.382 C 
ATOM     23  O   LIG d   1     -10.258  80.688 117.815  0.00  0.00    -0.241 OA
ATOM     24  O   LIG d   1     -10.523  78.896 118.992  0.00  0.00    -0.241 OA
ENDBRANCH   3  22
TORSDOF 7
ENDMDL
MODEL 2
REMARK VINA RESULT:      -5.2      2.713      5.674
REMARK  7 active torsions:
REMARK  status: ('A' for Active; 'I' for Inactive)
REMARK    1  A    between atoms: C_2  and  C_3 
REMARK    2  A    between atoms: C_3  and  O_6 
REMARK    3  A    between atoms: C_3  and  C_4 
REMARK    4  A    between atoms: C_7  and  O_6 
REMARK    5  A    between atoms: C_9  and  C_10 
REMARK    6  A    between atoms: N_15  and  C_14 
REMARK    7  A    between atoms: N_20  and  C_19 
REMARK       I    between atoms: C_22  and  N_20 
ROOT
ATOM      1  C   LIG d   1      -4.630  75.708 116.409  0.00  0.00     0.161 C 
ATOM      2  C   LIG d   1      -3.742  74.621 116.469  0.00  0.00     0.016 C 
ATOM      3  C   LIG d   1      -2.733  74.494 117.450  0.00  0.00     0.038 C 
ATOM      4  C   LIG d   1      -2.639  75.377 118.537  0.00  0.00     0.028 C 
ATOM      5  C   LIG d   1      -3.192  76.766 118.237  0.00  0.00    -0.047 C 
ATOM      6  C   LIG d   1      -4.615  76.624 117.651  0.00  0.00     0.091 C 
ENDROOT
BRANCH   1   7
ATOM      7  O   LIG d   1      -5.967  75.234 116.152  0.00  0.00    -0.368 OA
BRANCH   7   8
ATOM      8  C   LIG d   1      -6.495  74.274 117.100  0.00  0.00     0.119 C 
BRANCH   8   9
ATOM      9  C   LIG d   1      -6.916  73.022 116.305  0.00  0.00     0.028 C 
ATOM     10  C   LIG d   1      -7.965  72.180 117.049  0.00  0.00     0.006 C 
ENDBRANCH   8   9
BRANCH   8  11
ATOM     11  C   LIG d   1      -7.780  74.788 117.756  0.00  0.00     0.028 C 
ATOM     12  C   LIG d   1      -8.348  76.034 117.059  0.00  0.00     0.006 C 
ENDBRANCH   8  11
ENDBRANCH   7   8
ENDBRANCH   1   7
BRANCH   6  13
ATOM     13  N   LIG d   1      -5.197  77.932 117.252  0.00  0.00    -0.311 N 
ATOM     14  C   LIG d   1      -5.987  78.656 118.043  0.00  0.00     0.210 C 
ATOM     15  C   LIG d   1      -6.494  79.964 117.429  0.00  0.00     0.109 C 
ATOM     16  O   LIG d   1      -6.289  78.353 119.207  0.00  0.00    -0.276 OA
ATOM     17  H   LIG d   1      -4.977  78.268 116.334  0.00  0.00     0.149 HD
ENDBRANCH   6  13
BRANCH   5  18
ATOM     18  N   LIG d   1      -3.159  77.539 119.493  0.00  0.00     0.381 N 
ATOM     19  H   LIG d   1      -3.458  76.962 120.254  0.00  0.00    -0.090 HD
ATOM     20  H   LIG d   1      -3.795  78.313 119.416  0.00  0.00    -0.090 HD
ATOM     21  H   LIG d   1      -2.236  77.873 119.664  0.00  0.00    -0.090 HD
ENDBRANCH   5  18
BRANCH   3  22
ATOM     22  C   LIG d   1      -1.777  73.496 117.328  0.00  0.00     0.382 C 
ATOM     23  O   LIG d   1      -1.205  73.308 116.228  0.00  0.00    -0.241 OA
ATOM     24  O   LIG d   1      -1.513  72.754 118.293  0.00  0.00    -0.241 OA
ENDBRANCH   3  22
TORSDOF 7
ENDMDL
MODEL 3
REMARK VINA RESULT:      -5.1      1.116      1.427
REMARK  7 active torsions:
REMARK  status: ('A' for Active; 'I' for Inactive)
REMARK    1  A    between atoms: C_2  and  C_3 
REMARK    2  A    between atoms: C_3  and  O_6 
REMARK    3  A    between atoms: C_3  and  C_4 
REMARK    4  A    between atoms: C_7  and  O_6 
REMARK    5  A    between atoms: C_9  and  C_10 
REMARK    6  A    between atoms: N_15  and  C_14 
REMARK    7  A    between atoms: N_20  and  C_19 
REMARK       I    between atoms: C_22  and  N_20 
ROOT
ATOM      1  C   LIG d   1      -6.308  77.509 117.321  0.00  0.00     0.161 C 
ATOM      2  C   LIG d   1      -7.663  77.701 117.640  0.00  0.00     0.016 C 
ATOM      3  C   LIG d   1      -8.254  78.977 117.785  0.00  0.00     0.038 C 
ATOM      4  C   LIG d   1      -7.561  80.156 117.471  0.00  0.00     0.028 C 
ATOM      5  C   LIG d   1      -6.050  80.031 117.634  0.00  0.00    -0.047 C 
ATOM      6  C   LIG d   1      -5.563  78.781 116.866  0.00  0.00     0.091 C 
ENDROOT
BRANCH   1   7
ATOM      7  O   LIG d   1      -6.182  76.472 116.327  0.00  0.00    -0.368 OA
BRANCH   7   8
ATOM      8  C   LIG d   1      -5.585  75.230 116.774  0.00  0.00     0.119 C 
BRANCH   8   9
ATOM      9  C   LIG d   1      -4.320  74.994 115.926  0.00  0.00     0.028 C 
ATOM     10  C   LIG d   1      -3.038  74.988 116.774  0.00  0.00     0.006 C 
ENDBRANCH   8   9
BRANCH   8  11
ATOM     11  C   LIG d   1      -6.498  74.036 116.481  0.00  0.00     0.028 C 
ATOM     12  C   LIG d   1      -7.670  73.925 117.470  0.00  0.00     0.006 C 
ENDBRANCH   8  11
ENDBRANCH   7   8
ENDBRANCH   1   7
BRANCH   6  13
ATOM     13  N   LIG d   1      -4.108  78.538 117.043  0.00  0.00    -0.311 N 
ATOM     14  C   LIG d   1      -3.184  78.958 116.180  0.00  0.00     0.210 C 
ATOM     15  C   LIG d   1      -1.743  78.584 116.542  0.00  0.00     0.109 C 
ATOM     16  O   LIG d   1      -3.418  79.634 115.167  0.00  0.00    -0.276 OA
ATOM     17  H   LIG d   1      -3.827  78.024 117.855  0.00  0.00     0.149 HD
ENDBRANCH   6  13
BRANCH   5  18
ATOM     18  N   LIG d   1      -5.444  81.284 117.143  0.00  0.00     0.381 N 
ATOM     19  H   LIG d   1      -4.704  81.565 117.755  0.00  0.00    -0.090 HD
ATOM     20  H   LIG d   1      -6.143  82.005 117.142  0.00  0.00    -0.090 HD
ATOM     21  H   LIG d   1      -5.090  81.152 116.221  0.00  0.00    -0.090 HD
ENDBRANCH   5  18
BRANCH   3  22
ATOM     22  C   LIG d   1      -9.542  79.085 118.288  0.00  0.00     0.382 C 
ATOM     23  O   LIG d   1     -10.381  78.181 118.059  0.00  0.00    -0.241 OA
ATOM     24  O   LIG d   1      -9.887  80.095 118.929  0.00  0.00    -0.241 OA
ENDBRANCH   3  22
TORSDOF 7
ENDMDL
MODEL 4
REMARK VINA RESULT:      -5.0      1.943      2.989
REMARK  7 active torsions:
REMARK  status: ('A' for Active; 'I' for Inactive)
REMARK    1  A    between atoms: C_2  and  C_3 
REMARK    2  A    between atoms: C_3  and  O_6 
REMARK    3  A    between atoms: C_3  and  C_4 
REMARK    4  A    between atoms: C_7  and  O_6 
REMARK    5  A    between atoms: C_9  and  C_10 
REMARK    6  A    between atoms: N_15  and  C_14 
REMARK    7  A    between atoms: N_20  and  C_19 
REMARK       I    between atoms: C_22  and  N_20 
ROOT
ATOM      1  C   LIG d   1      -5.590  78.503 117.086  0.00  0.00     0.161 C 
ATOM      2  C   LIG d   1      -6.858  77.911 117.209  0.00  0.00     0.016 C 
ATOM      3  C   LIG d   1      -8.027  78.636 117.535  0.00  0.00     0.038 C 
ATOM      4  C   LIG d   1      -8.033  80.036 117.613  0.00  0.00     0.028 C 
ATOM      5  C   LIG d   1      -6.680  80.628 117.994  0.00  0.00    -0.047 C 
ATOM      6  C   LIG d   1      -5.597  80.045 117.058  0.00  0.00     0.091 C 
ENDROOT
BRANCH   1   7
ATOM      7  O   LIG d   1      -4.919  77.983 115.921  0.00  0.00    -0.368 OA
BRANCH   7   8
ATOM      8  C   LIG d   1      -4.559  76.581 115.965  0.00  0.00     0.119 C 
BRANCH   8   9
ATOM      9  C   LIG d   1      -3.038  76.486 115.737  0.00  0.00     0.028 C 
ATOM     10  C   LIG d   1      -2.442  77.799 115.202  0.00  0.00     0.006 C 
ENDBRANCH   8   9
BRANCH   8  11
ATOM     11  C   LIG d   1      -5.191  75.806 114.805  0.00  0.00     0.028 C 
ATOM     12  C   LIG d   1      -5.750  74.440 115.235  0.00  0.00     0.006 C 
ENDBRANCH   8  11
ENDBRANCH   7   8
ENDBRANCH   1   7
BRANCH   6  13
ATOM     13  N   LIG d   1      -4.230  80.507 117.417  0.00  0.00    -0.311 N 
ATOM     14  C   LIG d   1      -3.626  81.536 116.825  0.00  0.00     0.210 C 
ATOM     15  C   LIG d   1      -2.211  81.833 117.332  0.00  0.00     0.109 C 
ATOM     16  O   LIG d   1      -4.139  82.251 115.952  0.00  0.00    -0.276 OA
ATOM     17  H   LIG d   1      -3.753  80.003 118.138  0.00  0.00     0.149 HD
ENDBRANCH   6  13
BRANCH   5  18
ATOM     18  N   LIG d   1      -6.794  82.095 117.904  0.00  0.00     0.381 N 
ATOM     19  H   LIG d   1      -6.590  82.395 116.972  0.00  0.00    -0.090 HD
ATOM     20  H   LIG d   1      -6.122  82.512 118.524  0.00  0.00    -0.090 HD
ATOM     21  H   LIG d   1      -7.714  82.382 118.159  0.00  0.00    -0.090 HD
ENDBRANCH   5  18
BRANCH   3  22
ATOM     22  C   LIG d   1      -9.200  77.955 117.826  0.00  0.00     0.382 C 
ATOM     23  O   LIG d   1      -9.295  76.731 117.565  0.00  0.00    -0.241 OA
ATOM     24  O   LIG d   1     -10.178  78.558 118.306  0.00  0.00    -0.241 OA
ENDBRANCH   3  22
TORSDOF 7
ENDMDL
MODEL 5
REMARK VINA RESULT:      -5.0      2.384      4.692
REMARK  7 active torsions:
REMARK  status: ('A' for Active; 'I' for Inactive)
REMARK    1  A    between atoms: C_2  and  C_3 
REMARK    2  A    between atoms: C_3  and  O_6 
REMARK    3  A    between atoms: C_3  and  C_4 
REMARK    4  A    between atoms: C_7  and  O_6 
REMARK    5  A    between atoms: C_9  and  C_10 
REMARK    6  A    between atoms: N_15  and  C_14 
REMARK    7  A    between atoms: N_20  and  C_19 
REMARK       I    between atoms: C_22  and  N_20 
ROOT
ATOM      1  C   LIG d   1      -5.656  76.970 116.570  0.00  0.00     0.161 C 
ATOM      2  C   LIG d   1      -6.978  77.290 116.919  0.00  0.00     0.016 C 
ATOM      3  C   LIG d   1      -7.966  76.318 117.201  0.00  0.00     0.038 C 
ATOM      4  C   LIG d   1      -7.655  74.954 117.302  0.00  0.00     0.028 C 
ATOM      5  C   LIG d   1      -6.449  74.544 116.464  0.00  0.00    -0.047 C 
ATOM      6  C   LIG d   1      -5.270  75.491 116.784  0.00  0.00     0.091 C 
ENDROOT
BRANCH   1   7
ATOM      7  O   LIG d   1      -4.742  77.833 117.276  0.00  0.00    -0.368 OA
BRANCH   7   8
ATOM      8  C   LIG d   1      -4.247  78.977 116.538  0.00  0.00     0.119 C 
BRANCH   8   9
ATOM      9  C   LIG d   1      -2.742  78.754 116.293  0.00  0.00     0.028 C 
ATOM     10  C   LIG d   1      -2.447  78.250 114.871  0.00  0.00     0.006 C 
ENDBRANCH   8   9
BRANCH   8  11
ATOM     11  C   LIG d   1      -4.337  80.259 117.372  0.00  0.00     0.028 C 
ATOM     12  C   LIG d   1      -5.699  80.958 117.244  0.00  0.00     0.006 C 
ENDBRANCH   8  11
ENDBRANCH   7   8
ENDBRANCH   1   7
BRANCH   6  13
ATOM     13  N   LIG d   1      -4.076  75.212 115.945  0.00  0.00    -0.311 N 
ATOM     14  C   LIG d   1      -3.107  74.372 116.306  0.00  0.00     0.210 C 
ATOM     15  C   LIG d   1      -1.955  74.245 115.304  0.00  0.00     0.109 C 
ATOM     16  O   LIG d   1      -3.108  73.695 117.345  0.00  0.00    -0.276 OA
ATOM     17  H   LIG d   1      -4.009  75.695 115.071  0.00  0.00     0.149 HD
ENDBRANCH   6  13
BRANCH   5  18
ATOM     18  N   LIG d   1      -6.154  73.131 116.770  0.00  0.00     0.381 N 
ATOM     19  H   LIG d   1      -5.169  73.009 116.892  0.00  0.00    -0.090 HD
ATOM     20  H   LIG d   1      -6.449  72.563 115.995  0.00  0.00    -0.090 HD
ATOM     21  H   LIG d   1      -6.635  72.853 117.597  0.00  0.00    -0.090 HD
ENDBRANCH   5  18
BRANCH   3  22
ATOM     22  C   LIG d   1      -9.289  76.705 117.347  0.00  0.00     0.382 C 
ATOM     23  O   LIG d   1     -10.212  75.914 117.037  0.00  0.00    -0.241 OA
ATOM     24  O   LIG d   1      -9.572  77.852 117.743  0.00  0.00    -0.241 OA
ENDBRANCH   3  22
TORSDOF 7
ENDMDL
MODEL 6
REMARK VINA RESULT:      -4.9     13.475     15.896
REMARK  7 active torsions:
REMARK  status: ('A' for Active; 'I' for Inactive)
REMARK    1  A    between atoms: C_2  and  C_3 
REMARK    2  A    between atoms: C_3  and  O_6 
REMARK    3  A    between atoms: C_3  and  C_4 
REMARK    4  A    between atoms: C_7  and  O_6 
REMARK    5  A    between atoms: C_9  and  C_10 
REMARK    6  A    between atoms: N_15  and  C_14 
REMARK    7  A    between atoms: N_20  and  C_19 
REMARK       I    between atoms: C_22  and  N_20 
ROOT
ATOM      1  C   LIG d   1      -5.336  91.846 118.958  0.00  0.00     0.161 C 
ATOM      2  C   LIG d   1      -4.237  91.977 119.823  0.00  0.00     0.016 C 
ATOM      3  C   LIG d   1      -2.966  91.418 119.555  0.00  0.00     0.038 C 
ATOM      4  C   LIG d   1      -2.665  90.814 118.325  0.00  0.00     0.028 C 
ATOM      5  C   LIG d   1      -3.884  90.216 117.630  0.00  0.00    -0.047 C 
ATOM      6  C   LIG d   1      -4.997  91.286 117.561  0.00  0.00     0.091 C 
ENDROOT
BRANCH   1   7
ATOM      7  O   LIG d   1      -6.018  93.111 118.839  0.00  0.00    -0.368 OA
BRANCH   7   8
ATOM      8  C   LIG d   1      -6.591  93.643 120.059  0.00  0.00     0.119 C 
BRANCH   8   9
ATOM      9  C   LIG d   1      -7.892  94.375 119.677  0.00  0.00     0.028 C 
ATOM     10  C   LIG d   1      -9.045  94.068 120.648  0.00  0.00     0.006 C 
ENDBRANCH   8   9
BRANCH   8  11
ATOM     11  C   LIG d   1      -5.689  94.714 120.677  0.00  0.00     0.028 C 
ATOM     12  C   LIG d   1      -5.221  95.763 119.655  0.00  0.00     0.006 C 
ENDBRANCH   8  11
ENDBRANCH   7   8
ENDBRANCH   1   7
BRANCH   6  13
ATOM     13  N   LIG d   1      -6.255  90.758 116.970  0.00  0.00    -0.311 N 
ATOM     14  C   LIG d   1      -6.542  90.831 115.672  0.00  0.00     0.210 C 
ATOM     15  C   LIG d   1      -7.901  90.243 115.277  0.00  0.00     0.109 C 
ATOM     16  O   LIG d   1      -5.788  91.297 114.806  0.00  0.00    -0.276 OA
ATOM     17  H   LIG d   1      -6.911  90.335 117.598  0.00  0.00     0.149 HD
ENDBRANCH   6  13
BRANCH   5  18
ATOM     18  N   LIG d   1      -3.452  89.744 116.301  0.00  0.00     0.381 N 
ATOM     19  H   LIG d   1      -3.603  90.462 115.621  0.00  0.00    -0.090 HD
ATOM     20  H   LIG d   1      -4.005  88.945 116.045  0.00  0.00    -0.090 HD
ATOM     21  H   LIG d   1      -2.487  89.496 116.324  0.00  0.00    -0.090 HD
ENDBRANCH   5  18
BRANCH   3  22
ATOM     22  C   LIG d   1      -1.991  91.425 120.541  0.00  0.00     0.382 C 
ATOM     23  O   LIG d   1      -2.047  90.599 121.484  0.00  0.00    -0.241 OA
ATOM     24  O   LIG d   1      -1.081  92.275 120.524  0.00  0.00    -0.241 OA
ENDBRANCH   3  22
TORSDOF 7
ENDMDL
MODEL 7
REMARK VINA RESULT:      -4.8      2.620      4.595
REMARK  7 active torsions:
REMARK  status: ('A' for Active; 'I' for Inactive)
REMARK    1  A    between atoms: C_2  and  C_3 
REMARK    2  A    between atoms: C_3  and  O_6 
REMARK    3  A    between atoms: C_3  and  C_4 
REMARK    4  A    between atoms: C_7  and  O_6 
REMARK    5  A    between atoms: C_9  and  C_10 
REMARK    6  A    between atoms: N_15  and  C_14 
REMARK    7  A    between atoms: N_20  and  C_19 
REMARK       I    between atoms: C_22  and  N_20 
ROOT
ATOM      1  C   LIG d   1      -5.423  76.844 116.713  0.00  0.00     0.161 C 
ATOM      2  C   LIG d   1      -6.732  77.208 117.068  0.00  0.00     0.016 C 
ATOM      3  C   LIG d   1      -7.776  76.273 117.256  0.00  0.00     0.038 C 
ATOM      4  C   LIG d   1      -7.543  74.890 117.248  0.00  0.00     0.028 C 
ATOM      5  C   LIG d   1      -6.346  74.482 116.396  0.00  0.00    -0.047 C 
ATOM      6  C   LIG d   1      -5.123  75.333 116.809  0.00  0.00     0.091 C 
ENDROOT
BRANCH   1   7
ATOM      7  O   LIG d   1      -4.477  77.593 117.500  0.00  0.00    -0.368 OA
BRANCH   7   8
ATOM      8  C   LIG d   1      -3.992  76.945 118.701  0.00  0.00     0.119 C 
BRANCH   8   9
ATOM      9  C   LIG d   1      -4.587  77.699 119.906  0.00  0.00     0.028 C 
ATOM     10  C   LIG d   1      -5.647  76.870 120.652  0.00  0.00     0.006 C 
ENDBRANCH   8   9
BRANCH   8  11
ATOM     11  C   LIG d   1      -2.474  77.093 118.840  0.00  0.00     0.028 C 
ATOM     12  C   LIG d   1      -1.806  77.617 117.559  0.00  0.00     0.006 C 
ENDBRANCH   8  11
ENDBRANCH   7   8
ENDBRANCH   1   7
BRANCH   6  13
ATOM     13  N   LIG d   1      -3.930  75.057 115.967  0.00  0.00    -0.311 N 
ATOM     14  C   LIG d   1      -2.948  74.235 116.334  0.00  0.00     0.210 C 
ATOM     15  C   LIG d   1      -1.802  74.107 115.326  0.00  0.00     0.109 C 
ATOM     16  O   LIG d   1      -2.933  73.575 117.384  0.00  0.00    -0.276 OA
ATOM     17  H   LIG d   1      -3.876  75.526 115.084  0.00  0.00     0.149 HD
ENDBRANCH   6  13
BRANCH   5  18
ATOM     18  N   LIG d   1      -6.135  73.035 116.588  0.00  0.00     0.381 N 
ATOM     19  H   LIG d   1      -5.155  72.832 116.583  0.00  0.00    -0.090 HD
ATOM     20  H   LIG d   1      -6.563  72.540 115.826  0.00  0.00    -0.090 HD
ATOM     21  H   LIG d   1      -6.537  72.743 117.451  0.00  0.00    -0.090 HD
ENDBRANCH   5  18
BRANCH   3  22
ATOM     22  C   LIG d   1      -9.079  76.721 117.415  0.00  0.00     0.382 C 
ATOM     23  O   LIG d   1      -9.299  77.832 117.953  0.00  0.00    -0.241 OA
ATOM     24  O   LIG d   1     -10.039  76.007 117.067  0.00  0.00    -0.241 OA
ENDBRANCH   3  22
TORSDOF 7
ENDMDL
MODEL 8
REMARK VINA RESULT:      -4.8      2.798      5.099
REMARK  7 active torsions:
REMARK  status: ('A' for Active; 'I' for Inactive)
REMARK    1  A    between atoms: C_2  and  C_3 
REMARK    2  A    between atoms: C_3  and  O_6 
REMARK    3  A    between atoms: C_3  and  C_4 
REMARK    4  A    between atoms: C_7  and  O_6 
REMARK    5  A    between atoms: C_9  and  C_10 
REMARK    6  A    between atoms: N_15  and  C_14 
REMARK    7  A    between atoms: N_20  and  C_19 
REMARK       I    between atoms: C_22  and  N_20 
ROOT
ATOM      1  C   LIG d   1      -4.956  75.413 116.039  0.00  0.00     0.161 C 
ATOM      2  C   LIG d   1      -4.672  76.782 116.179  0.00  0.00     0.016 C 
ATOM      3  C   LIG d   1      -5.597  77.719 116.693  0.00  0.00     0.038 C 
ATOM      4  C   LIG d   1      -6.824  77.323 117.247  0.00  0.00     0.028 C 
ATOM      5  C   LIG d   1      -7.358  76.018 116.667  0.00  0.00    -0.047 C 
ATOM      6  C   LIG d   1      -6.247  74.945 116.741  0.00  0.00     0.091 C 
ENDROOT
BRANCH   1   7
ATOM      7  O   LIG d   1      -3.830  74.633 116.488  0.00  0.00    -0.368 OA
BRANCH   7   8
ATOM      8  C   LIG d   1      -2.599  75.362 116.715  0.00  0.00     0.119 C 
BRANCH   8   9
ATOM      9  C   LIG d   1      -1.588  74.907 115.644  0.00  0.00     0.028 C 
ATOM     10  C   LIG d   1      -0.624  76.033 115.231  0.00  0.00     0.006 C 
ENDBRANCH   8   9
BRANCH   8  11
ATOM     11  C   LIG d   1      -1.966  74.983 118.057  0.00  0.00     0.028 C 
ATOM     12  C   LIG d   1      -1.696  73.476 118.184  0.00  0.00     0.006 C 
ENDBRANCH   8  11
ENDBRANCH   7   8
ENDBRANCH   1   7
BRANCH   6  13
ATOM     13  N   LIG d   1      -6.658  73.661 116.117  0.00  0.00    -0.311 N 
ATOM     14  C   LIG d   1      -7.303  72.699 116.775  0.00  0.00     0.210 C 
ATOM     15  C   LIG d   1      -7.615  71.447 115.949  0.00  0.00     0.109 C 
ATOM     16  O   LIG d   1      -7.674  72.776 117.956  0.00  0.00    -0.276 OA
ATOM     17  H   LIG d   1      -6.425  73.527 115.152  0.00  0.00     0.149 HD
ENDBRANCH   6  13
BRANCH   5  18
ATOM     18  N   LIG d   1      -8.567  75.653 117.429  0.00  0.00     0.381 N 
ATOM     19  H   LIG d   1      -8.821  74.707 117.227  0.00  0.00    -0.090 HD
ATOM     20  H   LIG d   1      -9.323  76.250 117.144  0.00  0.00    -0.090 HD
ATOM     21  H   LIG d   1      -8.399  75.759 118.405  0.00  0.00    -0.090 HD
ENDBRANCH   5  18
BRANCH   3  22
ATOM     22  C   LIG d   1      -5.315  79.075 116.620  0.00  0.00     0.382 C 
ATOM     23  O   LIG d   1      -4.201  79.461 116.189  0.00  0.00    -0.241 OA
ATOM     24  O   LIG d   1      -6.142  79.915 117.021  0.00  0.00    -0.241 OA
ENDBRANCH   3  22
TORSDOF 7
ENDMDL
MODEL 9
REMARK VINA RESULT:      -4.7     12.469     15.030
REMARK  7 active torsions:
REMARK  status: ('A' for Active; 'I' for Inactive)
REMARK    1  A    between atoms: C_2  and  C_3 
REMARK    2  A    between atoms: C_3  and  O_6 
REMARK    3  A    between atoms: C_3  and  C_4 
REMARK    4  A    between atoms: C_7  and  O_6 
REMARK    5  A    between atoms: C_9  and  C_10 
REMARK    6  A    between atoms: N_15  and  C_14 
REMARK    7  A    between atoms: N_20  and  C_19 
REMARK       I    between atoms: C_22  and  N_20 
ROOT
ATOM      1  C   LIG d   1       1.013  89.491 116.689  0.00  0.00     0.161 C 
ATOM      2  C   LIG d   1       2.305  90.009 116.880  0.00  0.00     0.016 C 
ATOM      3  C   LIG d   1       2.556  91.305 117.388  0.00  0.00     0.038 C 
ATOM      4  C   LIG d   1       1.527  92.119 117.884  0.00  0.00     0.028 C 
ATOM      5  C   LIG d   1       0.171  91.838 117.246  0.00  0.00    -0.047 C 
ATOM      6  C   LIG d   1      -0.119  90.322 117.329  0.00  0.00     0.091 C 
ENDROOT
BRANCH   1   7
ATOM      7  O   LIG d   1       0.960  88.128 117.157  0.00  0.00    -0.368 OA
BRANCH   7   8
ATOM      8  C   LIG d   1       1.369  87.112 116.208  0.00  0.00     0.119 C 
BRANCH   8   9
ATOM      9  C   LIG d   1       0.089  86.476 115.631  0.00  0.00     0.028 C 
ATOM     10  C   LIG d   1       0.016  84.962 115.896  0.00  0.00     0.006 C 
ENDBRANCH   8   9
BRANCH   8  11
ATOM     11  C   LIG d   1       2.113  85.969 116.903  0.00  0.00     0.028 C 
ATOM     12  C   LIG d   1       2.459  86.285 118.366  0.00  0.00     0.006 C 
ENDBRANCH   8  11
ENDBRANCH   7   8
ENDBRANCH   1   7
BRANCH   6  13
ATOM     13  N   LIG d   1      -1.388  89.949 116.652  0.00  0.00    -0.311 N 
ATOM     14  C   LIG d   1      -2.539  89.771 117.299  0.00  0.00     0.210 C 
ATOM     15  C   LIG d   1      -3.723  89.370 116.413  0.00  0.00     0.109 C 
ATOM     16  O   LIG d   1      -2.699  89.939 118.517  0.00  0.00    -0.276 OA
ATOM     17  H   LIG d   1      -1.356  89.823 115.659  0.00  0.00     0.149 HD
ENDBRANCH   6  13
BRANCH   5  18
ATOM     18  N   LIG d   1      -0.832  92.658 117.951  0.00  0.00     0.381 N 
ATOM     19  H   LIG d   1      -1.468  93.059 117.290  0.00  0.00    -0.090 HD
ATOM     20  H   LIG d   1      -0.362  93.405 118.430  0.00  0.00    -0.090 HD
ATOM     21  H   LIG d   1      -1.333  92.097 118.605  0.00  0.00    -0.090 HD
ENDBRANCH   5  18
BRANCH   3  22
ATOM     22  C   LIG d   1       3.845  91.814 117.365  0.00  0.00     0.382 C 
ATOM     23  O   LIG d   1       4.801  91.119 117.788  0.00  0.00    -0.241 OA
ATOM     24  O   LIG d   1       4.059  92.975 116.969  0.00  0.00    -0.241 OA
ENDBRANCH   3  22
TORSDOF 7
ENDMDL
