MODEL 1
REMARK VINA RESULT:      -6.0      0.000      0.000
REMARK  7 active torsions:
REMARK  status: ('A' for Active; 'I' for Inactive)
REMARK    1  A    between atoms: C_2  and  C_3 
REMARK    2  A    between atoms: C_3  and  O_6 
REMARK    3  A    between atoms: C_3  and  C_4 
REMARK    4  A    between atoms: C_7  and  O_6 
REMARK    5  A    between atoms: C_9  and  C_10 
REMARK    6  A    between atoms: N_15  and  C_14 
REMARK    7  A    between atoms: N_20  and  C_19 
REMARK       I    between atoms: C_22  and  N_20 
ROOT
ATOM      1  C   LIG d   1      -6.227  75.173 116.677  0.00  0.00     0.161 C 
ATOM      2  C   LIG d   1      -5.021  74.552 116.309  0.00  0.00     0.016 C 
ATOM      3  C   LIG d   1      -3.756  74.968 116.783  0.00  0.00     0.038 C 
ATOM      4  C   LIG d   1      -3.622  75.944 117.782  0.00  0.00     0.028 C 
ATOM      5  C   LIG d   1      -4.774  76.943 117.811  0.00  0.00    -0.047 C 
ATOM      6  C   LIG d   1      -6.111  76.167 117.851  0.00  0.00     0.091 C 
ENDROOT
BRANCH   1   7
ATOM      7  O   LIG d   1      -7.223  74.172 116.964  0.00  0.00    -0.368 OA
BRANCH   7   8
ATOM      8  C   LIG d   1      -6.726  72.890 117.421  0.00  0.00     0.119 C 
BRANCH   8   9
ATOM      9  C   LIG d   1      -7.251  71.817 116.447  0.00  0.00     0.028 C 
ATOM     10  C   LIG d   1      -8.378  70.969 117.060  0.00  0.00     0.006 C 
ENDBRANCH   8   9
BRANCH   8  11
ATOM     11  C   LIG d   1      -7.312  72.520 118.786  0.00  0.00     0.028 C 
ATOM     12  C   LIG d   1      -7.596  73.748 119.666  0.00  0.00     0.006 C 
ENDBRANCH   8  11
ENDBRANCH   7   8
ENDBRANCH   1   7
BRANCH   6  13
ATOM     13  N   LIG d   1      -7.291  77.068 117.796  0.00  0.00    -0.311 N 
ATOM     14  C   LIG d   1      -7.919  77.521 118.880  0.00  0.00     0.210 C 
ATOM     15  C   LIG d   1      -9.126  78.422 118.599  0.00  0.00     0.109 C 
ATOM     16  O   LIG d   1      -7.571  77.289 120.047  0.00  0.00    -0.276 OA
ATOM     17  H   LIG d   1      -7.622  77.332 116.888  0.00  0.00     0.149 HD
ENDBRANCH   6  13
BRANCH   5  18
ATOM     18  N   LIG d   1      -4.578  77.817 118.983  0.00  0.00     0.381 N 
ATOM     19  H   LIG d   1      -5.307  77.658 119.650  0.00  0.00    -0.090 HD
ATOM     20  H   LIG d   1      -4.625  78.775 118.686  0.00  0.00    -0.090 HD
ATOM     21  H   LIG d   1      -3.691  77.634 119.400  0.00  0.00    -0.090 HD
ENDBRANCH   5  18
BRANCH   3  22
ATOM     22  C   LIG d   1      -2.604  74.433 116.228  0.00  0.00     0.382 C 
ATOM     23  O   LIG d   1      -2.342  74.630 115.016  0.00  0.00    -0.241 OA
ATOM     24  O   LIG d   1      -1.845  73.719 116.911  0.00  0.00    -0.241 OA
ENDBRANCH   3  22
TORSDOF 7
ENDMDL
MODEL 2
REMARK VINA RESULT:      -5.6     15.534     18.541
REMARK  7 active torsions:
REMARK  status: ('A' for Active; 'I' for Inactive)
REMARK    1  A    between atoms: C_2  and  C_3 
REMARK    2  A    between atoms: C_3  and  O_6 
REMARK    3  A    between atoms: C_3  and  C_4 
REMARK    4  A    between atoms: C_7  and  O_6 
REMARK    5  A    between atoms: C_9  and  C_10 
REMARK    6  A    between atoms: N_15  and  C_14 
REMARK    7  A    between atoms: N_20  and  C_19 
REMARK       I    between atoms: C_22  and  N_20 
ROOT
ATOM      1  C   LIG d   1      -6.201  93.156 117.622  0.00  0.00     0.161 C 
ATOM      2  C   LIG d   1      -6.706  91.993 117.015  0.00  0.00     0.016 C 
ATOM      3  C   LIG d   1      -5.884  90.984 116.463  0.00  0.00     0.038 C 
ATOM      4  C   LIG d   1      -4.490  90.998 116.616  0.00  0.00     0.028 C 
ATOM      5  C   LIG d   1      -3.911  92.399 116.777  0.00  0.00    -0.047 C 
ATOM      6  C   LIG d   1      -4.683  93.135 117.897  0.00  0.00     0.091 C 
ENDROOT
BRANCH   1   7
ATOM      7  O   LIG d   1      -6.927  93.427 118.838  0.00  0.00    -0.368 OA
BRANCH   7   8
ATOM      8  C   LIG d   1      -8.042  94.345 118.723  0.00  0.00     0.119 C 
BRANCH   8   9
ATOM      9  C   LIG d   1      -7.567  95.717 119.239  0.00  0.00     0.028 C 
ATOM     10  C   LIG d   1      -7.268  96.702 118.096  0.00  0.00     0.006 C 
ENDBRANCH   8   9
BRANCH   8  11
ATOM     11  C   LIG d   1      -9.194  93.941 119.648  0.00  0.00     0.028 C 
ATOM     12  C   LIG d   1      -8.713  93.216 120.916  0.00  0.00     0.006 C 
ENDBRANCH   8  11
ENDBRANCH   7   8
ENDBRANCH   1   7
BRANCH   6  13
ATOM     13  N   LIG d   1      -4.237  94.543 118.063  0.00  0.00    -0.311 N 
ATOM     14  C   LIG d   1      -3.885  95.067 119.236  0.00  0.00     0.210 C 
ATOM     15  C   LIG d   1      -3.476  96.542 119.188  0.00  0.00     0.109 C 
ATOM     16  O   LIG d   1      -3.843  94.441 120.306  0.00  0.00    -0.276 OA
ATOM     17  H   LIG d   1      -4.211  95.113 117.240  0.00  0.00     0.149 HD
ENDBRANCH   6  13
BRANCH   5  18
ATOM     18  N   LIG d   1      -2.472  92.257 117.065  0.00  0.00     0.381 N 
ATOM     19  H   LIG d   1      -2.064  93.160 117.205  0.00  0.00    -0.090 HD
ATOM     20  H   LIG d   1      -2.023  91.828 116.275  0.00  0.00    -0.090 HD
ATOM     21  H   LIG d   1      -2.340  91.695 117.877  0.00  0.00    -0.090 HD
ENDBRANCH   5  18
BRANCH   3  22
ATOM     22  C   LIG d   1      -6.455  89.967 115.714  0.00  0.00     0.382 C 
ATOM     23  O   LIG d   1      -7.658  90.043 115.367  0.00  0.00    -0.241 OA
ATOM     24  O   LIG d   1      -5.794  88.953 115.418  0.00  0.00    -0.241 OA
ENDBRANCH   3  22
TORSDOF 7
ENDMDL
MODEL 3
REMARK VINA RESULT:      -5.5     14.956     17.664
REMARK  7 active torsions:
REMARK  status: ('A' for Active; 'I' for Inactive)
REMARK    1  A    between atoms: C_2  and  C_3 
REMARK    2  A    between atoms: C_3  and  O_6 
REMARK    3  A    between atoms: C_3  and  C_4 
REMARK    4  A    between atoms: C_7  and  O_6 
REMARK    5  A    between atoms: C_9  and  C_10 
REMARK    6  A    between atoms: N_15  and  C_14 
REMARK    7  A    between atoms: N_20  and  C_19 
REMARK       I    between atoms: C_22  and  N_20 
ROOT
ATOM      1  C   LIG d   1      -3.259  92.064 117.197  0.00  0.00     0.161 C 
ATOM      2  C   LIG d   1      -4.436  92.806 117.011  0.00  0.00     0.016 C 
ATOM      3  C   LIG d   1      -5.563  92.316 116.312  0.00  0.00     0.038 C 
ATOM      4  C   LIG d   1      -5.645  90.984 115.879  0.00  0.00     0.028 C 
ATOM      5  C   LIG d   1      -4.286  90.353 115.601  0.00  0.00    -0.047 C 
ATOM      6  C   LIG d   1      -3.371  90.569 116.828  0.00  0.00     0.091 C 
ENDROOT
BRANCH   1   7
ATOM      7  O   LIG d   1      -2.797  92.211 118.554  0.00  0.00    -0.368 OA
BRANCH   7   8
ATOM      8  C   LIG d   1      -1.676  93.106 118.753  0.00  0.00     0.119 C 
BRANCH   8   9
ATOM      9  C   LIG d   1      -1.000  93.313 117.383  0.00  0.00     0.028 C 
ATOM     10  C   LIG d   1       0.420  92.726 117.335  0.00  0.00     0.006 C 
ENDBRANCH   8   9
BRANCH   8  11
ATOM     11  C   LIG d   1      -0.604  92.469 119.641  0.00  0.00     0.028 C 
ATOM     12  C   LIG d   1      -1.144  91.301 120.481  0.00  0.00     0.006 C 
ENDBRANCH   8  11
ENDBRANCH   7   8
ENDBRANCH   1   7
BRANCH   6  13
ATOM     13  N   LIG d   1      -1.994  90.056 116.607  0.00  0.00    -0.311 N 
ATOM     14  C   LIG d   1      -1.413  89.153 117.395  0.00  0.00     0.210 C 
ATOM     15  C   LIG d   1       0.018  88.775 117.000  0.00  0.00     0.109 C 
ATOM     16  O   LIG d   1      -1.958  88.606 118.365  0.00  0.00    -0.276 OA
ATOM     17  H   LIG d   1      -1.491  90.423 115.824  0.00  0.00     0.149 HD
ENDBRANCH   6  13
BRANCH   5  18
ATOM     18  N   LIG d   1      -4.511  88.928 115.292  0.00  0.00     0.381 N 
ATOM     19  H   LIG d   1      -4.160  88.720 114.378  0.00  0.00    -0.090 HD
ATOM     20  H   LIG d   1      -5.499  88.746 115.299  0.00  0.00    -0.090 HD
ATOM     21  H   LIG d   1      -4.055  88.356 115.968  0.00  0.00    -0.090 HD
ENDBRANCH   5  18
BRANCH   3  22
ATOM     22  C   LIG d   1      -6.608  93.174 116.005  0.00  0.00     0.382 C 
ATOM     23  O   LIG d   1      -7.155  93.118 114.877  0.00  0.00    -0.241 OA
ATOM     24  O   LIG d   1      -6.981  94.034 116.825  0.00  0.00    -0.241 OA
ENDBRANCH   3  22
TORSDOF 7
ENDMDL
MODEL 4
REMARK VINA RESULT:      -5.4     14.928     17.299
REMARK  7 active torsions:
REMARK  status: ('A' for Active; 'I' for Inactive)
REMARK    1  A    between atoms: C_2  and  C_3 
REMARK    2  A    between atoms: C_3  and  O_6 
REMARK    3  A    between atoms: C_3  and  C_4 
REMARK    4  A    between atoms: C_7  and  O_6 
REMARK    5  A    between atoms: C_9  and  C_10 
REMARK    6  A    between atoms: N_15  and  C_14 
REMARK    7  A    between atoms: N_20  and  C_19 
REMARK       I    between atoms: C_22  and  N_20 
ROOT
ATOM      1  C   LIG d   1      -3.247  92.214 117.305  0.00  0.00     0.161 C 
ATOM      2  C   LIG d   1      -4.478  92.848 117.070  0.00  0.00     0.016 C 
ATOM      3  C   LIG d   1      -5.552  92.234 116.386  0.00  0.00     0.038 C 
ATOM      4  C   LIG d   1      -5.520  90.880 116.020  0.00  0.00     0.028 C 
ATOM      5  C   LIG d   1      -4.110  90.348 115.787  0.00  0.00    -0.047 C 
ATOM      6  C   LIG d   1      -3.234  90.699 117.011  0.00  0.00     0.091 C 
ENDROOT
BRANCH   1   7
ATOM      7  O   LIG d   1      -2.818  92.466 118.658  0.00  0.00    -0.368 OA
BRANCH   7   8
ATOM      8  C   LIG d   1      -3.394  91.614 119.678  0.00  0.00     0.119 C 
BRANCH   8   9
ATOM      9  C   LIG d   1      -4.222  92.513 120.617  0.00  0.00     0.028 C 
ATOM     10  C   LIG d   1      -5.737  92.326 120.423  0.00  0.00     0.006 C 
ENDBRANCH   8   9
BRANCH   8  11
ATOM     11  C   LIG d   1      -2.310  90.993 120.564  0.00  0.00     0.028 C 
ATOM     12  C   LIG d   1      -0.900  91.501 120.224  0.00  0.00     0.006 C 
ENDBRANCH   8  11
ENDBRANCH   7   8
ENDBRANCH   1   7
BRANCH   6  13
ATOM     13  N   LIG d   1      -1.817  90.288 116.830  0.00  0.00    -0.311 N 
ATOM     14  C   LIG d   1      -1.313  89.157 117.321  0.00  0.00     0.210 C 
ATOM     15  C   LIG d   1       0.176  88.936 117.036  0.00  0.00     0.109 C 
ATOM     16  O   LIG d   1      -1.965  88.301 117.937  0.00  0.00    -0.276 OA
ATOM     17  H   LIG d   1      -1.224  90.909 116.315  0.00  0.00     0.149 HD
ENDBRANCH   6  13
BRANCH   5  18
ATOM     18  N   LIG d   1      -4.216  88.896 115.549  0.00  0.00     0.381 N 
ATOM     19  H   LIG d   1      -5.176  88.640 115.435  0.00  0.00    -0.090 HD
ATOM     20  H   LIG d   1      -3.852  88.408 116.348  0.00  0.00    -0.090 HD
ATOM     21  H   LIG d   1      -3.699  88.646 114.734  0.00  0.00    -0.090 HD
ENDBRANCH   5  18
BRANCH   3  22
ATOM     22  C   LIG d   1      -6.658  92.988 116.025  0.00  0.00     0.382 C 
ATOM     23  O   LIG d   1      -7.396  93.483 116.911  0.00  0.00    -0.241 OA
ATOM     24  O   LIG d   1      -6.953  93.144 114.825  0.00  0.00    -0.241 OA
ENDBRANCH   3  22
TORSDOF 7
ENDMDL
MODEL 5
REMARK VINA RESULT:      -5.3      2.787      5.591
REMARK  7 active torsions:
REMARK  status: ('A' for Active; 'I' for Inactive)
REMARK    1  A    between atoms: C_2  and  C_3 
REMARK    2  A    between atoms: C_3  and  O_6 
REMARK    3  A    between atoms: C_3  and  C_4 
REMARK    4  A    between atoms: C_7  and  O_6 
REMARK    5  A    between atoms: C_9  and  C_10 
REMARK    6  A    between atoms: N_15  and  C_14 
REMARK    7  A    between atoms: N_20  and  C_19 
REMARK       I    between atoms: C_22  and  N_20 
ROOT
ATOM      1  C   LIG d   1      -7.595  75.838 120.405  0.00  0.00     0.161 C 
ATOM      2  C   LIG d   1      -8.980  75.647 120.268  0.00  0.00     0.016 C 
ATOM      3  C   LIG d   1      -9.894  76.704 120.054  0.00  0.00     0.038 C 
ATOM      4  C   LIG d   1      -9.465  78.017 119.809  0.00  0.00     0.028 C 
ATOM      5  C   LIG d   1      -8.114  78.340 120.439  0.00  0.00    -0.047 C 
ATOM      6  C   LIG d   1      -7.097  77.250 120.030  0.00  0.00     0.091 C 
ENDROOT
BRANCH   1   7
ATOM      7  O   LIG d   1      -6.886  74.839 119.645  0.00  0.00    -0.368 OA
BRANCH   7   8
ATOM      8  C   LIG d   1      -7.669  74.104 118.673  0.00  0.00     0.119 C 
BRANCH   8   9
ATOM      9  C   LIG d   1      -7.298  72.615 118.811  0.00  0.00     0.028 C 
ATOM     10  C   LIG d   1      -7.605  71.813 117.535  0.00  0.00     0.006 C 
ENDBRANCH   8   9
BRANCH   8  11
ATOM     11  C   LIG d   1      -7.282  74.487 117.241  0.00  0.00     0.028 C 
ATOM     12  C   LIG d   1      -8.218  75.544 116.634  0.00  0.00     0.006 C 
ENDBRANCH   8  11
ENDBRANCH   7   8
ENDBRANCH   1   7
BRANCH   6  13
ATOM     13  N   LIG d   1      -5.770  77.444 120.672  0.00  0.00    -0.311 N 
ATOM     14  C   LIG d   1      -4.639  77.595 119.985  0.00  0.00     0.210 C 
ATOM     15  C   LIG d   1      -3.380  77.761 120.841  0.00  0.00     0.109 C 
ATOM     16  O   LIG d   1      -4.563  77.639 118.748  0.00  0.00    -0.276 OA
ATOM     17  H   LIG d   1      -5.744  77.453 121.672  0.00  0.00     0.149 HD
ENDBRANCH   6  13
BRANCH   5  18
ATOM     18  N   LIG d   1      -7.726  79.690 119.991  0.00  0.00     0.381 N 
ATOM     19  H   LIG d   1      -6.786  79.676 119.647  0.00  0.00    -0.090 HD
ATOM     20  H   LIG d   1      -7.765  80.317 120.775  0.00  0.00    -0.090 HD
ATOM     21  H   LIG d   1      -8.344  80.004 119.275  0.00  0.00    -0.090 HD
ENDBRANCH   5  18
BRANCH   3  22
ATOM     22  C   LIG d   1     -11.257  76.458 120.122  0.00  0.00     0.382 C 
ATOM     23  O   LIG d   1     -11.973  76.607 119.103  0.00  0.00    -0.241 OA
ATOM     24  O   LIG d   1     -11.787  76.132 121.202  0.00  0.00    -0.241 OA
ENDBRANCH   3  22
TORSDOF 7
ENDMDL
MODEL 6
REMARK VINA RESULT:      -5.1     15.313     17.974
REMARK  7 active torsions:
REMARK  status: ('A' for Active; 'I' for Inactive)
REMARK    1  A    between atoms: C_2  and  C_3 
REMARK    2  A    between atoms: C_3  and  O_6 
REMARK    3  A    between atoms: C_3  and  C_4 
REMARK    4  A    between atoms: C_7  and  O_6 
REMARK    5  A    between atoms: C_9  and  C_10 
REMARK    6  A    between atoms: N_15  and  C_14 
REMARK    7  A    between atoms: N_20  and  C_19 
REMARK       I    between atoms: C_22  and  N_20 
ROOT
ATOM      1  C   LIG d   1      -3.927  92.072 117.761  0.00  0.00     0.161 C 
ATOM      2  C   LIG d   1      -4.087  91.031 116.831  0.00  0.00     0.016 C 
ATOM      3  C   LIG d   1      -5.331  90.686 116.255  0.00  0.00     0.038 C 
ATOM      4  C   LIG d   1      -6.482  91.462 116.457  0.00  0.00     0.028 C 
ATOM      5  C   LIG d   1      -6.478  92.218 117.782  0.00  0.00    -0.047 C 
ATOM      6  C   LIG d   1      -5.151  93.000 117.909  0.00  0.00     0.091 C 
ENDROOT
BRANCH   1   7
ATOM      7  O   LIG d   1      -2.752  92.841 117.437  0.00  0.00    -0.368 OA
BRANCH   7   8
ATOM      8  C   LIG d   1      -1.480  92.179 117.647  0.00  0.00     0.119 C 
BRANCH   8   9
ATOM      9  C   LIG d   1      -1.298  91.996 119.166  0.00  0.00     0.028 C 
ATOM     10  C   LIG d   1      -1.505  93.307 119.944  0.00  0.00     0.006 C 
ENDBRANCH   8   9
BRANCH   8  11
ATOM     11  C   LIG d   1      -0.311  93.064 117.202  0.00  0.00     0.028 C 
ATOM     12  C   LIG d   1       1.057  92.400 117.425  0.00  0.00     0.006 C 
ENDBRANCH   8  11
ENDBRANCH   7   8
ENDBRANCH   1   7
BRANCH   6  13
ATOM     13  N   LIG d   1      -5.029  93.701 119.214  0.00  0.00    -0.311 N 
ATOM     14  C   LIG d   1      -5.435  94.954 119.414  0.00  0.00     0.210 C 
ATOM     15  C   LIG d   1      -5.198  95.492 120.829  0.00  0.00     0.109 C 
ATOM     16  O   LIG d   1      -5.998  95.659 118.564  0.00  0.00    -0.276 OA
ATOM     17  H   LIG d   1      -4.612  93.192 119.968  0.00  0.00     0.149 HD
ENDBRANCH   6  13
BRANCH   5  18
ATOM     18  N   LIG d   1      -7.667  93.091 117.800  0.00  0.00     0.381 N 
ATOM     19  H   LIG d   1      -7.822  93.472 116.888  0.00  0.00    -0.090 HD
ATOM     20  H   LIG d   1      -7.503  93.851 118.436  0.00  0.00    -0.090 HD
ATOM     21  H   LIG d   1      -8.467  92.572 118.091  0.00  0.00    -0.090 HD
ENDBRANCH   5  18
BRANCH   3  22
ATOM     22  C   LIG d   1      -5.441  89.530 115.498  0.00  0.00     0.382 C 
ATOM     23  O   LIG d   1      -4.496  88.705 115.473  0.00  0.00    -0.241 OA
ATOM     24  O   LIG d   1      -6.455  89.322 114.805  0.00  0.00    -0.241 OA
ENDBRANCH   3  22
TORSDOF 7
ENDMDL
MODEL 7
REMARK VINA RESULT:      -5.0      1.767      2.822
REMARK  7 active torsions:
REMARK  status: ('A' for Active; 'I' for Inactive)
REMARK    1  A    between atoms: C_2  and  C_3 
REMARK    2  A    between atoms: C_3  and  O_6 
REMARK    3  A    between atoms: C_3  and  C_4 
REMARK    4  A    between atoms: C_7  and  O_6 
REMARK    5  A    between atoms: C_9  and  C_10 
REMARK    6  A    between atoms: N_15  and  C_14 
REMARK    7  A    between atoms: N_20  and  C_19 
REMARK       I    between atoms: C_22  and  N_20 
ROOT
ATOM      1  C   LIG d   1      -4.828  76.154 117.710  0.00  0.00     0.161 C 
ATOM      2  C   LIG d   1      -4.046  75.309 116.905  0.00  0.00     0.016 C 
ATOM      3  C   LIG d   1      -2.637  75.235 116.994  0.00  0.00     0.038 C 
ATOM      4  C   LIG d   1      -1.922  75.895 118.005  0.00  0.00     0.028 C 
ATOM      5  C   LIG d   1      -2.619  77.151 118.518  0.00  0.00    -0.047 C 
ATOM      6  C   LIG d   1      -4.076  76.798 118.893  0.00  0.00     0.091 C 
ENDROOT
BRANCH   1   7
ATOM      7  O   LIG d   1      -5.989  75.442 118.182  0.00  0.00    -0.368 OA
BRANCH   7   8
ATOM      8  C   LIG d   1      -7.274  76.004 117.818  0.00  0.00     0.119 C 
BRANCH   8   9
ATOM      9  C   LIG d   1      -8.141  76.039 119.091  0.00  0.00     0.028 C 
ATOM     10  C   LIG d   1      -7.580  75.145 120.209  0.00  0.00     0.006 C 
ENDBRANCH   8   9
BRANCH   8  11
ATOM     11  C   LIG d   1      -8.023  75.094 116.841  0.00  0.00     0.028 C 
ATOM     12  C   LIG d   1      -7.527  73.640 116.881  0.00  0.00     0.006 C 
ENDBRANCH   8  11
ENDBRANCH   7   8
ENDBRANCH   1   7
BRANCH   6  13
ATOM     13  N   LIG d   1      -4.854  77.989 119.326  0.00  0.00    -0.311 N 
ATOM     14  C   LIG d   1      -5.335  78.142 120.558  0.00  0.00     0.210 C 
ATOM     15  C   LIG d   1      -6.126  79.434 120.787  0.00  0.00     0.109 C 
ATOM     16  O   LIG d   1      -5.156  77.345 121.492  0.00  0.00    -0.276 OA
ATOM     17  H   LIG d   1      -5.020  78.699 118.640  0.00  0.00     0.149 HD
ENDBRANCH   6  13
BRANCH   5  18
ATOM     18  N   LIG d   1      -1.835  77.660 119.659  0.00  0.00     0.381 N 
ATOM     19  H   LIG d   1      -1.098  78.249 119.328  0.00  0.00    -0.090 HD
ATOM     20  H   LIG d   1      -1.423  76.882 120.144  0.00  0.00    -0.090 HD
ATOM     21  H   LIG d   1      -2.426  78.171 120.278  0.00  0.00    -0.090 HD
ENDBRANCH   5  18
BRANCH   3  22
ATOM     22  C   LIG d   1      -1.924  74.525 116.040  0.00  0.00     0.382 C 
ATOM     23  O   LIG d   1      -2.160  74.703 114.820  0.00  0.00    -0.241 OA
ATOM     24  O   LIG d   1      -1.080  73.677 116.383  0.00  0.00    -0.241 OA
ENDBRANCH   3  22
TORSDOF 7
ENDMDL
MODEL 8
REMARK VINA RESULT:      -5.0     14.071     16.499
REMARK  7 active torsions:
REMARK  status: ('A' for Active; 'I' for Inactive)
REMARK    1  A    between atoms: C_2  and  C_3 
REMARK    2  A    between atoms: C_3  and  O_6 
REMARK    3  A    between atoms: C_3  and  C_4 
REMARK    4  A    between atoms: C_7  and  O_6 
REMARK    5  A    between atoms: C_9  and  C_10 
REMARK    6  A    between atoms: N_15  and  C_14 
REMARK    7  A    between atoms: N_20  and  C_19 
REMARK       I    between atoms: C_22  and  N_20 
ROOT
ATOM      1  C   LIG d   1      -2.714  90.358 117.559  0.00  0.00     0.161 C 
ATOM      2  C   LIG d   1      -3.872  89.989 116.855  0.00  0.00     0.016 C 
ATOM      3  C   LIG d   1      -4.867  90.911 116.456  0.00  0.00     0.038 C 
ATOM      4  C   LIG d   1      -4.697  92.295 116.603  0.00  0.00     0.028 C 
ATOM      5  C   LIG d   1      -3.777  92.673 117.759  0.00  0.00    -0.047 C 
ATOM      6  C   LIG d   1      -2.458  91.878 117.631  0.00  0.00     0.091 C 
ENDROOT
BRANCH   1   7
ATOM      7  O   LIG d   1      -1.568  89.682 117.004  0.00  0.00    -0.368 OA
BRANCH   7   8
ATOM      8  C   LIG d   1      -1.105  88.515 117.726  0.00  0.00     0.119 C 
BRANCH   8   9
ATOM      9  C   LIG d   1      -1.855  87.293 117.160  0.00  0.00     0.028 C 
ATOM     10  C   LIG d   1      -1.786  86.076 118.097  0.00  0.00     0.006 C 
ENDBRANCH   8   9
BRANCH   8  11
ATOM     11  C   LIG d   1      -1.498  88.582 119.205  0.00  0.00     0.028 C 
ATOM     12  C   LIG d   1      -0.330  89.000 120.112  0.00  0.00     0.006 C 
ENDBRANCH   8  11
ENDBRANCH   7   8
ENDBRANCH   1   7
BRANCH   6  13
ATOM     13  N   LIG d   1      -1.534  92.125 118.768  0.00  0.00    -0.311 N 
ATOM     14  C   LIG d   1      -0.313  92.639 118.624  0.00  0.00     0.210 C 
ATOM     15  C   LIG d   1       0.482  92.793 119.924  0.00  0.00     0.109 C 
ATOM     16  O   LIG d   1       0.174  93.012 117.546  0.00  0.00    -0.276 OA
ATOM     17  H   LIG d   1      -1.861  91.881 119.683  0.00  0.00     0.149 HD
ENDBRANCH   6  13
BRANCH   5  18
ATOM     18  N   LIG d   1      -3.579  94.134 117.711  0.00  0.00     0.381 N 
ATOM     19  H   LIG d   1      -3.363  94.416 116.776  0.00  0.00    -0.090 HD
ATOM     20  H   LIG d   1      -2.802  94.376 118.301  0.00  0.00    -0.090 HD
ATOM     21  H   LIG d   1      -4.401  94.600 118.025  0.00  0.00    -0.090 HD
ENDBRANCH   5  18
BRANCH   3  22
ATOM     22  C   LIG d   1      -6.067  90.446 115.939  0.00  0.00     0.382 C 
ATOM     23  O   LIG d   1      -7.059  91.210 115.872  0.00  0.00    -0.241 OA
ATOM     24  O   LIG d   1      -6.182  89.259 115.579  0.00  0.00    -0.241 OA
ENDBRANCH   3  22
TORSDOF 7
ENDMDL
MODEL 9
REMARK VINA RESULT:      -4.8     15.664     18.009
REMARK  7 active torsions:
REMARK  status: ('A' for Active; 'I' for Inactive)
REMARK    1  A    between atoms: C_2  and  C_3 
REMARK    2  A    between atoms: C_3  and  O_6 
REMARK    3  A    between atoms: C_3  and  C_4 
REMARK    4  A    between atoms: C_7  and  O_6 
REMARK    5  A    between atoms: C_9  and  C_10 
REMARK    6  A    between atoms: N_15  and  C_14 
REMARK    7  A    between atoms: N_20  and  C_19 
REMARK       I    between atoms: C_22  and  N_20 
ROOT
ATOM      1  C   LIG d   1      -3.642  92.791 117.399  0.00  0.00     0.161 C 
ATOM      2  C   LIG d   1      -4.863  92.820 116.705  0.00  0.00     0.016 C 
ATOM      3  C   LIG d   1      -5.428  91.686 116.077  0.00  0.00     0.038 C 
ATOM      4  C   LIG d   1      -4.880  90.403 116.230  0.00  0.00     0.028 C 
ATOM      5  C   LIG d   1      -3.379  90.414 116.499  0.00  0.00    -0.047 C 
ATOM      6  C   LIG d   1      -3.086  91.377 117.672  0.00  0.00     0.091 C 
ENDROOT
BRANCH   1   7
ATOM      7  O   LIG d   1      -3.763  93.528 118.632  0.00  0.00    -0.368 OA
BRANCH   7   8
ATOM      8  C   LIG d   1      -5.087  94.021 118.952  0.00  0.00     0.119 C 
BRANCH   8   9
ATOM      9  C   LIG d   1      -4.957  95.523 119.271  0.00  0.00     0.028 C 
ATOM     10  C   LIG d   1      -4.384  95.777 120.675  0.00  0.00     0.006 C 
ENDBRANCH   8   9
BRANCH   8  11
ATOM     11  C   LIG d   1      -5.627  93.380 120.233  0.00  0.00     0.028 C 
ATOM     12  C   LIG d   1      -7.049  92.822 120.067  0.00  0.00     0.006 C 
ENDBRANCH   8  11
ENDBRANCH   7   8
ENDBRANCH   1   7
BRANCH   6  13
ATOM     13  N   LIG d   1      -1.632  91.511 117.945  0.00  0.00    -0.311 N 
ATOM     14  C   LIG d   1      -0.983  90.769 118.842  0.00  0.00     0.210 C 
ATOM     15  C   LIG d   1       0.510  91.082 118.982  0.00  0.00     0.109 C 
ATOM     16  O   LIG d   1      -1.496  89.860 119.511  0.00  0.00    -0.276 OA
ATOM     17  H   LIG d   1      -1.131  92.204 117.424  0.00  0.00     0.149 HD
ENDBRANCH   6  13
BRANCH   5  18
ATOM     18  N   LIG d   1      -2.967  89.025 116.775  0.00  0.00     0.381 N 
ATOM     19  H   LIG d   1      -2.205  88.772 116.177  0.00  0.00    -0.090 HD
ATOM     20  H   LIG d   1      -3.738  88.411 116.579  0.00  0.00    -0.090 HD
ATOM     21  H   LIG d   1      -2.693  88.933 117.729  0.00  0.00    -0.090 HD
ENDBRANCH   5  18
BRANCH   3  22
ATOM     22  C   LIG d   1      -6.532  91.837 115.251  0.00  0.00     0.382 C 
ATOM     23  O   LIG d   1      -6.831  92.970 114.805  0.00  0.00    -0.241 OA
ATOM     24  O   LIG d   1      -7.258  90.861 114.983  0.00  0.00    -0.241 OA
ENDBRANCH   3  22
TORSDOF 7
ENDMDL
