MODEL 1
REMARK VINA RESULT:      -5.8      0.000      0.000
REMARK  7 active torsions:
REMARK  status: ('A' for Active; 'I' for Inactive)
REMARK    1  A    between atoms: C_2  and  C_3 
REMARK    2  A    between atoms: C_3  and  O_6 
REMARK    3  A    between atoms: C_3  and  C_4 
REMARK    4  A    between atoms: C_7  and  O_6 
REMARK    5  A    between atoms: C_9  and  C_10 
REMARK    6  A    between atoms: N_15  and  C_14 
REMARK    7  A    between atoms: N_20  and  C_19 
REMARK       I    between atoms: C_22  and  N_20 
ROOT
ATOM      1  C   LIG d   1      -7.289  76.237 117.551  0.00  0.00     0.161 C 
ATOM      2  C   LIG d   1      -8.417  76.984 117.929  0.00  0.00     0.016 C 
ATOM      3  C   LIG d   1      -8.441  78.397 117.959  0.00  0.00     0.038 C 
ATOM      4  C   LIG d   1      -7.378  79.167 117.464  0.00  0.00     0.028 C 
ATOM      5  C   LIG d   1      -6.029  78.460 117.546  0.00  0.00    -0.047 C 
ATOM      6  C   LIG d   1      -6.157  77.060 116.903  0.00  0.00     0.091 C 
ENDROOT
BRANCH   1   7
ATOM      7  O   LIG d   1      -7.686  75.158 116.682  0.00  0.00    -0.368 OA
BRANCH   7   8
ATOM      8  C   LIG d   1      -7.826  73.857 117.304  0.00  0.00     0.119 C 
BRANCH   8   9
ATOM      9  C   LIG d   1      -6.833  72.904 116.611  0.00  0.00     0.028 C 
ATOM     10  C   LIG d   1      -7.401  71.484 116.447  0.00  0.00     0.006 C 
ENDBRANCH   8   9
BRANCH   8  11
ATOM     11  C   LIG d   1      -9.212  73.261 117.041  0.00  0.00     0.028 C 
ATOM     12  C   LIG d   1     -10.243  74.316 116.610  0.00  0.00     0.006 C 
ENDBRANCH   8  11
ENDBRANCH   7   8
ENDBRANCH   1   7
BRANCH   6  13
ATOM     13  N   LIG d   1      -4.904  76.269 117.015  0.00  0.00    -0.311 N 
ATOM     14  C   LIG d   1      -3.972  76.232 116.064  0.00  0.00     0.210 C 
ATOM     15  C   LIG d   1      -2.767  75.338 116.374  0.00  0.00     0.109 C 
ATOM     16  O   LIG d   1      -4.013  76.880 115.008  0.00  0.00    -0.276 OA
ATOM     17  H   LIG d   1      -4.774  75.737 117.854  0.00  0.00     0.149 HD
ENDBRANCH   6  13
BRANCH   5  18
ATOM     18  N   LIG d   1      -5.036  79.318 116.872  0.00  0.00     0.381 N 
ATOM     19  H   LIG d   1      -4.129  78.898 116.933  0.00  0.00    -0.090 HD
ATOM     20  H   LIG d   1      -5.003  80.207 117.340  0.00  0.00    -0.090 HD
ATOM     21  H   LIG d   1      -5.287  79.446 115.917  0.00  0.00    -0.090 HD
ENDBRANCH   5  18
BRANCH   3  22
ATOM     22  C   LIG d   1      -9.523  79.054 118.525  0.00  0.00     0.382 C 
ATOM     23  O   LIG d   1      -9.926  80.136 118.034  0.00  0.00    -0.241 OA
ATOM     24  O   LIG d   1     -10.073  78.602 119.547  0.00  0.00    -0.241 OA
ENDBRANCH   3  22
TORSDOF 7
ENDMDL
MODEL 2
REMARK VINA RESULT:      -5.6     13.858     17.038
REMARK  7 active torsions:
REMARK  status: ('A' for Active; 'I' for Inactive)
REMARK    1  A    between atoms: C_2  and  C_3 
REMARK    2  A    between atoms: C_3  and  O_6 
REMARK    3  A    between atoms: C_3  and  C_4 
REMARK    4  A    between atoms: C_7  and  O_6 
REMARK    5  A    between atoms: C_9  and  C_10 
REMARK    6  A    between atoms: N_15  and  C_14 
REMARK    7  A    between atoms: N_20  and  C_19 
REMARK       I    between atoms: C_22  and  N_20 
ROOT
ATOM      1  C   LIG d   1      -6.011  92.407 118.628  0.00  0.00     0.161 C 
ATOM      2  C   LIG d   1      -4.966  92.975 119.376  0.00  0.00     0.016 C 
ATOM      3  C   LIG d   1      -3.614  92.581 119.248  0.00  0.00     0.038 C 
ATOM      4  C   LIG d   1      -3.192  91.692 118.248  0.00  0.00     0.028 C 
ATOM      5  C   LIG d   1      -4.279  90.718 117.806  0.00  0.00    -0.047 C 
ATOM      6  C   LIG d   1      -5.555  91.515 117.454  0.00  0.00     0.091 C 
ENDROOT
BRANCH   1   7
ATOM      7  O   LIG d   1      -6.894  93.444 118.156  0.00  0.00    -0.368 OA
BRANCH   7   8
ATOM      8  C   LIG d   1      -7.179  94.513 119.092  0.00  0.00     0.119 C 
BRANCH   8   9
ATOM      9  C   LIG d   1      -8.377  94.067 119.952  0.00  0.00     0.028 C 
ATOM     10  C   LIG d   1      -8.017  93.945 121.442  0.00  0.00     0.006 C 
ENDBRANCH   8   9
BRANCH   8  11
ATOM     11  C   LIG d   1      -7.649  95.778 118.367  0.00  0.00     0.028 C 
ATOM     12  C   LIG d   1      -6.835  97.023 118.754  0.00  0.00     0.006 C 
ENDBRANCH   8  11
ENDBRANCH   7   8
ENDBRANCH   1   7
BRANCH   6  13
ATOM     13  N   LIG d   1      -6.694  90.632 117.092  0.00  0.00    -0.311 N 
ATOM     14  C   LIG d   1      -6.925  90.204 115.852  0.00  0.00     0.210 C 
ATOM     15  C   LIG d   1      -8.165  89.318 115.694  0.00  0.00     0.109 C 
ATOM     16  O   LIG d   1      -6.203  90.448 114.874  0.00  0.00    -0.276 OA
ATOM     17  H   LIG d   1      -7.313  90.359 117.831  0.00  0.00     0.149 HD
ENDBRANCH   6  13
BRANCH   5  18
ATOM     18  N   LIG d   1      -3.748  89.945 116.667  0.00  0.00     0.381 N 
ATOM     19  H   LIG d   1      -2.815  89.644 116.868  0.00  0.00    -0.090 HD
ATOM     20  H   LIG d   1      -3.721  90.537 115.856  0.00  0.00    -0.090 HD
ATOM     21  H   LIG d   1      -4.328  89.154 116.492  0.00  0.00    -0.090 HD
ENDBRANCH   5  18
BRANCH   3  22
ATOM     22  C   LIG d   1      -2.674  93.048 120.153  0.00  0.00     0.382 C 
ATOM     23  O   LIG d   1      -3.036  93.752 121.127  0.00  0.00    -0.241 OA
ATOM     24  O   LIG d   1      -1.462  92.812 119.984  0.00  0.00    -0.241 OA
ENDBRANCH   3  22
TORSDOF 7
ENDMDL
MODEL 3
REMARK VINA RESULT:      -5.4      1.960      4.827
REMARK  7 active torsions:
REMARK  status: ('A' for Active; 'I' for Inactive)
REMARK    1  A    between atoms: C_2  and  C_3 
REMARK    2  A    between atoms: C_3  and  O_6 
REMARK    3  A    between atoms: C_3  and  C_4 
REMARK    4  A    between atoms: C_7  and  O_6 
REMARK    5  A    between atoms: C_9  and  C_10 
REMARK    6  A    between atoms: N_15  and  C_14 
REMARK    7  A    between atoms: N_20  and  C_19 
REMARK       I    between atoms: C_22  and  N_20 
ROOT
ATOM      1  C   LIG d   1      -7.050  76.896 116.760  0.00  0.00     0.161 C 
ATOM      2  C   LIG d   1      -8.081  75.990 117.058  0.00  0.00     0.016 C 
ATOM      3  C   LIG d   1      -7.985  74.598 116.825  0.00  0.00     0.038 C 
ATOM      4  C   LIG d   1      -6.786  73.996 116.417  0.00  0.00     0.028 C 
ATOM      5  C   LIG d   1      -5.878  74.930 115.625  0.00  0.00    -0.047 C 
ATOM      6  C   LIG d   1      -5.694  76.244 116.419  0.00  0.00     0.091 C 
ENDROOT
BRANCH   1   7
ATOM      7  O   LIG d   1      -6.896  77.834 117.844  0.00  0.00    -0.368 OA
BRANCH   7   8
ATOM      8  C   LIG d   1      -7.420  79.165 117.615  0.00  0.00     0.119 C 
BRANCH   8   9
ATOM      9  C   LIG d   1      -6.223  80.136 117.595  0.00  0.00     0.028 C 
ATOM     10  C   LIG d   1      -5.215  79.848 118.720  0.00  0.00     0.006 C 
ENDBRANCH   8   9
BRANCH   8  11
ATOM     11  C   LIG d   1      -8.298  79.627 118.782  0.00  0.00     0.028 C 
ATOM     12  C   LIG d   1      -9.655  78.908 118.828  0.00  0.00     0.006 C 
ENDBRANCH   8  11
ENDBRANCH   7   8
ENDBRANCH   1   7
BRANCH   6  13
ATOM     13  N   LIG d   1      -4.887  77.247 115.676  0.00  0.00    -0.311 N 
ATOM     14  C   LIG d   1      -3.708  77.698 116.099  0.00  0.00     0.210 C 
ATOM     15  C   LIG d   1      -3.052  78.744 115.193  0.00  0.00     0.109 C 
ATOM     16  O   LIG d   1      -3.127  77.307 117.123  0.00  0.00    -0.276 OA
ATOM     17  H   LIG d   1      -5.269  77.595 114.818  0.00  0.00     0.149 HD
ENDBRANCH   6  13
BRANCH   5  18
ATOM     18  N   LIG d   1      -4.608  74.219 115.383  0.00  0.00     0.381 N 
ATOM     19  H   LIG d   1      -4.518  73.459 116.027  0.00  0.00    -0.090 HD
ATOM     20  H   LIG d   1      -3.845  74.854 115.537  0.00  0.00    -0.090 HD
ATOM     21  H   LIG d   1      -4.582  73.877 114.448  0.00  0.00    -0.090 HD
ENDBRANCH   5  18
BRANCH   3  22
ATOM     22  C   LIG d   1      -9.110  73.799 116.964  0.00  0.00     0.382 C 
ATOM     23  O   LIG d   1     -10.232  74.228 116.601  0.00  0.00    -0.241 OA
ATOM     24  O   LIG d   1      -9.024  72.672 117.487  0.00  0.00    -0.241 OA
ENDBRANCH   3  22
TORSDOF 7
ENDMDL
MODEL 4
REMARK VINA RESULT:      -5.1     14.001     16.495
REMARK  7 active torsions:
REMARK  status: ('A' for Active; 'I' for Inactive)
REMARK    1  A    between atoms: C_2  and  C_3 
REMARK    2  A    between atoms: C_3  and  O_6 
REMARK    3  A    between atoms: C_3  and  C_4 
REMARK    4  A    between atoms: C_7  and  O_6 
REMARK    5  A    between atoms: C_9  and  C_10 
REMARK    6  A    between atoms: N_15  and  C_14 
REMARK    7  A    between atoms: N_20  and  C_19 
REMARK       I    between atoms: C_22  and  N_20 
ROOT
ATOM      1  C   LIG d   1      -3.784  91.427 118.378  0.00  0.00     0.161 C 
ATOM      2  C   LIG d   1      -4.209  90.566 117.353  0.00  0.00     0.016 C 
ATOM      3  C   LIG d   1      -5.403  90.758 116.620  0.00  0.00     0.038 C 
ATOM      4  C   LIG d   1      -6.182  91.916 116.762  0.00  0.00     0.028 C 
ATOM      5  C   LIG d   1      -6.060  92.563 118.137  0.00  0.00    -0.047 C 
ATOM      6  C   LIG d   1      -4.563  92.756 118.471  0.00  0.00     0.091 C 
ENDROOT
BRANCH   1   7
ATOM      7  O   LIG d   1      -2.371  91.683 118.247  0.00  0.00    -0.368 OA
BRANCH   7   8
ATOM      8  C   LIG d   1      -1.489  90.740 118.904  0.00  0.00     0.119 C 
BRANCH   8   9
ATOM      9  C   LIG d   1      -0.605  91.539 119.882  0.00  0.00     0.028 C 
ATOM     10  C   LIG d   1      -0.294  92.955 119.369  0.00  0.00     0.006 C 
ENDBRANCH   8   9
BRANCH   8  11
ATOM     11  C   LIG d   1      -0.517  90.099 117.910  0.00  0.00     0.028 C 
ATOM     12  C   LIG d   1      -0.874  88.640 117.584  0.00  0.00     0.006 C 
ENDBRANCH   8  11
ENDBRANCH   7   8
ENDBRANCH   1   7
BRANCH   6  13
ATOM     13  N   LIG d   1      -4.352  93.307 119.835  0.00  0.00    -0.311 N 
ATOM     14  C   LIG d   1      -3.688  94.435 120.075  0.00  0.00     0.210 C 
ATOM     15  C   LIG d   1      -3.569  94.813 121.555  0.00  0.00     0.109 C 
ATOM     16  O   LIG d   1      -3.213  95.177 119.201  0.00  0.00    -0.276 OA
ATOM     17  H   LIG d   1      -4.731  92.785 120.601  0.00  0.00     0.149 HD
ENDBRANCH   6  13
BRANCH   5  18
ATOM     18  N   LIG d   1      -6.812  93.832 118.101  0.00  0.00     0.381 N 
ATOM     19  H   LIG d   1      -6.367  94.506 118.690  0.00  0.00    -0.090 HD
ATOM     20  H   LIG d   1      -7.740  93.670 118.452  0.00  0.00    -0.090 HD
ATOM     21  H   LIG d   1      -6.858  94.174 117.167  0.00  0.00    -0.090 HD
ENDBRANCH   5  18
BRANCH   3  22
ATOM     22  C   LIG d   1      -5.850  89.764 115.762  0.00  0.00     0.382 C 
ATOM     23  O   LIG d   1      -7.045  89.385 115.811  0.00  0.00    -0.241 OA
ATOM     24  O   LIG d   1      -5.063  89.211 114.971  0.00  0.00    -0.241 OA
ENDBRANCH   3  22
TORSDOF 7
ENDMDL
MODEL 5
REMARK VINA RESULT:      -5.0      1.769      4.818
REMARK  7 active torsions:
REMARK  status: ('A' for Active; 'I' for Inactive)
REMARK    1  A    between atoms: C_2  and  C_3 
REMARK    2  A    between atoms: C_3  and  O_6 
REMARK    3  A    between atoms: C_3  and  C_4 
REMARK    4  A    between atoms: C_7  and  O_6 
REMARK    5  A    between atoms: C_9  and  C_10 
REMARK    6  A    between atoms: N_15  and  C_14 
REMARK    7  A    between atoms: N_20  and  C_19 
REMARK       I    between atoms: C_22  and  N_20 
ROOT
ATOM      1  C   LIG d   1      -6.271  76.093 117.339  0.00  0.00     0.161 C 
ATOM      2  C   LIG d   1      -5.194  75.653 116.551  0.00  0.00     0.016 C 
ATOM      3  C   LIG d   1      -3.881  76.162 116.676  0.00  0.00     0.038 C 
ATOM      4  C   LIG d   1      -3.522  77.043 117.706  0.00  0.00     0.028 C 
ATOM      5  C   LIG d   1      -4.682  77.896 118.207  0.00  0.00    -0.047 C 
ATOM      6  C   LIG d   1      -5.875  76.972 118.544  0.00  0.00     0.091 C 
ENDROOT
BRANCH   1   7
ATOM      7  O   LIG d   1      -7.048  74.961 117.779  0.00  0.00    -0.368 OA
BRANCH   7   8
ATOM      8  C   LIG d   1      -7.913  74.357 116.787  0.00  0.00     0.119 C 
BRANCH   8   9
ATOM      9  C   LIG d   1      -9.157  75.256 116.648  0.00  0.00     0.028 C 
ATOM     10  C   LIG d   1     -10.466  74.447 116.625  0.00  0.00     0.006 C 
ENDBRANCH   8   9
BRANCH   8  11
ATOM     11  C   LIG d   1      -8.444  73.001 117.261  0.00  0.00     0.028 C 
ATOM     12  C   LIG d   1      -7.543  71.828 116.840  0.00  0.00     0.006 C 
ENDBRANCH   8  11
ENDBRANCH   7   8
ENDBRANCH   1   7
BRANCH   6  13
ATOM     13  N   LIG d   1      -7.082  77.734 118.961  0.00  0.00    -0.311 N 
ATOM     14  C   LIG d   1      -7.623  78.707 118.230  0.00  0.00     0.210 C 
ATOM     15  C   LIG d   1      -8.852  79.376 118.854  0.00  0.00     0.109 C 
ATOM     16  O   LIG d   1      -7.222  79.057 117.110  0.00  0.00    -0.276 OA
ATOM     17  H   LIG d   1      -7.491  77.493 119.842  0.00  0.00     0.149 HD
ENDBRANCH   6  13
BRANCH   5  18
ATOM     18  N   LIG d   1      -4.201  78.666 119.369  0.00  0.00     0.381 N 
ATOM     19  H   LIG d   1      -3.808  78.045 120.048  0.00  0.00    -0.090 HD
ATOM     20  H   LIG d   1      -4.981  79.141 119.790  0.00  0.00    -0.090 HD
ATOM     21  H   LIG d   1      -3.516  79.329 119.079  0.00  0.00    -0.090 HD
ENDBRANCH   5  18
BRANCH   3  22
ATOM     22  C   LIG d   1      -2.920  75.820 115.737  0.00  0.00     0.382 C 
ATOM     23  O   LIG d   1      -1.777  76.333 115.794  0.00  0.00    -0.241 OA
ATOM     24  O   LIG d   1      -3.195  75.038 114.807  0.00  0.00    -0.241 OA
ENDBRANCH   3  22
TORSDOF 7
ENDMDL
MODEL 6
REMARK VINA RESULT:      -4.9      2.052      4.471
REMARK  7 active torsions:
REMARK  status: ('A' for Active; 'I' for Inactive)
REMARK    1  A    between atoms: C_2  and  C_3 
REMARK    2  A    between atoms: C_3  and  O_6 
REMARK    3  A    between atoms: C_3  and  C_4 
REMARK    4  A    between atoms: C_7  and  O_6 
REMARK    5  A    between atoms: C_9  and  C_10 
REMARK    6  A    between atoms: N_15  and  C_14 
REMARK    7  A    between atoms: N_20  and  C_19 
REMARK       I    between atoms: C_22  and  N_20 
ROOT
ATOM      1  C   LIG d   1      -6.293  76.742 117.226  0.00  0.00     0.161 C 
ATOM      2  C   LIG d   1      -6.826  78.003 117.542  0.00  0.00     0.016 C 
ATOM      3  C   LIG d   1      -8.214  78.267 117.603  0.00  0.00     0.038 C 
ATOM      4  C   LIG d   1      -9.169  77.245 117.499  0.00  0.00     0.028 C 
ATOM      5  C   LIG d   1      -8.691  76.051 116.679  0.00  0.00    -0.047 C 
ATOM      6  C   LIG d   1      -7.318  75.589 117.219  0.00  0.00     0.091 C 
ENDROOT
BRANCH   1   7
ATOM      7  O   LIG d   1      -5.201  76.437 118.116  0.00  0.00    -0.368 OA
BRANCH   7   8
ATOM      8  C   LIG d   1      -3.874  76.488 117.539  0.00  0.00     0.119 C 
BRANCH   8   9
ATOM      9  C   LIG d   1      -3.211  77.795 118.017  0.00  0.00     0.028 C 
ATOM     10  C   LIG d   1      -3.209  77.925 119.549  0.00  0.00     0.006 C 
ENDBRANCH   8   9
BRANCH   8  11
ATOM     11  C   LIG d   1      -3.934  76.599 116.012  0.00  0.00     0.028 C 
ATOM     12  C   LIG d   1      -3.340  75.373 115.302  0.00  0.00     0.006 C 
ENDBRANCH   8  11
ENDBRANCH   7   8
ENDBRANCH   1   7
BRANCH   6  13
ATOM     13  N   LIG d   1      -6.740  74.478 116.419  0.00  0.00    -0.311 N 
ATOM     14  C   LIG d   1      -6.928  73.192 116.709  0.00  0.00     0.210 C 
ATOM     15  C   LIG d   1      -6.225  72.208 115.767  0.00  0.00     0.109 C 
ATOM     16  O   LIG d   1      -7.635  72.771 117.636  0.00  0.00    -0.276 OA
ATOM     17  H   LIG d   1      -6.177  74.729 115.630  0.00  0.00     0.149 HD
ENDBRANCH   6  13
BRANCH   5  18
ATOM     18  N   LIG d   1      -9.728  75.006 116.768  0.00  0.00     0.381 N 
ATOM     19  H   LIG d   1     -10.600  75.416 117.039  0.00  0.00    -0.090 HD
ATOM     20  H   LIG d   1      -9.460  74.341 117.472  0.00  0.00    -0.090 HD
ATOM     21  H   LIG d   1      -9.827  74.548 115.889  0.00  0.00    -0.090 HD
ENDBRANCH   5  18
BRANCH   3  22
ATOM     22  C   LIG d   1      -8.659  79.574 117.730  0.00  0.00     0.382 C 
ATOM     23  O   LIG d   1      -9.836  79.802 118.102  0.00  0.00    -0.241 OA
ATOM     24  O   LIG d   1      -7.914  80.527 117.435  0.00  0.00    -0.241 OA
ENDBRANCH   3  22
TORSDOF 7
ENDMDL
MODEL 7
REMARK VINA RESULT:      -4.9     12.859     15.131
REMARK  7 active torsions:
REMARK  status: ('A' for Active; 'I' for Inactive)
REMARK    1  A    between atoms: C_2  and  C_3 
REMARK    2  A    between atoms: C_3  and  O_6 
REMARK    3  A    between atoms: C_3  and  C_4 
REMARK    4  A    between atoms: C_7  and  O_6 
REMARK    5  A    between atoms: C_9  and  C_10 
REMARK    6  A    between atoms: N_15  and  C_14 
REMARK    7  A    between atoms: N_20  and  C_19 
REMARK       I    between atoms: C_22  and  N_20 
ROOT
ATOM      1  C   LIG d   1      -3.656  90.223 117.993  0.00  0.00     0.161 C 
ATOM      2  C   LIG d   1      -4.613  89.991 116.991  0.00  0.00     0.016 C 
ATOM      3  C   LIG d   1      -5.659  90.893 116.689  0.00  0.00     0.038 C 
ATOM      4  C   LIG d   1      -5.730  92.167 117.272  0.00  0.00     0.028 C 
ATOM      5  C   LIG d   1      -5.081  92.240 118.650  0.00  0.00    -0.047 C 
ATOM      6  C   LIG d   1      -3.652  91.657 118.563  0.00  0.00     0.091 C 
ENDROOT
BRANCH   1   7
ATOM      7  O   LIG d   1      -2.345  89.873 117.508  0.00  0.00    -0.368 OA
BRANCH   7   8
ATOM      8  C   LIG d   1      -1.910  88.516 117.770  0.00  0.00     0.119 C 
BRANCH   8   9
ATOM      9  C   LIG d   1      -2.226  88.205 119.246  0.00  0.00     0.028 C 
ATOM     10  C   LIG d   1      -1.810  86.780 119.648  0.00  0.00     0.006 C 
ENDBRANCH   8   9
BRANCH   8  11
ATOM     11  C   LIG d   1      -0.389  88.384 117.645  0.00  0.00     0.028 C 
ATOM     12  C   LIG d   1       0.367  89.524 118.346  0.00  0.00     0.006 C 
ENDBRANCH   8  11
ENDBRANCH   7   8
ENDBRANCH   1   7
BRANCH   6  13
ATOM     13  N   LIG d   1      -2.976  91.614 119.886  0.00  0.00    -0.311 N 
ATOM     14  C   LIG d   1      -1.756  92.102 120.102  0.00  0.00     0.210 C 
ATOM     15  C   LIG d   1      -1.238  91.936 121.534  0.00  0.00     0.109 C 
ATOM     16  O   LIG d   1      -1.066  92.685 119.252  0.00  0.00    -0.276 OA
ATOM     17  H   LIG d   1      -3.477  91.186 120.640  0.00  0.00     0.149 HD
ENDBRANCH   6  13
BRANCH   5  18
ATOM     18  N   LIG d   1      -5.104  93.651 119.079  0.00  0.00     0.381 N 
ATOM     19  H   LIG d   1      -5.881  94.121 118.657  0.00  0.00    -0.090 HD
ATOM     20  H   LIG d   1      -4.260  94.099 118.770  0.00  0.00    -0.090 HD
ATOM     21  H   LIG d   1      -5.173  93.705 120.071  0.00  0.00    -0.090 HD
ENDBRANCH   5  18
BRANCH   3  22
ATOM     22  C   LIG d   1      -6.671  90.506 115.824  0.00  0.00     0.382 C 
ATOM     23  O   LIG d   1      -7.020  89.303 115.766  0.00  0.00    -0.241 OA
ATOM     24  O   LIG d   1      -7.209  91.339 115.070  0.00  0.00    -0.241 OA
ENDBRANCH   3  22
TORSDOF 7
ENDMDL
MODEL 8
REMARK VINA RESULT:      -4.8     12.474     15.310
REMARK  7 active torsions:
REMARK  status: ('A' for Active; 'I' for Inactive)
REMARK    1  A    between atoms: C_2  and  C_3 
REMARK    2  A    between atoms: C_3  and  O_6 
REMARK    3  A    between atoms: C_3  and  C_4 
REMARK    4  A    between atoms: C_7  and  O_6 
REMARK    5  A    between atoms: C_9  and  C_10 
REMARK    6  A    between atoms: N_15  and  C_14 
REMARK    7  A    between atoms: N_20  and  C_19 
REMARK       I    between atoms: C_22  and  N_20 
ROOT
ATOM      1  C   LIG d   1     -15.069  65.072 118.798  0.00  0.00     0.161 C 
ATOM      2  C   LIG d   1     -14.207  64.492 119.744  0.00  0.00     0.016 C 
ATOM      3  C   LIG d   1     -13.962  63.102 119.824  0.00  0.00     0.038 C 
ATOM      4  C   LIG d   1     -14.449  62.207 118.860  0.00  0.00     0.028 C 
ATOM      5  C   LIG d   1     -15.732  62.682 118.185  0.00  0.00    -0.047 C 
ATOM      6  C   LIG d   1     -15.522  64.124 117.669  0.00  0.00     0.091 C 
ENDROOT
BRANCH   1   7
ATOM      7  O   LIG d   1     -14.461  66.256 118.244  0.00  0.00    -0.368 OA
BRANCH   7   8
ATOM      8  C   LIG d   1     -15.047  67.520 118.642  0.00  0.00     0.119 C 
BRANCH   8   9
ATOM      9  C   LIG d   1     -16.346  67.206 119.410  0.00  0.00     0.028 C 
ATOM     10  C   LIG d   1     -17.581  67.854 118.763  0.00  0.00     0.006 C 
ENDBRANCH   8   9
BRANCH   8  11
ATOM     11  C   LIG d   1     -15.484  68.340 117.425  0.00  0.00     0.028 C 
ATOM     12  C   LIG d   1     -14.549  68.160 116.219  0.00  0.00     0.006 C 
ENDBRANCH   8  11
ENDBRANCH   7   8
ENDBRANCH   1   7
BRANCH   6  13
ATOM     13  N   LIG d   1     -16.756  64.696 117.069  0.00  0.00    -0.311 N 
ATOM     14  C   LIG d   1     -16.808  65.194 115.834  0.00  0.00     0.210 C 
ATOM     15  C   LIG d   1     -18.173  65.752 115.420  0.00  0.00     0.109 C 
ATOM     16  O   LIG d   1     -15.862  65.197 115.033  0.00  0.00    -0.276 OA
ATOM     17  H   LIG d   1     -17.579  64.705 117.639  0.00  0.00     0.149 HD
ENDBRANCH   6  13
BRANCH   5  18
ATOM     18  N   LIG d   1     -16.051  61.723 117.110  0.00  0.00     0.381 N 
ATOM     19  H   LIG d   1     -17.007  61.438 117.184  0.00  0.00    -0.090 HD
ATOM     20  H   LIG d   1     -15.470  60.910 117.217  0.00  0.00    -0.090 HD
ATOM     21  H   LIG d   1     -15.889  62.142 116.221  0.00  0.00    -0.090 HD
ENDBRANCH   5  18
BRANCH   3  22
ATOM     22  C   LIG d   1     -13.255  62.590 120.901  0.00  0.00     0.382 C 
ATOM     23  O   LIG d   1     -13.697  61.596 121.526  0.00  0.00    -0.241 OA
ATOM     24  O   LIG d   1     -12.203  63.137 121.283  0.00  0.00    -0.241 OA
ENDBRANCH   3  22
TORSDOF 7
ENDMDL
MODEL 9
REMARK VINA RESULT:      -4.8      2.674      5.159
REMARK  7 active torsions:
REMARK  status: ('A' for Active; 'I' for Inactive)
REMARK    1  A    between atoms: C_2  and  C_3 
REMARK    2  A    between atoms: C_3  and  O_6 
REMARK    3  A    between atoms: C_3  and  C_4 
REMARK    4  A    between atoms: C_7  and  O_6 
REMARK    5  A    between atoms: C_9  and  C_10 
REMARK    6  A    between atoms: N_15  and  C_14 
REMARK    7  A    between atoms: N_20  and  C_19 
REMARK       I    between atoms: C_22  and  N_20 
ROOT
ATOM      1  C   LIG d   1      -5.983  78.950 117.223  0.00  0.00     0.161 C 
ATOM      2  C   LIG d   1      -4.916  78.126 117.616  0.00  0.00     0.016 C 
ATOM      3  C   LIG d   1      -4.502  77.976 118.959  0.00  0.00     0.038 C 
ATOM      4  C   LIG d   1      -5.228  78.527 120.025  0.00  0.00     0.028 C 
ATOM      5  C   LIG d   1      -6.013  79.777 119.640  0.00  0.00    -0.047 C 
ATOM      6  C   LIG d   1      -6.858  79.472 118.382  0.00  0.00     0.091 C 
ENDROOT
BRANCH   1   7
ATOM      7  O   LIG d   1      -6.798  78.265 116.250  0.00  0.00    -0.368 OA
BRANCH   7   8
ATOM      8  C   LIG d   1      -7.052  76.862 116.507  0.00  0.00     0.119 C 
BRANCH   8   9
ATOM      9  C   LIG d   1      -6.969  76.122 115.158  0.00  0.00     0.028 C 
ATOM     10  C   LIG d   1      -5.648  75.351 114.993  0.00  0.00     0.006 C 
ENDBRANCH   8   9
BRANCH   8  11
ATOM     11  C   LIG d   1      -8.483  76.637 117.005  0.00  0.00     0.028 C 
ATOM     12  C   LIG d   1      -9.122  75.365 116.427  0.00  0.00     0.006 C 
ENDBRANCH   8  11
ENDBRANCH   7   8
ENDBRANCH   1   7
BRANCH   6  13
ATOM     13  N   LIG d   1      -7.592  80.666 117.889  0.00  0.00    -0.311 N 
ATOM     14  C   LIG d   1      -8.916  80.706 117.748  0.00  0.00     0.210 C 
ATOM     15  C   LIG d   1      -9.469  82.028 117.205  0.00  0.00     0.109 C 
ATOM     16  O   LIG d   1      -9.688  79.784 118.050  0.00  0.00    -0.276 OA
ATOM     17  H   LIG d   1      -7.046  81.471 117.650  0.00  0.00     0.149 HD
ENDBRANCH   6  13
BRANCH   5  18
ATOM     18  N   LIG d   1      -6.830  80.166 120.805  0.00  0.00     0.381 N 
ATOM     19  H   LIG d   1      -6.300  80.765 121.406  0.00  0.00    -0.090 HD
ATOM     20  H   LIG d   1      -7.075  79.339 121.321  0.00  0.00    -0.090 HD
ATOM     21  H   LIG d   1      -7.656  80.634 120.502  0.00  0.00    -0.090 HD
ENDBRANCH   5  18
BRANCH   3  22
ATOM     22  C   LIG d   1      -3.325  77.300 119.244  0.00  0.00     0.382 C 
ATOM     23  O   LIG d   1      -2.778  77.439 120.365  0.00  0.00    -0.241 OA
ATOM     24  O   LIG d   1      -2.779  76.589 118.379  0.00  0.00    -0.241 OA
ENDBRANCH   3  22
TORSDOF 7
ENDMDL
