MODEL 1
REMARK VINA RESULT:      -5.9      0.000      0.000
REMARK  7 active torsions:
REMARK  status: ('A' for Active; 'I' for Inactive)
REMARK    1  A    between atoms: C_2  and  C_3 
REMARK    2  A    between atoms: C_3  and  O_6 
REMARK    3  A    between atoms: C_3  and  C_4 
REMARK    4  A    between atoms: C_7  and  O_6 
REMARK    5  A    between atoms: C_9  and  C_10 
REMARK    6  A    between atoms: N_15  and  C_14 
REMARK    7  A    between atoms: N_20  and  C_19 
REMARK       I    between atoms: C_22  and  N_20 
ROOT
ATOM      1  C   LIG d   1      -3.821  91.702 117.038  0.00  0.00     0.161 C 
ATOM      2  C   LIG d   1      -3.020  92.730 117.562  0.00  0.00     0.016 C 
ATOM      3  C   LIG d   1      -3.466  93.634 118.553  0.00  0.00     0.038 C 
ATOM      4  C   LIG d   1      -4.700  93.476 119.200  0.00  0.00     0.028 C 
ATOM      5  C   LIG d   1      -5.742  92.759 118.349  0.00  0.00    -0.047 C 
ATOM      6  C   LIG d   1      -5.132  91.445 117.810  0.00  0.00     0.091 C 
ENDROOT
BRANCH   1   7
ATOM      7  O   LIG d   1      -3.053  90.487 116.937  0.00  0.00    -0.368 OA
BRANCH   7   8
ATOM      8  C   LIG d   1      -1.966  90.339 117.884  0.00  0.00     0.119 C 
BRANCH   8   9
ATOM      9  C   LIG d   1      -0.739  89.829 117.104  0.00  0.00     0.028 C 
ATOM     10  C   LIG d   1       0.210  90.967 116.692  0.00  0.00     0.006 C 
ENDBRANCH   8   9
BRANCH   8  11
ATOM     11  C   LIG d   1      -2.271  89.251 118.918  0.00  0.00     0.028 C 
ATOM     12  C   LIG d   1      -1.447  89.406 120.206  0.00  0.00     0.006 C 
ENDBRANCH   8  11
ENDBRANCH   7   8
ENDBRANCH   1   7
BRANCH   6  13
ATOM     13  N   LIG d   1      -6.057  90.722 116.899  0.00  0.00    -0.311 N 
ATOM     14  C   LIG d   1      -6.453  91.205 115.722  0.00  0.00     0.210 C 
ATOM     15  C   LIG d   1      -7.424  90.307 114.949  0.00  0.00     0.109 C 
ATOM     16  O   LIG d   1      -6.067  92.276 115.231  0.00  0.00    -0.276 OA
ATOM     17  H   LIG d   1      -6.394  89.830 117.205  0.00  0.00     0.149 HD
ENDBRANCH   6  13
BRANCH   5  18
ATOM     18  N   LIG d   1      -6.933  92.540 119.192  0.00  0.00     0.381 N 
ATOM     19  H   LIG d   1      -6.654  92.194 120.089  0.00  0.00    -0.090 HD
ATOM     20  H   LIG d   1      -7.518  91.849 118.756  0.00  0.00    -0.090 HD
ATOM     21  H   LIG d   1      -7.436  93.393 119.300  0.00  0.00    -0.090 HD
ENDBRANCH   5  18
BRANCH   3  22
ATOM     22  C   LIG d   1      -2.688  94.735 118.879  0.00  0.00     0.382 C 
ATOM     23  O   LIG d   1      -1.979  95.283 118.000  0.00  0.00    -0.241 OA
ATOM     24  O   LIG d   1      -2.651  95.159 120.049  0.00  0.00    -0.241 OA
ENDBRANCH   3  22
TORSDOF 7
ENDMDL
MODEL 2
REMARK VINA RESULT:      -5.8      1.648      4.626
REMARK  7 active torsions:
REMARK  status: ('A' for Active; 'I' for Inactive)
REMARK    1  A    between atoms: C_2  and  C_3 
REMARK    2  A    between atoms: C_3  and  O_6 
REMARK    3  A    between atoms: C_3  and  C_4 
REMARK    4  A    between atoms: C_7  and  O_6 
REMARK    5  A    between atoms: C_9  and  C_10 
REMARK    6  A    between atoms: N_15  and  C_14 
REMARK    7  A    between atoms: N_20  and  C_19 
REMARK       I    between atoms: C_22  and  N_20 
ROOT
ATOM      1  C   LIG d   1      -3.573  90.998 117.453  0.00  0.00     0.161 C 
ATOM      2  C   LIG d   1      -4.452  90.578 116.441  0.00  0.00     0.016 C 
ATOM      3  C   LIG d   1      -5.686  91.213 116.169  0.00  0.00     0.038 C 
ATOM      4  C   LIG d   1      -6.058  92.411 116.797  0.00  0.00     0.028 C 
ATOM      5  C   LIG d   1      -5.437  92.589 118.178  0.00  0.00    -0.047 C 
ATOM      6  C   LIG d   1      -3.910  92.369 118.074  0.00  0.00     0.091 C 
ENDROOT
BRANCH   1   7
ATOM      7  O   LIG d   1      -2.219  90.990 116.959  0.00  0.00    -0.368 OA
BRANCH   7   8
ATOM      8  C   LIG d   1      -1.382  89.898 117.411  0.00  0.00     0.119 C 
BRANCH   8   9
ATOM      9  C   LIG d   1      -2.061  89.274 118.646  0.00  0.00     0.028 C 
ATOM     10  C   LIG d   1      -1.217  89.431 119.922  0.00  0.00     0.006 C 
ENDBRANCH   8   9
BRANCH   8  11
ATOM     11  C   LIG d   1      -0.025  90.405 117.908  0.00  0.00     0.028 C 
ATOM     12  C   LIG d   1       0.351  91.775 117.320  0.00  0.00     0.006 C 
ENDBRANCH   8  11
ENDBRANCH   7   8
ENDBRANCH   1   7
BRANCH   6  13
ATOM     13  N   LIG d   1      -3.236  92.442 119.397  0.00  0.00    -0.311 N 
ATOM     14  C   LIG d   1      -2.255  93.300 119.673  0.00  0.00     0.210 C 
ATOM     15  C   LIG d   1      -1.684  93.194 121.091  0.00  0.00     0.109 C 
ATOM     16  O   LIG d   1      -1.825  94.159 118.889  0.00  0.00    -0.276 OA
ATOM     17  H   LIG d   1      -3.544  91.801 120.102  0.00  0.00     0.149 HD
ENDBRANCH   6  13
BRANCH   5  18
ATOM     18  N   LIG d   1      -5.796  93.936 118.659  0.00  0.00     0.381 N 
ATOM     19  H   LIG d   1      -6.684  94.204 118.282  0.00  0.00    -0.090 HD
ATOM     20  H   LIG d   1      -5.106  94.591 118.336  0.00  0.00    -0.090 HD
ATOM     21  H   LIG d   1      -5.833  93.945 119.654  0.00  0.00    -0.090 HD
ENDBRANCH   5  18
BRANCH   3  22
ATOM     22  C   LIG d   1      -6.581  90.625 115.288  0.00  0.00     0.382 C 
ATOM     23  O   LIG d   1      -6.335  89.494 114.806  0.00  0.00    -0.241 OA
ATOM     24  O   LIG d   1      -7.610  91.232 114.935  0.00  0.00    -0.241 OA
ENDBRANCH   3  22
TORSDOF 7
ENDMDL
MODEL 3
REMARK VINA RESULT:      -5.7      2.683      4.740
REMARK  7 active torsions:
REMARK  status: ('A' for Active; 'I' for Inactive)
REMARK    1  A    between atoms: C_2  and  C_3 
REMARK    2  A    between atoms: C_3  and  O_6 
REMARK    3  A    between atoms: C_3  and  C_4 
REMARK    4  A    between atoms: C_7  and  O_6 
REMARK    5  A    between atoms: C_9  and  C_10 
REMARK    6  A    between atoms: N_15  and  C_14 
REMARK    7  A    between atoms: N_20  and  C_19 
REMARK       I    between atoms: C_22  and  N_20 
ROOT
ATOM      1  C   LIG d   1      -4.817  92.565 118.428  0.00  0.00     0.161 C 
ATOM      2  C   LIG d   1      -6.208  92.732 118.524  0.00  0.00     0.016 C 
ATOM      3  C   LIG d   1      -6.818  93.830 119.174  0.00  0.00     0.038 C 
ATOM      4  C   LIG d   1      -6.071  94.920 119.646  0.00  0.00     0.028 C 
ATOM      5  C   LIG d   1      -4.639  94.556 120.020  0.00  0.00    -0.047 C 
ATOM      6  C   LIG d   1      -3.988  93.800 118.839  0.00  0.00     0.091 C 
ENDROOT
BRANCH   1   7
ATOM      7  O   LIG d   1      -4.465  92.147 117.094  0.00  0.00    -0.368 OA
BRANCH   7   8
ATOM      8  C   LIG d   1      -4.323  90.720 116.891  0.00  0.00     0.119 C 
BRANCH   8   9
ATOM      9  C   LIG d   1      -2.816  90.397 116.910  0.00  0.00     0.028 C 
ATOM     10  C   LIG d   1      -2.404  89.592 118.154  0.00  0.00     0.006 C 
ENDBRANCH   8   9
BRANCH   8  11
ATOM     11  C   LIG d   1      -4.809  90.305 115.499  0.00  0.00     0.028 C 
ATOM     12  C   LIG d   1      -5.997  91.147 115.007  0.00  0.00     0.006 C 
ENDBRANCH   8  11
ENDBRANCH   7   8
ENDBRANCH   1   7
BRANCH   6  13
ATOM     13  N   LIG d   1      -2.612  93.334 119.154  0.00  0.00    -0.311 N 
ATOM     14  C   LIG d   1      -1.556  93.595 118.386  0.00  0.00     0.210 C 
ATOM     15  C   LIG d   1      -0.233  93.004 118.883  0.00  0.00     0.109 C 
ATOM     16  O   LIG d   1      -1.583  94.289 117.358  0.00  0.00    -0.276 OA
ATOM     17  H   LIG d   1      -2.494  92.791 119.987  0.00  0.00     0.149 HD
ENDBRANCH   6  13
BRANCH   5  18
ATOM     18  N   LIG d   1      -3.936  95.807 120.363  0.00  0.00     0.381 N 
ATOM     19  H   LIG d   1      -3.235  96.001 119.677  0.00  0.00    -0.090 HD
ATOM     20  H   LIG d   1      -3.483  95.692 121.253  0.00  0.00    -0.090 HD
ATOM     21  H   LIG d   1      -4.586  96.561 120.409  0.00  0.00    -0.090 HD
ENDBRANCH   5  18
BRANCH   3  22
ATOM     22  C   LIG d   1      -8.187  93.824 119.394  0.00  0.00     0.382 C 
ATOM     23  O   LIG d   1      -8.906  94.720 118.889  0.00  0.00    -0.241 OA
ATOM     24  O   LIG d   1      -8.706  92.961 120.127  0.00  0.00    -0.241 OA
ENDBRANCH   3  22
TORSDOF 7
ENDMDL
MODEL 4
REMARK VINA RESULT:      -5.6     13.366     15.549
REMARK  7 active torsions:
REMARK  status: ('A' for Active; 'I' for Inactive)
REMARK    1  A    between atoms: C_2  and  C_3 
REMARK    2  A    between atoms: C_3  and  O_6 
REMARK    3  A    between atoms: C_3  and  C_4 
REMARK    4  A    between atoms: C_7  and  O_6 
REMARK    5  A    between atoms: C_9  and  C_10 
REMARK    6  A    between atoms: N_15  and  C_14 
REMARK    7  A    between atoms: N_20  and  C_19 
REMARK       I    between atoms: C_22  and  N_20 
ROOT
ATOM      1  C   LIG d   1      -5.485  77.014 117.190  0.00  0.00     0.161 C 
ATOM      2  C   LIG d   1      -6.502  77.934 117.494  0.00  0.00     0.016 C 
ATOM      3  C   LIG d   1      -6.268  79.313 117.699  0.00  0.00     0.038 C 
ATOM      4  C   LIG d   1      -5.014  79.895 117.464  0.00  0.00     0.028 C 
ATOM      5  C   LIG d   1      -3.852  78.925 117.648  0.00  0.00    -0.047 C 
ATOM      6  C   LIG d   1      -4.128  77.649 116.821  0.00  0.00     0.091 C 
ENDROOT
BRANCH   1   7
ATOM      7  O   LIG d   1      -5.925  76.127 116.143  0.00  0.00    -0.368 OA
BRANCH   7   8
ATOM      8  C   LIG d   1      -6.552  74.894 116.573  0.00  0.00     0.119 C 
BRANCH   8   9
ATOM      9  C   LIG d   1      -5.634  73.733 116.142  0.00  0.00     0.028 C 
ATOM     10  C   LIG d   1      -6.427  72.500 115.678  0.00  0.00     0.006 C 
ENDBRANCH   8   9
BRANCH   8  11
ATOM     11  C   LIG d   1      -7.876  74.657 115.842  0.00  0.00     0.028 C 
ATOM     12  C   LIG d   1      -8.979  75.637 116.274  0.00  0.00     0.006 C 
ENDBRANCH   8  11
ENDBRANCH   7   8
ENDBRANCH   1   7
BRANCH   6  13
ATOM     13  N   LIG d   1      -3.080  76.612 117.011  0.00  0.00    -0.311 N 
ATOM     14  C   LIG d   1      -2.556  75.908 116.009  0.00  0.00     0.210 C 
ATOM     15  C   LIG d   1      -1.503  74.876 116.426  0.00  0.00     0.109 C 
ATOM     16  O   LIG d   1      -2.839  76.062 114.812  0.00  0.00    -0.276 OA
ATOM     17  H   LIG d   1      -2.769  76.444 117.948  0.00  0.00     0.149 HD
ENDBRANCH   6  13
BRANCH   5  18
ATOM     18  N   LIG d   1      -2.619  79.624 117.239  0.00  0.00     0.381 N 
ATOM     19  H   LIG d   1      -2.777  80.115 116.382  0.00  0.00    -0.090 HD
ATOM     20  H   LIG d   1      -1.896  78.943 117.084  0.00  0.00    -0.090 HD
ATOM     21  H   LIG d   1      -2.337  80.263 117.950  0.00  0.00    -0.090 HD
ENDBRANCH   5  18
BRANCH   3  22
ATOM     22  C   LIG d   1      -7.288  80.119 118.183  0.00  0.00     0.382 C 
ATOM     23  O   LIG d   1      -7.598  80.076 119.398  0.00  0.00    -0.241 OA
ATOM     24  O   LIG d   1      -7.931  80.855 117.412  0.00  0.00    -0.241 OA
ENDBRANCH   3  22
TORSDOF 7
ENDMDL
MODEL 5
REMARK VINA RESULT:      -5.6      1.691      4.393
REMARK  7 active torsions:
REMARK  status: ('A' for Active; 'I' for Inactive)
REMARK    1  A    between atoms: C_2  and  C_3 
REMARK    2  A    between atoms: C_3  and  O_6 
REMARK    3  A    between atoms: C_3  and  C_4 
REMARK    4  A    between atoms: C_7  and  O_6 
REMARK    5  A    between atoms: C_9  and  C_10 
REMARK    6  A    between atoms: N_15  and  C_14 
REMARK    7  A    between atoms: N_20  and  C_19 
REMARK       I    between atoms: C_22  and  N_20 
ROOT
ATOM      1  C   LIG d   1      -3.519  91.748 117.947  0.00  0.00     0.161 C 
ATOM      2  C   LIG d   1      -3.889  90.895 116.895  0.00  0.00     0.016 C 
ATOM      3  C   LIG d   1      -5.131  90.979 116.225  0.00  0.00     0.038 C 
ATOM      4  C   LIG d   1      -6.033  92.026 116.463  0.00  0.00     0.028 C 
ATOM      5  C   LIG d   1      -5.922  92.613 117.867  0.00  0.00    -0.047 C 
ATOM      6  C   LIG d   1      -4.443  92.967 118.147  0.00  0.00     0.091 C 
ENDROOT
BRANCH   1   7
ATOM      7  O   LIG d   1      -2.154  92.178 117.772  0.00  0.00    -0.368 OA
BRANCH   7   8
ATOM      8  C   LIG d   1      -1.193  91.652 118.720  0.00  0.00     0.119 C 
BRANCH   8   9
ATOM      9  C   LIG d   1      -0.347  90.595 117.983  0.00  0.00     0.028 C 
ATOM     10  C   LIG d   1       0.280  91.142 116.690  0.00  0.00     0.006 C 
ENDBRANCH   8   9
BRANCH   8  11
ATOM     11  C   LIG d   1      -1.888  90.896 119.856  0.00  0.00     0.028 C 
ATOM     12  C   LIG d   1      -1.695  89.374 119.764  0.00  0.00     0.006 C 
ENDBRANCH   8  11
ENDBRANCH   7   8
ENDBRANCH   1   7
BRANCH   6  13
ATOM     13  N   LIG d   1      -4.233  93.470 119.530  0.00  0.00    -0.311 N 
ATOM     14  C   LIG d   1      -3.551  94.579 119.811  0.00  0.00     0.210 C 
ATOM     15  C   LIG d   1      -3.437  94.906 121.303  0.00  0.00     0.109 C 
ATOM     16  O   LIG d   1      -3.058  95.340 118.965  0.00  0.00    -0.276 OA
ATOM     17  H   LIG d   1      -4.626  92.930 120.276  0.00  0.00     0.149 HD
ENDBRANCH   6  13
BRANCH   5  18
ATOM     18  N   LIG d   1      -6.819  93.782 117.933  0.00  0.00     0.381 N 
ATOM     19  H   LIG d   1      -7.285  93.802 118.818  0.00  0.00    -0.090 HD
ATOM     20  H   LIG d   1      -7.514  93.700 117.212  0.00  0.00    -0.090 HD
ATOM     21  H   LIG d   1      -6.296  94.621 117.806  0.00  0.00    -0.090 HD
ENDBRANCH   5  18
BRANCH   3  22
ATOM     22  C   LIG d   1      -5.499  89.983 115.332  0.00  0.00     0.382 C 
ATOM     23  O   LIG d   1      -6.712  89.780 115.085  0.00  0.00    -0.241 OA
ATOM     24  O   LIG d   1      -4.635  89.257 114.805  0.00  0.00    -0.241 OA
ENDBRANCH   3  22
TORSDOF 7
ENDMDL
MODEL 6
REMARK VINA RESULT:      -5.6     13.872     16.283
REMARK  7 active torsions:
REMARK  status: ('A' for Active; 'I' for Inactive)
REMARK    1  A    between atoms: C_2  and  C_3 
REMARK    2  A    between atoms: C_3  and  O_6 
REMARK    3  A    between atoms: C_3  and  C_4 
REMARK    4  A    between atoms: C_7  and  O_6 
REMARK    5  A    between atoms: C_9  and  C_10 
REMARK    6  A    between atoms: N_15  and  C_14 
REMARK    7  A    between atoms: N_20  and  C_19 
REMARK       I    between atoms: C_22  and  N_20 
ROOT
ATOM      1  C   LIG d   1      -4.309  76.632 116.490  0.00  0.00     0.161 C 
ATOM      2  C   LIG d   1      -3.300  75.705 116.179  0.00  0.00     0.016 C 
ATOM      3  C   LIG d   1      -1.968  75.822 116.639  0.00  0.00     0.038 C 
ATOM      4  C   LIG d   1      -1.588  76.799 117.571  0.00  0.00     0.028 C 
ATOM      5  C   LIG d   1      -2.452  78.055 117.519  0.00  0.00    -0.047 C 
ATOM      6  C   LIG d   1      -3.940  77.643 117.596  0.00  0.00     0.091 C 
ENDROOT
BRANCH   1   7
ATOM      7  O   LIG d   1      -5.523  75.935 116.833  0.00  0.00    -0.368 OA
BRANCH   7   8
ATOM      8  C   LIG d   1      -5.984  74.949 115.877  0.00  0.00     0.119 C 
BRANCH   8   9
ATOM      9  C   LIG d   1      -7.224  75.531 115.173  0.00  0.00     0.028 C 
ATOM     10  C   LIG d   1      -8.444  75.613 116.105  0.00  0.00     0.006 C 
ENDBRANCH   8   9
BRANCH   8  11
ATOM     11  C   LIG d   1      -6.475  73.679 116.579  0.00  0.00     0.028 C 
ATOM     12  C   LIG d   1      -6.525  72.462 115.643  0.00  0.00     0.006 C 
ENDBRANCH   8  11
ENDBRANCH   7   8
ENDBRANCH   1   7
BRANCH   6  13
ATOM     13  N   LIG d   1      -4.857  78.805 117.467  0.00  0.00    -0.311 N 
ATOM     14  C   LIG d   1      -5.884  79.024 118.287  0.00  0.00     0.210 C 
ATOM     15  C   LIG d   1      -6.715  80.270 117.964  0.00  0.00     0.109 C 
ATOM     16  O   LIG d   1      -6.165  78.323 119.270  0.00  0.00    -0.276 OA
ATOM     17  H   LIG d   1      -4.683  79.442 116.714  0.00  0.00     0.149 HD
ENDBRANCH   6  13
BRANCH   5  18
ATOM     18  N   LIG d   1      -2.036  78.929 118.631  0.00  0.00     0.381 N 
ATOM     19  H   LIG d   1      -1.059  78.808 118.810  0.00  0.00    -0.090 HD
ATOM     20  H   LIG d   1      -2.542  78.667 119.458  0.00  0.00    -0.090 HD
ATOM     21  H   LIG d   1      -2.224  79.881 118.405  0.00  0.00    -0.090 HD
ENDBRANCH   5  18
BRANCH   3  22
ATOM     22  C   LIG d   1      -0.990  74.979 116.134  0.00  0.00     0.382 C 
ATOM     23  O   LIG d   1      -0.343  74.233 116.909  0.00  0.00    -0.241 OA
ATOM     24  O   LIG d   1      -0.716  74.986 114.918  0.00  0.00    -0.241 OA
ENDBRANCH   3  22
TORSDOF 7
ENDMDL
MODEL 7
REMARK VINA RESULT:      -5.4     13.881     16.305
REMARK  7 active torsions:
REMARK  status: ('A' for Active; 'I' for Inactive)
REMARK    1  A    between atoms: C_2  and  C_3 
REMARK    2  A    between atoms: C_3  and  O_6 
REMARK    3  A    between atoms: C_3  and  C_4 
REMARK    4  A    between atoms: C_7  and  O_6 
REMARK    5  A    between atoms: C_9  and  C_10 
REMARK    6  A    between atoms: N_15  and  C_14 
REMARK    7  A    between atoms: N_20  and  C_19 
REMARK       I    between atoms: C_22  and  N_20 
ROOT
ATOM      1  C   LIG d   1      -3.751  76.861 115.679  0.00  0.00     0.161 C 
ATOM      2  C   LIG d   1      -2.756  75.899 115.441  0.00  0.00     0.016 C 
ATOM      3  C   LIG d   1      -1.717  75.612 116.356  0.00  0.00     0.038 C 
ATOM      4  C   LIG d   1      -1.690  76.167 117.645  0.00  0.00     0.028 C 
ATOM      5  C   LIG d   1      -2.388  77.519 117.737  0.00  0.00    -0.047 C 
ATOM      6  C   LIG d   1      -3.802  77.396 117.125  0.00  0.00     0.091 C 
ENDROOT
BRANCH   1   7
ATOM      7  O   LIG d   1      -5.038  76.339 115.292  0.00  0.00    -0.368 OA
BRANCH   7   8
ATOM      8  C   LIG d   1      -5.582  75.295 116.136  0.00  0.00     0.119 C 
BRANCH   8   9
ATOM      9  C   LIG d   1      -6.026  74.141 115.217  0.00  0.00     0.028 C 
ATOM     10  C   LIG d   1      -6.133  72.802 115.966  0.00  0.00     0.006 C 
ENDBRANCH   8   9
BRANCH   8  11
ATOM     11  C   LIG d   1      -6.856  75.760 116.848  0.00  0.00     0.028 C 
ATOM     12  C   LIG d   1      -8.108  75.643 115.964  0.00  0.00     0.006 C 
ENDBRANCH   8  11
ENDBRANCH   7   8
ENDBRANCH   1   7
BRANCH   6  13
ATOM     13  N   LIG d   1      -4.523  78.696 117.099  0.00  0.00    -0.311 N 
ATOM     14  C   LIG d   1      -5.398  79.068 118.032  0.00  0.00     0.210 C 
ATOM     15  C   LIG d   1      -6.043  80.438 117.803  0.00  0.00     0.109 C 
ATOM     16  O   LIG d   1      -5.677  78.407 119.043  0.00  0.00    -0.276 OA
ATOM     17  H   LIG d   1      -4.333  79.307 116.329  0.00  0.00     0.149 HD
ENDBRANCH   6  13
BRANCH   5  18
ATOM     18  N   LIG d   1      -2.405  77.915 119.158  0.00  0.00     0.381 N 
ATOM     19  H   LIG d   1      -3.234  77.567 119.597  0.00  0.00    -0.090 HD
ATOM     20  H   LIG d   1      -2.416  78.919 119.215  0.00  0.00    -0.090 HD
ATOM     21  H   LIG d   1      -1.600  77.557 119.622  0.00  0.00    -0.090 HD
ENDBRANCH   5  18
BRANCH   3  22
ATOM     22  C   LIG d   1      -0.668  74.792 115.970  0.00  0.00     0.382 C 
ATOM     23  O   LIG d   1      -0.125  74.031 116.807  0.00  0.00    -0.241 OA
ATOM     24  O   LIG d   1      -0.227  74.837 114.805  0.00  0.00    -0.241 OA
ENDBRANCH   3  22
TORSDOF 7
ENDMDL
MODEL 8
REMARK VINA RESULT:      -5.4     10.751     12.978
REMARK  7 active torsions:
REMARK  status: ('A' for Active; 'I' for Inactive)
REMARK    1  A    between atoms: C_2  and  C_3 
REMARK    2  A    between atoms: C_3  and  O_6 
REMARK    3  A    between atoms: C_3  and  C_4 
REMARK    4  A    between atoms: C_7  and  O_6 
REMARK    5  A    between atoms: C_9  and  C_10 
REMARK    6  A    between atoms: N_15  and  C_14 
REMARK    7  A    between atoms: N_20  and  C_19 
REMARK       I    between atoms: C_22  and  N_20 
ROOT
ATOM      1  C   LIG d   1      -6.062  79.532 118.061  0.00  0.00     0.161 C 
ATOM      2  C   LIG d   1      -7.439  79.466 117.792  0.00  0.00     0.016 C 
ATOM      3  C   LIG d   1      -8.300  80.586 117.854  0.00  0.00     0.038 C 
ATOM      4  C   LIG d   1      -7.810  81.887 118.044  0.00  0.00     0.028 C 
ATOM      5  C   LIG d   1      -6.498  81.933 118.819  0.00  0.00    -0.047 C 
ATOM      6  C   LIG d   1      -5.492  80.962 118.161  0.00  0.00     0.091 C 
ENDROOT
BRANCH   1   7
ATOM      7  O   LIG d   1      -5.335  78.770 117.078  0.00  0.00    -0.368 OA
BRANCH   7   8
ATOM      8  C   LIG d   1      -4.866  77.466 117.501  0.00  0.00     0.119 C 
BRANCH   8   9
ATOM      9  C   LIG d   1      -3.328  77.471 117.399  0.00  0.00     0.028 C 
ATOM     10  C   LIG d   1      -2.822  78.302 116.207  0.00  0.00     0.006 C 
ENDBRANCH   8   9
BRANCH   8  11
ATOM     11  C   LIG d   1      -5.332  76.367 116.542  0.00  0.00     0.028 C 
ATOM     12  C   LIG d   1      -6.591  75.637 117.038  0.00  0.00     0.006 C 
ENDBRANCH   8  11
ENDBRANCH   7   8
ENDBRANCH   1   7
BRANCH   6  13
ATOM     13  N   LIG d   1      -4.209  80.883 118.908  0.00  0.00    -0.311 N 
ATOM     14  C   LIG d   1      -3.043  81.288 118.407  0.00  0.00     0.210 C 
ATOM     15  C   LIG d   1      -1.840  81.099 119.336  0.00  0.00     0.109 C 
ATOM     16  O   LIG d   1      -2.896  81.815 117.294  0.00  0.00    -0.276 OA
ATOM     17  H   LIG d   1      -4.242  80.498 119.831  0.00  0.00     0.149 HD
ENDBRANCH   6  13
BRANCH   5  18
ATOM     18  N   LIG d   1      -6.033  83.333 118.825  0.00  0.00     0.381 N 
ATOM     19  H   LIG d   1      -6.163  83.730 119.734  0.00  0.00    -0.090 HD
ATOM     20  H   LIG d   1      -6.582  83.860 118.169  0.00  0.00    -0.090 HD
ATOM     21  H   LIG d   1      -5.070  83.373 118.571  0.00  0.00    -0.090 HD
ENDBRANCH   5  18
BRANCH   3  22
ATOM     22  C   LIG d   1      -9.672  80.405 117.765  0.00  0.00     0.382 C 
ATOM     23  O   LIG d   1     -10.397  81.322 117.309  0.00  0.00    -0.241 OA
ATOM     24  O   LIG d   1     -10.198  79.353 118.175  0.00  0.00    -0.241 OA
ENDBRANCH   3  22
TORSDOF 7
ENDMDL
MODEL 9
REMARK VINA RESULT:      -5.3      2.545      5.872
REMARK  7 active torsions:
REMARK  status: ('A' for Active; 'I' for Inactive)
REMARK    1  A    between atoms: C_2  and  C_3 
REMARK    2  A    between atoms: C_3  and  O_6 
REMARK    3  A    between atoms: C_3  and  C_4 
REMARK    4  A    between atoms: C_7  and  O_6 
REMARK    5  A    between atoms: C_9  and  C_10 
REMARK    6  A    between atoms: N_15  and  C_14 
REMARK    7  A    between atoms: N_20  and  C_19 
REMARK       I    between atoms: C_22  and  N_20 
ROOT
ATOM      1  C   LIG d   1      -4.733  92.037 118.406  0.00  0.00     0.161 C 
ATOM      2  C   LIG d   1      -5.803  92.063 117.496  0.00  0.00     0.016 C 
ATOM      3  C   LIG d   1      -5.841  91.284 116.317  0.00  0.00     0.038 C 
ATOM      4  C   LIG d   1      -4.873  90.307 116.042  0.00  0.00     0.028 C 
ATOM      5  C   LIG d   1      -3.518  90.602 116.676  0.00  0.00    -0.047 C 
ATOM      6  C   LIG d   1      -3.720  90.895 118.180  0.00  0.00     0.091 C 
ENDROOT
BRANCH   1   7
ATOM      7  O   LIG d   1      -5.239  91.997 119.755  0.00  0.00    -0.368 OA
BRANCH   7   8
ATOM      8  C   LIG d   1      -5.023  93.188 120.552  0.00  0.00     0.119 C 
BRANCH   8   9
ATOM      9  C   LIG d   1      -6.396  93.849 120.778  0.00  0.00     0.028 C 
ATOM     10  C   LIG d   1      -7.539  92.822 120.838  0.00  0.00     0.006 C 
ENDBRANCH   8   9
BRANCH   8  11
ATOM     11  C   LIG d   1      -4.194  94.226 119.789  0.00  0.00     0.028 C 
ATOM     12  C   LIG d   1      -4.827  95.626 119.809  0.00  0.00     0.006 C 
ENDBRANCH   8  11
ENDBRANCH   7   8
ENDBRANCH   1   7
BRANCH   6  13
ATOM     13  N   LIG d   1      -2.454  91.276 118.858  0.00  0.00    -0.311 N 
ATOM     14  C   LIG d   1      -1.665  90.404 119.484  0.00  0.00     0.210 C 
ATOM     15  C   LIG d   1      -0.418  91.010 120.134  0.00  0.00     0.109 C 
ATOM     16  O   LIG d   1      -1.864  89.181 119.534  0.00  0.00    -0.276 OA
ATOM     17  H   LIG d   1      -2.200  92.245 118.839  0.00  0.00     0.149 HD
ENDBRANCH   6  13
BRANCH   5  18
ATOM     18  N   LIG d   1      -2.646  89.439 116.425  0.00  0.00     0.381 N 
ATOM     19  H   LIG d   1      -1.730  89.617 116.787  0.00  0.00    -0.090 HD
ATOM     20  H   LIG d   1      -2.570  89.297 115.433  0.00  0.00    -0.090 HD
ATOM     21  H   LIG d   1      -3.029  88.626 116.856  0.00  0.00    -0.090 HD
ENDBRANCH   5  18
BRANCH   3  22
ATOM     22  C   LIG d   1      -6.836  91.508 115.377  0.00  0.00     0.382 C 
ATOM     23  O   LIG d   1      -7.213  92.678 115.131  0.00  0.00    -0.241 OA
ATOM     24  O   LIG d   1      -7.392  90.551 114.806  0.00  0.00    -0.241 OA
ENDBRANCH   3  22
TORSDOF 7
ENDMDL
