MODEL 1
REMARK VINA RESULT:      -5.4      0.000      0.000
REMARK  7 active torsions:
REMARK  status: ('A' for Active; 'I' for Inactive)
REMARK    1  A    between atoms: C_2  and  C_3 
REMARK    2  A    between atoms: C_3  and  O_6 
REMARK    3  A    between atoms: C_3  and  C_4 
REMARK    4  A    between atoms: C_7  and  O_6 
REMARK    5  A    between atoms: C_9  and  C_10 
REMARK    6  A    between atoms: N_15  and  C_14 
REMARK    7  A    between atoms: N_20  and  C_19 
REMARK       I    between atoms: C_22  and  N_20 
ROOT
ATOM      1  C   LIG d   1      -6.004  92.938 118.204  0.00  0.00     0.161 C 
ATOM      2  C   LIG d   1      -6.821  92.070 117.462  0.00  0.00     0.016 C 
ATOM      3  C   LIG d   1      -6.328  90.942 116.766  0.00  0.00     0.038 C 
ATOM      4  C   LIG d   1      -4.997  90.517 116.891  0.00  0.00     0.028 C 
ATOM      5  C   LIG d   1      -4.029  91.648 117.222  0.00  0.00    -0.047 C 
ATOM      6  C   LIG d   1      -4.567  92.428 118.444  0.00  0.00     0.091 C 
ENDROOT
BRANCH   1   7
ATOM      7  O   LIG d   1      -6.639  93.253 119.459  0.00  0.00    -0.368 OA
BRANCH   7   8
ATOM      8  C   LIG d   1      -7.658  94.282 119.417  0.00  0.00     0.119 C 
BRANCH   8   9
ATOM      9  C   LIG d   1      -7.006  95.557 118.850  0.00  0.00     0.028 C 
ATOM     10  C   LIG d   1      -6.104  96.262 119.878  0.00  0.00     0.006 C 
ENDBRANCH   8   9
BRANCH   8  11
ATOM     11  C   LIG d   1      -8.128  94.658 120.825  0.00  0.00     0.028 C 
ATOM     12  C   LIG d   1      -9.574  94.218 121.109  0.00  0.00     0.006 C 
ENDBRANCH   8  11
ENDBRANCH   7   8
ENDBRANCH   1   7
BRANCH   6  13
ATOM     13  N   LIG d   1      -3.723  93.603 118.783  0.00  0.00    -0.311 N 
ATOM     14  C   LIG d   1      -2.747  93.568 119.688  0.00  0.00     0.210 C 
ATOM     15  C   LIG d   1      -2.012  94.895 119.899  0.00  0.00     0.109 C 
ATOM     16  O   LIG d   1      -2.398  92.555 120.312  0.00  0.00    -0.276 OA
ATOM     17  H   LIG d   1      -3.917  94.458 118.300  0.00  0.00     0.149 HD
ENDBRANCH   6  13
BRANCH   5  18
ATOM     18  N   LIG d   1      -2.704  91.045 117.460  0.00  0.00     0.381 N 
ATOM     19  H   LIG d   1      -2.599  90.224 116.897  0.00  0.00    -0.090 HD
ATOM     20  H   LIG d   1      -2.638  90.775 118.426  0.00  0.00    -0.090 HD
ATOM     21  H   LIG d   1      -1.987  91.700 117.240  0.00  0.00    -0.090 HD
ENDBRANCH   5  18
BRANCH   3  22
ATOM     22  C   LIG d   1      -7.162  90.248 115.902  0.00  0.00     0.382 C 
ATOM     23  O   LIG d   1      -8.367  90.581 115.793  0.00  0.00    -0.241 OA
ATOM     24  O   LIG d   1      -6.736  89.267 115.265  0.00  0.00    -0.241 OA
ENDBRANCH   3  22
TORSDOF 7
ENDMDL
MODEL 2
REMARK VINA RESULT:      -5.2     15.036     17.880
REMARK  7 active torsions:
REMARK  status: ('A' for Active; 'I' for Inactive)
REMARK    1  A    between atoms: C_2  and  C_3 
REMARK    2  A    between atoms: C_3  and  O_6 
REMARK    3  A    between atoms: C_3  and  C_4 
REMARK    4  A    between atoms: C_7  and  O_6 
REMARK    5  A    between atoms: C_9  and  C_10 
REMARK    6  A    between atoms: N_15  and  C_14 
REMARK    7  A    between atoms: N_20  and  C_19 
REMARK       I    between atoms: C_22  and  N_20 
ROOT
ATOM      1  C   LIG d   1      -4.319  75.991 116.287  0.00  0.00     0.161 C 
ATOM      2  C   LIG d   1      -3.173  75.181 116.234  0.00  0.00     0.016 C 
ATOM      3  C   LIG d   1      -2.274  75.033 117.315  0.00  0.00     0.038 C 
ATOM      4  C   LIG d   1      -2.544  75.570 118.583  0.00  0.00     0.028 C 
ATOM      5  C   LIG d   1      -3.431  76.809 118.538  0.00  0.00    -0.047 C 
ATOM      6  C   LIG d   1      -4.689  76.496 117.697  0.00  0.00     0.091 C 
ENDROOT
BRANCH   1   7
ATOM      7  O   LIG d   1      -5.435  75.297 115.694  0.00  0.00    -0.368 OA
BRANCH   7   8
ATOM      8  C   LIG d   1      -6.097  74.319 116.534  0.00  0.00     0.119 C 
BRANCH   8   9
ATOM      9  C   LIG d   1      -6.033  72.963 115.805  0.00  0.00     0.028 C 
ATOM     10  C   LIG d   1      -6.798  71.858 116.553  0.00  0.00     0.006 C 
ENDBRANCH   8   9
BRANCH   8  11
ATOM     11  C   LIG d   1      -7.589  74.631 116.682  0.00  0.00     0.028 C 
ATOM     12  C   LIG d   1      -8.058  75.756 115.746  0.00  0.00     0.006 C 
ENDBRANCH   8  11
ENDBRANCH   7   8
ENDBRANCH   1   7
BRANCH   6  13
ATOM     13  N   LIG d   1      -5.571  77.681 117.533  0.00  0.00    -0.311 N 
ATOM     14  C   LIG d   1      -6.629  77.920 118.306  0.00  0.00     0.210 C 
ATOM     15  C   LIG d   1      -7.414  79.188 117.953  0.00  0.00     0.109 C 
ATOM     16  O   LIG d   1      -6.973  77.221 119.270  0.00  0.00    -0.276 OA
ATOM     17  H   LIG d   1      -5.346  78.318 116.793  0.00  0.00     0.149 HD
ENDBRANCH   6  13
BRANCH   5  18
ATOM     18  N   LIG d   1      -3.745  77.183 119.931  0.00  0.00     0.381 N 
ATOM     19  H   LIG d   1      -3.272  76.567 120.561  0.00  0.00    -0.090 HD
ATOM     20  H   LIG d   1      -4.734  77.086 120.078  0.00  0.00    -0.090 HD
ATOM     21  H   LIG d   1      -3.467  78.124 120.102  0.00  0.00    -0.090 HD
ENDBRANCH   5  18
BRANCH   3  22
ATOM     22  C   LIG d   1      -1.069  74.373 117.122  0.00  0.00     0.382 C 
ATOM     23  O   LIG d   1      -0.033  74.778 117.703  0.00  0.00    -0.241 OA
ATOM     24  O   LIG d   1      -0.996  73.407 116.340  0.00  0.00    -0.241 OA
ENDBRANCH   3  22
TORSDOF 7
ENDMDL
MODEL 3
REMARK VINA RESULT:      -5.2      2.053      4.453
REMARK  7 active torsions:
REMARK  status: ('A' for Active; 'I' for Inactive)
REMARK    1  A    between atoms: C_2  and  C_3 
REMARK    2  A    between atoms: C_3  and  O_6 
REMARK    3  A    between atoms: C_3  and  C_4 
REMARK    4  A    between atoms: C_7  and  O_6 
REMARK    5  A    between atoms: C_9  and  C_10 
REMARK    6  A    between atoms: N_15  and  C_14 
REMARK    7  A    between atoms: N_20  and  C_19 
REMARK       I    between atoms: C_22  and  N_20 
ROOT
ATOM      1  C   LIG d   1      -4.605  91.725 118.115  0.00  0.00     0.161 C 
ATOM      2  C   LIG d   1      -4.987  90.917 117.032  0.00  0.00     0.016 C 
ATOM      3  C   LIG d   1      -6.194  91.092 116.317  0.00  0.00     0.038 C 
ATOM      4  C   LIG d   1      -7.037  92.190 116.543  0.00  0.00     0.028 C 
ATOM      5  C   LIG d   1      -6.944  92.743 117.961  0.00  0.00    -0.047 C 
ATOM      6  C   LIG d   1      -5.459  92.997 118.305  0.00  0.00     0.091 C 
ENDROOT
BRANCH   1   7
ATOM      7  O   LIG d   1      -3.211  92.070 118.000  0.00  0.00    -0.368 OA
BRANCH   7   8
ATOM      8  C   LIG d   1      -2.313  91.413 118.928  0.00  0.00     0.119 C 
BRANCH   8   9
ATOM      9  C   LIG d   1      -1.232  92.436 119.329  0.00  0.00     0.028 C 
ATOM     10  C   LIG d   1      -1.700  93.889 119.141  0.00  0.00     0.006 C 
ENDBRANCH   8   9
BRANCH   8  11
ATOM     11  C   LIG d   1      -1.556  90.266 118.253  0.00  0.00     0.028 C 
ATOM     12  C   LIG d   1      -2.204  88.895 118.504  0.00  0.00     0.006 C 
ENDBRANCH   8  11
ENDBRANCH   7   8
ENDBRANCH   1   7
BRANCH   6  13
ATOM     13  N   LIG d   1      -5.271  93.459 119.705  0.00  0.00    -0.311 N 
ATOM     14  C   LIG d   1      -5.290  94.742 120.062  0.00  0.00     0.210 C 
ATOM     15  C   LIG d   1      -5.057  95.002 121.553  0.00  0.00     0.109 C 
ATOM     16  O   LIG d   1      -5.510  95.688 119.290  0.00  0.00    -0.276 OA
ATOM     17  H   LIG d   1      -5.118  92.756 120.401  0.00  0.00     0.149 HD
ENDBRANCH   6  13
BRANCH   5  18
ATOM     18  N   LIG d   1      -7.768  93.965 118.018  0.00  0.00     0.381 N 
ATOM     19  H   LIG d   1      -7.416  94.642 117.370  0.00  0.00    -0.090 HD
ATOM     20  H   LIG d   1      -7.709  94.354 118.943  0.00  0.00    -0.090 HD
ATOM     21  H   LIG d   1      -8.715  93.749 117.800  0.00  0.00    -0.090 HD
ENDBRANCH   5  18
BRANCH   3  22
ATOM     22  C   LIG d   1      -6.589  90.139 115.391  0.00  0.00     0.382 C 
ATOM     23  O   LIG d   1      -5.822  89.188 115.104  0.00  0.00    -0.241 OA
ATOM     24  O   LIG d   1      -7.684  90.242 114.805  0.00  0.00    -0.241 OA
ENDBRANCH   3  22
TORSDOF 7
ENDMDL
MODEL 4
REMARK VINA RESULT:      -5.0      2.310      4.766
REMARK  7 active torsions:
REMARK  status: ('A' for Active; 'I' for Inactive)
REMARK    1  A    between atoms: C_2  and  C_3 
REMARK    2  A    between atoms: C_3  and  O_6 
REMARK    3  A    between atoms: C_3  and  C_4 
REMARK    4  A    between atoms: C_7  and  O_6 
REMARK    5  A    between atoms: C_9  and  C_10 
REMARK    6  A    between atoms: N_15  and  C_14 
REMARK    7  A    between atoms: N_20  and  C_19 
REMARK       I    between atoms: C_22  and  N_20 
ROOT
ATOM      1  C   LIG d   1      -4.027  91.034 118.057  0.00  0.00     0.161 C 
ATOM      2  C   LIG d   1      -4.966  90.521 117.147  0.00  0.00     0.016 C 
ATOM      3  C   LIG d   1      -6.156  91.198 116.794  0.00  0.00     0.038 C 
ATOM      4  C   LIG d   1      -6.416  92.511 117.215  0.00  0.00     0.028 C 
ATOM      5  C   LIG d   1      -5.740  92.869 118.534  0.00  0.00    -0.047 C 
ATOM      6  C   LIG d   1      -4.239  92.513 118.441  0.00  0.00     0.091 C 
ENDROOT
BRANCH   1   7
ATOM      7  O   LIG d   1      -2.693  90.835 117.547  0.00  0.00    -0.368 OA
BRANCH   7   8
ATOM      8  C   LIG d   1      -1.807  90.041 118.373  0.00  0.00     0.119 C 
BRANCH   8   9
ATOM      9  C   LIG d   1      -0.374  90.243 117.842  0.00  0.00     0.028 C 
ATOM     10  C   LIG d   1       0.413  91.283 118.657  0.00  0.00     0.006 C 
ENDBRANCH   8   9
BRANCH   8  11
ATOM     11  C   LIG d   1      -2.090  88.544 118.217  0.00  0.00     0.028 C 
ATOM     12  C   LIG d   1      -2.452  87.865 119.547  0.00  0.00     0.006 C 
ENDBRANCH   8  11
ENDBRANCH   7   8
ENDBRANCH   1   7
BRANCH   6  13
ATOM     13  N   LIG d   1      -3.519  92.754 119.719  0.00  0.00    -0.311 N 
ATOM     14  C   LIG d   1      -2.417  93.496 119.812  0.00  0.00     0.210 C 
ATOM     15  C   LIG d   1      -1.823  93.599 121.220  0.00  0.00     0.109 C 
ATOM     16  O   LIG d   1      -1.894  94.106 118.867  0.00  0.00    -0.276 OA
ATOM     17  H   LIG d   1      -3.893  92.322 120.541  0.00  0.00     0.149 HD
ENDBRANCH   6  13
BRANCH   5  18
ATOM     18  N   LIG d   1      -5.981  94.302 118.783  0.00  0.00     0.381 N 
ATOM     19  H   LIG d   1      -5.111  94.768 118.948  0.00  0.00    -0.090 HD
ATOM     20  H   LIG d   1      -6.550  94.398 119.606  0.00  0.00    -0.090 HD
ATOM     21  H   LIG d   1      -6.442  94.712 118.001  0.00  0.00    -0.090 HD
ENDBRANCH   5  18
BRANCH   3  22
ATOM     22  C   LIG d   1      -7.121  90.544 116.042  0.00  0.00     0.382 C 
ATOM     23  O   LIG d   1      -8.200  91.123 115.767  0.00  0.00    -0.241 OA
ATOM     24  O   LIG d   1      -6.945  89.367 115.674  0.00  0.00    -0.241 OA
ENDBRANCH   3  22
TORSDOF 7
ENDMDL
MODEL 5
REMARK VINA RESULT:      -4.4      3.874      7.637
REMARK  7 active torsions:
REMARK  status: ('A' for Active; 'I' for Inactive)
REMARK    1  A    between atoms: C_2  and  C_3 
REMARK    2  A    between atoms: C_3  and  O_6 
REMARK    3  A    between atoms: C_3  and  C_4 
REMARK    4  A    between atoms: C_7  and  O_6 
REMARK    5  A    between atoms: C_9  and  C_10 
REMARK    6  A    between atoms: N_15  and  C_14 
REMARK    7  A    between atoms: N_20  and  C_19 
REMARK       I    between atoms: C_22  and  N_20 
ROOT
ATOM      1  C   LIG d   1      -0.313  91.674 117.671  0.00  0.00     0.161 C 
ATOM      2  C   LIG d   1       1.003  92.078 117.952  0.00  0.00     0.016 C 
ATOM      3  C   LIG d   1       1.339  93.371 118.412  0.00  0.00     0.038 C 
ATOM      4  C   LIG d   1       0.358  94.308 118.770  0.00  0.00     0.028 C 
ATOM      5  C   LIG d   1      -0.960  94.120 118.027  0.00  0.00    -0.047 C 
ATOM      6  C   LIG d   1      -1.406  92.646 118.162  0.00  0.00     0.091 C 
ENDROOT
BRANCH   1   7
ATOM      7  O   LIG d   1      -0.542  90.353 118.202  0.00  0.00    -0.368 OA
BRANCH   7   8
ATOM      8  C   LIG d   1      -0.923  90.285 119.598  0.00  0.00     0.119 C 
BRANCH   8   9
ATOM      9  C   LIG d   1       0.318  89.836 120.394  0.00  0.00     0.028 C 
ATOM     10  C   LIG d   1       1.025  88.632 119.750  0.00  0.00     0.006 C 
ENDBRANCH   8   9
BRANCH   8  11
ATOM     11  C   LIG d   1      -1.973  89.196 119.836  0.00  0.00     0.028 C 
ATOM     12  C   LIG d   1      -2.504  88.584 118.530  0.00  0.00     0.006 C 
ENDBRANCH   8  11
ENDBRANCH   7   8
ENDBRANCH   1   7
BRANCH   6  13
ATOM     13  N   LIG d   1      -2.644  92.356 117.392  0.00  0.00    -0.311 N 
ATOM     14  C   LIG d   1      -3.807  92.050 117.964  0.00  0.00     0.210 C 
ATOM     15  C   LIG d   1      -4.953  91.767 116.987  0.00  0.00     0.109 C 
ATOM     16  O   LIG d   1      -4.007  92.017 119.188  0.00  0.00    -0.276 OA
ATOM     17  H   LIG d   1      -2.579  92.391 116.394  0.00  0.00     0.149 HD
ENDBRANCH   6  13
BRANCH   5  18
ATOM     18  N   LIG d   1      -1.932  95.073 118.595  0.00  0.00     0.381 N 
ATOM     19  H   LIG d   1      -2.539  95.408 117.874  0.00  0.00    -0.090 HD
ATOM     20  H   LIG d   1      -1.434  95.857 118.977  0.00  0.00    -0.090 HD
ATOM     21  H   LIG d   1      -2.466  94.630 119.310  0.00  0.00    -0.090 HD
ENDBRANCH   5  18
BRANCH   3  22
ATOM     22  C   LIG d   1       2.670  93.753 118.481  0.00  0.00     0.382 C 
ATOM     23  O   LIG d   1       3.431  93.550 117.505  0.00  0.00    -0.241 OA
ATOM     24  O   LIG d   1       3.130  94.257 119.523  0.00  0.00    -0.241 OA
ENDBRANCH   3  22
TORSDOF 7
ENDMDL
MODEL 6
REMARK VINA RESULT:      -4.4      2.560      4.476
REMARK  7 active torsions:
REMARK  status: ('A' for Active; 'I' for Inactive)
REMARK    1  A    between atoms: C_2  and  C_3 
REMARK    2  A    between atoms: C_3  and  O_6 
REMARK    3  A    between atoms: C_3  and  C_4 
REMARK    4  A    between atoms: C_7  and  O_6 
REMARK    5  A    between atoms: C_9  and  C_10 
REMARK    6  A    between atoms: N_15  and  C_14 
REMARK    7  A    between atoms: N_20  and  C_19 
REMARK       I    between atoms: C_22  and  N_20 
ROOT
ATOM      1  C   LIG d   1      -4.999  92.815 120.296  0.00  0.00     0.161 C 
ATOM      2  C   LIG d   1      -3.961  92.059 119.728  0.00  0.00     0.016 C 
ATOM      3  C   LIG d   1      -4.034  91.482 118.439  0.00  0.00     0.038 C 
ATOM      4  C   LIG d   1      -5.099  91.751 117.566  0.00  0.00     0.028 C 
ATOM      5  C   LIG d   1      -6.399  92.095 118.284  0.00  0.00    -0.047 C 
ATOM      6  C   LIG d   1      -6.122  93.212 119.316  0.00  0.00     0.091 C 
ENDROOT
BRANCH   1   7
ATOM      7  O   LIG d   1      -4.456  93.987 120.937  0.00  0.00    -0.368 OA
BRANCH   7   8
ATOM      8  C   LIG d   1      -4.103  95.086 120.061  0.00  0.00     0.119 C 
BRANCH   8   9
ATOM      9  C   LIG d   1      -2.615  95.407 120.298  0.00  0.00     0.028 C 
ATOM     10  C   LIG d   1      -1.721  94.936 119.139  0.00  0.00     0.006 C 
ENDBRANCH   8   9
BRANCH   8  11
ATOM     11  C   LIG d   1      -4.859  96.363 120.438  0.00  0.00     0.028 C 
ATOM     12  C   LIG d   1      -5.257  97.203 119.214  0.00  0.00     0.006 C 
ENDBRANCH   8  11
ENDBRANCH   7   8
ENDBRANCH   1   7
BRANCH   6  13
ATOM     13  N   LIG d   1      -7.324  93.550 120.121  0.00  0.00    -0.311 N 
ATOM     14  C   LIG d   1      -8.187  94.507 119.785  0.00  0.00     0.210 C 
ATOM     15  C   LIG d   1      -9.347  94.706 120.765  0.00  0.00     0.109 C 
ATOM     16  O   LIG d   1      -8.119  95.189 118.751  0.00  0.00    -0.276 OA
ATOM     17  H   LIG d   1      -7.473  93.025 120.961  0.00  0.00     0.149 HD
ENDBRANCH   6  13
BRANCH   5  18
ATOM     18  N   LIG d   1      -7.384  92.486 117.258  0.00  0.00     0.381 N 
ATOM     19  H   LIG d   1      -8.256  92.028 117.434  0.00  0.00    -0.090 HD
ATOM     20  H   LIG d   1      -7.050  92.192 116.357  0.00  0.00    -0.090 HD
ATOM     21  H   LIG d   1      -7.512  93.474 117.268  0.00  0.00    -0.090 HD
ENDBRANCH   5  18
BRANCH   3  22
ATOM     22  C   LIG d   1      -3.053  90.593 118.027  0.00  0.00     0.382 C 
ATOM     23  O   LIG d   1      -3.275  89.358 118.053  0.00  0.00    -0.241 OA
ATOM     24  O   LIG d   1      -1.933  91.007 117.672  0.00  0.00    -0.241 OA
ENDBRANCH   3  22
TORSDOF 7
ENDMDL
MODEL 7
REMARK VINA RESULT:      -4.4     13.926     16.836
REMARK  7 active torsions:
REMARK  status: ('A' for Active; 'I' for Inactive)
REMARK    1  A    between atoms: C_2  and  C_3 
REMARK    2  A    between atoms: C_3  and  O_6 
REMARK    3  A    between atoms: C_3  and  C_4 
REMARK    4  A    between atoms: C_7  and  O_6 
REMARK    5  A    between atoms: C_9  and  C_10 
REMARK    6  A    between atoms: N_15  and  C_14 
REMARK    7  A    between atoms: N_20  and  C_19 
REMARK       I    between atoms: C_22  and  N_20 
ROOT
ATOM      1  C   LIG d   1      -4.698  77.421 116.477  0.00  0.00     0.161 C 
ATOM      2  C   LIG d   1      -3.660  76.476 116.520  0.00  0.00     0.016 C 
ATOM      3  C   LIG d   1      -3.122  75.965 117.724  0.00  0.00     0.038 C 
ATOM      4  C   LIG d   1      -3.693  76.253 118.972  0.00  0.00     0.028 C 
ATOM      5  C   LIG d   1      -4.419  77.593 119.011  0.00  0.00    -0.047 C 
ATOM      6  C   LIG d   1      -5.409  77.663 117.826  0.00  0.00     0.091 C 
ENDROOT
BRANCH   1   7
ATOM      7  O   LIG d   1      -5.656  77.049 115.466  0.00  0.00    -0.368 OA
BRANCH   7   8
ATOM      8  C   LIG d   1      -6.490  75.904 115.770  0.00  0.00     0.119 C 
BRANCH   8   9
ATOM      9  C   LIG d   1      -6.070  74.761 114.825  0.00  0.00     0.028 C 
ATOM     10  C   LIG d   1      -5.914  73.420 115.560  0.00  0.00     0.006 C 
ENDBRANCH   8   9
BRANCH   8  11
ATOM     11  C   LIG d   1      -7.960  76.183 115.440  0.00  0.00     0.028 C 
ATOM     12  C   LIG d   1      -8.930  75.339 116.282  0.00  0.00     0.006 C 
ENDBRANCH   8  11
ENDBRANCH   7   8
ENDBRANCH   1   7
BRANCH   6  13
ATOM     13  N   LIG d   1      -6.100  78.976 117.740  0.00  0.00    -0.311 N 
ATOM     14  C   LIG d   1      -7.404  79.133 117.958  0.00  0.00     0.210 C 
ATOM     15  C   LIG d   1      -7.918  80.567 117.799  0.00  0.00     0.109 C 
ATOM     16  O   LIG d   1      -8.179  78.226 118.299  0.00  0.00    -0.276 OA
ATOM     17  H   LIG d   1      -5.541  79.771 117.500  0.00  0.00     0.149 HD
ENDBRANCH   6  13
BRANCH   5  18
ATOM     18  N   LIG d   1      -5.082  77.703 120.325  0.00  0.00     0.381 N 
ATOM     19  H   LIG d   1      -5.775  78.424 120.295  0.00  0.00    -0.090 HD
ATOM     20  H   LIG d   1      -4.397  77.953 121.015  0.00  0.00    -0.090 HD
ATOM     21  H   LIG d   1      -5.507  76.835 120.566  0.00  0.00    -0.090 HD
ENDBRANCH   5  18
BRANCH   3  22
ATOM     22  C   LIG d   1      -1.975  75.187 117.688  0.00  0.00     0.382 C 
ATOM     23  O   LIG d   1      -0.892  75.646 118.125  0.00  0.00    -0.241 OA
ATOM     24  O   LIG d   1      -2.000  74.048 117.184  0.00  0.00    -0.241 OA
ENDBRANCH   3  22
TORSDOF 7
ENDMDL
MODEL 8
REMARK VINA RESULT:      -4.3     27.688     30.590
REMARK  7 active torsions:
REMARK  status: ('A' for Active; 'I' for Inactive)
REMARK    1  A    between atoms: C_2  and  C_3 
REMARK    2  A    between atoms: C_3  and  O_6 
REMARK    3  A    between atoms: C_3  and  C_4 
REMARK    4  A    between atoms: C_7  and  O_6 
REMARK    5  A    between atoms: C_9  and  C_10 
REMARK    6  A    between atoms: N_15  and  C_14 
REMARK    7  A    between atoms: N_20  and  C_19 
REMARK       I    between atoms: C_22  and  N_20 
ROOT
ATOM      1  C   LIG d   1     -15.262  64.219 118.618  0.00  0.00     0.161 C 
ATOM      2  C   LIG d   1     -15.167  65.523 119.131  0.00  0.00     0.016 C 
ATOM      3  C   LIG d   1     -14.381  65.862 120.257  0.00  0.00     0.038 C 
ATOM      4  C   LIG d   1     -13.512  64.940 120.858  0.00  0.00     0.028 C 
ATOM      5  C   LIG d   1     -13.955  63.490 120.689  0.00  0.00    -0.047 C 
ATOM      6  C   LIG d   1     -14.234  63.222 119.193  0.00  0.00     0.091 C 
ENDROOT
BRANCH   1   7
ATOM      7  O   LIG d   1     -15.177  64.253 117.180  0.00  0.00    -0.368 OA
BRANCH   7   8
ATOM      8  C   LIG d   1     -16.427  64.099 116.464  0.00  0.00     0.119 C 
BRANCH   8   9
ATOM      9  C   LIG d   1     -16.228  62.984 115.419  0.00  0.00     0.028 C 
ATOM     10  C   LIG d   1     -17.237  61.835 115.587  0.00  0.00     0.006 C 
ENDBRANCH   8   9
BRANCH   8  11
ATOM     11  C   LIG d   1     -16.765  65.356 115.656  0.00  0.00     0.028 C 
ATOM     12  C   LIG d   1     -15.602  66.360 115.602  0.00  0.00     0.006 C 
ENDBRANCH   8  11
ENDBRANCH   7   8
ENDBRANCH   1   7
BRANCH   6  13
ATOM     13  N   LIG d   1     -14.753  61.851 118.950  0.00  0.00    -0.311 N 
ATOM     14  C   LIG d   1     -14.357  61.086 117.934  0.00  0.00     0.210 C 
ATOM     15  C   LIG d   1     -15.033  59.714 117.856  0.00  0.00     0.109 C 
ATOM     16  O   LIG d   1     -13.487  61.401 117.109  0.00  0.00    -0.276 OA
ATOM     17  H   LIG d   1     -15.441  61.503 119.590  0.00  0.00     0.149 HD
ENDBRANCH   6  13
BRANCH   5  18
ATOM     18  N   LIG d   1     -12.891  62.632 121.242  0.00  0.00     0.381 N 
ATOM     19  H   LIG d   1     -13.281  61.763 121.550  0.00  0.00    -0.090 HD
ATOM     20  H   LIG d   1     -12.481  63.092 122.036  0.00  0.00    -0.090 HD
ATOM     21  H   LIG d   1     -12.194  62.464 120.550  0.00  0.00    -0.090 HD
ENDBRANCH   5  18
BRANCH   3  22
ATOM     22  C   LIG d   1     -14.491  67.125 120.817  0.00  0.00     0.382 C 
ATOM     23  O   LIG d   1     -15.468  67.402 121.554  0.00  0.00    -0.241 OA
ATOM     24  O   LIG d   1     -13.649  68.006 120.558  0.00  0.00    -0.241 OA
ENDBRANCH   3  22
TORSDOF 7
ENDMDL
MODEL 9
REMARK VINA RESULT:      -4.3     18.559     21.012
REMARK  7 active torsions:
REMARK  status: ('A' for Active; 'I' for Inactive)
REMARK    1  A    between atoms: C_2  and  C_3 
REMARK    2  A    between atoms: C_3  and  O_6 
REMARK    3  A    between atoms: C_3  and  C_4 
REMARK    4  A    between atoms: C_7  and  O_6 
REMARK    5  A    between atoms: C_9  and  C_10 
REMARK    6  A    between atoms: N_15  and  C_14 
REMARK    7  A    between atoms: N_20  and  C_19 
REMARK       I    between atoms: C_22  and  N_20 
ROOT
ATOM      1  C   LIG d   1     -23.123  83.447 116.205  0.00  0.00     0.161 C 
ATOM      2  C   LIG d   1     -22.241  82.696 117.000  0.00  0.00     0.016 C 
ATOM      3  C   LIG d   1     -21.866  83.069 118.311  0.00  0.00     0.038 C 
ATOM      4  C   LIG d   1     -22.470  84.146 118.977  0.00  0.00     0.028 C 
ATOM      5  C   LIG d   1     -22.991  85.226 118.035  0.00  0.00    -0.047 C 
ATOM      6  C   LIG d   1     -23.878  84.564 116.955  0.00  0.00     0.091 C 
ENDROOT
BRANCH   1   7
ATOM      7  O   LIG d   1     -24.056  82.567 115.546  0.00  0.00    -0.368 OA
BRANCH   7   8
ATOM      8  C   LIG d   1     -24.207  81.249 116.127  0.00  0.00     0.119 C 
BRANCH   8   9
ATOM      9  C   LIG d   1     -24.335  80.244 114.966  0.00  0.00     0.028 C 
ATOM     10  C   LIG d   1     -24.949  78.906 115.413  0.00  0.00     0.006 C 
ENDBRANCH   8   9
BRANCH   8  11
ATOM     11  C   LIG d   1     -25.518  81.132 116.910  0.00  0.00     0.028 C 
ATOM     12  C   LIG d   1     -25.312  81.210 118.431  0.00  0.00     0.006 C 
ENDBRANCH   8  11
ENDBRANCH   7   8
ENDBRANCH   1   7
BRANCH   6  13
ATOM     13  N   LIG d   1     -24.360  85.539 115.943  0.00  0.00    -0.311 N 
ATOM     14  C   LIG d   1     -25.559  86.118 115.994  0.00  0.00     0.210 C 
ATOM     15  C   LIG d   1     -25.864  87.077 114.840  0.00  0.00     0.109 C 
ATOM     16  O   LIG d   1     -26.385  85.952 116.904  0.00  0.00    -0.276 OA
ATOM     17  H   LIG d   1     -23.741  85.756 115.186  0.00  0.00     0.149 HD
ENDBRANCH   6  13
BRANCH   5  18
ATOM     18  N   LIG d   1     -23.716  86.217 118.851  0.00  0.00     0.381 N 
ATOM     19  H   LIG d   1     -24.579  86.457 118.405  0.00  0.00    -0.090 HD
ATOM     20  H   LIG d   1     -23.157  87.049 118.925  0.00  0.00    -0.090 HD
ATOM     21  H   LIG d   1     -23.895  85.847 119.759  0.00  0.00    -0.090 HD
ENDBRANCH   5  18
BRANCH   3  22
ATOM     22  C   LIG d   1     -20.847  82.384 118.956  0.00  0.00     0.382 C 
ATOM     23  O   LIG d   1     -21.107  81.352 119.619  0.00  0.00    -0.241 OA
ATOM     24  O   LIG d   1     -19.677  82.811 118.918  0.00  0.00    -0.241 OA
ENDBRANCH   3  22
TORSDOF 7
ENDMDL
