MODEL 1
REMARK VINA RESULT:      -6.0      0.000      0.000
REMARK  7 active torsions:
REMARK  status: ('A' for Active; 'I' for Inactive)
REMARK    1  A    between atoms: C_2  and  C_3 
REMARK    2  A    between atoms: C_3  and  O_6 
REMARK    3  A    between atoms: C_3  and  C_4 
REMARK    4  A    between atoms: C_7  and  O_6 
REMARK    5  A    between atoms: C_9  and  C_10 
REMARK    6  A    between atoms: N_15  and  C_14 
REMARK    7  A    between atoms: N_20  and  C_19 
REMARK       I    between atoms: C_22  and  N_20 
ROOT
ATOM      1  C   LIG d   1      -7.106  75.963 116.375  0.00  0.00     0.161 C 
ATOM      2  C   LIG d   1      -5.887  75.417 115.940  0.00  0.00     0.016 C 
ATOM      3  C   LIG d   1      -4.671  75.569 116.645  0.00  0.00     0.038 C 
ATOM      4  C   LIG d   1      -4.621  76.154 117.919  0.00  0.00     0.028 C 
ATOM      5  C   LIG d   1      -5.736  77.164 118.167  0.00  0.00    -0.047 C 
ATOM      6  C   LIG d   1      -7.092  76.510 117.818  0.00  0.00     0.091 C 
ENDROOT
BRANCH   1   7
ATOM      7  O   LIG d   1      -8.160  74.993 116.217  0.00  0.00    -0.368 OA
BRANCH   7   8
ATOM      8  C   LIG d   1      -8.247  73.973 117.242  0.00  0.00     0.119 C 
BRANCH   8   9
ATOM      9  C   LIG d   1      -7.579  72.701 116.686  0.00  0.00     0.028 C 
ATOM     10  C   LIG d   1      -8.460  71.452 116.857  0.00  0.00     0.006 C 
ENDBRANCH   8   9
BRANCH   8  11
ATOM     11  C   LIG d   1      -9.702  73.580 117.515  0.00  0.00     0.028 C 
ATOM     12  C   LIG d   1     -10.666  74.774 117.436  0.00  0.00     0.006 C 
ENDBRANCH   8  11
ENDBRANCH   7   8
ENDBRANCH   1   7
BRANCH   6  13
ATOM     13  N   LIG d   1      -8.229  77.457 117.951  0.00  0.00    -0.311 N 
ATOM     14  C   LIG d   1      -8.958  77.577 119.060  0.00  0.00     0.210 C 
ATOM     15  C   LIG d   1     -10.096  78.598 118.979  0.00  0.00     0.109 C 
ATOM     16  O   LIG d   1      -8.749  76.957 120.114  0.00  0.00    -0.276 OA
ATOM     17  H   LIG d   1      -8.449  78.021 117.154  0.00  0.00     0.149 HD
ENDBRANCH   6  13
BRANCH   5  18
ATOM     18  N   LIG d   1      -5.645  77.592 119.575  0.00  0.00     0.381 N 
ATOM     19  H   LIG d   1      -6.322  77.100 120.123  0.00  0.00    -0.090 HD
ATOM     20  H   LIG d   1      -5.849  78.574 119.630  0.00  0.00    -0.090 HD
ATOM     21  H   LIG d   1      -4.730  77.415 119.927  0.00  0.00    -0.090 HD
ENDBRANCH   5  18
BRANCH   3  22
ATOM     22  C   LIG d   1      -3.481  75.168 116.057  0.00  0.00     0.382 C 
ATOM     23  O   LIG d   1      -3.246  75.456 114.859  0.00  0.00    -0.241 OA
ATOM     24  O   LIG d   1      -2.660  74.483 116.696  0.00  0.00    -0.241 OA
ENDBRANCH   3  22
TORSDOF 7
ENDMDL
MODEL 2
REMARK VINA RESULT:      -5.8     14.872     17.255
REMARK  7 active torsions:
REMARK  status: ('A' for Active; 'I' for Inactive)
REMARK    1  A    between atoms: C_2  and  C_3 
REMARK    2  A    between atoms: C_3  and  O_6 
REMARK    3  A    between atoms: C_3  and  C_4 
REMARK    4  A    between atoms: C_7  and  O_6 
REMARK    5  A    between atoms: C_9  and  C_10 
REMARK    6  A    between atoms: N_15  and  C_14 
REMARK    7  A    between atoms: N_20  and  C_19 
REMARK       I    between atoms: C_22  and  N_20 
ROOT
ATOM      1  C   LIG d   1      -5.528  92.819 117.194  0.00  0.00     0.161 C 
ATOM      2  C   LIG d   1      -6.478  91.862 116.801  0.00  0.00     0.016 C 
ATOM      3  C   LIG d   1      -6.156  90.513 116.528  0.00  0.00     0.038 C 
ATOM      4  C   LIG d   1      -4.878  89.990 116.777  0.00  0.00     0.028 C 
ATOM      5  C   LIG d   1      -3.770  91.034 116.693  0.00  0.00    -0.047 C 
ATOM      6  C   LIG d   1      -4.150  92.242 117.579  0.00  0.00     0.091 C 
ENDROOT
BRANCH   1   7
ATOM      7  O   LIG d   1      -6.055  93.617 118.273  0.00  0.00    -0.368 OA
BRANCH   7   8
ATOM      8  C   LIG d   1      -7.123  93.017 119.047  0.00  0.00     0.119 C 
BRANCH   8   9
ATOM      9  C   LIG d   1      -8.251  94.060 119.167  0.00  0.00     0.028 C 
ATOM     10  C   LIG d   1      -8.079  95.226 118.179  0.00  0.00     0.006 C 
ENDBRANCH   8   9
BRANCH   8  11
ATOM     11  C   LIG d   1      -6.678  92.734 120.484  0.00  0.00     0.028 C 
ATOM     12  C   LIG d   1      -6.005  91.361 120.640  0.00  0.00     0.006 C 
ENDBRANCH   8  11
ENDBRANCH   7   8
ENDBRANCH   1   7
BRANCH   6  13
ATOM     13  N   LIG d   1      -3.158  93.346 117.488  0.00  0.00    -0.311 N 
ATOM     14  C   LIG d   1      -2.148  93.497 118.343  0.00  0.00     0.210 C 
ATOM     15  C   LIG d   1      -1.255  94.713 118.081  0.00  0.00     0.109 C 
ATOM     16  O   LIG d   1      -1.889  92.720 119.275  0.00  0.00    -0.276 OA
ATOM     17  H   LIG d   1      -3.276  94.004 116.743  0.00  0.00     0.149 HD
ENDBRANCH   6  13
BRANCH   5  18
ATOM     18  N   LIG d   1      -2.513  90.384 117.109  0.00  0.00     0.381 N 
ATOM     19  H   LIG d   1      -2.517  90.241 118.099  0.00  0.00    -0.090 HD
ATOM     20  H   LIG d   1      -1.743  90.988 116.880  0.00  0.00    -0.090 HD
ATOM     21  H   LIG d   1      -2.410  89.510 116.641  0.00  0.00    -0.090 HD
ENDBRANCH   5  18
BRANCH   3  22
ATOM     22  C   LIG d   1      -7.109  89.681 115.961  0.00  0.00     0.382 C 
ATOM     23  O   LIG d   1      -7.362  88.569 116.485  0.00  0.00    -0.241 OA
ATOM     24  O   LIG d   1      -7.687  90.008 114.907  0.00  0.00    -0.241 OA
ENDBRANCH   3  22
TORSDOF 7
ENDMDL
MODEL 3
REMARK VINA RESULT:      -5.8      1.346      2.155
REMARK  7 active torsions:
REMARK  status: ('A' for Active; 'I' for Inactive)
REMARK    1  A    between atoms: C_2  and  C_3 
REMARK    2  A    between atoms: C_3  and  O_6 
REMARK    3  A    between atoms: C_3  and  C_4 
REMARK    4  A    between atoms: C_7  and  O_6 
REMARK    5  A    between atoms: C_9  and  C_10 
REMARK    6  A    between atoms: N_15  and  C_14 
REMARK    7  A    between atoms: N_20  and  C_19 
REMARK       I    between atoms: C_22  and  N_20 
ROOT
ATOM      1  C   LIG d   1      -7.219  76.328 116.974  0.00  0.00     0.161 C 
ATOM      2  C   LIG d   1      -5.978  76.233 116.323  0.00  0.00     0.016 C 
ATOM      3  C   LIG d   1      -4.991  77.245 116.376  0.00  0.00     0.038 C 
ATOM      4  C   LIG d   1      -5.120  78.362 117.214  0.00  0.00     0.028 C 
ATOM      5  C   LIG d   1      -6.569  78.743 117.497  0.00  0.00    -0.047 C 
ATOM      6  C   LIG d   1      -7.332  77.490 117.983  0.00  0.00     0.091 C 
ENDROOT
BRANCH   1   7
ATOM      7  O   LIG d   1      -7.531  75.075 117.615  0.00  0.00    -0.368 OA
BRANCH   7   8
ATOM      8  C   LIG d   1      -8.245  74.107 116.807  0.00  0.00     0.119 C 
BRANCH   8   9
ATOM      9  C   LIG d   1      -9.490  73.669 117.602  0.00  0.00     0.028 C 
ATOM     10  C   LIG d   1     -10.666  74.645 117.435  0.00  0.00     0.006 C 
ENDBRANCH   8   9
BRANCH   8  11
ATOM     11  C   LIG d   1      -7.420  72.831 116.610  0.00  0.00     0.028 C 
ATOM     12  C   LIG d   1      -8.257  71.551 116.764  0.00  0.00     0.006 C 
ENDBRANCH   8  11
ENDBRANCH   7   8
ENDBRANCH   1   7
BRANCH   6  13
ATOM     13  N   LIG d   1      -8.778  77.756 118.203  0.00  0.00    -0.311 N 
ATOM     14  C   LIG d   1      -9.383  77.594 119.378  0.00  0.00     0.210 C 
ATOM     15  C   LIG d   1     -10.883  77.904 119.381  0.00  0.00     0.109 C 
ATOM     16  O   LIG d   1      -8.813  77.253 120.426  0.00  0.00    -0.276 OA
ATOM     17  H   LIG d   1      -9.310  78.065 117.413  0.00  0.00     0.149 HD
ENDBRANCH   6  13
BRANCH   5  18
ATOM     18  N   LIG d   1      -6.558  79.834 118.490  0.00  0.00     0.381 N 
ATOM     19  H   LIG d   1      -5.917  80.547 118.203  0.00  0.00    -0.090 HD
ATOM     20  H   LIG d   1      -6.246  79.467 119.373  0.00  0.00    -0.090 HD
ATOM     21  H   LIG d   1      -7.472  80.218 118.586  0.00  0.00    -0.090 HD
ENDBRANCH   5  18
BRANCH   3  22
ATOM     22  C   LIG d   1      -3.878  77.163 115.554  0.00  0.00     0.382 C 
ATOM     23  O   LIG d   1      -3.254  76.080 115.449  0.00  0.00    -0.241 OA
ATOM     24  O   LIG d   1      -3.463  78.171 114.950  0.00  0.00    -0.241 OA
ENDBRANCH   3  22
TORSDOF 7
ENDMDL
MODEL 4
REMARK VINA RESULT:      -5.7      2.029      4.840
REMARK  7 active torsions:
REMARK  status: ('A' for Active; 'I' for Inactive)
REMARK    1  A    between atoms: C_2  and  C_3 
REMARK    2  A    between atoms: C_3  and  O_6 
REMARK    3  A    between atoms: C_3  and  C_4 
REMARK    4  A    between atoms: C_7  and  O_6 
REMARK    5  A    between atoms: C_9  and  C_10 
REMARK    6  A    between atoms: N_15  and  C_14 
REMARK    7  A    between atoms: N_20  and  C_19 
REMARK       I    between atoms: C_22  and  N_20 
ROOT
ATOM      1  C   LIG d   1      -6.151  74.957 116.832  0.00  0.00     0.161 C 
ATOM      2  C   LIG d   1      -6.716  73.701 116.557  0.00  0.00     0.016 C 
ATOM      3  C   LIG d   1      -8.045  73.354 116.895  0.00  0.00     0.038 C 
ATOM      4  C   LIG d   1      -8.952  74.298 117.399  0.00  0.00     0.028 C 
ATOM      5  C   LIG d   1      -8.281  75.437 118.160  0.00  0.00    -0.047 C 
ATOM      6  C   LIG d   1      -7.159  76.035 117.281  0.00  0.00     0.091 C 
ENDROOT
BRANCH   1   7
ATOM      7  O   LIG d   1      -5.401  75.416 115.691  0.00  0.00    -0.368 OA
BRANCH   7   8
ATOM      8  C   LIG d   1      -3.970  75.193 115.736  0.00  0.00     0.119 C 
BRANCH   8   9
ATOM      9  C   LIG d   1      -3.555  75.151 117.219  0.00  0.00     0.028 C 
ATOM     10  C   LIG d   1      -2.049  74.896 117.400  0.00  0.00     0.006 C 
ENDBRANCH   8   9
BRANCH   8  11
ATOM     11  C   LIG d   1      -3.202  76.373 115.133  0.00  0.00     0.028 C 
ATOM     12  C   LIG d   1      -3.648  77.728 115.705  0.00  0.00     0.006 C 
ENDBRANCH   8  11
ENDBRANCH   7   8
ENDBRANCH   1   7
BRANCH   6  13
ATOM     13  N   LIG d   1      -6.396  77.100 117.984  0.00  0.00    -0.311 N 
ATOM     14  C   LIG d   1      -6.687  78.396 117.887  0.00  0.00     0.210 C 
ATOM     15  C   LIG d   1      -5.761  79.327 118.677  0.00  0.00     0.109 C 
ATOM     16  O   LIG d   1      -7.643  78.860 117.249  0.00  0.00    -0.276 OA
ATOM     17  H   LIG d   1      -5.622  76.809 118.549  0.00  0.00     0.149 HD
ENDBRANCH   6  13
BRANCH   5  18
ATOM     18  N   LIG d   1      -9.326  76.416 118.510  0.00  0.00     0.381 N 
ATOM     19  H   LIG d   1     -10.088  76.343 117.866  0.00  0.00    -0.090 HD
ATOM     20  H   LIG d   1      -8.941  77.342 118.440  0.00  0.00    -0.090 HD
ATOM     21  H   LIG d   1      -9.650  76.253 119.438  0.00  0.00    -0.090 HD
ENDBRANCH   5  18
BRANCH   3  22
ATOM     22  C   LIG d   1      -8.466  72.040 116.765  0.00  0.00     0.382 C 
ATOM     23  O   LIG d   1      -7.671  71.165 116.346  0.00  0.00    -0.241 OA
ATOM     24  O   LIG d   1      -9.644  71.726 117.020  0.00  0.00    -0.241 OA
ENDBRANCH   3  22
TORSDOF 7
ENDMDL
MODEL 5
REMARK VINA RESULT:      -5.6      2.098      5.448
REMARK  7 active torsions:
REMARK  status: ('A' for Active; 'I' for Inactive)
REMARK    1  A    between atoms: C_2  and  C_3 
REMARK    2  A    between atoms: C_3  and  O_6 
REMARK    3  A    between atoms: C_3  and  C_4 
REMARK    4  A    between atoms: C_7  and  O_6 
REMARK    5  A    between atoms: C_9  and  C_10 
REMARK    6  A    between atoms: N_15  and  C_14 
REMARK    7  A    between atoms: N_20  and  C_19 
REMARK       I    between atoms: C_22  and  N_20 
ROOT
ATOM      1  C   LIG d   1      -7.696  77.021 118.948  0.00  0.00     0.161 C 
ATOM      2  C   LIG d   1      -9.038  77.111 119.353  0.00  0.00     0.016 C 
ATOM      3  C   LIG d   1      -9.828  78.270 119.178  0.00  0.00     0.038 C 
ATOM      4  C   LIG d   1      -9.371  79.375 118.444  0.00  0.00     0.028 C 
ATOM      5  C   LIG d   1      -7.853  79.524 118.456  0.00  0.00    -0.047 C 
ATOM      6  C   LIG d   1      -7.214  78.177 118.046  0.00  0.00     0.091 C 
ENDROOT
BRANCH   1   7
ATOM      7  O   LIG d   1      -7.464  75.753 118.304  0.00  0.00    -0.368 OA
BRANCH   7   8
ATOM      8  C   LIG d   1      -8.301  75.456 117.159  0.00  0.00     0.119 C 
BRANCH   8   9
ATOM      9  C   LIG d   1      -9.125  74.199 117.501  0.00  0.00     0.028 C 
ATOM     10  C   LIG d   1     -10.640  74.451 117.422  0.00  0.00     0.006 C 
ENDBRANCH   8   9
BRANCH   8  11
ATOM     11  C   LIG d   1      -7.461  75.071 115.939  0.00  0.00     0.028 C 
ATOM     12  C   LIG d   1      -6.290  74.140 116.291  0.00  0.00     0.006 C 
ENDBRANCH   8  11
ENDBRANCH   7   8
ENDBRANCH   1   7
BRANCH   6  13
ATOM     13  N   LIG d   1      -5.730  78.210 118.113  0.00  0.00    -0.311 N 
ATOM     14  C   LIG d   1      -4.943  77.890 117.088  0.00  0.00     0.210 C 
ATOM     15  C   LIG d   1      -3.440  77.973 117.376  0.00  0.00     0.109 C 
ATOM     16  O   LIG d   1      -5.346  77.576 115.958  0.00  0.00    -0.276 OA
ATOM     17  H   LIG d   1      -5.318  78.484 118.984  0.00  0.00     0.149 HD
ENDBRANCH   6  13
BRANCH   5  18
ATOM     18  N   LIG d   1      -7.507  80.629 117.543  0.00  0.00     0.381 N 
ATOM     19  H   LIG d   1      -7.579  80.320 116.594  0.00  0.00    -0.090 HD
ATOM     20  H   LIG d   1      -6.556  80.905 117.713  0.00  0.00    -0.090 HD
ATOM     21  H   LIG d   1      -8.117  81.402 117.695  0.00  0.00    -0.090 HD
ENDBRANCH   5  18
BRANCH   3  22
ATOM     22  C   LIG d   1     -11.077  78.348 119.775  0.00  0.00     0.382 C 
ATOM     23  O   LIG d   1     -11.945  77.475 119.529  0.00  0.00    -0.241 OA
ATOM     24  O   LIG d   1     -11.363  79.303 120.521  0.00  0.00    -0.241 OA
ENDBRANCH   3  22
TORSDOF 7
ENDMDL
MODEL 6
REMARK VINA RESULT:      -5.5      2.297      4.764
REMARK  7 active torsions:
REMARK  status: ('A' for Active; 'I' for Inactive)
REMARK    1  A    between atoms: C_2  and  C_3 
REMARK    2  A    between atoms: C_3  and  O_6 
REMARK    3  A    between atoms: C_3  and  C_4 
REMARK    4  A    between atoms: C_7  and  O_6 
REMARK    5  A    between atoms: C_9  and  C_10 
REMARK    6  A    between atoms: N_15  and  C_14 
REMARK    7  A    between atoms: N_20  and  C_19 
REMARK       I    between atoms: C_22  and  N_20 
ROOT
ATOM      1  C   LIG d   1      -6.589  76.844 117.384  0.00  0.00     0.161 C 
ATOM      2  C   LIG d   1      -6.780  75.512 116.982  0.00  0.00     0.016 C 
ATOM      3  C   LIG d   1      -7.995  74.812 117.162  0.00  0.00     0.038 C 
ATOM      4  C   LIG d   1      -9.157  75.449 117.623  0.00  0.00     0.028 C 
ATOM      5  C   LIG d   1      -8.874  76.656 118.511  0.00  0.00    -0.047 C 
ATOM      6  C   LIG d   1      -7.878  77.590 117.787  0.00  0.00     0.091 C 
ENDROOT
BRANCH   1   7
ATOM      7  O   LIG d   1      -5.891  77.571 116.353  0.00  0.00    -0.368 OA
BRANCH   7   8
ATOM      8  C   LIG d   1      -4.531  77.964 116.658  0.00  0.00     0.119 C 
BRANCH   8   9
ATOM      9  C   LIG d   1      -3.594  77.109 115.784  0.00  0.00     0.028 C 
ATOM     10  C   LIG d   1      -3.046  75.884 116.536  0.00  0.00     0.006 C 
ENDBRANCH   8   9
BRANCH   8  11
ATOM     11  C   LIG d   1      -4.163  77.620 118.105  0.00  0.00     0.028 C 
ATOM     12  C   LIG d   1      -3.793  78.858 118.936  0.00  0.00     0.006 C 
ENDBRANCH   8  11
ENDBRANCH   7   8
ENDBRANCH   1   7
BRANCH   6  13
ATOM     13  N   LIG d   1      -7.483  78.754 118.622  0.00  0.00    -0.311 N 
ATOM     14  C   LIG d   1      -7.417  80.001 118.158  0.00  0.00     0.210 C 
ATOM     15  C   LIG d   1      -6.968  81.049 119.181  0.00  0.00     0.109 C 
ATOM     16  O   LIG d   1      -7.719  80.343 117.005  0.00  0.00    -0.276 OA
ATOM     17  H   LIG d   1      -7.251  78.571 119.579  0.00  0.00     0.149 HD
ENDBRANCH   6  13
BRANCH   5  18
ATOM     18  N   LIG d   1     -10.166  77.304 118.806  0.00  0.00     0.381 N 
ATOM     19  H   LIG d   1     -10.011  78.247 119.104  0.00  0.00    -0.090 HD
ATOM     20  H   LIG d   1     -10.616  76.807 119.554  0.00  0.00    -0.090 HD
ATOM     21  H   LIG d   1     -10.745  77.295 117.995  0.00  0.00    -0.090 HD
ENDBRANCH   5  18
BRANCH   3  22
ATOM     22  C   LIG d   1      -8.045  73.448 116.918  0.00  0.00     0.382 C 
ATOM     23  O   LIG d   1      -9.050  72.784 117.269  0.00  0.00    -0.241 OA
ATOM     24  O   LIG d   1      -7.079  72.865 116.390  0.00  0.00    -0.241 OA
ENDBRANCH   3  22
TORSDOF 7
ENDMDL
MODEL 7
REMARK VINA RESULT:      -5.5      1.722      4.934
REMARK  7 active torsions:
REMARK  status: ('A' for Active; 'I' for Inactive)
REMARK    1  A    between atoms: C_2  and  C_3 
REMARK    2  A    between atoms: C_3  and  O_6 
REMARK    3  A    between atoms: C_3  and  C_4 
REMARK    4  A    between atoms: C_7  and  O_6 
REMARK    5  A    between atoms: C_9  and  C_10 
REMARK    6  A    between atoms: N_15  and  C_14 
REMARK    7  A    between atoms: N_20  and  C_19 
REMARK       I    between atoms: C_22  and  N_20 
ROOT
ATOM      1  C   LIG d   1      -8.162  75.996 117.992  0.00  0.00     0.161 C 
ATOM      2  C   LIG d   1      -9.339  76.604 118.460  0.00  0.00     0.016 C 
ATOM      3  C   LIG d   1      -9.476  78.001 118.635  0.00  0.00     0.038 C 
ATOM      4  C   LIG d   1      -8.490  78.902 118.209  0.00  0.00     0.028 C 
ATOM      5  C   LIG d   1      -7.087  78.305 118.200  0.00  0.00    -0.047 C 
ATOM      6  C   LIG d   1      -7.114  76.973 117.417  0.00  0.00     0.091 C 
ENDROOT
BRANCH   1   7
ATOM      7  O   LIG d   1      -8.488  74.983 117.021  0.00  0.00    -0.368 OA
BRANCH   7   8
ATOM      8  C   LIG d   1      -8.303  73.610 117.446  0.00  0.00     0.119 C 
BRANCH   8   9
ATOM      9  C   LIG d   1      -7.242  72.979 116.524  0.00  0.00     0.028 C 
ATOM     10  C   LIG d   1      -7.418  71.458 116.380  0.00  0.00     0.006 C 
ENDBRANCH   8   9
BRANCH   8  11
ATOM     11  C   LIG d   1      -9.573  72.783 117.228  0.00  0.00     0.028 C 
ATOM     12  C   LIG d   1     -10.844  73.645 117.179  0.00  0.00     0.006 C 
ENDBRANCH   8  11
ENDBRANCH   7   8
ENDBRANCH   1   7
BRANCH   6  13
ATOM     13  N   LIG d   1      -5.799  76.280 117.431  0.00  0.00    -0.311 N 
ATOM     14  C   LIG d   1      -4.902  76.390 116.452  0.00  0.00     0.210 C 
ATOM     15  C   LIG d   1      -3.620  75.577 116.656  0.00  0.00     0.109 C 
ATOM     16  O   LIG d   1      -5.034  77.109 115.450  0.00  0.00    -0.276 OA
ATOM     17  H   LIG d   1      -5.597  75.701 118.222  0.00  0.00     0.149 HD
ENDBRANCH   6  13
BRANCH   5  18
ATOM     18  N   LIG d   1      -6.181  79.306 117.605  0.00  0.00     0.381 N 
ATOM     19  H   LIG d   1      -5.242  79.133 117.904  0.00  0.00    -0.090 HD
ATOM     20  H   LIG d   1      -6.450  80.220 117.926  0.00  0.00    -0.090 HD
ATOM     21  H   LIG d   1      -6.234  79.267 116.611  0.00  0.00    -0.090 HD
ENDBRANCH   5  18
BRANCH   3  22
ATOM     22  C   LIG d   1     -10.596  78.505 119.280  0.00  0.00     0.382 C 
ATOM     23  O   LIG d   1     -11.548  77.742 119.571  0.00  0.00    -0.241 OA
ATOM     24  O   LIG d   1     -10.683  79.721 119.535  0.00  0.00    -0.241 OA
ENDBRANCH   3  22
TORSDOF 7
ENDMDL
MODEL 8
REMARK VINA RESULT:      -5.4      2.365      6.018
REMARK  7 active torsions:
REMARK  status: ('A' for Active; 'I' for Inactive)
REMARK    1  A    between atoms: C_2  and  C_3 
REMARK    2  A    between atoms: C_3  and  O_6 
REMARK    3  A    between atoms: C_3  and  C_4 
REMARK    4  A    between atoms: C_7  and  O_6 
REMARK    5  A    between atoms: C_9  and  C_10 
REMARK    6  A    between atoms: N_15  and  C_14 
REMARK    7  A    between atoms: N_20  and  C_19 
REMARK       I    between atoms: C_22  and  N_20 
ROOT
ATOM      1  C   LIG d   1      -6.888  76.778 117.475  0.00  0.00     0.161 C 
ATOM      2  C   LIG d   1      -8.254  76.701 117.794  0.00  0.00     0.016 C 
ATOM      3  C   LIG d   1      -9.023  75.523 117.647  0.00  0.00     0.038 C 
ATOM      4  C   LIG d   1      -8.438  74.293 117.311  0.00  0.00     0.028 C 
ATOM      5  C   LIG d   1      -7.159  74.435 116.492  0.00  0.00    -0.047 C 
ATOM      6  C   LIG d   1      -6.208  75.418 117.212  0.00  0.00     0.091 C 
ENDROOT
BRANCH   1   7
ATOM      7  O   LIG d   1      -6.185  77.499 118.506  0.00  0.00    -0.368 OA
BRANCH   7   8
ATOM      8  C   LIG d   1      -5.680  78.806 118.139  0.00  0.00     0.119 C 
BRANCH   8   9
ATOM      9  C   LIG d   1      -4.302  78.974 118.806  0.00  0.00     0.028 C 
ATOM     10  C   LIG d   1      -3.730  77.641 119.317  0.00  0.00     0.006 C 
ENDBRANCH   8   9
BRANCH   8  11
ATOM     11  C   LIG d   1      -6.552  79.923 118.721  0.00  0.00     0.028 C 
ATOM     12  C   LIG d   1      -7.632  80.408 117.741  0.00  0.00     0.006 C 
ENDBRANCH   8  11
ENDBRANCH   7   8
ENDBRANCH   1   7
BRANCH   6  13
ATOM     13  N   LIG d   1      -4.968  75.678 116.436  0.00  0.00    -0.311 N 
ATOM     14  C   LIG d   1      -3.825  75.025 116.639  0.00  0.00     0.210 C 
ATOM     15  C   LIG d   1      -2.662  75.462 115.743  0.00  0.00     0.109 C 
ATOM     16  O   LIG d   1      -3.673  74.103 117.455  0.00  0.00    -0.276 OA
ATOM     17  H   LIG d   1      -5.011  76.389 115.732  0.00  0.00     0.149 HD
ENDBRANCH   6  13
BRANCH   5  18
ATOM     18  N   LIG d   1      -6.582  73.087 116.329  0.00  0.00     0.381 N 
ATOM     19  H   LIG d   1      -6.932  72.481 117.044  0.00  0.00    -0.090 HD
ATOM     20  H   LIG d   1      -5.584  73.146 116.427  0.00  0.00    -0.090 HD
ATOM     21  H   LIG d   1      -6.815  72.722 115.432  0.00  0.00    -0.090 HD
ENDBRANCH   5  18
BRANCH   3  22
ATOM     22  C   LIG d   1     -10.400  75.578 117.799  0.00  0.00     0.382 C 
ATOM     23  O   LIG d   1     -10.934  76.588 118.318  0.00  0.00    -0.241 OA
ATOM     24  O   LIG d   1     -11.111  74.612 117.465  0.00  0.00    -0.241 OA
ENDBRANCH   3  22
TORSDOF 7
ENDMDL
MODEL 9
REMARK VINA RESULT:      -4.9      2.201      5.096
REMARK  7 active torsions:
REMARK  status: ('A' for Active; 'I' for Inactive)
REMARK    1  A    between atoms: C_2  and  C_3 
REMARK    2  A    between atoms: C_3  and  O_6 
REMARK    3  A    between atoms: C_3  and  C_4 
REMARK    4  A    between atoms: C_7  and  O_6 
REMARK    5  A    between atoms: C_9  and  C_10 
REMARK    6  A    between atoms: N_15  and  C_14 
REMARK    7  A    between atoms: N_20  and  C_19 
REMARK       I    between atoms: C_22  and  N_20 
ROOT
ATOM      1  C   LIG d   1      -7.127  77.357 118.076  0.00  0.00     0.161 C 
ATOM      2  C   LIG d   1      -8.234  78.216 117.967  0.00  0.00     0.016 C 
ATOM      3  C   LIG d   1      -8.201  79.580 118.338  0.00  0.00     0.038 C 
ATOM      4  C   LIG d   1      -7.007  80.219 118.705  0.00  0.00     0.028 C 
ATOM      5  C   LIG d   1      -5.975  79.275 119.311  0.00  0.00    -0.047 C 
ATOM      6  C   LIG d   1      -5.787  78.064 118.369  0.00  0.00     0.091 C 
ENDROOT
BRANCH   1   7
ATOM      7  O   LIG d   1      -7.018  76.548 116.889  0.00  0.00    -0.368 OA
BRANCH   7   8
ATOM      8  C   LIG d   1      -7.141  75.117 117.080  0.00  0.00     0.119 C 
BRANCH   8   9
ATOM      9  C   LIG d   1      -6.140  74.435 116.127  0.00  0.00     0.028 C 
ATOM     10  C   LIG d   1      -5.837  75.290 114.884  0.00  0.00     0.006 C 
ENDBRANCH   8   9
BRANCH   8  11
ATOM     11  C   LIG d   1      -8.521  74.613 116.646  0.00  0.00     0.028 C 
ATOM     12  C   LIG d   1      -9.560  74.675 117.776  0.00  0.00     0.006 C 
ENDBRANCH   8  11
ENDBRANCH   7   8
ENDBRANCH   1   7
BRANCH   6  13
ATOM     13  N   LIG d   1      -4.856  77.049 118.928  0.00  0.00    -0.311 N 
ATOM     14  C   LIG d   1      -3.821  76.553 118.253  0.00  0.00     0.210 C 
ATOM     15  C   LIG d   1      -3.000  75.503 119.007  0.00  0.00     0.109 C 
ATOM     16  O   LIG d   1      -3.485  76.907 117.112  0.00  0.00    -0.276 OA
ATOM     17  H   LIG d   1      -5.036  76.729 119.859  0.00  0.00     0.149 HD
ENDBRANCH   6  13
BRANCH   5  18
ATOM     18  N   LIG d   1      -4.734  80.044 119.519  0.00  0.00     0.381 N 
ATOM     19  H   LIG d   1      -4.008  79.436 119.841  0.00  0.00    -0.090 HD
ATOM     20  H   LIG d   1      -4.897  80.742 120.223  0.00  0.00    -0.090 HD
ATOM     21  H   LIG d   1      -4.457  80.481 118.667  0.00  0.00    -0.090 HD
ENDBRANCH   5  18
BRANCH   3  22
ATOM     22  C   LIG d   1      -9.379  80.309 118.384  0.00  0.00     0.382 C 
ATOM     23  O   LIG d   1      -9.350  81.532 118.663  0.00  0.00    -0.241 OA
ATOM     24  O   LIG d   1     -10.476  79.750 118.192  0.00  0.00    -0.241 OA
ENDBRANCH   3  22
TORSDOF 7
ENDMDL
