MODEL 1
REMARK VINA RESULT:      -5.3      0.000      0.000
REMARK  7 active torsions:
REMARK  status: ('A' for Active; 'I' for Inactive)
REMARK    1  A    between atoms: C_2  and  C_3 
REMARK    2  A    between atoms: C_3  and  O_6 
REMARK    3  A    between atoms: C_3  and  C_4 
REMARK    4  A    between atoms: C_7  and  O_6 
REMARK    5  A    between atoms: C_9  and  C_10 
REMARK    6  A    between atoms: N_15  and  C_14 
REMARK    7  A    between atoms: N_20  and  C_19 
REMARK       I    between atoms: C_22  and  N_20 
ROOT
ATOM      1  C   LIG d   1      -8.161  76.286 117.249  0.00  0.00     0.161 C 
ATOM      2  C   LIG d   1      -9.024  75.229 116.914  0.00  0.00     0.016 C 
ATOM      3  C   LIG d   1     -10.348  75.123 117.400  0.00  0.00     0.038 C 
ATOM      4  C   LIG d   1     -10.952  76.151 118.138  0.00  0.00     0.028 C 
ATOM      5  C   LIG d   1      -9.956  77.000 118.921  0.00  0.00    -0.047 C 
ATOM      6  C   LIG d   1      -8.839  77.474 117.964  0.00  0.00     0.091 C 
ENDROOT
BRANCH   1   7
ATOM      7  O   LIG d   1      -7.465  76.740 116.072  0.00  0.00    -0.368 OA
BRANCH   7   8
ATOM      8  C   LIG d   1      -6.039  76.489 116.037  0.00  0.00     0.119 C 
BRANCH   8   9
ATOM      9  C   LIG d   1      -5.786  75.395 114.982  0.00  0.00     0.028 C 
ATOM     10  C   LIG d   1      -5.685  73.992 115.603  0.00  0.00     0.006 C 
ENDBRANCH   8   9
BRANCH   8  11
ATOM     11  C   LIG d   1      -5.545  75.897 117.361  0.00  0.00     0.028 C 
ATOM     12  C   LIG d   1      -4.480  76.770 118.044  0.00  0.00     0.006 C 
ENDBRANCH   8  11
ENDBRANCH   7   8
ENDBRANCH   1   7
BRANCH   6  13
ATOM     13  N   LIG d   1      -7.778  78.241 118.666  0.00  0.00    -0.311 N 
ATOM     14  C   LIG d   1      -7.358  79.442 118.272  0.00  0.00     0.210 C 
ATOM     15  C   LIG d   1      -6.241  80.049 119.126  0.00  0.00     0.109 C 
ATOM     16  O   LIG d   1      -7.826  80.075 117.314  0.00  0.00    -0.276 OA
ATOM     17  H   LIG d   1      -7.364  77.814 119.473  0.00  0.00     0.149 HD
ENDBRANCH   6  13
BRANCH   5  18
ATOM     18  N   LIG d   1     -10.705  78.115 119.532  0.00  0.00     0.381 N 
ATOM     19  H   LIG d   1     -10.463  78.195 120.499  0.00  0.00    -0.090 HD
ATOM     20  H   LIG d   1     -11.689  77.920 119.468  0.00  0.00    -0.090 HD
ATOM     21  H   LIG d   1     -10.496  78.966 119.058  0.00  0.00    -0.090 HD
ENDBRANCH   5  18
BRANCH   3  22
ATOM     22  C   LIG d   1     -11.068  73.958 117.181  0.00  0.00     0.382 C 
ATOM     23  O   LIG d   1     -12.286  73.909 117.479  0.00  0.00    -0.241 OA
ATOM     24  O   LIG d   1     -10.505  72.942 116.730  0.00  0.00    -0.241 OA
ENDBRANCH   3  22
TORSDOF 7
ENDMDL
MODEL 2
REMARK VINA RESULT:      -5.3      2.043      2.875
REMARK  7 active torsions:
REMARK  status: ('A' for Active; 'I' for Inactive)
REMARK    1  A    between atoms: C_2  and  C_3 
REMARK    2  A    between atoms: C_3  and  O_6 
REMARK    3  A    between atoms: C_3  and  C_4 
REMARK    4  A    between atoms: C_7  and  O_6 
REMARK    5  A    between atoms: C_9  and  C_10 
REMARK    6  A    between atoms: N_15  and  C_14 
REMARK    7  A    between atoms: N_20  and  C_19 
REMARK       I    between atoms: C_22  and  N_20 
ROOT
ATOM      1  C   LIG d   1      -7.989  75.278 118.608  0.00  0.00     0.161 C 
ATOM      2  C   LIG d   1      -7.761  74.067 117.933  0.00  0.00     0.016 C 
ATOM      3  C   LIG d   1      -8.775  73.348 117.260  0.00  0.00     0.038 C 
ATOM      4  C   LIG d   1     -10.065  73.871 117.087  0.00  0.00     0.028 C 
ATOM      5  C   LIG d   1     -10.472  74.852 118.182  0.00  0.00    -0.047 C 
ATOM      6  C   LIG d   1      -9.366  75.920 118.336  0.00  0.00     0.091 C 
ENDROOT
BRANCH   1   7
ATOM      7  O   LIG d   1      -6.933  76.211 118.308  0.00  0.00    -0.368 OA
BRANCH   7   8
ATOM      8  C   LIG d   1      -7.139  77.056 117.149  0.00  0.00     0.119 C 
BRANCH   8   9
ATOM      9  C   LIG d   1      -6.040  76.713 116.125  0.00  0.00     0.028 C 
ATOM     10  C   LIG d   1      -6.594  75.972 114.896  0.00  0.00     0.006 C 
ENDBRANCH   8   9
BRANCH   8  11
ATOM     11  C   LIG d   1      -6.926  78.534 117.493  0.00  0.00     0.028 C 
ATOM     12  C   LIG d   1      -6.531  78.753 118.962  0.00  0.00     0.006 C 
ENDBRANCH   8  11
ENDBRANCH   7   8
ENDBRANCH   1   7
BRANCH   6  13
ATOM     13  N   LIG d   1      -9.645  76.870 119.444  0.00  0.00    -0.311 N 
ATOM     14  C   LIG d   1     -10.163  78.083 119.256  0.00  0.00     0.210 C 
ATOM     15  C   LIG d   1     -10.352  78.910 120.532  0.00  0.00     0.109 C 
ATOM     16  O   LIG d   1     -10.513  78.541 118.158  0.00  0.00    -0.276 OA
ATOM     17  H   LIG d   1      -9.420  76.568 120.371  0.00  0.00     0.149 HD
ENDBRANCH   6  13
BRANCH   5  18
ATOM     18  N   LIG d   1     -11.779  75.424 117.804  0.00  0.00     0.381 N 
ATOM     19  H   LIG d   1     -12.512  74.796 118.067  0.00  0.00    -0.090 HD
ATOM     20  H   LIG d   1     -11.807  75.541 116.806  0.00  0.00    -0.090 HD
ATOM     21  H   LIG d   1     -11.908  76.304 118.253  0.00  0.00    -0.090 HD
ENDBRANCH   5  18
BRANCH   3  22
ATOM     22  C   LIG d   1      -8.514  72.071 116.786  0.00  0.00     0.382 C 
ATOM     23  O   LIG d   1      -7.356  71.768 116.409  0.00  0.00    -0.241 OA
ATOM     24  O   LIG d   1      -9.430  71.233 116.688  0.00  0.00    -0.241 OA
ENDBRANCH   3  22
TORSDOF 7
ENDMDL
MODEL 3
REMARK VINA RESULT:      -5.2     14.696     17.248
REMARK  7 active torsions:
REMARK  status: ('A' for Active; 'I' for Inactive)
REMARK    1  A    between atoms: C_2  and  C_3 
REMARK    2  A    between atoms: C_3  and  O_6 
REMARK    3  A    between atoms: C_3  and  C_4 
REMARK    4  A    between atoms: C_7  and  O_6 
REMARK    5  A    between atoms: C_9  and  C_10 
REMARK    6  A    between atoms: N_15  and  C_14 
REMARK    7  A    between atoms: N_20  and  C_19 
REMARK       I    between atoms: C_22  and  N_20 
ROOT
ATOM      1  C   LIG d   1      -4.947  92.993 117.606  0.00  0.00     0.161 C 
ATOM      2  C   LIG d   1      -5.070  91.853 116.794  0.00  0.00     0.016 C 
ATOM      3  C   LIG d   1      -6.218  91.569 116.020  0.00  0.00     0.038 C 
ATOM      4  C   LIG d   1      -7.269  92.489 115.887  0.00  0.00     0.028 C 
ATOM      5  C   LIG d   1      -7.411  93.423 117.084  0.00  0.00    -0.047 C 
ATOM      6  C   LIG d   1      -6.037  94.063 117.387  0.00  0.00     0.091 C 
ENDROOT
BRANCH   1   7
ATOM      7  O   LIG d   1      -3.637  93.572 117.441  0.00  0.00    -0.368 OA
BRANCH   7   8
ATOM      8  C   LIG d   1      -2.765  93.514 118.596  0.00  0.00     0.119 C 
BRANCH   8   9
ATOM      9  C   LIG d   1      -1.634  94.538 118.374  0.00  0.00     0.028 C 
ATOM     10  C   LIG d   1      -0.737  94.171 117.181  0.00  0.00     0.006 C 
ENDBRANCH   8   9
BRANCH   8  11
ATOM     11  C   LIG d   1      -2.066  92.155 118.701  0.00  0.00     0.028 C 
ATOM     12  C   LIG d   1      -2.510  91.351 119.933  0.00  0.00     0.006 C 
ENDBRANCH   8  11
ENDBRANCH   7   8
ENDBRANCH   1   7
BRANCH   6  13
ATOM     13  N   LIG d   1      -6.068  94.927 118.596  0.00  0.00    -0.311 N 
ATOM     14  C   LIG d   1      -6.402  96.216 118.567  0.00  0.00     0.210 C 
ATOM     15  C   LIG d   1      -6.350  96.928 119.923  0.00  0.00     0.109 C 
ATOM     16  O   LIG d   1      -6.767  96.830 117.553  0.00  0.00    -0.276 OA
ATOM     17  H   LIG d   1      -5.816  94.503 119.467  0.00  0.00     0.149 HD
ENDBRANCH   6  13
BRANCH   5  18
ATOM     18  N   LIG d   1      -8.451  94.416 116.753  0.00  0.00     0.381 N 
ATOM     19  H   LIG d   1      -9.342  94.092 117.073  0.00  0.00    -0.090 HD
ATOM     20  H   LIG d   1      -8.493  94.522 115.755  0.00  0.00    -0.090 HD
ATOM     21  H   LIG d   1      -8.235  95.291 117.179  0.00  0.00    -0.090 HD
ENDBRANCH   5  18
BRANCH   3  22
ATOM     22  C   LIG d   1      -6.341  90.335 115.401  0.00  0.00     0.382 C 
ATOM     23  O   LIG d   1      -7.446  89.740 115.402  0.00  0.00    -0.241 OA
ATOM     24  O   LIG d   1      -5.351  89.788 114.879  0.00  0.00    -0.241 OA
ENDBRANCH   3  22
TORSDOF 7
ENDMDL
MODEL 4
REMARK VINA RESULT:      -5.1      2.428      4.749
REMARK  7 active torsions:
REMARK  status: ('A' for Active; 'I' for Inactive)
REMARK    1  A    between atoms: C_2  and  C_3 
REMARK    2  A    between atoms: C_3  and  O_6 
REMARK    3  A    between atoms: C_3  and  C_4 
REMARK    4  A    between atoms: C_7  and  O_6 
REMARK    5  A    between atoms: C_9  and  C_10 
REMARK    6  A    between atoms: N_15  and  C_14 
REMARK    7  A    between atoms: N_20  and  C_19 
REMARK       I    between atoms: C_22  and  N_20 
ROOT
ATOM      1  C   LIG d   1      -7.853  77.078 117.772  0.00  0.00     0.161 C 
ATOM      2  C   LIG d   1      -8.932  77.904 118.125  0.00  0.00     0.016 C 
ATOM      3  C   LIG d   1      -8.864  79.316 118.125  0.00  0.00     0.038 C 
ATOM      4  C   LIG d   1      -7.749  80.005 117.624  0.00  0.00     0.028 C 
ATOM      5  C   LIG d   1      -6.450  79.213 117.732  0.00  0.00    -0.047 C 
ATOM      6  C   LIG d   1      -6.664  77.811 117.116  0.00  0.00     0.091 C 
ENDROOT
BRANCH   1   7
ATOM      7  O   LIG d   1      -8.313  76.009 116.922  0.00  0.00    -0.368 OA
BRANCH   7   8
ATOM      8  C   LIG d   1      -8.476  74.716 117.555  0.00  0.00     0.119 C 
BRANCH   8   9
ATOM      9  C   LIG d   1      -7.352  73.800 117.033  0.00  0.00     0.028 C 
ATOM     10  C   LIG d   1      -7.740  72.313 117.074  0.00  0.00     0.006 C 
ENDBRANCH   8   9
BRANCH   8  11
ATOM     11  C   LIG d   1      -9.782  74.043 117.120  0.00  0.00     0.028 C 
ATOM     12  C   LIG d   1     -11.030  74.818 117.571  0.00  0.00     0.006 C 
ENDBRANCH   8  11
ENDBRANCH   7   8
ENDBRANCH   1   7
BRANCH   6  13
ATOM     13  N   LIG d   1      -5.467  76.942 117.256  0.00  0.00    -0.311 N 
ATOM     14  C   LIG d   1      -4.544  76.807 116.305  0.00  0.00     0.210 C 
ATOM     15  C   LIG d   1      -3.401  75.846 116.645  0.00  0.00     0.109 C 
ATOM     16  O   LIG d   1      -4.546  77.417 115.225  0.00  0.00    -0.276 OA
ATOM     17  H   LIG d   1      -5.369  76.434 118.113  0.00  0.00     0.149 HD
ENDBRANCH   6  13
BRANCH   5  18
ATOM     18  N   LIG d   1      -5.397  79.989 117.049  0.00  0.00     0.381 N 
ATOM     19  H   LIG d   1      -5.238  80.847 117.538  0.00  0.00    -0.090 HD
ATOM     20  H   LIG d   1      -5.707  80.209 116.119  0.00  0.00    -0.090 HD
ATOM     21  H   LIG d   1      -4.554  79.459 117.010  0.00  0.00    -0.090 HD
ENDBRANCH   5  18
BRANCH   3  22
ATOM     22  C   LIG d   1      -9.904  80.055 118.669  0.00  0.00     0.382 C 
ATOM     23  O   LIG d   1     -10.290  81.105 118.101  0.00  0.00    -0.241 OA
ATOM     24  O   LIG d   1     -10.431  79.709 119.743  0.00  0.00    -0.241 OA
ENDBRANCH   3  22
TORSDOF 7
ENDMDL
MODEL 5
REMARK VINA RESULT:      -5.1      2.249      5.208
REMARK  7 active torsions:
REMARK  status: ('A' for Active; 'I' for Inactive)
REMARK    1  A    between atoms: C_2  and  C_3 
REMARK    2  A    between atoms: C_3  and  O_6 
REMARK    3  A    between atoms: C_3  and  C_4 
REMARK    4  A    between atoms: C_7  and  O_6 
REMARK    5  A    between atoms: C_9  and  C_10 
REMARK    6  A    between atoms: N_15  and  C_14 
REMARK    7  A    between atoms: N_20  and  C_19 
REMARK       I    between atoms: C_22  and  N_20 
ROOT
ATOM      1  C   LIG d   1      -8.632  77.775 118.190  0.00  0.00     0.161 C 
ATOM      2  C   LIG d   1      -7.653  78.679 117.745  0.00  0.00     0.016 C 
ATOM      3  C   LIG d   1      -7.699  80.067 118.005  0.00  0.00     0.038 C 
ATOM      4  C   LIG d   1      -8.657  80.629 118.862  0.00  0.00     0.028 C 
ATOM      5  C   LIG d   1      -9.956  79.833 118.924  0.00  0.00    -0.047 C 
ATOM      6  C   LIG d   1      -9.625  78.353 119.220  0.00  0.00     0.091 C 
ENDROOT
BRANCH   1   7
ATOM      7  O   LIG d   1      -8.001  76.589 118.712  0.00  0.00    -0.368 OA
BRANCH   7   8
ATOM      8  C   LIG d   1      -8.142  75.388 117.914  0.00  0.00     0.119 C 
BRANCH   8   9
ATOM      9  C   LIG d   1      -6.824  75.189 117.141  0.00  0.00     0.028 C 
ATOM     10  C   LIG d   1      -6.903  75.719 115.699  0.00  0.00     0.006 C 
ENDBRANCH   8   9
BRANCH   8  11
ATOM     11  C   LIG d   1      -9.221  75.556 116.840  0.00  0.00     0.028 C 
ATOM     12  C   LIG d   1     -10.397  74.584 117.020  0.00  0.00     0.006 C 
ENDBRANCH   8  11
ENDBRANCH   7   8
ENDBRANCH   1   7
BRANCH   6  13
ATOM     13  N   LIG d   1     -10.834  77.489 119.214  0.00  0.00    -0.311 N 
ATOM     14  C   LIG d   1     -11.121  76.623 120.184  0.00  0.00     0.210 C 
ATOM     15  C   LIG d   1     -12.406  75.816 119.972  0.00  0.00     0.109 C 
ATOM     16  O   LIG d   1     -10.451  76.470 121.217  0.00  0.00    -0.276 OA
ATOM     17  H   LIG d   1     -11.449  77.571 118.428  0.00  0.00     0.149 HD
ENDBRANCH   6  13
BRANCH   5  18
ATOM     18  N   LIG d   1     -10.810  80.453 119.955  0.00  0.00     0.381 N 
ATOM     19  H   LIG d   1     -10.897  81.434 119.779  0.00  0.00    -0.090 HD
ATOM     20  H   LIG d   1     -10.375  80.331 120.853  0.00  0.00    -0.090 HD
ATOM     21  H   LIG d   1     -11.710  80.026 119.954  0.00  0.00    -0.090 HD
ENDBRANCH   5  18
BRANCH   3  22
ATOM     22  C   LIG d   1      -6.804  80.916 117.371  0.00  0.00     0.382 C 
ATOM     23  O   LIG d   1      -7.223  81.934 116.770  0.00  0.00    -0.241 OA
ATOM     24  O   LIG d   1      -5.587  80.652 117.356  0.00  0.00    -0.241 OA
ENDBRANCH   3  22
TORSDOF 7
ENDMDL
MODEL 6
REMARK VINA RESULT:      -5.0      1.737      2.654
REMARK  7 active torsions:
REMARK  status: ('A' for Active; 'I' for Inactive)
REMARK    1  A    between atoms: C_2  and  C_3 
REMARK    2  A    between atoms: C_3  and  O_6 
REMARK    3  A    between atoms: C_3  and  C_4 
REMARK    4  A    between atoms: C_7  and  O_6 
REMARK    5  A    between atoms: C_9  and  C_10 
REMARK    6  A    between atoms: N_15  and  C_14 
REMARK    7  A    between atoms: N_20  and  C_19 
REMARK       I    between atoms: C_22  and  N_20 
ROOT
ATOM      1  C   LIG d   1      -8.896  74.914 117.900  0.00  0.00     0.161 C 
ATOM      2  C   LIG d   1     -10.265  74.600 117.865  0.00  0.00     0.016 C 
ATOM      3  C   LIG d   1     -11.281  75.508 118.240  0.00  0.00     0.038 C 
ATOM      4  C   LIG d   1     -11.004  76.851 118.533  0.00  0.00     0.028 C 
ATOM      5  C   LIG d   1      -9.594  77.076 119.069  0.00  0.00    -0.047 C 
ATOM      6  C   LIG d   1      -8.581  76.409 118.110  0.00  0.00     0.091 C 
ENDROOT
BRANCH   1   7
ATOM      7  O   LIG d   1      -8.254  74.430 116.704  0.00  0.00    -0.368 OA
BRANCH   7   8
ATOM      8  C   LIG d   1      -7.004  73.721 116.894  0.00  0.00     0.119 C 
BRANCH   8   9
ATOM      9  C   LIG d   1      -5.956  74.378 115.974  0.00  0.00     0.028 C 
ATOM     10  C   LIG d   1      -4.530  74.270 116.540  0.00  0.00     0.006 C 
ENDBRANCH   8   9
BRANCH   8  11
ATOM     11  C   LIG d   1      -7.109  72.270 116.417  0.00  0.00     0.028 C 
ATOM     12  C   LIG d   1      -8.479  71.641 116.718  0.00  0.00     0.006 C 
ENDBRANCH   8  11
ENDBRANCH   7   8
ENDBRANCH   1   7
BRANCH   6  13
ATOM     13  N   LIG d   1      -7.183  76.509 118.604  0.00  0.00    -0.311 N 
ATOM     14  C   LIG d   1      -6.325  77.441 118.193  0.00  0.00     0.210 C 
ATOM     15  C   LIG d   1      -4.927  77.353 118.814  0.00  0.00     0.109 C 
ATOM     16  O   LIG d   1      -6.598  78.353 117.398  0.00  0.00    -0.276 OA
ATOM     17  H   LIG d   1      -6.886  75.828 119.275  0.00  0.00     0.149 HD
ENDBRANCH   6  13
BRANCH   5  18
ATOM     18  N   LIG d   1      -9.394  78.531 119.201  0.00  0.00     0.381 N 
ATOM     19  H   LIG d   1     -10.092  79.018 118.675  0.00  0.00    -0.090 HD
ATOM     20  H   LIG d   1      -8.493  78.771 118.826  0.00  0.00    -0.090 HD
ATOM     21  H   LIG d   1      -9.444  78.797 120.160  0.00  0.00    -0.090 HD
ENDBRANCH   5  18
BRANCH   3  22
ATOM     22  C   LIG d   1     -12.589  75.063 118.364  0.00  0.00     0.382 C 
ATOM     23  O   LIG d   1     -12.992  74.101 117.667  0.00  0.00    -0.241 OA
ATOM     24  O   LIG d   1     -13.383  75.641 119.130  0.00  0.00    -0.241 OA
ENDBRANCH   3  22
TORSDOF 7
ENDMDL
MODEL 7
REMARK VINA RESULT:      -5.0     14.332     16.702
REMARK  7 active torsions:
REMARK  status: ('A' for Active; 'I' for Inactive)
REMARK    1  A    between atoms: C_2  and  C_3 
REMARK    2  A    between atoms: C_3  and  O_6 
REMARK    3  A    between atoms: C_3  and  C_4 
REMARK    4  A    between atoms: C_7  and  O_6 
REMARK    5  A    between atoms: C_9  and  C_10 
REMARK    6  A    between atoms: N_15  and  C_14 
REMARK    7  A    between atoms: N_20  and  C_19 
REMARK       I    between atoms: C_22  and  N_20 
ROOT
ATOM      1  C   LIG d   1      -4.883  92.305 118.037  0.00  0.00     0.161 C 
ATOM      2  C   LIG d   1      -5.404  91.454 117.048  0.00  0.00     0.016 C 
ATOM      3  C   LIG d   1      -6.388  91.855 116.115  0.00  0.00     0.038 C 
ATOM      4  C   LIG d   1      -6.811  93.188 116.011  0.00  0.00     0.028 C 
ATOM      5  C   LIG d   1      -6.686  93.967 117.316  0.00  0.00    -0.047 C 
ATOM      6  C   LIG d   1      -5.252  93.794 117.868  0.00  0.00     0.091 C 
ENDROOT
BRANCH   1   7
ATOM      7  O   LIG d   1      -3.452  92.149 118.112  0.00  0.00    -0.368 OA
BRANCH   7   8
ATOM      8  C   LIG d   1      -2.974  91.030 118.899  0.00  0.00     0.119 C 
BRANCH   8   9
ATOM      9  C   LIG d   1      -2.085  91.600 120.021  0.00  0.00     0.028 C 
ATOM     10  C   LIG d   1      -2.908  92.205 121.171  0.00  0.00     0.006 C 
ENDBRANCH   8   9
BRANCH   8  11
ATOM     11  C   LIG d   1      -2.055  90.123 118.076  0.00  0.00     0.028 C 
ATOM     12  C   LIG d   1      -2.323  88.628 118.316  0.00  0.00     0.006 C 
ENDBRANCH   8  11
ENDBRANCH   7   8
ENDBRANCH   1   7
BRANCH   6  13
ATOM     13  N   LIG d   1      -5.068  94.455 119.186  0.00  0.00    -0.311 N 
ATOM     14  C   LIG d   1      -4.151  95.393 119.414  0.00  0.00     0.210 C 
ATOM     15  C   LIG d   1      -4.117  95.929 120.849  0.00  0.00     0.109 C 
ATOM     16  O   LIG d   1      -3.383  95.855 118.557  0.00  0.00    -0.276 OA
ATOM     17  H   LIG d   1      -5.671  94.163 119.931  0.00  0.00     0.149 HD
ENDBRANCH   6  13
BRANCH   5  18
ATOM     18  N   LIG d   1      -7.030  95.372 117.031  0.00  0.00     0.381 N 
ATOM     19  H   LIG d   1      -7.937  95.580 117.399  0.00  0.00    -0.090 HD
ATOM     20  H   LIG d   1      -7.055  95.505 116.035  0.00  0.00    -0.090 HD
ATOM     21  H   LIG d   1      -6.352  95.979 117.437  0.00  0.00    -0.090 HD
ENDBRANCH   5  18
BRANCH   3  22
ATOM     22  C   LIG d   1      -6.988  90.907 115.299  0.00  0.00     0.382 C 
ATOM     23  O   LIG d   1      -6.380  89.846 115.019  0.00  0.00    -0.241 OA
ATOM     24  O   LIG d   1      -8.111  91.120 114.805  0.00  0.00    -0.241 OA
ENDBRANCH   3  22
TORSDOF 7
ENDMDL
MODEL 8
REMARK VINA RESULT:      -4.9     14.826     18.121
REMARK  7 active torsions:
REMARK  status: ('A' for Active; 'I' for Inactive)
REMARK    1  A    between atoms: C_2  and  C_3 
REMARK    2  A    between atoms: C_3  and  O_6 
REMARK    3  A    between atoms: C_3  and  C_4 
REMARK    4  A    between atoms: C_7  and  O_6 
REMARK    5  A    between atoms: C_9  and  C_10 
REMARK    6  A    between atoms: N_15  and  C_14 
REMARK    7  A    between atoms: N_20  and  C_19 
REMARK       I    between atoms: C_22  and  N_20 
ROOT
ATOM      1  C   LIG d   1      -4.692  93.880 117.899  0.00  0.00     0.161 C 
ATOM      2  C   LIG d   1      -4.708  95.076 118.637  0.00  0.00     0.016 C 
ATOM      3  C   LIG d   1      -5.832  95.930 118.711  0.00  0.00     0.038 C 
ATOM      4  C   LIG d   1      -7.075  95.567 118.170  0.00  0.00     0.028 C 
ATOM      5  C   LIG d   1      -6.966  94.609 116.989  0.00  0.00    -0.047 C 
ATOM      6  C   LIG d   1      -6.073  93.413 117.394  0.00  0.00     0.091 C 
ENDROOT
BRANCH   1   7
ATOM      7  O   LIG d   1      -4.062  92.838 118.670  0.00  0.00    -0.368 OA
BRANCH   7   8
ATOM      8  C   LIG d   1      -2.852  92.272 118.108  0.00  0.00     0.119 C 
BRANCH   8   9
ATOM      9  C   LIG d   1      -2.742  90.821 118.615  0.00  0.00     0.028 C 
ATOM     10  C   LIG d   1      -2.732  89.797 117.467  0.00  0.00     0.006 C 
ENDBRANCH   8   9
BRANCH   8  11
ATOM     11  C   LIG d   1      -1.605  92.983 118.640  0.00  0.00     0.028 C 
ATOM     12  C   LIG d   1      -0.938  93.883 117.588  0.00  0.00     0.006 C 
ENDBRANCH   8  11
ENDBRANCH   7   8
ENDBRANCH   1   7
BRANCH   6  13
ATOM     13  N   LIG d   1      -5.845  92.470 116.269  0.00  0.00    -0.311 N 
ATOM     14  C   LIG d   1      -6.615  91.408 116.035  0.00  0.00     0.210 C 
ATOM     15  C   LIG d   1      -6.193  90.555 114.835  0.00  0.00     0.109 C 
ATOM     16  O   LIG d   1      -7.627  91.111 116.687  0.00  0.00    -0.276 OA
ATOM     17  H   LIG d   1      -5.064  92.653 115.670  0.00  0.00     0.149 HD
ENDBRANCH   6  13
BRANCH   5  18
ATOM     18  N   LIG d   1      -8.334  94.207 116.613  0.00  0.00     0.381 N 
ATOM     19  H   LIG d   1      -9.000  94.752 117.124  0.00  0.00    -0.090 HD
ATOM     20  H   LIG d   1      -8.467  93.240 116.853  0.00  0.00    -0.090 HD
ATOM     21  H   LIG d   1      -8.471  94.336 115.635  0.00  0.00    -0.090 HD
ENDBRANCH   5  18
BRANCH   3  22
ATOM     22  C   LIG d   1      -5.708  97.180 119.297  0.00  0.00     0.382 C 
ATOM     23  O   LIG d   1      -6.534  97.549 120.166  0.00  0.00    -0.241 OA
ATOM     24  O   LIG d   1      -4.807  97.961 118.935  0.00  0.00    -0.241 OA
ENDBRANCH   3  22
TORSDOF 7
ENDMDL
MODEL 9
REMARK VINA RESULT:      -4.8      2.279      5.537
REMARK  7 active torsions:
REMARK  status: ('A' for Active; 'I' for Inactive)
REMARK    1  A    between atoms: C_2  and  C_3 
REMARK    2  A    between atoms: C_3  and  O_6 
REMARK    3  A    between atoms: C_3  and  C_4 
REMARK    4  A    between atoms: C_7  and  O_6 
REMARK    5  A    between atoms: C_9  and  C_10 
REMARK    6  A    between atoms: N_15  and  C_14 
REMARK    7  A    between atoms: N_20  and  C_19 
REMARK       I    between atoms: C_22  and  N_20 
ROOT
ATOM      1  C   LIG d   1      -8.352  77.702 118.044  0.00  0.00     0.161 C 
ATOM      2  C   LIG d   1      -7.218  77.799 117.221  0.00  0.00     0.016 C 
ATOM      3  C   LIG d   1      -6.683  76.705 116.502  0.00  0.00     0.038 C 
ATOM      4  C   LIG d   1      -7.339  75.467 116.439  0.00  0.00     0.028 C 
ATOM      5  C   LIG d   1      -8.210  75.180 117.657  0.00  0.00    -0.047 C 
ATOM      6  C   LIG d   1      -9.145  76.386 117.900  0.00  0.00     0.091 C 
ENDROOT
BRANCH   1   7
ATOM      7  O   LIG d   1      -9.215  78.835 117.822  0.00  0.00    -0.368 OA
BRANCH   7   8
ATOM      8  C   LIG d   1      -9.021  79.967 118.705  0.00  0.00     0.119 C 
BRANCH   8   9
ATOM      9  C   LIG d   1     -10.275  80.082 119.593  0.00  0.00     0.028 C 
ATOM     10  C   LIG d   1     -10.088  79.405 120.962  0.00  0.00     0.006 C 
ENDBRANCH   8   9
BRANCH   8  11
ATOM     11  C   LIG d   1      -8.958  81.281 117.920  0.00  0.00     0.028 C 
ATOM     12  C   LIG d   1      -7.534  81.631 117.458  0.00  0.00     0.006 C 
ENDBRANCH   8  11
ENDBRANCH   7   8
ENDBRANCH   1   7
BRANCH   6  13
ATOM     13  N   LIG d   1      -9.973  76.224 119.124  0.00  0.00    -0.311 N 
ATOM     14  C   LIG d   1     -11.305  76.259 119.118  0.00  0.00     0.210 C 
ATOM     15  C   LIG d   1     -11.962  76.090 120.491  0.00  0.00     0.109 C 
ATOM     16  O   LIG d   1     -12.005  76.380 118.101  0.00  0.00    -0.276 OA
ATOM     17  H   LIG d   1      -9.487  76.089 119.989  0.00  0.00     0.149 HD
ENDBRANCH   6  13
BRANCH   5  18
ATOM     18  N   LIG d   1      -8.940  73.925 117.397  0.00  0.00     0.381 N 
ATOM     19  H   LIG d   1      -8.370  73.308 116.854  0.00  0.00    -0.090 HD
ATOM     20  H   LIG d   1      -9.770  74.135 116.871  0.00  0.00    -0.090 HD
ATOM     21  H   LIG d   1      -9.186  73.489 118.259  0.00  0.00    -0.090 HD
ENDBRANCH   5  18
BRANCH   3  22
ATOM     22  C   LIG d   1      -5.456  76.834 115.868  0.00  0.00     0.382 C 
ATOM     23  O   LIG d   1      -4.862  75.815 115.439  0.00  0.00    -0.241 OA
ATOM     24  O   LIG d   1      -4.915  77.951 115.760  0.00  0.00    -0.241 OA
ENDBRANCH   3  22
TORSDOF 7
ENDMDL
