MODEL 1
REMARK VINA RESULT:      -5.4      0.000      0.000
REMARK  7 active torsions:
REMARK  status: ('A' for Active; 'I' for Inactive)
REMARK    1  A    between atoms: C_2  and  C_3 
REMARK    2  A    between atoms: C_3  and  O_6 
REMARK    3  A    between atoms: C_3  and  C_4 
REMARK    4  A    between atoms: C_7  and  O_6 
REMARK    5  A    between atoms: C_9  and  C_10 
REMARK    6  A    between atoms: N_15  and  C_14 
REMARK    7  A    between atoms: N_20  and  C_19 
REMARK       I    between atoms: C_22  and  N_20 
ROOT
ATOM      1  C   LIG d   1      -5.443  92.458 117.341  0.00  0.00     0.161 C 
ATOM      2  C   LIG d   1      -6.508  91.595 117.037  0.00  0.00     0.016 C 
ATOM      3  C   LIG d   1      -6.331  90.246 116.649  0.00  0.00     0.038 C 
ATOM      4  C   LIG d   1      -5.075  89.623 116.687  0.00  0.00     0.028 C 
ATOM      5  C   LIG d   1      -3.912  90.592 116.501  0.00  0.00    -0.047 C 
ATOM      6  C   LIG d   1      -4.073  91.765 117.496  0.00  0.00     0.091 C 
ENDROOT
BRANCH   1   7
ATOM      7  O   LIG d   1      -5.755  93.220 118.524  0.00  0.00    -0.368 OA
BRANCH   7   8
ATOM      8  C   LIG d   1      -6.501  94.444 118.315  0.00  0.00     0.119 C 
BRANCH   8   9
ATOM      9  C   LIG d   1      -5.744  95.577 119.034  0.00  0.00     0.028 C 
ATOM     10  C   LIG d   1      -4.402  95.106 119.620  0.00  0.00     0.006 C 
ENDBRANCH   8   9
BRANCH   8  11
ATOM     11  C   LIG d   1      -7.874  94.382 118.991  0.00  0.00     0.028 C 
ATOM     12  C   LIG d   1      -8.732  95.627 118.714  0.00  0.00     0.006 C 
ENDBRANCH   8  11
ENDBRANCH   7   8
ENDBRANCH   1   7
BRANCH   6  13
ATOM     13  N   LIG d   1      -3.022  92.802 117.323  0.00  0.00    -0.311 N 
ATOM     14  C   LIG d   1      -1.889  92.821 118.022  0.00  0.00     0.210 C 
ATOM     15  C   LIG d   1      -0.951  93.989 117.703  0.00  0.00     0.109 C 
ATOM     16  O   LIG d   1      -1.557  91.963 118.854  0.00  0.00    -0.276 OA
ATOM     17  H   LIG d   1      -3.196  93.519 116.647  0.00  0.00     0.149 HD
ENDBRANCH   6  13
BRANCH   5  18
ATOM     18  N   LIG d   1      -2.663  89.833 116.700  0.00  0.00     0.381 N 
ATOM     19  H   LIG d   1      -2.194  90.162 117.520  0.00  0.00    -0.090 HD
ATOM     20  H   LIG d   1      -2.061  89.985 115.910  0.00  0.00    -0.090 HD
ATOM     21  H   LIG d   1      -2.865  88.862 116.790  0.00  0.00    -0.090 HD
ENDBRANCH   5  18
BRANCH   3  22
ATOM     22  C   LIG d   1      -7.414  89.518 116.180  0.00  0.00     0.382 C 
ATOM     23  O   LIG d   1      -7.682  89.513 114.954  0.00  0.00    -0.241 OA
ATOM     24  O   LIG d   1      -8.152  88.903 116.972  0.00  0.00    -0.241 OA
ENDBRANCH   3  22
TORSDOF 7
ENDMDL
MODEL 2
REMARK VINA RESULT:      -5.1      2.261      4.660
REMARK  7 active torsions:
REMARK  status: ('A' for Active; 'I' for Inactive)
REMARK    1  A    between atoms: C_2  and  C_3 
REMARK    2  A    between atoms: C_3  and  O_6 
REMARK    3  A    between atoms: C_3  and  C_4 
REMARK    4  A    between atoms: C_7  and  O_6 
REMARK    5  A    between atoms: C_9  and  C_10 
REMARK    6  A    between atoms: N_15  and  C_14 
REMARK    7  A    between atoms: N_20  and  C_19 
REMARK       I    between atoms: C_22  and  N_20 
ROOT
ATOM      1  C   LIG d   1      -3.659  90.966 118.030  0.00  0.00     0.161 C 
ATOM      2  C   LIG d   1      -4.518  90.186 117.238  0.00  0.00     0.016 C 
ATOM      3  C   LIG d   1      -5.747  90.659 116.725  0.00  0.00     0.038 C 
ATOM      4  C   LIG d   1      -6.133  92.003 116.844  0.00  0.00     0.028 C 
ATOM      5  C   LIG d   1      -5.539  92.697 118.064  0.00  0.00    -0.047 C 
ATOM      6  C   LIG d   1      -4.010  92.468 118.078  0.00  0.00     0.091 C 
ENDROOT
BRANCH   1   7
ATOM      7  O   LIG d   1      -2.296  90.784 117.599  0.00  0.00    -0.368 OA
BRANCH   7   8
ATOM      8  C   LIG d   1      -1.420  90.101 118.529  0.00  0.00     0.119 C 
BRANCH   8   9
ATOM      9  C   LIG d   1      -0.014  90.713 118.375  0.00  0.00     0.028 C 
ATOM     10  C   LIG d   1       0.014  91.872 117.365  0.00  0.00     0.006 C 
ENDBRANCH   8   9
BRANCH   8  11
ATOM     11  C   LIG d   1      -1.261  88.622 118.162  0.00  0.00     0.028 C 
ATOM     12  C   LIG d   1      -2.192  87.705 118.970  0.00  0.00     0.006 C 
ENDBRANCH   8  11
ENDBRANCH   7   8
ENDBRANCH   1   7
BRANCH   6  13
ATOM     13  N   LIG d   1      -3.361  93.044 119.284  0.00  0.00    -0.311 N 
ATOM     14  C   LIG d   1      -2.450  94.014 119.235  0.00  0.00     0.210 C 
ATOM     15  C   LIG d   1      -1.893  94.448 120.594  0.00  0.00     0.109 C 
ATOM     16  O   LIG d   1      -2.074  94.578 118.196  0.00  0.00    -0.276 OA
ATOM     17  H   LIG d   1      -3.631  92.666 120.171  0.00  0.00     0.149 HD
ENDBRANCH   6  13
BRANCH   5  18
ATOM     18  N   LIG d   1      -5.909  94.123 117.990  0.00  0.00     0.381 N 
ATOM     19  H   LIG d   1      -5.779  94.459 117.056  0.00  0.00    -0.090 HD
ATOM     20  H   LIG d   1      -5.307  94.648 118.600  0.00  0.00    -0.090 HD
ATOM     21  H   LIG d   1      -6.859  94.243 118.265  0.00  0.00    -0.090 HD
ENDBRANCH   5  18
BRANCH   3  22
ATOM     22  C   LIG d   1      -6.625  89.773 116.118  0.00  0.00     0.382 C 
ATOM     23  O   LIG d   1      -7.594  89.309 116.764  0.00  0.00    -0.241 OA
ATOM     24  O   LIG d   1      -6.434  89.399 114.945  0.00  0.00    -0.241 OA
ENDBRANCH   3  22
TORSDOF 7
ENDMDL
MODEL 3
REMARK VINA RESULT:      -5.0     12.685     14.955
REMARK  7 active torsions:
REMARK  status: ('A' for Active; 'I' for Inactive)
REMARK    1  A    between atoms: C_2  and  C_3 
REMARK    2  A    between atoms: C_3  and  O_6 
REMARK    3  A    between atoms: C_3  and  C_4 
REMARK    4  A    between atoms: C_7  and  O_6 
REMARK    5  A    between atoms: C_9  and  C_10 
REMARK    6  A    between atoms: N_15  and  C_14 
REMARK    7  A    between atoms: N_20  and  C_19 
REMARK       I    between atoms: C_22  and  N_20 
ROOT
ATOM      1  C   LIG d   1      -6.482  77.835 117.609  0.00  0.00     0.161 C 
ATOM      2  C   LIG d   1      -7.830  78.229 117.645  0.00  0.00     0.016 C 
ATOM      3  C   LIG d   1      -8.303  79.315 118.416  0.00  0.00     0.038 C 
ATOM      4  C   LIG d   1      -7.430  80.182 119.090  0.00  0.00     0.028 C 
ATOM      5  C   LIG d   1      -6.113  79.524 119.490  0.00  0.00    -0.047 C 
ATOM      6  C   LIG d   1      -5.499  78.837 118.250  0.00  0.00     0.091 C 
ENDROOT
BRANCH   1   7
ATOM      7  O   LIG d   1      -6.093  77.550 116.251  0.00  0.00    -0.368 OA
BRANCH   7   8
ATOM      8  C   LIG d   1      -5.985  76.148 115.899  0.00  0.00     0.119 C 
BRANCH   8   9
ATOM      9  C   LIG d   1      -4.749  75.992 114.993  0.00  0.00     0.028 C 
ATOM     10  C   LIG d   1      -3.730  74.987 115.558  0.00  0.00     0.006 C 
ENDBRANCH   8   9
BRANCH   8  11
ATOM     11  C   LIG d   1      -7.173  75.695 115.046  0.00  0.00     0.028 C 
ATOM     12  C   LIG d   1      -8.355  75.191 115.889  0.00  0.00     0.006 C 
ENDBRANCH   8  11
ENDBRANCH   7   8
ENDBRANCH   1   7
BRANCH   6  13
ATOM     13  N   LIG d   1      -4.250  78.097 118.572  0.00  0.00    -0.311 N 
ATOM     14  C   LIG d   1      -3.200  78.041 117.754  0.00  0.00     0.210 C 
ATOM     15  C   LIG d   1      -2.023  77.208 118.271  0.00  0.00     0.109 C 
ATOM     16  O   LIG d   1      -3.120  78.628 116.665  0.00  0.00    -0.276 OA
ATOM     17  H   LIG d   1      -4.218  77.618 119.450  0.00  0.00     0.149 HD
ENDBRANCH   6  13
BRANCH   5  18
ATOM     18  N   LIG d   1      -5.246  80.574 120.058  0.00  0.00     0.381 N 
ATOM     19  H   LIG d   1      -5.709  81.016 120.827  0.00  0.00    -0.090 HD
ATOM     20  H   LIG d   1      -5.071  81.268 119.354  0.00  0.00    -0.090 HD
ATOM     21  H   LIG d   1      -4.385  80.176 120.364  0.00  0.00    -0.090 HD
ENDBRANCH   5  18
BRANCH   3  22
ATOM     22  C   LIG d   1      -9.668  79.520 118.551  0.00  0.00     0.382 C 
ATOM     23  O   LIG d   1     -10.406  78.586 118.950  0.00  0.00    -0.241 OA
ATOM     24  O   LIG d   1     -10.177  80.612 118.237  0.00  0.00    -0.241 OA
ENDBRANCH   3  22
TORSDOF 7
ENDMDL
MODEL 4
REMARK VINA RESULT:      -4.8     12.673     15.693
REMARK  7 active torsions:
REMARK  status: ('A' for Active; 'I' for Inactive)
REMARK    1  A    between atoms: C_2  and  C_3 
REMARK    2  A    between atoms: C_3  and  O_6 
REMARK    3  A    between atoms: C_3  and  C_4 
REMARK    4  A    between atoms: C_7  and  O_6 
REMARK    5  A    between atoms: C_9  and  C_10 
REMARK    6  A    between atoms: N_15  and  C_14 
REMARK    7  A    between atoms: N_20  and  C_19 
REMARK       I    between atoms: C_22  and  N_20 
ROOT
ATOM      1  C   LIG d   1      -7.034  77.067 117.352  0.00  0.00     0.161 C 
ATOM      2  C   LIG d   1      -7.695  75.942 116.832  0.00  0.00     0.016 C 
ATOM      3  C   LIG d   1      -9.076  75.699 117.013  0.00  0.00     0.038 C 
ATOM      4  C   LIG d   1      -9.925  76.647 117.602  0.00  0.00     0.028 C 
ATOM      5  C   LIG d   1      -9.213  77.568 118.588  0.00  0.00    -0.047 C 
ATOM      6  C   LIG d   1      -7.964  78.167 117.902  0.00  0.00     0.091 C 
ENDROOT
BRANCH   1   7
ATOM      7  O   LIG d   1      -6.144  77.614 116.358  0.00  0.00    -0.368 OA
BRANCH   7   8
ATOM      8  C   LIG d   1      -4.794  77.087 116.352  0.00  0.00     0.119 C 
BRANCH   8   9
ATOM      9  C   LIG d   1      -3.829  78.289 116.385  0.00  0.00     0.028 C 
ATOM     10  C   LIG d   1      -2.618  78.043 117.299  0.00  0.00     0.006 C 
ENDBRANCH   8   9
BRANCH   8  11
ATOM     11  C   LIG d   1      -4.487  76.355 115.043  0.00  0.00     0.028 C 
ATOM     12  C   LIG d   1      -4.185  74.863 115.251  0.00  0.00     0.006 C 
ENDBRANCH   8  11
ENDBRANCH   7   8
ENDBRANCH   1   7
BRANCH   6  13
ATOM     13  N   LIG d   1      -7.163  79.014 118.824  0.00  0.00    -0.311 N 
ATOM     14  C   LIG d   1      -6.904  80.301 118.598  0.00  0.00     0.210 C 
ATOM     15  C   LIG d   1      -6.043  80.984 119.665  0.00  0.00     0.109 C 
ATOM     16  O   LIG d   1      -7.331  80.950 117.632  0.00  0.00    -0.276 OA
ATOM     17  H   LIG d   1      -6.803  78.576 119.649  0.00  0.00     0.149 HD
ENDBRANCH   6  13
BRANCH   5  18
ATOM     18  N   LIG d   1     -10.183  78.591 119.022  0.00  0.00     0.381 N 
ATOM     19  H   LIG d   1     -10.782  78.835 118.259  0.00  0.00    -0.090 HD
ATOM     20  H   LIG d   1      -9.681  79.415 119.305  0.00  0.00    -0.090 HD
ATOM     21  H   LIG d   1     -10.725  78.246 119.783  0.00  0.00    -0.090 HD
ENDBRANCH   5  18
BRANCH   3  22
ATOM     22  C   LIG d   1      -9.614  74.477 116.637  0.00  0.00     0.382 C 
ATOM     23  O   LIG d   1     -10.609  74.438 115.875  0.00  0.00    -0.241 OA
ATOM     24  O   LIG d   1      -9.143  73.415 117.086  0.00  0.00    -0.241 OA
ENDBRANCH   3  22
TORSDOF 7
ENDMDL
MODEL 5
REMARK VINA RESULT:      -4.8     12.087     14.772
REMARK  7 active torsions:
REMARK  status: ('A' for Active; 'I' for Inactive)
REMARK    1  A    between atoms: C_2  and  C_3 
REMARK    2  A    between atoms: C_3  and  O_6 
REMARK    3  A    between atoms: C_3  and  C_4 
REMARK    4  A    between atoms: C_7  and  O_6 
REMARK    5  A    between atoms: C_9  and  C_10 
REMARK    6  A    between atoms: N_15  and  C_14 
REMARK    7  A    between atoms: N_20  and  C_19 
REMARK       I    between atoms: C_22  and  N_20 
ROOT
ATOM      1  C   LIG d   1      -6.297  79.344 117.919  0.00  0.00     0.161 C 
ATOM      2  C   LIG d   1      -5.207  78.670 118.496  0.00  0.00     0.016 C 
ATOM      3  C   LIG d   1      -4.958  78.641 119.887  0.00  0.00     0.038 C 
ATOM      4  C   LIG d   1      -5.873  79.161 120.815  0.00  0.00     0.028 C 
ATOM      5  C   LIG d   1      -6.731  80.289 120.253  0.00  0.00    -0.047 C 
ATOM      6  C   LIG d   1      -7.366  79.822 118.923  0.00  0.00     0.091 C 
ENDROOT
BRANCH   1   7
ATOM      7  O   LIG d   1      -6.898  78.519 116.902  0.00  0.00    -0.368 OA
BRANCH   7   8
ATOM      8  C   LIG d   1      -6.937  77.096 117.175  0.00  0.00     0.119 C 
BRANCH   8   9
ATOM      9  C   LIG d   1      -6.649  76.363 115.851  0.00  0.00     0.028 C 
ATOM     10  C   LIG d   1      -5.143  76.194 115.588  0.00  0.00     0.006 C 
ENDBRANCH   8   9
BRANCH   8  11
ATOM     11  C   LIG d   1      -8.340  76.646 117.591  0.00  0.00     0.028 C 
ATOM     12  C   LIG d   1      -8.882  75.502 116.720  0.00  0.00     0.006 C 
ENDBRANCH   8  11
ENDBRANCH   7   8
ENDBRANCH   1   7
BRANCH   6  13
ATOM     13  N   LIG d   1      -8.154  80.896 118.264  0.00  0.00    -0.311 N 
ATOM     14  C   LIG d   1      -9.470  80.826 118.071  0.00  0.00     0.210 C 
ATOM     15  C   LIG d   1     -10.084  82.033 117.354  0.00  0.00     0.109 C 
ATOM     16  O   LIG d   1     -10.193  79.894 118.455  0.00  0.00    -0.276 OA
ATOM     17  H   LIG d   1      -7.652  81.703 117.949  0.00  0.00     0.149 HD
ENDBRANCH   6  13
BRANCH   5  18
ATOM     18  N   LIG d   1      -7.731  80.643 121.279  0.00  0.00     0.381 N 
ATOM     19  H   LIG d   1      -7.387  80.396 122.185  0.00  0.00    -0.090 HD
ATOM     20  H   LIG d   1      -8.571  80.120 121.107  0.00  0.00    -0.090 HD
ATOM     21  H   LIG d   1      -7.925  81.619 121.243  0.00  0.00    -0.090 HD
ENDBRANCH   5  18
BRANCH   3  22
ATOM     22  C   LIG d   1      -3.763  78.122 120.361  0.00  0.00     0.382 C 
ATOM     23  O   LIG d   1      -3.427  78.310 121.555  0.00  0.00    -0.241 OA
ATOM     24  O   LIG d   1      -2.995  77.507 119.597  0.00  0.00    -0.241 OA
ENDBRANCH   3  22
TORSDOF 7
ENDMDL
MODEL 6
REMARK VINA RESULT:      -4.7      1.826      2.377
REMARK  7 active torsions:
REMARK  status: ('A' for Active; 'I' for Inactive)
REMARK    1  A    between atoms: C_2  and  C_3 
REMARK    2  A    between atoms: C_3  and  O_6 
REMARK    3  A    between atoms: C_3  and  C_4 
REMARK    4  A    between atoms: C_7  and  O_6 
REMARK    5  A    between atoms: C_9  and  C_10 
REMARK    6  A    between atoms: N_15  and  C_14 
REMARK    7  A    between atoms: N_20  and  C_19 
REMARK       I    between atoms: C_22  and  N_20 
ROOT
ATOM      1  C   LIG d   1      -4.036  92.134 117.437  0.00  0.00     0.161 C 
ATOM      2  C   LIG d   1      -5.216  91.948 116.699  0.00  0.00     0.016 C 
ATOM      3  C   LIG d   1      -5.579  90.716 116.107  0.00  0.00     0.038 C 
ATOM      4  C   LIG d   1      -4.854  89.539 116.344  0.00  0.00     0.028 C 
ATOM      5  C   LIG d   1      -3.384  89.787 116.666  0.00  0.00    -0.047 C 
ATOM      6  C   LIG d   1      -3.289  90.833 117.799  0.00  0.00     0.091 C 
ENDROOT
BRANCH   1   7
ATOM      7  O   LIG d   1      -4.319  92.897 118.627  0.00  0.00    -0.368 OA
BRANCH   7   8
ATOM      8  C   LIG d   1      -5.719  93.125 118.920  0.00  0.00     0.119 C 
BRANCH   8   9
ATOM      9  C   LIG d   1      -5.942  94.649 118.961  0.00  0.00     0.028 C 
ATOM     10  C   LIG d   1      -7.213  95.077 118.208  0.00  0.00     0.006 C 
ENDBRANCH   8   9
BRANCH   8  11
ATOM     11  C   LIG d   1      -6.084  92.624 120.321  0.00  0.00     0.028 C 
ATOM     12  C   LIG d   1      -5.043  91.650 120.895  0.00  0.00     0.006 C 
ENDBRANCH   8  11
ENDBRANCH   7   8
ENDBRANCH   1   7
BRANCH   6  13
ATOM     13  N   LIG d   1      -1.883  91.196 118.119  0.00  0.00    -0.311 N 
ATOM     14  C   LIG d   1      -1.187  90.635 119.106  0.00  0.00     0.210 C 
ATOM     15  C   LIG d   1       0.238  91.169 119.277  0.00  0.00     0.109 C 
ATOM     16  O   LIG d   1      -1.604  89.723 119.836  0.00  0.00    -0.276 OA
ATOM     17  H   LIG d   1      -1.456  91.906 117.556  0.00  0.00     0.149 HD
ENDBRANCH   6  13
BRANCH   5  18
ATOM     18  N   LIG d   1      -2.782  88.489 117.025  0.00  0.00     0.381 N 
ATOM     19  H   LIG d   1      -1.784  88.556 116.986  0.00  0.00    -0.090 HD
ATOM     20  H   LIG d   1      -3.078  87.798 116.359  0.00  0.00    -0.090 HD
ATOM     21  H   LIG d   1      -3.068  88.222 117.941  0.00  0.00    -0.090 HD
ENDBRANCH   5  18
BRANCH   3  22
ATOM     22  C   LIG d   1      -6.656  90.663 115.236  0.00  0.00     0.382 C 
ATOM     23  O   LIG d   1      -7.060  89.556 114.806  0.00  0.00    -0.241 OA
ATOM     24  O   LIG d   1      -7.201  91.711 114.840  0.00  0.00    -0.241 OA
ENDBRANCH   3  22
TORSDOF 7
ENDMDL
MODEL 7
REMARK VINA RESULT:      -4.7      2.645      6.334
REMARK  7 active torsions:
REMARK  status: ('A' for Active; 'I' for Inactive)
REMARK    1  A    between atoms: C_2  and  C_3 
REMARK    2  A    between atoms: C_3  and  O_6 
REMARK    3  A    between atoms: C_3  and  C_4 
REMARK    4  A    between atoms: C_7  and  O_6 
REMARK    5  A    between atoms: C_9  and  C_10 
REMARK    6  A    between atoms: N_15  and  C_14 
REMARK    7  A    between atoms: N_20  and  C_19 
REMARK       I    between atoms: C_22  and  N_20 
ROOT
ATOM      1  C   LIG d   1      -3.842  91.734 117.341  0.00  0.00     0.161 C 
ATOM      2  C   LIG d   1      -3.041  92.364 118.307  0.00  0.00     0.016 C 
ATOM      3  C   LIG d   1      -3.566  93.101 119.394  0.00  0.00     0.038 C 
ATOM      4  C   LIG d   1      -4.940  93.131 119.674  0.00  0.00     0.028 C 
ATOM      5  C   LIG d   1      -5.814  92.931 118.440  0.00  0.00    -0.047 C 
ATOM      6  C   LIG d   1      -5.343  91.663 117.692  0.00  0.00     0.091 C 
ENDROOT
BRANCH   1   7
ATOM      7  O   LIG d   1      -3.329  90.416 117.064  0.00  0.00    -0.368 OA
BRANCH   7   8
ATOM      8  C   LIG d   1      -2.298  89.933 117.960  0.00  0.00     0.119 C 
BRANCH   8   9
ATOM      9  C   LIG d   1      -1.120  89.449 117.092  0.00  0.00     0.028 C 
ATOM     10  C   LIG d   1      -0.973  87.918 117.103  0.00  0.00     0.006 C 
ENDBRANCH   8   9
BRANCH   8  11
ATOM     11  C   LIG d   1      -2.767  88.697 118.733  0.00  0.00     0.028 C 
ATOM     12  C   LIG d   1      -2.913  88.957 120.241  0.00  0.00     0.006 C 
ENDBRANCH   8  11
ENDBRANCH   7   8
ENDBRANCH   1   7
BRANCH   6  13
ATOM     13  N   LIG d   1      -6.090  91.441 116.427  0.00  0.00    -0.311 N 
ATOM     14  C   LIG d   1      -6.803  90.343 116.179  0.00  0.00     0.210 C 
ATOM     15  C   LIG d   1      -7.479  90.307 114.805  0.00  0.00     0.109 C 
ATOM     16  O   LIG d   1      -6.965  89.409 116.980  0.00  0.00    -0.276 OA
ATOM     17  H   LIG d   1      -6.039  92.162 115.734  0.00  0.00     0.149 HD
ENDBRANCH   6  13
BRANCH   5  18
ATOM     18  N   LIG d   1      -7.215  92.846 118.895  0.00  0.00     0.381 N 
ATOM     19  H   LIG d   1      -7.270  92.279 119.717  0.00  0.00    -0.090 HD
ATOM     20  H   LIG d   1      -7.765  92.413 118.175  0.00  0.00    -0.090 HD
ATOM     21  H   LIG d   1      -7.566  93.759 119.088  0.00  0.00    -0.090 HD
ENDBRANCH   5  18
BRANCH   3  22
ATOM     22  C   LIG d   1      -2.715  93.851 120.191  0.00  0.00     0.382 C 
ATOM     23  O   LIG d   1      -3.088  94.964 120.633  0.00  0.00    -0.241 OA
ATOM     24  O   LIG d   1      -1.562  93.449 120.438  0.00  0.00    -0.241 OA
ENDBRANCH   3  22
TORSDOF 7
ENDMDL
MODEL 8
REMARK VINA RESULT:      -4.6      2.403      4.909
REMARK  7 active torsions:
REMARK  status: ('A' for Active; 'I' for Inactive)
REMARK    1  A    between atoms: C_2  and  C_3 
REMARK    2  A    between atoms: C_3  and  O_6 
REMARK    3  A    between atoms: C_3  and  C_4 
REMARK    4  A    between atoms: C_7  and  O_6 
REMARK    5  A    between atoms: C_9  and  C_10 
REMARK    6  A    between atoms: N_15  and  C_14 
REMARK    7  A    between atoms: N_20  and  C_19 
REMARK       I    between atoms: C_22  and  N_20 
ROOT
ATOM      1  C   LIG d   1      -4.089  92.320 118.745  0.00  0.00     0.161 C 
ATOM      2  C   LIG d   1      -4.100  91.344 117.734  0.00  0.00     0.016 C 
ATOM      3  C   LIG d   1      -5.101  91.266 116.738  0.00  0.00     0.038 C 
ATOM      4  C   LIG d   1      -6.082  92.258 116.594  0.00  0.00     0.028 C 
ATOM      5  C   LIG d   1      -6.406  92.983 117.896  0.00  0.00    -0.047 C 
ATOM      6  C   LIG d   1      -5.089  93.477 118.537  0.00  0.00     0.091 C 
ENDROOT
BRANCH   1   7
ATOM      7  O   LIG d   1      -2.754  92.837 118.910  0.00  0.00    -0.368 OA
BRANCH   7   8
ATOM      8  C   LIG d   1      -1.673  91.916 118.618  0.00  0.00     0.119 C 
BRANCH   8   9
ATOM      9  C   LIG d   1      -1.059  91.482 119.963  0.00  0.00     0.028 C 
ATOM     10  C   LIG d   1      -1.387  90.021 120.314  0.00  0.00     0.006 C 
ENDBRANCH   8   9
BRANCH   8  11
ATOM     11  C   LIG d   1      -0.539  92.611 117.859  0.00  0.00     0.028 C 
ATOM     12  C   LIG d   1       0.533  91.629 117.361  0.00  0.00     0.006 C 
ENDBRANCH   8  11
ENDBRANCH   7   8
ENDBRANCH   1   7
BRANCH   6  13
ATOM     13  N   LIG d   1      -5.309  94.124 119.857  0.00  0.00    -0.311 N 
ATOM     14  C   LIG d   1      -5.161  95.431 120.067  0.00  0.00     0.210 C 
ATOM     15  C   LIG d   1      -5.417  95.887 121.507  0.00  0.00     0.109 C 
ATOM     16  O   LIG d   1      -4.874  96.260 119.190  0.00  0.00    -0.276 OA
ATOM     17  H   LIG d   1      -5.575  93.529 120.618  0.00  0.00     0.149 HD
ENDBRANCH   6  13
BRANCH   5  18
ATOM     18  N   LIG d   1      -7.340  94.079 117.575  0.00  0.00     0.381 N 
ATOM     19  H   LIG d   1      -8.263  93.836 117.873  0.00  0.00    -0.090 HD
ATOM     20  H   LIG d   1      -7.354  94.213 116.580  0.00  0.00    -0.090 HD
ATOM     21  H   LIG d   1      -7.048  94.919 118.026  0.00  0.00    -0.090 HD
ENDBRANCH   5  18
BRANCH   3  22
ATOM     22  C   LIG d   1      -5.149  90.165 115.898  0.00  0.00     0.382 C 
ATOM     23  O   LIG d   1      -5.766  90.235 114.807  0.00  0.00    -0.241 OA
ATOM     24  O   LIG d   1      -4.621  89.089 116.235  0.00  0.00    -0.241 OA
ENDBRANCH   3  22
TORSDOF 7
ENDMDL
MODEL 9
REMARK VINA RESULT:      -4.5      2.852      5.395
REMARK  7 active torsions:
REMARK  status: ('A' for Active; 'I' for Inactive)
REMARK    1  A    between atoms: C_2  and  C_3 
REMARK    2  A    between atoms: C_3  and  O_6 
REMARK    3  A    between atoms: C_3  and  C_4 
REMARK    4  A    between atoms: C_7  and  O_6 
REMARK    5  A    between atoms: C_9  and  C_10 
REMARK    6  A    between atoms: N_15  and  C_14 
REMARK    7  A    between atoms: N_20  and  C_19 
REMARK       I    between atoms: C_22  and  N_20 
ROOT
ATOM      1  C   LIG d   1      -3.279  90.219 119.204  0.00  0.00     0.161 C 
ATOM      2  C   LIG d   1      -4.342  89.924 118.333  0.00  0.00     0.016 C 
ATOM      3  C   LIG d   1      -4.901  90.867 117.441  0.00  0.00     0.038 C 
ATOM      4  C   LIG d   1      -4.332  92.135 117.250  0.00  0.00     0.028 C 
ATOM      5  C   LIG d   1      -3.573  92.648 118.469  0.00  0.00    -0.047 C 
ATOM      6  C   LIG d   1      -2.573  91.563 118.931  0.00  0.00     0.091 C 
ENDROOT
BRANCH   1   7
ATOM      7  O   LIG d   1      -2.324  89.139 119.191  0.00  0.00    -0.368 OA
BRANCH   7   8
ATOM      8  C   LIG d   1      -1.403  89.117 118.073  0.00  0.00     0.119 C 
BRANCH   8   9
ATOM      9  C   LIG d   1      -1.643  87.804 117.302  0.00  0.00     0.028 C 
ATOM     10  C   LIG d   1      -0.351  87.238 116.689  0.00  0.00     0.006 C 
ENDBRANCH   8   9
BRANCH   8  11
ATOM     11  C   LIG d   1       0.051  89.046 118.550  0.00  0.00     0.028 C 
ATOM     12  C   LIG d   1       0.171  88.864 120.071  0.00  0.00     0.006 C 
ENDBRANCH   8  11
ENDBRANCH   7   8
ENDBRANCH   1   7
BRANCH   6  13
ATOM     13  N   LIG d   1      -1.848  91.950 120.169  0.00  0.00    -0.311 N 
ATOM     14  C   LIG d   1      -0.655  92.542 120.166  0.00  0.00     0.210 C 
ATOM     15  C   LIG d   1      -0.075  92.837 121.553  0.00  0.00     0.109 C 
ATOM     16  O   LIG d   1      -0.036  92.879 119.145  0.00  0.00    -0.276 OA
ATOM     17  H   LIG d   1      -2.293  91.742 121.042  0.00  0.00     0.149 HD
ENDBRANCH   6  13
BRANCH   5  18
ATOM     18  N   LIG d   1      -2.917  93.913 118.086  0.00  0.00     0.381 N 
ATOM     19  H   LIG d   1      -2.629  93.869 117.129  0.00  0.00    -0.090 HD
ATOM     20  H   LIG d   1      -2.099  94.041 118.656  0.00  0.00    -0.090 HD
ATOM     21  H   LIG d   1      -3.544  94.676 118.217  0.00  0.00    -0.090 HD
ENDBRANCH   5  18
BRANCH   3  22
ATOM     22  C   LIG d   1      -6.067  90.559 116.757  0.00  0.00     0.382 C 
ATOM     23  O   LIG d   1      -6.791  91.479 116.305  0.00  0.00    -0.241 OA
ATOM     24  O   LIG d   1      -6.427  89.374 116.625  0.00  0.00    -0.241 OA
ENDBRANCH   3  22
TORSDOF 7
ENDMDL
