MODEL 1
REMARK VINA RESULT:      -5.1      0.000      0.000
REMARK  7 active torsions:
REMARK  status: ('A' for Active; 'I' for Inactive)
REMARK    1  A    between atoms: C_2  and  C_3 
REMARK    2  A    between atoms: C_3  and  O_6 
REMARK    3  A    between atoms: C_3  and  C_4 
REMARK    4  A    between atoms: C_7  and  O_6 
REMARK    5  A    between atoms: C_9  and  C_10 
REMARK    6  A    between atoms: N_15  and  C_14 
REMARK    7  A    between atoms: N_20  and  C_19 
REMARK       I    between atoms: C_22  and  N_20 
ROOT
ATOM      1  C   LIG d   1      -8.094  75.054 118.000  0.00  0.00     0.161 C 
ATOM      2  C   LIG d   1      -9.426  75.304 118.373  0.00  0.00     0.016 C 
ATOM      3  C   LIG d   1      -9.953  76.603 118.552  0.00  0.00     0.038 C 
ATOM      4  C   LIG d   1      -9.221  77.753 118.220  0.00  0.00     0.028 C 
ATOM      5  C   LIG d   1      -7.711  77.560 118.323  0.00  0.00    -0.047 C 
ATOM      6  C   LIG d   1      -7.312  76.297 117.526  0.00  0.00     0.091 C 
ENDROOT
BRANCH   1   7
ATOM      7  O   LIG d   1      -8.054  74.023 116.994  0.00  0.00    -0.368 OA
BRANCH   7   8
ATOM      8  C   LIG d   1      -7.642  72.709 117.444  0.00  0.00     0.119 C 
BRANCH   8   9
ATOM      9  C   LIG d   1      -6.219  72.461 116.907  0.00  0.00     0.028 C 
ATOM     10  C   LIG d   1      -6.166  71.297 115.903  0.00  0.00     0.006 C 
ENDBRANCH   8   9
BRANCH   8  11
ATOM     11  C   LIG d   1      -8.508  71.610 116.821  0.00  0.00     0.028 C 
ATOM     12  C   LIG d   1     -10.010  71.933 116.872  0.00  0.00     0.006 C 
ENDBRANCH   8  11
ENDBRANCH   7   8
ENDBRANCH   1   7
BRANCH   6  13
ATOM     13  N   LIG d   1      -5.863  75.987 117.643  0.00  0.00    -0.311 N 
ATOM     14  C   LIG d   1      -5.040  75.926 116.598  0.00  0.00     0.210 C 
ATOM     15  C   LIG d   1      -3.588  75.572 116.938  0.00  0.00     0.109 C 
ATOM     16  O   LIG d   1      -5.366  76.163 115.425  0.00  0.00    -0.276 OA
ATOM     17  H   LIG d   1      -5.507  75.812 118.562  0.00  0.00     0.149 HD
ENDBRANCH   6  13
BRANCH   5  18
ATOM     18  N   LIG d   1      -7.070  78.788 117.818  0.00  0.00     0.381 N 
ATOM     19  H   LIG d   1      -7.704  79.281 117.221  0.00  0.00    -0.090 HD
ATOM     20  H   LIG d   1      -6.261  78.535 117.278  0.00  0.00    -0.090 HD
ATOM     21  H   LIG d   1      -6.800  79.370 118.581  0.00  0.00    -0.090 HD
ENDBRANCH   5  18
BRANCH   3  22
ATOM     22  C   LIG d   1     -11.214  76.763 119.106  0.00  0.00     0.382 C 
ATOM     23  O   LIG d   1     -11.373  77.515 120.098  0.00  0.00    -0.241 OA
ATOM     24  O   LIG d   1     -12.187  76.130 118.655  0.00  0.00    -0.241 OA
ENDBRANCH   3  22
TORSDOF 7
ENDMDL
MODEL 2
REMARK VINA RESULT:      -5.1      1.065      1.426
REMARK  7 active torsions:
REMARK  status: ('A' for Active; 'I' for Inactive)
REMARK    1  A    between atoms: C_2  and  C_3 
REMARK    2  A    between atoms: C_3  and  O_6 
REMARK    3  A    between atoms: C_3  and  C_4 
REMARK    4  A    between atoms: C_7  and  O_6 
REMARK    5  A    between atoms: C_9  and  C_10 
REMARK    6  A    between atoms: N_15  and  C_14 
REMARK    7  A    between atoms: N_20  and  C_19 
REMARK       I    between atoms: C_22  and  N_20 
ROOT
ATOM      1  C   LIG d   1      -7.760  75.431 118.129  0.00  0.00     0.161 C 
ATOM      2  C   LIG d   1      -9.142  75.477 118.374  0.00  0.00     0.016 C 
ATOM      3  C   LIG d   1      -9.857  76.679 118.578  0.00  0.00     0.038 C 
ATOM      4  C   LIG d   1      -9.260  77.936 118.400  0.00  0.00     0.028 C 
ATOM      5  C   LIG d   1      -7.756  77.933 118.650  0.00  0.00    -0.047 C 
ATOM      6  C   LIG d   1      -7.112  76.797 117.822  0.00  0.00     0.091 C 
ENDROOT
BRANCH   1   7
ATOM      7  O   LIG d   1      -7.482  74.495 117.070  0.00  0.00    -0.368 OA
BRANCH   7   8
ATOM      8  C   LIG d   1      -6.978  73.199 117.480  0.00  0.00     0.119 C 
BRANCH   8   9
ATOM      9  C   LIG d   1      -5.705  72.917 116.658  0.00  0.00     0.028 C 
ATOM     10  C   LIG d   1      -5.437  74.000 115.600  0.00  0.00     0.006 C 
ENDBRANCH   8   9
BRANCH   8  11
ATOM     11  C   LIG d   1      -7.955  72.079 117.111  0.00  0.00     0.028 C 
ATOM     12  C   LIG d   1      -7.449  70.688 117.523  0.00  0.00     0.006 C 
ENDBRANCH   8  11
ENDBRANCH   7   8
ENDBRANCH   1   7
BRANCH   6  13
ATOM     13  N   LIG d   1      -5.653  76.670 118.072  0.00  0.00    -0.311 N 
ATOM     14  C   LIG d   1      -4.727  77.290 117.343  0.00  0.00     0.210 C 
ATOM     15  C   LIG d   1      -3.280  77.006 117.758  0.00  0.00     0.109 C 
ATOM     16  O   LIG d   1      -4.967  78.073 116.411  0.00  0.00    -0.276 OA
ATOM     17  H   LIG d   1      -5.370  76.079 118.829  0.00  0.00     0.149 HD
ENDBRANCH   6  13
BRANCH   5  18
ATOM     18  N   LIG d   1      -7.242  79.270 118.296  0.00  0.00     0.381 N 
ATOM     19  H   LIG d   1      -7.961  79.800 117.845  0.00  0.00    -0.090 HD
ATOM     20  H   LIG d   1      -6.478  79.164 117.652  0.00  0.00    -0.090 HD
ATOM     21  H   LIG d   1      -6.934  79.744 119.115  0.00  0.00    -0.090 HD
ENDBRANCH   5  18
BRANCH   3  22
ATOM     22  C   LIG d   1     -11.176  76.631 119.004  0.00  0.00     0.382 C 
ATOM     23  O   LIG d   1     -12.019  75.962 118.358  0.00  0.00    -0.241 OA
ATOM     24  O   LIG d   1     -11.543  77.283 119.999  0.00  0.00    -0.241 OA
ENDBRANCH   3  22
TORSDOF 7
ENDMDL
MODEL 3
REMARK VINA RESULT:      -4.9      1.796      2.594
REMARK  7 active torsions:
REMARK  status: ('A' for Active; 'I' for Inactive)
REMARK    1  A    between atoms: C_2  and  C_3 
REMARK    2  A    between atoms: C_3  and  O_6 
REMARK    3  A    between atoms: C_3  and  C_4 
REMARK    4  A    between atoms: C_7  and  O_6 
REMARK    5  A    between atoms: C_9  and  C_10 
REMARK    6  A    between atoms: N_15  and  C_14 
REMARK    7  A    between atoms: N_20  and  C_19 
REMARK       I    between atoms: C_22  and  N_20 
ROOT
ATOM      1  C   LIG d   1      -7.798  74.663 117.731  0.00  0.00     0.161 C 
ATOM      2  C   LIG d   1      -9.159  74.531 117.408  0.00  0.00     0.016 C 
ATOM      3  C   LIG d   1     -10.173  75.348 117.960  0.00  0.00     0.038 C 
ATOM      4  C   LIG d   1      -9.874  76.459 118.763  0.00  0.00     0.028 C 
ATOM      5  C   LIG d   1      -8.557  76.324 119.519  0.00  0.00    -0.047 C 
ATOM      6  C   LIG d   1      -7.442  75.941 118.519  0.00  0.00     0.091 C 
ENDROOT
BRANCH   1   7
ATOM      7  O   LIG d   1      -7.001  74.575 116.533  0.00  0.00    -0.368 OA
BRANCH   7   8
ATOM      8  C   LIG d   1      -6.222  73.363 116.374  0.00  0.00     0.119 C 
BRANCH   8   9
ATOM      9  C   LIG d   1      -6.641  72.393 117.495  0.00  0.00     0.028 C 
ATOM     10  C   LIG d   1      -7.246  71.089 116.948  0.00  0.00     0.006 C 
ENDBRANCH   8   9
BRANCH   8  11
ATOM     11  C   LIG d   1      -4.731  73.626 116.602  0.00  0.00     0.028 C 
ATOM     12  C   LIG d   1      -4.176  74.735 115.695  0.00  0.00     0.006 C 
ENDBRANCH   8  11
ENDBRANCH   7   8
ENDBRANCH   1   7
BRANCH   6  13
ATOM     13  N   LIG d   1      -6.136  75.707 119.189  0.00  0.00    -0.311 N 
ATOM     14  C   LIG d   1      -5.045  76.430 118.942  0.00  0.00     0.210 C 
ATOM     15  C   LIG d   1      -3.799  76.008 119.727  0.00  0.00     0.109 C 
ATOM     16  O   LIG d   1      -4.999  77.401 118.171  0.00  0.00    -0.276 OA
ATOM     17  H   LIG d   1      -6.091  74.958 119.852  0.00  0.00     0.149 HD
ENDBRANCH   6  13
BRANCH   5  18
ATOM     18  N   LIG d   1      -8.303  77.605 120.205  0.00  0.00     0.381 N 
ATOM     19  H   LIG d   1      -8.397  78.361 119.556  0.00  0.00    -0.090 HD
ATOM     20  H   LIG d   1      -7.361  77.605 120.556  0.00  0.00    -0.090 HD
ATOM     21  H   LIG d   1      -8.946  77.722 120.957  0.00  0.00    -0.090 HD
ENDBRANCH   5  18
BRANCH   3  22
ATOM     22  C   LIG d   1     -11.505  75.032 117.742  0.00  0.00     0.382 C 
ATOM     23  O   LIG d   1     -12.408  75.785 118.180  0.00  0.00    -0.241 OA
ATOM     24  O   LIG d   1     -11.816  73.981 117.150  0.00  0.00    -0.241 OA
ENDBRANCH   3  22
TORSDOF 7
ENDMDL
MODEL 4
REMARK VINA RESULT:      -4.8      2.610      3.932
REMARK  7 active torsions:
REMARK  status: ('A' for Active; 'I' for Inactive)
REMARK    1  A    between atoms: C_2  and  C_3 
REMARK    2  A    between atoms: C_3  and  O_6 
REMARK    3  A    between atoms: C_3  and  C_4 
REMARK    4  A    between atoms: C_7  and  O_6 
REMARK    5  A    between atoms: C_9  and  C_10 
REMARK    6  A    between atoms: N_15  and  C_14 
REMARK    7  A    between atoms: N_20  and  C_19 
REMARK       I    between atoms: C_22  and  N_20 
ROOT
ATOM      1  C   LIG d   1      -7.357  78.019 118.088  0.00  0.00     0.161 C 
ATOM      2  C   LIG d   1      -8.426  77.162 118.397  0.00  0.00     0.016 C 
ATOM      3  C   LIG d   1      -9.723  77.622 118.720  0.00  0.00     0.038 C 
ATOM      4  C   LIG d   1     -10.080  78.974 118.607  0.00  0.00     0.028 C 
ATOM      5  C   LIG d   1      -8.905  79.928 118.787  0.00  0.00    -0.047 C 
ATOM      6  C   LIG d   1      -7.755  79.491 117.850  0.00  0.00     0.091 C 
ENDROOT
BRANCH   1   7
ATOM      7  O   LIG d   1      -6.633  77.507 116.951  0.00  0.00    -0.368 OA
BRANCH   7   8
ATOM      8  C   LIG d   1      -6.332  76.090 116.974  0.00  0.00     0.119 C 
BRANCH   8   9
ATOM      9  C   LIG d   1      -4.836  75.940 117.311  0.00  0.00     0.028 C 
ATOM     10  C   LIG d   1      -4.600  75.566 118.784  0.00  0.00     0.006 C 
ENDBRANCH   8   9
BRANCH   8  11
ATOM     11  C   LIG d   1      -6.500  75.462 115.587  0.00  0.00     0.028 C 
ATOM     12  C   LIG d   1      -5.426  74.407 115.276  0.00  0.00     0.006 C 
ENDBRANCH   8  11
ENDBRANCH   7   8
ENDBRANCH   1   7
BRANCH   6  13
ATOM     13  N   LIG d   1      -6.535  80.321 118.025  0.00  0.00    -0.311 N 
ATOM     14  C   LIG d   1      -6.268  81.397 117.286  0.00  0.00     0.210 C 
ATOM     15  C   LIG d   1      -4.946  82.097 117.617  0.00  0.00     0.109 C 
ATOM     16  O   LIG d   1      -7.016  81.856 116.410  0.00  0.00    -0.276 OA
ATOM     17  H   LIG d   1      -5.888  80.038 118.735  0.00  0.00     0.149 HD
ENDBRANCH   6  13
BRANCH   5  18
ATOM     18  N   LIG d   1      -9.391  81.293 118.508  0.00  0.00     0.381 N 
ATOM     19  H   LIG d   1     -10.314  81.251 118.124  0.00  0.00    -0.090 HD
ATOM     20  H   LIG d   1      -8.786  81.721 117.830  0.00  0.00    -0.090 HD
ATOM     21  H   LIG d   1      -9.396  81.831 119.346  0.00  0.00    -0.090 HD
ENDBRANCH   5  18
BRANCH   3  22
ATOM     22  C   LIG d   1     -10.669  76.729 119.201  0.00  0.00     0.382 C 
ATOM     23  O   LIG d   1     -11.768  76.601 118.609  0.00  0.00    -0.241 OA
ATOM     24  O   LIG d   1     -10.455  76.083 120.244  0.00  0.00    -0.241 OA
ENDBRANCH   3  22
TORSDOF 7
ENDMDL
MODEL 5
REMARK VINA RESULT:      -4.8     18.430     20.876
REMARK  7 active torsions:
REMARK  status: ('A' for Active; 'I' for Inactive)
REMARK    1  A    between atoms: C_2  and  C_3 
REMARK    2  A    between atoms: C_3  and  O_6 
REMARK    3  A    between atoms: C_3  and  C_4 
REMARK    4  A    between atoms: C_7  and  O_6 
REMARK    5  A    between atoms: C_9  and  C_10 
REMARK    6  A    between atoms: N_15  and  C_14 
REMARK    7  A    between atoms: N_20  and  C_19 
REMARK       I    between atoms: C_22  and  N_20 
ROOT
ATOM      1  C   LIG d   1       0.668  57.419 117.891  0.00  0.00     0.161 C 
ATOM      2  C   LIG d   1       2.056  57.555 117.720  0.00  0.00     0.016 C 
ATOM      3  C   LIG d   1       2.889  58.236 118.637  0.00  0.00     0.038 C 
ATOM      4  C   LIG d   1       2.411  58.699 119.872  0.00  0.00     0.028 C 
ATOM      5  C   LIG d   1       0.922  59.028 119.859  0.00  0.00    -0.047 C 
ATOM      6  C   LIG d   1       0.145  57.821 119.286  0.00  0.00     0.091 C 
ENDROOT
BRANCH   1   7
ATOM      7  O   LIG d   1       0.267  56.071 117.575  0.00  0.00    -0.368 OA
BRANCH   7   8
ATOM      8  C   LIG d   1       1.248  55.037 117.834  0.00  0.00     0.119 C 
BRANCH   8   9
ATOM      9  C   LIG d   1       1.031  53.922 116.793  0.00  0.00     0.028 C 
ATOM     10  C   LIG d   1       2.260  53.713 115.892  0.00  0.00     0.006 C 
ENDBRANCH   8   9
BRANCH   8  11
ATOM     11  C   LIG d   1       1.013  54.373 119.194  0.00  0.00     0.028 C 
ATOM     12  C   LIG d   1       2.102  54.718 120.222  0.00  0.00     0.006 C 
ENDBRANCH   8  11
ENDBRANCH   7   8
ENDBRANCH   1   7
BRANCH   6  13
ATOM     13  N   LIG d   1      -1.311  58.091 119.160  0.00  0.00    -0.311 N 
ATOM     14  C   LIG d   1      -2.200  57.767 120.096  0.00  0.00     0.210 C 
ATOM     15  C   LIG d   1      -3.653  58.117 119.757  0.00  0.00     0.109 C 
ATOM     16  O   LIG d   1      -1.921  57.253 121.190  0.00  0.00    -0.276 OA
ATOM     17  H   LIG d   1      -1.621  58.535 118.317  0.00  0.00     0.149 HD
ENDBRANCH   6  13
BRANCH   5  18
ATOM     18  N   LIG d   1       0.528  59.366 121.240  0.00  0.00     0.381 N 
ATOM     19  H   LIG d   1       1.110  58.874 121.888  0.00  0.00    -0.090 HD
ATOM     20  H   LIG d   1      -0.423  59.076 121.387  0.00  0.00    -0.090 HD
ATOM     21  H   LIG d   1       0.610  60.348 121.387  0.00  0.00    -0.090 HD
ENDBRANCH   5  18
BRANCH   3  22
ATOM     22  C   LIG d   1       4.211  58.494 118.305  0.00  0.00     0.382 C 
ATOM     23  O   LIG d   1       4.481  59.357 117.435  0.00  0.00    -0.241 OA
ATOM     24  O   LIG d   1       5.133  57.843 118.831  0.00  0.00    -0.241 OA
ENDBRANCH   3  22
TORSDOF 7
ENDMDL
MODEL 6
REMARK VINA RESULT:      -4.8      2.228      4.567
REMARK  7 active torsions:
REMARK  status: ('A' for Active; 'I' for Inactive)
REMARK    1  A    between atoms: C_2  and  C_3 
REMARK    2  A    between atoms: C_3  and  O_6 
REMARK    3  A    between atoms: C_3  and  C_4 
REMARK    4  A    between atoms: C_7  and  O_6 
REMARK    5  A    between atoms: C_9  and  C_10 
REMARK    6  A    between atoms: N_15  and  C_14 
REMARK    7  A    between atoms: N_20  and  C_19 
REMARK       I    between atoms: C_22  and  N_20 
ROOT
ATOM      1  C   LIG d   1      -7.152  75.687 116.496  0.00  0.00     0.161 C 
ATOM      2  C   LIG d   1      -8.472  75.280 116.751  0.00  0.00     0.016 C 
ATOM      3  C   LIG d   1      -8.832  73.944 117.041  0.00  0.00     0.038 C 
ATOM      4  C   LIG d   1      -7.870  72.945 117.247  0.00  0.00     0.028 C 
ATOM      5  C   LIG d   1      -6.563  73.201 116.505  0.00  0.00    -0.047 C 
ATOM      6  C   LIG d   1      -6.075  74.632 116.826  0.00  0.00     0.091 C 
ENDROOT
BRANCH   1   7
ATOM      7  O   LIG d   1      -6.877  76.918 117.193  0.00  0.00    -0.368 OA
BRANCH   7   8
ATOM      8  C   LIG d   1      -7.672  77.171 118.378  0.00  0.00     0.119 C 
BRANCH   8   9
ATOM      9  C   LIG d   1      -8.037  78.669 118.379  0.00  0.00     0.028 C 
ATOM     10  C   LIG d   1      -9.556  78.902 118.426  0.00  0.00     0.006 C 
ENDBRANCH   8   9
BRANCH   8  11
ATOM     11  C   LIG d   1      -6.855  76.952 119.654  0.00  0.00     0.028 C 
ATOM     12  C   LIG d   1      -7.189  75.625 120.354  0.00  0.00     0.006 C 
ENDBRANCH   8  11
ENDBRANCH   7   8
ENDBRANCH   1   7
BRANCH   6  13
ATOM     13  N   LIG d   1      -4.846  74.994 116.074  0.00  0.00    -0.311 N 
ATOM     14  C   LIG d   1      -3.615  74.832 116.558  0.00  0.00     0.210 C 
ATOM     15  C   LIG d   1      -2.488  75.289 115.626  0.00  0.00     0.109 C 
ATOM     16  O   LIG d   1      -3.350  74.324 117.658  0.00  0.00    -0.276 OA
ATOM     17  H   LIG d   1      -4.968  75.384 115.160  0.00  0.00     0.149 HD
ENDBRANCH   6  13
BRANCH   5  18
ATOM     18  N   LIG d   1      -5.604  72.158 116.917  0.00  0.00     0.381 N 
ATOM     19  H   LIG d   1      -5.997  71.252 116.752  0.00  0.00    -0.090 HD
ATOM     20  H   LIG d   1      -5.428  72.249 117.902  0.00  0.00    -0.090 HD
ATOM     21  H   LIG d   1      -4.753  72.256 116.409  0.00  0.00    -0.090 HD
ENDBRANCH   5  18
BRANCH   3  22
ATOM     22  C   LIG d   1     -10.172  73.589 117.089  0.00  0.00     0.382 C 
ATOM     23  O   LIG d   1     -11.031  74.430 117.446  0.00  0.00    -0.241 OA
ATOM     24  O   LIG d   1     -10.526  72.425 116.824  0.00  0.00    -0.241 OA
ENDBRANCH   3  22
TORSDOF 7
ENDMDL
MODEL 7
REMARK VINA RESULT:      -4.7      3.023      3.987
REMARK  7 active torsions:
REMARK  status: ('A' for Active; 'I' for Inactive)
REMARK    1  A    between atoms: C_2  and  C_3 
REMARK    2  A    between atoms: C_3  and  O_6 
REMARK    3  A    between atoms: C_3  and  C_4 
REMARK    4  A    between atoms: C_7  and  O_6 
REMARK    5  A    between atoms: C_9  and  C_10 
REMARK    6  A    between atoms: N_15  and  C_14 
REMARK    7  A    between atoms: N_20  and  C_19 
REMARK       I    between atoms: C_22  and  N_20 
ROOT
ATOM      1  C   LIG d   1      -6.460  78.752 117.851  0.00  0.00     0.161 C 
ATOM      2  C   LIG d   1      -7.827  78.879 118.149  0.00  0.00     0.016 C 
ATOM      3  C   LIG d   1      -8.552  80.080 117.979  0.00  0.00     0.038 C 
ATOM      4  C   LIG d   1      -7.991  81.203 117.352  0.00  0.00     0.028 C 
ATOM      5  C   LIG d   1      -6.475  81.282 117.496  0.00  0.00    -0.047 C 
ATOM      6  C   LIG d   1      -5.858  79.933 117.061  0.00  0.00     0.091 C 
ENDROOT
BRANCH   1   7
ATOM      7  O   LIG d   1      -6.226  77.512 117.154  0.00  0.00    -0.368 OA
BRANCH   7   8
ATOM      8  C   LIG d   1      -6.909  76.347 117.678  0.00  0.00     0.119 C 
BRANCH   8   9
ATOM      9  C   LIG d   1      -5.839  75.418 118.285  0.00  0.00     0.028 C 
ATOM     10  C   LIG d   1      -5.146  74.548 117.223  0.00  0.00     0.006 C 
ENDBRANCH   8   9
BRANCH   8  11
ATOM     11  C   LIG d   1      -7.564  75.533 116.558  0.00  0.00     0.028 C 
ATOM     12  C   LIG d   1      -8.920  74.939 116.969  0.00  0.00     0.006 C 
ENDBRANCH   8  11
ENDBRANCH   7   8
ENDBRANCH   1   7
BRANCH   6  13
ATOM     13  N   LIG d   1      -4.385  79.896 117.251  0.00  0.00    -0.311 N 
ATOM     14  C   LIG d   1      -3.513  80.112 116.267  0.00  0.00     0.210 C 
ATOM     15  C   LIG d   1      -2.040  80.007 116.673  0.00  0.00     0.109 C 
ATOM     16  O   LIG d   1      -3.821  80.412 115.103  0.00  0.00    -0.276 OA
ATOM     17  H   LIG d   1      -4.048  79.690 118.171  0.00  0.00     0.149 HD
ENDBRANCH   6  13
BRANCH   5  18
ATOM     18  N   LIG d   1      -6.009  82.420 116.681  0.00  0.00     0.381 N 
ATOM     19  H   LIG d   1      -6.166  82.230 115.712  0.00  0.00    -0.090 HD
ATOM     20  H   LIG d   1      -5.021  82.538 116.823  0.00  0.00    -0.090 HD
ATOM     21  H   LIG d   1      -6.492  83.250 116.947  0.00  0.00    -0.090 HD
ENDBRANCH   5  18
BRANCH   3  22
ATOM     22  C   LIG d   1      -9.843  80.180 118.476  0.00  0.00     0.382 C 
ATOM     23  O   LIG d   1     -10.587  79.170 118.496  0.00  0.00    -0.241 OA
ATOM     24  O   LIG d   1     -10.288  81.278 118.862  0.00  0.00    -0.241 OA
ENDBRANCH   3  22
TORSDOF 7
ENDMDL
MODEL 8
REMARK VINA RESULT:      -4.5     18.204     20.882
REMARK  7 active torsions:
REMARK  status: ('A' for Active; 'I' for Inactive)
REMARK    1  A    between atoms: C_2  and  C_3 
REMARK    2  A    between atoms: C_3  and  O_6 
REMARK    3  A    between atoms: C_3  and  C_4 
REMARK    4  A    between atoms: C_7  and  O_6 
REMARK    5  A    between atoms: C_9  and  C_10 
REMARK    6  A    between atoms: N_15  and  C_14 
REMARK    7  A    between atoms: N_20  and  C_19 
REMARK       I    between atoms: C_22  and  N_20 
ROOT
ATOM      1  C   LIG d   1       1.995  57.841 119.402  0.00  0.00     0.161 C 
ATOM      2  C   LIG d   1       0.865  58.660 119.558  0.00  0.00     0.016 C 
ATOM      3  C   LIG d   1      -0.462  58.180 119.475  0.00  0.00     0.038 C 
ATOM      4  C   LIG d   1      -0.750  56.811 119.378  0.00  0.00     0.028 C 
ATOM      5  C   LIG d   1       0.359  56.004 118.712  0.00  0.00    -0.047 C 
ATOM      6  C   LIG d   1       1.701  56.326 119.408  0.00  0.00     0.091 C 
ENDROOT
BRANCH   1   7
ATOM      7  O   LIG d   1       2.976  58.164 120.408  0.00  0.00    -0.368 OA
BRANCH   7   8
ATOM      8  C   LIG d   1       3.806  59.321 120.140  0.00  0.00     0.119 C 
BRANCH   8   9
ATOM      9  C   LIG d   1       4.871  58.899 119.110  0.00  0.00     0.028 C 
ATOM     10  C   LIG d   1       4.777  59.704 117.804  0.00  0.00     0.006 C 
ENDBRANCH   8   9
BRANCH   8  11
ATOM     11  C   LIG d   1       4.591  59.744 121.385  0.00  0.00     0.028 C 
ATOM     12  C   LIG d   1       5.511  60.948 121.129  0.00  0.00     0.006 C 
ENDBRANCH   8  11
ENDBRANCH   7   8
ENDBRANCH   1   7
BRANCH   6  13
ATOM     13  N   LIG d   1       2.852  55.642 118.763  0.00  0.00    -0.311 N 
ATOM     14  C   LIG d   1       3.313  54.455 119.154  0.00  0.00     0.210 C 
ATOM     15  C   LIG d   1       4.521  53.938 118.366  0.00  0.00     0.109 C 
ATOM     16  O   LIG d   1       2.815  53.766 120.058  0.00  0.00    -0.276 OA
ATOM     17  H   LIG d   1       3.296  56.116 118.000  0.00  0.00     0.149 HD
ENDBRANCH   6  13
BRANCH   5  18
ATOM     18  N   LIG d   1      -0.012  54.579 118.802  0.00  0.00     0.381 N 
ATOM     19  H   LIG d   1      -0.292  54.360 119.737  0.00  0.00    -0.090 HD
ATOM     20  H   LIG d   1       0.792  54.019 118.575  0.00  0.00    -0.090 HD
ATOM     21  H   LIG d   1      -0.754  54.379 118.169  0.00  0.00    -0.090 HD
ENDBRANCH   5  18
BRANCH   3  22
ATOM     22  C   LIG d   1      -1.517  59.079 119.447  0.00  0.00     0.382 C 
ATOM     23  O   LIG d   1      -2.543  58.864 120.137  0.00  0.00    -0.241 OA
ATOM     24  O   LIG d   1      -1.476  60.080 118.706  0.00  0.00    -0.241 OA
ENDBRANCH   3  22
TORSDOF 7
ENDMDL
MODEL 9
REMARK VINA RESULT:      -4.5     18.785     21.038
REMARK  7 active torsions:
REMARK  status: ('A' for Active; 'I' for Inactive)
REMARK    1  A    between atoms: C_2  and  C_3 
REMARK    2  A    between atoms: C_3  and  O_6 
REMARK    3  A    between atoms: C_3  and  C_4 
REMARK    4  A    between atoms: C_7  and  O_6 
REMARK    5  A    between atoms: C_9  and  C_10 
REMARK    6  A    between atoms: N_15  and  C_14 
REMARK    7  A    between atoms: N_20  and  C_19 
REMARK       I    between atoms: C_22  and  N_20 
ROOT
ATOM      1  C   LIG d   1      -4.844  95.441 119.398  0.00  0.00     0.161 C 
ATOM      2  C   LIG d   1      -5.982  94.693 119.055  0.00  0.00     0.016 C 
ATOM      3  C   LIG d   1      -7.130  95.255 118.449  0.00  0.00     0.038 C 
ATOM      4  C   LIG d   1      -7.157  96.586 118.005  0.00  0.00     0.028 C 
ATOM      5  C   LIG d   1      -6.222  97.504 118.785  0.00  0.00    -0.047 C 
ATOM      6  C   LIG d   1      -4.812  96.872 118.820  0.00  0.00     0.091 C 
ENDROOT
BRANCH   1   7
ATOM      7  O   LIG d   1      -3.654  94.721 119.020  0.00  0.00    -0.368 OA
BRANCH   7   8
ATOM      8  C   LIG d   1      -2.863  94.182 120.107  0.00  0.00     0.119 C 
BRANCH   8   9
ATOM      9  C   LIG d   1      -1.472  94.842 120.039  0.00  0.00     0.028 C 
ATOM     10  C   LIG d   1      -1.142  95.373 118.634  0.00  0.00     0.006 C 
ENDBRANCH   8   9
BRANCH   8  11
ATOM     11  C   LIG d   1      -2.610  92.683 119.921  0.00  0.00     0.028 C 
ATOM     12  C   LIG d   1      -3.112  92.157 118.568  0.00  0.00     0.006 C 
ENDBRANCH   8  11
ENDBRANCH   7   8
ENDBRANCH   1   7
BRANCH   6  13
ATOM     13  N   LIG d   1      -3.855  97.665 119.635  0.00  0.00    -0.311 N 
ATOM     14  C   LIG d   1      -3.040  98.584 119.121  0.00  0.00     0.210 C 
ATOM     15  C   LIG d   1      -2.120  99.272 120.135  0.00  0.00     0.109 C 
ATOM     16  O   LIG d   1      -3.015  98.919 117.927  0.00  0.00    -0.276 OA
ATOM     17  H   LIG d   1      -3.832  97.480 120.619  0.00  0.00     0.149 HD
ENDBRANCH   6  13
BRANCH   5  18
ATOM     18  N   LIG d   1      -6.247  98.826 118.131  0.00  0.00     0.381 N 
ATOM     19  H   LIG d   1      -5.426  98.942 117.571  0.00  0.00    -0.090 HD
ATOM     20  H   LIG d   1      -6.250  99.539 118.839  0.00  0.00    -0.090 HD
ATOM     21  H   LIG d   1      -7.061  98.909 117.562  0.00  0.00    -0.090 HD
ENDBRANCH   5  18
BRANCH   3  22
ATOM     22  C   LIG d   1      -8.281  94.494 118.319  0.00  0.00     0.382 C 
ATOM     23  O   LIG d   1      -9.251  94.686 119.091  0.00  0.00    -0.241 OA
ATOM     24  O   LIG d   1      -8.345  93.586 117.468  0.00  0.00    -0.241 OA
ENDBRANCH   3  22
TORSDOF 7
ENDMDL
