MODEL 1
REMARK VINA RESULT:      -5.5      0.000      0.000
REMARK  7 active torsions:
REMARK  status: ('A' for Active; 'I' for Inactive)
REMARK    1  A    between atoms: C_2  and  C_3 
REMARK    2  A    between atoms: C_3  and  O_6 
REMARK    3  A    between atoms: C_3  and  C_4 
REMARK    4  A    between atoms: C_7  and  O_6 
REMARK    5  A    between atoms: C_9  and  C_10 
REMARK    6  A    between atoms: N_15  and  C_14 
REMARK    7  A    between atoms: N_20  and  C_19 
REMARK       I    between atoms: C_22  and  N_20 
ROOT
ATOM      1  C   LIG d   1      -7.477  75.705 117.779  0.00  0.00     0.161 C 
ATOM      2  C   LIG d   1      -8.810  75.965 118.139  0.00  0.00     0.016 C 
ATOM      3  C   LIG d   1      -9.294  77.256 118.455  0.00  0.00     0.038 C 
ATOM      4  C   LIG d   1      -8.507  78.404 118.285  0.00  0.00     0.028 C 
ATOM      5  C   LIG d   1      -7.011  78.138 118.409  0.00  0.00    -0.047 C 
ATOM      6  C   LIG d   1      -6.632  76.961 117.480  0.00  0.00     0.091 C 
ENDROOT
BRANCH   1   7
ATOM      7  O   LIG d   1      -7.442  74.799 116.659  0.00  0.00    -0.368 OA
BRANCH   7   8
ATOM      8  C   LIG d   1      -7.132  73.417 116.967  0.00  0.00     0.119 C 
BRANCH   8   9
ATOM      9  C   LIG d   1      -6.251  72.875 115.826  0.00  0.00     0.028 C 
ATOM     10  C   LIG d   1      -5.580  73.998 115.018  0.00  0.00     0.006 C 
ENDBRANCH   8   9
BRANCH   8  11
ATOM     11  C   LIG d   1      -8.393  72.548 116.954  0.00  0.00     0.028 C 
ATOM     12  C   LIG d   1      -8.082  71.049 116.813  0.00  0.00     0.006 C 
ENDBRANCH   8  11
ENDBRANCH   7   8
ENDBRANCH   1   7
BRANCH   6  13
ATOM     13  N   LIG d   1      -5.201  76.580 117.603  0.00  0.00    -0.311 N 
ATOM     14  C   LIG d   1      -4.243  77.064 116.815  0.00  0.00     0.210 C 
ATOM     15  C   LIG d   1      -2.838  76.524 117.099  0.00  0.00     0.109 C 
ATOM     16  O   LIG d   1      -4.418  77.913 115.929  0.00  0.00    -0.276 OA
ATOM     17  H   LIG d   1      -4.965  75.919 118.317  0.00  0.00     0.149 HD
ENDBRANCH   6  13
BRANCH   5  18
ATOM     18  N   LIG d   1      -6.305  79.389 118.074  0.00  0.00     0.381 N 
ATOM     19  H   LIG d   1      -5.477  79.471 118.629  0.00  0.00    -0.090 HD
ATOM     20  H   LIG d   1      -6.905  80.167 118.285  0.00  0.00    -0.090 HD
ATOM     21  H   LIG d   1      -6.067  79.397 117.106  0.00  0.00    -0.090 HD
ENDBRANCH   5  18
BRANCH   3  22
ATOM     22  C   LIG d   1     -10.566  77.402 118.986  0.00  0.00     0.382 C 
ATOM     23  O   LIG d   1     -11.526  76.757 118.500  0.00  0.00    -0.241 OA
ATOM     24  O   LIG d   1     -10.775  78.204 119.916  0.00  0.00    -0.241 OA
ENDBRANCH   3  22
TORSDOF 7
ENDMDL
MODEL 2
REMARK VINA RESULT:      -5.2      2.054      5.097
REMARK  7 active torsions:
REMARK  status: ('A' for Active; 'I' for Inactive)
REMARK    1  A    between atoms: C_2  and  C_3 
REMARK    2  A    between atoms: C_3  and  O_6 
REMARK    3  A    between atoms: C_3  and  C_4 
REMARK    4  A    between atoms: C_7  and  O_6 
REMARK    5  A    between atoms: C_9  and  C_10 
REMARK    6  A    between atoms: N_15  and  C_14 
REMARK    7  A    between atoms: N_20  and  C_19 
REMARK       I    between atoms: C_22  and  N_20 
ROOT
ATOM      1  C   LIG d   1      -7.603  75.292 117.656  0.00  0.00     0.161 C 
ATOM      2  C   LIG d   1      -7.864  73.945 117.359  0.00  0.00     0.016 C 
ATOM      3  C   LIG d   1      -7.027  73.151 116.542  0.00  0.00     0.038 C 
ATOM      4  C   LIG d   1      -5.782  73.612 116.087  0.00  0.00     0.028 C 
ATOM      5  C   LIG d   1      -5.714  75.129 115.943  0.00  0.00    -0.047 C 
ATOM      6  C   LIG d   1      -6.194  75.780 117.260  0.00  0.00     0.091 C 
ENDROOT
BRANCH   1   7
ATOM      7  O   LIG d   1      -7.844  75.540 119.055  0.00  0.00    -0.368 OA
BRANCH   7   8
ATOM      8  C   LIG d   1      -9.015  76.333 119.370  0.00  0.00     0.119 C 
BRANCH   8   9
ATOM      9  C   LIG d   1      -9.730  76.649 118.043  0.00  0.00     0.028 C 
ATOM     10  C   LIG d   1     -11.133  76.021 117.968  0.00  0.00     0.006 C 
ENDBRANCH   8   9
BRANCH   8  11
ATOM     11  C   LIG d   1      -8.625  77.694 119.955  0.00  0.00     0.028 C 
ATOM     12  C   LIG d   1      -9.137  78.873 119.112  0.00  0.00     0.006 C 
ENDBRANCH   8  11
ENDBRANCH   7   8
ENDBRANCH   1   7
BRANCH   6  13
ATOM     13  N   LIG d   1      -6.238  77.263 117.175  0.00  0.00    -0.311 N 
ATOM     14  C   LIG d   1      -5.553  78.065 117.989  0.00  0.00     0.210 C 
ATOM     15  C   LIG d   1      -5.757  79.563 117.743  0.00  0.00     0.109 C 
ATOM     16  O   LIG d   1      -4.771  77.677 118.870  0.00  0.00    -0.276 OA
ATOM     17  H   LIG d   1      -6.824  77.662 116.468  0.00  0.00     0.149 HD
ENDBRANCH   6  13
BRANCH   5  18
ATOM     18  N   LIG d   1      -4.325  75.481 115.595  0.00  0.00     0.381 N 
ATOM     19  H   LIG d   1      -3.796  75.636 116.430  0.00  0.00    -0.090 HD
ATOM     20  H   LIG d   1      -4.329  76.334 115.063  0.00  0.00    -0.090 HD
ATOM     21  H   LIG d   1      -3.911  74.750 115.061  0.00  0.00    -0.090 HD
ENDBRANCH   5  18
BRANCH   3  22
ATOM     22  C   LIG d   1      -7.451  71.894 116.139  0.00  0.00     0.382 C 
ATOM     23  O   LIG d   1      -6.709  71.183 115.418  0.00  0.00    -0.241 OA
ATOM     24  O   LIG d   1      -8.583  71.479 116.451  0.00  0.00    -0.241 OA
ENDBRANCH   3  22
TORSDOF 7
ENDMDL
MODEL 3
REMARK VINA RESULT:      -5.1     15.433     17.888
REMARK  7 active torsions:
REMARK  status: ('A' for Active; 'I' for Inactive)
REMARK    1  A    between atoms: C_2  and  C_3 
REMARK    2  A    between atoms: C_3  and  O_6 
REMARK    3  A    between atoms: C_3  and  C_4 
REMARK    4  A    between atoms: C_7  and  O_6 
REMARK    5  A    between atoms: C_9  and  C_10 
REMARK    6  A    between atoms: N_15  and  C_14 
REMARK    7  A    between atoms: N_20  and  C_19 
REMARK       I    between atoms: C_22  and  N_20 
ROOT
ATOM      1  C   LIG d   1      -5.394  93.203 118.473  0.00  0.00     0.161 C 
ATOM      2  C   LIG d   1      -6.297  92.572 117.601  0.00  0.00     0.016 C 
ATOM      3  C   LIG d   1      -5.901  91.648 116.607  0.00  0.00     0.038 C 
ATOM      4  C   LIG d   1      -4.584  91.175 116.516  0.00  0.00     0.028 C 
ATOM      5  C   LIG d   1      -3.548  92.161 117.046  0.00  0.00    -0.047 C 
ATOM      6  C   LIG d   1      -3.967  92.616 118.463  0.00  0.00     0.091 C 
ENDROOT
BRANCH   1   7
ATOM      7  O   LIG d   1      -5.927  93.202 119.812  0.00  0.00    -0.368 OA
BRANCH   7   8
ATOM      8  C   LIG d   1      -6.375  94.483 120.321  0.00  0.00     0.119 C 
BRANCH   8   9
ATOM      9  C   LIG d   1      -7.909  94.418 120.450  0.00  0.00     0.028 C 
ATOM     10  C   LIG d   1      -8.627  95.006 119.224  0.00  0.00     0.006 C 
ENDBRANCH   8   9
BRANCH   8  11
ATOM     11  C   LIG d   1      -6.100  95.608 119.319  0.00  0.00     0.028 C 
ATOM     12  C   LIG d   1      -5.074  96.629 119.836  0.00  0.00     0.006 C 
ENDBRANCH   8  11
ENDBRANCH   7   8
ENDBRANCH   1   7
BRANCH   6  13
ATOM     13  N   LIG d   1      -3.053  93.646 119.021  0.00  0.00    -0.311 N 
ATOM     14  C   LIG d   1      -2.013  93.358 119.801  0.00  0.00     0.210 C 
ATOM     15  C   LIG d   1      -1.212  94.571 120.285  0.00  0.00     0.109 C 
ATOM     16  O   LIG d   1      -1.659  92.211 120.113  0.00  0.00    -0.276 OA
ATOM     17  H   LIG d   1      -3.248  94.601 118.792  0.00  0.00     0.149 HD
ENDBRANCH   6  13
BRANCH   5  18
ATOM     18  N   LIG d   1      -2.236  91.487 117.019  0.00  0.00     0.381 N 
ATOM     19  H   LIG d   1      -2.352  90.512 117.210  0.00  0.00    -0.090 HD
ATOM     20  H   LIG d   1      -1.654  91.882 117.737  0.00  0.00    -0.090 HD
ATOM     21  H   LIG d   1      -1.808  91.610 116.128  0.00  0.00    -0.090 HD
ENDBRANCH   5  18
BRANCH   3  22
ATOM     22  C   LIG d   1      -6.822  91.217 115.663  0.00  0.00     0.382 C 
ATOM     23  O   LIG d   1      -7.262  92.020 114.805  0.00  0.00    -0.241 OA
ATOM     24  O   LIG d   1      -7.251  90.048 115.687  0.00  0.00    -0.241 OA
ENDBRANCH   3  22
TORSDOF 7
ENDMDL
MODEL 4
REMARK VINA RESULT:      -5.0     15.415     17.055
REMARK  7 active torsions:
REMARK  status: ('A' for Active; 'I' for Inactive)
REMARK    1  A    between atoms: C_2  and  C_3 
REMARK    2  A    between atoms: C_3  and  O_6 
REMARK    3  A    between atoms: C_3  and  C_4 
REMARK    4  A    between atoms: C_7  and  O_6 
REMARK    5  A    between atoms: C_9  and  C_10 
REMARK    6  A    between atoms: N_15  and  C_14 
REMARK    7  A    between atoms: N_20  and  C_19 
REMARK       I    between atoms: C_22  and  N_20 
ROOT
ATOM      1  C   LIG d   1      -3.894  91.922 117.720  0.00  0.00     0.161 C 
ATOM      2  C   LIG d   1      -4.534  91.292 116.640  0.00  0.00     0.016 C 
ATOM      3  C   LIG d   1      -5.805  91.678 116.156  0.00  0.00     0.038 C 
ATOM      4  C   LIG d   1      -6.460  92.826 116.626  0.00  0.00     0.028 C 
ATOM      5  C   LIG d   1      -6.084  93.195 118.057  0.00  0.00    -0.047 C 
ATOM      6  C   LIG d   1      -4.543  93.247 118.173  0.00  0.00     0.091 C 
ENDROOT
BRANCH   1   7
ATOM      7  O   LIG d   1      -2.502  92.127 117.410  0.00  0.00    -0.368 OA
BRANCH   7   8
ATOM      8  C   LIG d   1      -1.591  91.090 117.852  0.00  0.00     0.119 C 
BRANCH   8   9
ATOM      9  C   LIG d   1      -0.932  91.579 119.157  0.00  0.00     0.028 C 
ATOM     10  C   LIG d   1      -1.495  90.869 120.400  0.00  0.00     0.006 C 
ENDBRANCH   8   9
BRANCH   8  11
ATOM     11  C   LIG d   1      -0.438  90.902 116.862  0.00  0.00     0.028 C 
ATOM     12  C   LIG d   1       0.614  89.898 117.357  0.00  0.00     0.006 C 
ENDBRANCH   8  11
ENDBRANCH   7   8
ENDBRANCH   1   7
BRANCH   6  13
ATOM     13  N   LIG d   1      -4.089  93.518 119.562  0.00  0.00    -0.311 N 
ATOM     14  C   LIG d   1      -3.220  94.479 119.874  0.00  0.00     0.210 C 
ATOM     15  C   LIG d   1      -2.871  94.576 121.362  0.00  0.00     0.109 C 
ATOM     16  O   LIG d   1      -2.731  95.281 119.064  0.00  0.00    -0.276 OA
ATOM     17  H   LIG d   1      -4.460  92.935 120.286  0.00  0.00     0.149 HD
ENDBRANCH   6  13
BRANCH   5  18
ATOM     18  N   LIG d   1      -6.731  94.484 118.370  0.00  0.00     0.381 N 
ATOM     19  H   LIG d   1      -6.453  95.173 117.701  0.00  0.00    -0.090 HD
ATOM     20  H   LIG d   1      -6.429  94.787 119.279  0.00  0.00    -0.090 HD
ATOM     21  H   LIG d   1      -7.722  94.379 118.358  0.00  0.00    -0.090 HD
ENDBRANCH   5  18
BRANCH   3  22
ATOM     22  C   LIG d   1      -6.453  90.888 115.218  0.00  0.00     0.382 C 
ATOM     23  O   LIG d   1      -7.596  91.207 114.812  0.00  0.00    -0.241 OA
ATOM     24  O   LIG d   1      -5.926  89.838 114.805  0.00  0.00    -0.241 OA
ENDBRANCH   3  22
TORSDOF 7
ENDMDL
MODEL 5
REMARK VINA RESULT:      -4.9      2.112      3.168
REMARK  7 active torsions:
REMARK  status: ('A' for Active; 'I' for Inactive)
REMARK    1  A    between atoms: C_2  and  C_3 
REMARK    2  A    between atoms: C_3  and  O_6 
REMARK    3  A    between atoms: C_3  and  C_4 
REMARK    4  A    between atoms: C_7  and  O_6 
REMARK    5  A    between atoms: C_9  and  C_10 
REMARK    6  A    between atoms: N_15  and  C_14 
REMARK    7  A    between atoms: N_20  and  C_19 
REMARK       I    between atoms: C_22  and  N_20 
ROOT
ATOM      1  C   LIG d   1      -7.318  77.743 117.957  0.00  0.00     0.161 C 
ATOM      2  C   LIG d   1      -8.559  77.103 118.108  0.00  0.00     0.016 C 
ATOM      3  C   LIG d   1      -9.696  77.732 118.666  0.00  0.00     0.038 C 
ATOM      4  C   LIG d   1      -9.710  79.101 118.974  0.00  0.00     0.028 C 
ATOM      5  C   LIG d   1      -8.331  79.661 119.308  0.00  0.00    -0.047 C 
ATOM      6  C   LIG d   1      -7.345  79.269 118.184  0.00  0.00     0.091 C 
ENDROOT
BRANCH   1   7
ATOM      7  O   LIG d   1      -6.766  77.439 116.660  0.00  0.00    -0.368 OA
BRANCH   7   8
ATOM      8  C   LIG d   1      -6.190  76.119 116.506  0.00  0.00     0.119 C 
BRANCH   8   9
ATOM      9  C   LIG d   1      -4.830  76.119 117.230  0.00  0.00     0.028 C 
ATOM     10  C   LIG d   1      -3.892  77.224 116.715  0.00  0.00     0.006 C 
ENDBRANCH   8   9
BRANCH   8  11
ATOM     11  C   LIG d   1      -5.869  75.819 115.039  0.00  0.00     0.028 C 
ATOM     12  C   LIG d   1      -5.444  74.360 114.809  0.00  0.00     0.006 C 
ENDBRANCH   8  11
ENDBRANCH   7   8
ENDBRANCH   1   7
BRANCH   6  13
ATOM     13  N   LIG d   1      -5.954  79.705 118.473  0.00  0.00    -0.311 N 
ATOM     14  C   LIG d   1      -5.445  80.862 118.051  0.00  0.00     0.210 C 
ATOM     15  C   LIG d   1      -3.985  81.107 118.443  0.00  0.00     0.109 C 
ATOM     16  O   LIG d   1      -6.075  81.722 117.417  0.00  0.00    -0.276 OA
ATOM     17  H   LIG d   1      -5.382  79.082 119.009  0.00  0.00     0.149 HD
ENDBRANCH   6  13
BRANCH   5  18
ATOM     18  N   LIG d   1      -8.470  81.120 119.472  0.00  0.00     0.381 N 
ATOM     19  H   LIG d   1      -7.662  81.488 119.933  0.00  0.00    -0.090 HD
ATOM     20  H   LIG d   1      -9.273  81.307 120.048  0.00  0.00    -0.090 HD
ATOM     21  H   LIG d   1      -8.581  81.554 118.583  0.00  0.00    -0.090 HD
ENDBRANCH   5  18
BRANCH   3  22
ATOM     22  C   LIG d   1     -10.823  76.980 118.959  0.00  0.00     0.382 C 
ATOM     23  O   LIG d   1     -11.202  76.855 120.148  0.00  0.00    -0.241 OA
ATOM     24  O   LIG d   1     -11.441  76.389 118.053  0.00  0.00    -0.241 OA
ENDBRANCH   3  22
TORSDOF 7
ENDMDL
MODEL 6
REMARK VINA RESULT:      -4.8      1.655      2.623
REMARK  7 active torsions:
REMARK  status: ('A' for Active; 'I' for Inactive)
REMARK    1  A    between atoms: C_2  and  C_3 
REMARK    2  A    between atoms: C_3  and  O_6 
REMARK    3  A    between atoms: C_3  and  C_4 
REMARK    4  A    between atoms: C_7  and  O_6 
REMARK    5  A    between atoms: C_9  and  C_10 
REMARK    6  A    between atoms: N_15  and  C_14 
REMARK    7  A    between atoms: N_20  and  C_19 
REMARK       I    between atoms: C_22  and  N_20 
ROOT
ATOM      1  C   LIG d   1      -6.654  76.799 117.007  0.00  0.00     0.161 C 
ATOM      2  C   LIG d   1      -7.966  76.301 117.067  0.00  0.00     0.016 C 
ATOM      3  C   LIG d   1      -9.021  76.965 117.734  0.00  0.00     0.038 C 
ATOM      4  C   LIG d   1      -8.868  78.256 118.262  0.00  0.00     0.028 C 
ATOM      5  C   LIG d   1      -7.434  78.579 118.667  0.00  0.00    -0.047 C 
ATOM      6  C   LIG d   1      -6.494  78.259 117.482  0.00  0.00     0.091 C 
ENDROOT
BRANCH   1   7
ATOM      7  O   LIG d   1      -6.134  76.647 115.672  0.00  0.00    -0.368 OA
BRANCH   7   8
ATOM      8  C   LIG d   1      -5.060  75.687 115.512  0.00  0.00     0.119 C 
BRANCH   8   9
ATOM      9  C   LIG d   1      -5.652  74.438 114.831  0.00  0.00     0.028 C 
ATOM     10  C   LIG d   1      -6.048  73.351 115.844  0.00  0.00     0.006 C 
ENDBRANCH   8   9
BRANCH   8  11
ATOM     11  C   LIG d   1      -4.540  75.202 116.868  0.00  0.00     0.028 C 
ATOM     12  C   LIG d   1      -3.005  75.168 116.941  0.00  0.00     0.006 C 
ENDBRANCH   8  11
ENDBRANCH   7   8
ENDBRANCH   1   7
BRANCH   6  13
ATOM     13  N   LIG d   1      -5.062  78.467 117.822  0.00  0.00    -0.311 N 
ATOM     14  C   LIG d   1      -4.399  79.589 117.549  0.00  0.00     0.210 C 
ATOM     15  C   LIG d   1      -2.925  79.588 117.966  0.00  0.00     0.109 C 
ATOM     16  O   LIG d   1      -4.900  80.598 117.029  0.00  0.00    -0.276 OA
ATOM     17  H   LIG d   1      -4.586  77.710 118.274  0.00  0.00     0.149 HD
ENDBRANCH   6  13
BRANCH   5  18
ATOM     18  N   LIG d   1      -7.393  79.997 119.070  0.00  0.00     0.381 N 
ATOM     19  H   LIG d   1      -8.226  80.460 118.765  0.00  0.00    -0.090 HD
ATOM     20  H   LIG d   1      -6.607  80.439 118.626  0.00  0.00    -0.090 HD
ATOM     21  H   LIG d   1      -7.308  80.068 120.060  0.00  0.00    -0.090 HD
ENDBRANCH   5  18
BRANCH   3  22
ATOM     22  C   LIG d   1     -10.235  76.320 117.913  0.00  0.00     0.382 C 
ATOM     23  O   LIG d   1     -10.500  75.288 117.250  0.00  0.00    -0.241 OA
ATOM     24  O   LIG d   1     -11.087  76.782 118.696  0.00  0.00    -0.241 OA
ENDBRANCH   3  22
TORSDOF 7
ENDMDL
MODEL 7
REMARK VINA RESULT:      -4.8      2.751      6.345
REMARK  7 active torsions:
REMARK  status: ('A' for Active; 'I' for Inactive)
REMARK    1  A    between atoms: C_2  and  C_3 
REMARK    2  A    between atoms: C_3  and  O_6 
REMARK    3  A    between atoms: C_3  and  C_4 
REMARK    4  A    between atoms: C_7  and  O_6 
REMARK    5  A    between atoms: C_9  and  C_10 
REMARK    6  A    between atoms: N_15  and  C_14 
REMARK    7  A    between atoms: N_20  and  C_19 
REMARK       I    between atoms: C_22  and  N_20 
ROOT
ATOM      1  C   LIG d   1      -7.219  78.335 118.205  0.00  0.00     0.161 C 
ATOM      2  C   LIG d   1      -6.813  77.114 117.640  0.00  0.00     0.016 C 
ATOM      3  C   LIG d   1      -7.667  75.995 117.511  0.00  0.00     0.038 C 
ATOM      4  C   LIG d   1      -9.037  76.070 117.803  0.00  0.00     0.028 C 
ATOM      5  C   LIG d   1      -9.377  77.127 118.848  0.00  0.00    -0.047 C 
ATOM      6  C   LIG d   1      -8.739  78.471 118.428  0.00  0.00     0.091 C 
ENDROOT
BRANCH   1   7
ATOM      7  O   LIG d   1      -6.729  79.430 117.406  0.00  0.00    -0.368 OA
BRANCH   7   8
ATOM      8  C   LIG d   1      -5.793  80.325 118.057  0.00  0.00     0.119 C 
BRANCH   8   9
ATOM      9  C   LIG d   1      -6.344  81.756 117.910  0.00  0.00     0.028 C 
ATOM     10  C   LIG d   1      -6.209  82.573 119.206  0.00  0.00     0.006 C 
ENDBRANCH   8   9
BRANCH   8  11
ATOM     11  C   LIG d   1      -4.441  80.335 117.338  0.00  0.00     0.028 C 
ATOM     12  C   LIG d   1      -3.252  80.420 118.308  0.00  0.00     0.006 C 
ENDBRANCH   8  11
ENDBRANCH   7   8
ENDBRANCH   1   7
BRANCH   6  13
ATOM     13  N   LIG d   1      -8.952  79.540 119.438  0.00  0.00    -0.311 N 
ATOM     14  C   LIG d   1      -9.679  80.633 119.207  0.00  0.00     0.210 C 
ATOM     15  C   LIG d   1      -9.753  81.618 120.378  0.00  0.00     0.109 C 
ATOM     16  O   LIG d   1     -10.295  80.863 118.156  0.00  0.00    -0.276 OA
ATOM     17  H   LIG d   1      -8.514  79.419 120.330  0.00  0.00     0.149 HD
ENDBRANCH   6  13
BRANCH   5  18
ATOM     18  N   LIG d   1     -10.847  77.193 118.955  0.00  0.00     0.381 N 
ATOM     19  H   LIG d   1     -11.228  76.268 118.947  0.00  0.00    -0.090 HD
ATOM     20  H   LIG d   1     -11.208  77.691 118.161  0.00  0.00    -0.090 HD
ATOM     21  H   LIG d   1     -11.107  77.660 119.795  0.00  0.00    -0.090 HD
ENDBRANCH   5  18
BRANCH   3  22
ATOM     22  C   LIG d   1      -7.143  74.771 117.123  0.00  0.00     0.382 C 
ATOM     23  O   LIG d   1      -6.051  74.724 116.507  0.00  0.00    -0.241 OA
ATOM     24  O   LIG d   1      -7.769  73.717 117.343  0.00  0.00    -0.241 OA
ENDBRANCH   3  22
TORSDOF 7
ENDMDL
MODEL 8
REMARK VINA RESULT:      -4.8      2.459      5.510
REMARK  7 active torsions:
REMARK  status: ('A' for Active; 'I' for Inactive)
REMARK    1  A    between atoms: C_2  and  C_3 
REMARK    2  A    between atoms: C_3  and  O_6 
REMARK    3  A    between atoms: C_3  and  C_4 
REMARK    4  A    between atoms: C_7  and  O_6 
REMARK    5  A    between atoms: C_9  and  C_10 
REMARK    6  A    between atoms: N_15  and  C_14 
REMARK    7  A    between atoms: N_20  and  C_19 
REMARK       I    between atoms: C_22  and  N_20 
ROOT
ATOM      1  C   LIG d   1      -4.987  75.862 116.245  0.00  0.00     0.161 C 
ATOM      2  C   LIG d   1      -4.023  74.863 116.030  0.00  0.00     0.016 C 
ATOM      3  C   LIG d   1      -2.892  74.682 116.859  0.00  0.00     0.038 C 
ATOM      4  C   LIG d   1      -2.728  75.395 118.056  0.00  0.00     0.028 C 
ATOM      5  C   LIG d   1      -3.413  76.758 118.047  0.00  0.00    -0.047 C 
ATOM      6  C   LIG d   1      -4.884  76.577 117.608  0.00  0.00     0.091 C 
ENDROOT
BRANCH   1   7
ATOM      7  O   LIG d   1      -6.308  75.312 116.067  0.00  0.00    -0.368 OA
BRANCH   7   8
ATOM      8  C   LIG d   1      -6.718  74.313 117.033  0.00  0.00     0.119 C 
BRANCH   8   9
ATOM      9  C   LIG d   1      -7.017  73.015 116.258  0.00  0.00     0.028 C 
ATOM     10  C   LIG d   1      -8.011  72.105 116.999  0.00  0.00     0.006 C 
ENDBRANCH   8   9
BRANCH   8  11
ATOM     11  C   LIG d   1      -8.040  74.698 117.704  0.00  0.00     0.028 C 
ATOM     12  C   LIG d   1      -8.670  75.963 117.099  0.00  0.00     0.006 C 
ENDBRANCH   8  11
ENDBRANCH   7   8
ENDBRANCH   1   7
BRANCH   6  13
ATOM     13  N   LIG d   1      -5.603  77.872 117.492  0.00  0.00    -0.311 N 
ATOM     14  C   LIG d   1      -6.320  78.404 118.481  0.00  0.00     0.210 C 
ATOM     15  C   LIG d   1      -6.997  79.737 118.144  0.00  0.00     0.109 C 
ATOM     16  O   LIG d   1      -6.432  77.916 119.615  0.00  0.00    -0.276 OA
ATOM     17  H   LIG d   1      -5.540  78.352 116.615  0.00  0.00     0.149 HD
ENDBRANCH   6  13
BRANCH   5  18
ATOM     18  N   LIG d   1      -3.279  77.332 119.399  0.00  0.00     0.381 N 
ATOM     19  H   LIG d   1      -3.793  76.778 120.055  0.00  0.00    -0.090 HD
ATOM     20  H   LIG d   1      -3.665  78.260 119.398  0.00  0.00    -0.090 HD
ATOM     21  H   LIG d   1      -2.319  77.365 119.662  0.00  0.00    -0.090 HD
ENDBRANCH   5  18
BRANCH   3  22
ATOM     22  C   LIG d   1      -1.890  73.805 116.472  0.00  0.00     0.382 C 
ATOM     23  O   LIG d   1      -1.418  72.988 117.299  0.00  0.00    -0.241 OA
ATOM     24  O   LIG d   1      -1.421  73.851 115.319  0.00  0.00    -0.241 OA
ENDBRANCH   3  22
TORSDOF 7
ENDMDL
MODEL 9
REMARK VINA RESULT:      -4.5     12.693     15.828
REMARK  7 active torsions:
REMARK  status: ('A' for Active; 'I' for Inactive)
REMARK    1  A    between atoms: C_2  and  C_3 
REMARK    2  A    between atoms: C_3  and  O_6 
REMARK    3  A    between atoms: C_3  and  C_4 
REMARK    4  A    between atoms: C_7  and  O_6 
REMARK    5  A    between atoms: C_9  and  C_10 
REMARK    6  A    between atoms: N_15  and  C_14 
REMARK    7  A    between atoms: N_20  and  C_19 
REMARK       I    between atoms: C_22  and  N_20 
ROOT
ATOM      1  C   LIG d   1     -18.059  66.503 117.136  0.00  0.00     0.161 C 
ATOM      2  C   LIG d   1     -17.015  67.406 116.877  0.00  0.00     0.016 C 
ATOM      3  C   LIG d   1     -15.794  67.032 116.269  0.00  0.00     0.038 C 
ATOM      4  C   LIG d   1     -15.594  65.749 115.738  0.00  0.00     0.028 C 
ATOM      5  C   LIG d   1     -16.425  64.671 116.426  0.00  0.00    -0.047 C 
ATOM      6  C   LIG d   1     -17.903  65.124 116.462  0.00  0.00     0.091 C 
ENDROOT
BRANCH   1   7
ATOM      7  O   LIG d   1     -19.321  67.098 116.772  0.00  0.00    -0.368 OA
BRANCH   7   8
ATOM      8  C   LIG d   1     -20.059  67.733 117.845  0.00  0.00     0.119 C 
BRANCH   8   9
ATOM      9  C   LIG d   1     -19.811  66.913 119.126  0.00  0.00     0.028 C 
ATOM     10  C   LIG d   1     -21.032  66.070 119.529  0.00  0.00     0.006 C 
ENDBRANCH   8   9
BRANCH   8  11
ATOM     11  C   LIG d   1     -21.570  67.658 117.602  0.00  0.00     0.028 C 
ATOM     12  C   LIG d   1     -21.922  67.197 116.179  0.00  0.00     0.006 C 
ENDBRANCH   8  11
ENDBRANCH   7   8
ENDBRANCH   1   7
BRANCH   6  13
ATOM     13  N   LIG d   1     -18.771  64.165 117.194  0.00  0.00    -0.311 N 
ATOM     14  C   LIG d   1     -19.938  63.727 116.724  0.00  0.00     0.210 C 
ATOM     15  C   LIG d   1     -20.684  62.758 117.647  0.00  0.00     0.109 C 
ATOM     16  O   LIG d   1     -20.411  64.024 115.617  0.00  0.00    -0.276 OA
ATOM     17  H   LIG d   1     -18.449  63.848 118.087  0.00  0.00     0.149 HD
ENDBRANCH   6  13
BRANCH   5  18
ATOM     18  N   LIG d   1     -16.224  63.412 115.685  0.00  0.00     0.381 N 
ATOM     19  H   LIG d   1     -15.269  63.339 115.394  0.00  0.00    -0.090 HD
ATOM     20  H   LIG d   1     -16.804  63.421 114.865  0.00  0.00    -0.090 HD
ATOM     21  H   LIG d   1     -16.463  62.635 116.262  0.00  0.00    -0.090 HD
ENDBRANCH   5  18
BRANCH   3  22
ATOM     22  C   LIG d   1     -14.743  67.935 116.224  0.00  0.00     0.382 C 
ATOM     23  O   LIG d   1     -13.679  67.689 116.841  0.00  0.00    -0.241 OA
ATOM     24  O   LIG d   1     -14.862  69.013 115.611  0.00  0.00    -0.241 OA
ENDBRANCH   3  22
TORSDOF 7
ENDMDL
