MODEL 1
REMARK VINA RESULT:      -5.3      0.000      0.000
REMARK  7 active torsions:
REMARK  status: ('A' for Active; 'I' for Inactive)
REMARK    1  A    between atoms: C_2  and  C_3 
REMARK    2  A    between atoms: C_3  and  O_6 
REMARK    3  A    between atoms: C_3  and  C_4 
REMARK    4  A    between atoms: C_7  and  O_6 
REMARK    5  A    between atoms: C_9  and  C_10 
REMARK    6  A    between atoms: N_15  and  C_14 
REMARK    7  A    between atoms: N_20  and  C_19 
REMARK       I    between atoms: C_22  and  N_20 
ROOT
ATOM      1  C   LIG d   1      -5.463  92.834 117.429  0.00  0.00     0.161 C 
ATOM      2  C   LIG d   1      -6.558  92.062 117.006  0.00  0.00     0.016 C 
ATOM      3  C   LIG d   1      -6.425  90.806 116.369  0.00  0.00     0.038 C 
ATOM      4  C   LIG d   1      -5.183  90.164 116.248  0.00  0.00     0.028 C 
ATOM      5  C   LIG d   1      -4.004  91.129 116.207  0.00  0.00    -0.047 C 
ATOM      6  C   LIG d   1      -4.106  92.099 117.406  0.00  0.00     0.091 C 
ENDROOT
BRANCH   1   7
ATOM      7  O   LIG d   1      -5.721  93.368 118.743  0.00  0.00    -0.368 OA
BRANCH   7   8
ATOM      8  C   LIG d   1      -5.929  94.800 118.819  0.00  0.00     0.119 C 
BRANCH   8   9
ATOM      9  C   LIG d   1      -5.060  95.333 119.974  0.00  0.00     0.028 C 
ATOM     10  C   LIG d   1      -3.791  96.043 119.474  0.00  0.00     0.006 C 
ENDBRANCH   8   9
BRANCH   8  11
ATOM     11  C   LIG d   1      -7.372  95.133 119.209  0.00  0.00     0.028 C 
ATOM     12  C   LIG d   1      -8.096  95.978 118.148  0.00  0.00     0.006 C 
ENDBRANCH   8  11
ENDBRANCH   7   8
ENDBRANCH   1   7
BRANCH   6  13
ATOM     13  N   LIG d   1      -3.037  93.131 117.393  0.00  0.00    -0.311 N 
ATOM     14  C   LIG d   1      -1.896  93.012 118.071  0.00  0.00     0.210 C 
ATOM     15  C   LIG d   1      -0.938  94.200 117.936  0.00  0.00     0.109 C 
ATOM     16  O   LIG d   1      -1.573  92.022 118.744  0.00  0.00    -0.276 OA
ATOM     17  H   LIG d   1      -3.203  93.954 116.847  0.00  0.00     0.149 HD
ENDBRANCH   6  13
BRANCH   5  18
ATOM     18  N   LIG d   1      -2.768  90.324 116.218  0.00  0.00     0.381 N 
ATOM     19  H   LIG d   1      -2.366  90.306 115.302  0.00  0.00    -0.090 HD
ATOM     20  H   LIG d   1      -2.997  89.381 116.481  0.00  0.00    -0.090 HD
ATOM     21  H   LIG d   1      -2.117  90.708 116.867  0.00  0.00    -0.090 HD
ENDBRANCH   5  18
BRANCH   3  22
ATOM     22  C   LIG d   1      -7.538  90.198 115.810  0.00  0.00     0.382 C 
ATOM     23  O   LIG d   1      -8.092  90.706 114.806  0.00  0.00    -0.241 OA
ATOM     24  O   LIG d   1      -8.022  89.171 116.323  0.00  0.00    -0.241 OA
ENDBRANCH   3  22
TORSDOF 7
ENDMDL
MODEL 2
REMARK VINA RESULT:      -5.3      1.470      2.136
REMARK  7 active torsions:
REMARK  status: ('A' for Active; 'I' for Inactive)
REMARK    1  A    between atoms: C_2  and  C_3 
REMARK    2  A    between atoms: C_3  and  O_6 
REMARK    3  A    between atoms: C_3  and  C_4 
REMARK    4  A    between atoms: C_7  and  O_6 
REMARK    5  A    between atoms: C_9  and  C_10 
REMARK    6  A    between atoms: N_15  and  C_14 
REMARK    7  A    between atoms: N_20  and  C_19 
REMARK       I    between atoms: C_22  and  N_20 
ROOT
ATOM      1  C   LIG d   1      -5.772  93.085 117.970  0.00  0.00     0.161 C 
ATOM      2  C   LIG d   1      -6.404  92.009 117.324  0.00  0.00     0.016 C 
ATOM      3  C   LIG d   1      -5.700  90.971 116.672  0.00  0.00     0.038 C 
ATOM      4  C   LIG d   1      -4.304  90.857 116.752  0.00  0.00     0.028 C 
ATOM      5  C   LIG d   1      -3.599  92.192 116.964  0.00  0.00    -0.047 C 
ATOM      6  C   LIG d   1      -4.250  92.919 118.163  0.00  0.00     0.091 C 
ENDROOT
BRANCH   1   7
ATOM      7  O   LIG d   1      -6.413  93.340 119.235  0.00  0.00    -0.368 OA
BRANCH   7   8
ATOM      8  C   LIG d   1      -6.796  94.714 119.490  0.00  0.00     0.119 C 
BRANCH   8   9
ATOM      9  C   LIG d   1      -8.104  94.686 120.304  0.00  0.00     0.028 C 
ATOM     10  C   LIG d   1      -8.351  93.323 120.972  0.00  0.00     0.006 C 
ENDBRANCH   8   9
BRANCH   8  11
ATOM     11  C   LIG d   1      -7.143  95.446 118.190  0.00  0.00     0.028 C 
ATOM     12  C   LIG d   1      -8.554  96.054 118.207  0.00  0.00     0.006 C 
ENDBRANCH   8  11
ENDBRANCH   7   8
ENDBRANCH   1   7
BRANCH   6  13
ATOM     13  N   LIG d   1      -3.675  94.271 118.387  0.00  0.00    -0.311 N 
ATOM     14  C   LIG d   1      -3.078  94.636 119.520  0.00  0.00     0.210 C 
ATOM     15  C   LIG d   1      -2.573  96.081 119.549  0.00  0.00     0.109 C 
ATOM     16  O   LIG d   1      -2.891  93.889 120.493  0.00  0.00    -0.276 OA
ATOM     17  H   LIG d   1      -3.755  94.930 117.637  0.00  0.00     0.149 HD
ENDBRANCH   6  13
BRANCH   5  18
ATOM     18  N   LIG d   1      -2.165  91.911 117.167  0.00  0.00     0.381 N 
ATOM     19  H   LIG d   1      -1.897  91.112 116.629  0.00  0.00    -0.090 HD
ATOM     20  H   LIG d   1      -2.009  91.705 118.138  0.00  0.00    -0.090 HD
ATOM     21  H   LIG d   1      -1.621  92.701 116.896  0.00  0.00    -0.090 HD
ENDBRANCH   5  18
BRANCH   3  22
ATOM     22  C   LIG d   1      -6.392  90.053 115.896  0.00  0.00     0.382 C 
ATOM     23  O   LIG d   1      -7.482  89.583 116.303  0.00  0.00    -0.241 OA
ATOM     24  O   LIG d   1      -5.919  89.657 114.814  0.00  0.00    -0.241 OA
ENDBRANCH   3  22
TORSDOF 7
ENDMDL
MODEL 3
REMARK VINA RESULT:      -4.9      2.114      4.452
REMARK  7 active torsions:
REMARK  status: ('A' for Active; 'I' for Inactive)
REMARK    1  A    between atoms: C_2  and  C_3 
REMARK    2  A    between atoms: C_3  and  O_6 
REMARK    3  A    between atoms: C_3  and  C_4 
REMARK    4  A    between atoms: C_7  and  O_6 
REMARK    5  A    between atoms: C_9  and  C_10 
REMARK    6  A    between atoms: N_15  and  C_14 
REMARK    7  A    between atoms: N_20  and  C_19 
REMARK       I    between atoms: C_22  and  N_20 
ROOT
ATOM      1  C   LIG d   1      -4.225  91.693 118.611  0.00  0.00     0.161 C 
ATOM      2  C   LIG d   1      -4.537  90.790 117.581  0.00  0.00     0.016 C 
ATOM      3  C   LIG d   1      -5.517  91.044 116.594  0.00  0.00     0.038 C 
ATOM      4  C   LIG d   1      -6.149  92.291 116.480  0.00  0.00     0.028 C 
ATOM      5  C   LIG d   1      -6.233  93.050 117.800  0.00  0.00    -0.047 C 
ATOM      6  C   LIG d   1      -4.825  93.104 118.437  0.00  0.00     0.091 C 
ENDROOT
BRANCH   1   7
ATOM      7  O   LIG d   1      -2.795  91.773 118.773  0.00  0.00    -0.368 OA
BRANCH   7   8
ATOM      8  C   LIG d   1      -2.027  91.979 117.562  0.00  0.00     0.119 C 
BRANCH   8   9
ATOM      9  C   LIG d   1      -0.827  91.013 117.606  0.00  0.00     0.028 C 
ATOM     10  C   LIG d   1      -1.029  89.785 116.702  0.00  0.00     0.006 C 
ENDBRANCH   8   9
BRANCH   8  11
ATOM     11  C   LIG d   1      -1.416  93.383 117.521  0.00  0.00     0.028 C 
ATOM     12  C   LIG d   1      -0.062  93.465 118.244  0.00  0.00     0.006 C 
ENDBRANCH   8  11
ENDBRANCH   7   8
ENDBRANCH   1   7
BRANCH   6  13
ATOM     13  N   LIG d   1      -4.832  93.757 119.773  0.00  0.00    -0.311 N 
ATOM     14  C   LIG d   1      -4.516  95.036 119.965  0.00  0.00     0.210 C 
ATOM     15  C   LIG d   1      -4.568  95.503 121.423  0.00  0.00     0.109 C 
ATOM     16  O   LIG d   1      -4.228  95.837 119.062  0.00  0.00    -0.276 OA
ATOM     17  H   LIG d   1      -5.085  93.188 120.557  0.00  0.00     0.149 HD
ENDBRANCH   6  13
BRANCH   5  18
ATOM     18  N   LIG d   1      -6.788  94.386 117.511  0.00  0.00     0.381 N 
ATOM     19  H   LIG d   1      -7.346  94.694 118.282  0.00  0.00    -0.090 HD
ATOM     20  H   LIG d   1      -7.377  94.324 116.700  0.00  0.00    -0.090 HD
ATOM     21  H   LIG d   1      -6.049  95.034 117.347  0.00  0.00    -0.090 HD
ENDBRANCH   5  18
BRANCH   3  22
ATOM     22  C   LIG d   1      -5.902  90.029 115.731  0.00  0.00     0.382 C 
ATOM     23  O   LIG d   1      -5.100  89.603 114.866  0.00  0.00    -0.241 OA
ATOM     24  O   LIG d   1      -7.057  89.564 115.778  0.00  0.00    -0.241 OA
ENDBRANCH   3  22
TORSDOF 7
ENDMDL
MODEL 4
REMARK VINA RESULT:      -4.8     14.625     16.371
REMARK  7 active torsions:
REMARK  status: ('A' for Active; 'I' for Inactive)
REMARK    1  A    between atoms: C_2  and  C_3 
REMARK    2  A    between atoms: C_3  and  O_6 
REMARK    3  A    between atoms: C_3  and  C_4 
REMARK    4  A    between atoms: C_7  and  O_6 
REMARK    5  A    between atoms: C_9  and  C_10 
REMARK    6  A    between atoms: N_15  and  C_14 
REMARK    7  A    between atoms: N_20  and  C_19 
REMARK       I    between atoms: C_22  and  N_20 
ROOT
ATOM      1  C   LIG d   1      -1.055  77.883 117.295  0.00  0.00     0.161 C 
ATOM      2  C   LIG d   1      -2.330  77.439 116.907  0.00  0.00     0.016 C 
ATOM      3  C   LIG d   1      -2.543  76.465 115.905  0.00  0.00     0.038 C 
ATOM      4  C   LIG d   1      -1.482  75.754 115.324  0.00  0.00     0.028 C 
ATOM      5  C   LIG d   1      -0.167  76.525 115.321  0.00  0.00    -0.047 C 
ATOM      6  C   LIG d   1       0.117  77.040 116.751  0.00  0.00     0.091 C 
ENDROOT
BRANCH   1   7
ATOM      7  O   LIG d   1      -0.984  77.972 118.732  0.00  0.00    -0.368 OA
BRANCH   7   8
ATOM      8  C   LIG d   1      -1.836  77.061 119.469  0.00  0.00     0.119 C 
BRANCH   8   9
ATOM      9  C   LIG d   1      -2.378  77.823 120.694  0.00  0.00     0.028 C 
ATOM     10  C   LIG d   1      -3.113  79.116 120.302  0.00  0.00     0.006 C 
ENDBRANCH   8   9
BRANCH   8  11
ATOM     11  C   LIG d   1      -1.034  75.889 120.043  0.00  0.00     0.028 C 
ATOM     12  C   LIG d   1      -1.206  74.595 119.231  0.00  0.00     0.006 C 
ENDBRANCH   8  11
ENDBRANCH   7   8
ENDBRANCH   1   7
BRANCH   6  13
ATOM     13  N   LIG d   1       1.344  77.876 116.819  0.00  0.00    -0.311 N 
ATOM     14  C   LIG d   1       2.267  77.746 117.770  0.00  0.00     0.210 C 
ATOM     15  C   LIG d   1       3.444  78.722 117.666  0.00  0.00     0.109 C 
ATOM     16  O   LIG d   1       2.240  76.894 118.671  0.00  0.00    -0.276 OA
ATOM     17  H   LIG d   1       1.461  78.572 116.109  0.00  0.00     0.149 HD
ENDBRANCH   6  13
BRANCH   5  18
ATOM     18  N   LIG d   1       0.881  75.618 114.814  0.00  0.00     0.381 N 
ATOM     19  H   LIG d   1       0.555  75.152 113.991  0.00  0.00    -0.090 HD
ATOM     20  H   LIG d   1       1.075  74.924 115.514  0.00  0.00    -0.090 HD
ATOM     21  H   LIG d   1       1.708  76.133 114.608  0.00  0.00    -0.090 HD
ENDBRANCH   5  18
BRANCH   3  22
ATOM     22  C   LIG d   1      -3.829  76.222 115.446  0.00  0.00     0.382 C 
ATOM     23  O   LIG d   1      -4.751  77.030 115.707  0.00  0.00    -0.241 OA
ATOM     24  O   LIG d   1      -4.086  75.181 114.810  0.00  0.00    -0.241 OA
ENDBRANCH   3  22
TORSDOF 7
ENDMDL
MODEL 5
REMARK VINA RESULT:      -4.6     14.609     16.802
REMARK  7 active torsions:
REMARK  status: ('A' for Active; 'I' for Inactive)
REMARK    1  A    between atoms: C_2  and  C_3 
REMARK    2  A    between atoms: C_3  and  O_6 
REMARK    3  A    between atoms: C_3  and  C_4 
REMARK    4  A    between atoms: C_7  and  O_6 
REMARK    5  A    between atoms: C_9  and  C_10 
REMARK    6  A    between atoms: N_15  and  C_14 
REMARK    7  A    between atoms: N_20  and  C_19 
REMARK       I    between atoms: C_22  and  N_20 
ROOT
ATOM      1  C   LIG d   1      -1.293  76.703 118.174  0.00  0.00     0.161 C 
ATOM      2  C   LIG d   1      -2.347  77.099 117.334  0.00  0.00     0.016 C 
ATOM      3  C   LIG d   1      -2.667  76.442 116.124  0.00  0.00     0.038 C 
ATOM      4  C   LIG d   1      -2.046  75.244 115.744  0.00  0.00     0.028 C 
ATOM      5  C   LIG d   1      -0.637  75.088 116.306  0.00  0.00    -0.047 C 
ATOM      6  C   LIG d   1      -0.675  75.331 117.832  0.00  0.00     0.091 C 
ENDROOT
BRANCH   1   7
ATOM      7  O   LIG d   1      -1.726  76.729 119.548  0.00  0.00    -0.368 OA
BRANCH   7   8
ATOM      8  C   LIG d   1      -1.186  77.795 120.367  0.00  0.00     0.119 C 
BRANCH   8   9
ATOM      9  C   LIG d   1      -2.307  78.831 120.576  0.00  0.00     0.028 C 
ATOM     10  C   LIG d   1      -2.126  80.078 119.693  0.00  0.00     0.006 C 
ENDBRANCH   8   9
BRANCH   8  11
ATOM     11  C   LIG d   1      -0.069  78.547 119.637  0.00  0.00     0.028 C 
ATOM     12  C   LIG d   1       1.294  78.414 120.334  0.00  0.00     0.006 C 
ENDBRANCH   8  11
ENDBRANCH   7   8
ENDBRANCH   1   7
BRANCH   6  13
ATOM     13  N   LIG d   1       0.677  75.280 118.448  0.00  0.00    -0.311 N 
ATOM     14  C   LIG d   1       0.930  74.685 119.611  0.00  0.00     0.210 C 
ATOM     15  C   LIG d   1       2.388  74.766 120.076  0.00  0.00     0.109 C 
ATOM     16  O   LIG d   1       0.093  74.069 120.288  0.00  0.00    -0.276 OA
ATOM     17  H   LIG d   1       1.422  75.728 117.951  0.00  0.00     0.149 HD
ENDBRANCH   6  13
BRANCH   5  18
ATOM     18  N   LIG d   1      -0.161  73.738 115.947  0.00  0.00     0.381 N 
ATOM     19  H   LIG d   1      -0.575  73.060 116.555  0.00  0.00    -0.090 HD
ATOM     20  H   LIG d   1       0.836  73.702 116.067  0.00  0.00    -0.090 HD
ATOM     21  H   LIG d   1      -0.396  73.534 115.001  0.00  0.00    -0.090 HD
ENDBRANCH   5  18
BRANCH   3  22
ATOM     22  C   LIG d   1      -3.593  77.007 115.260  0.00  0.00     0.382 C 
ATOM     23  O   LIG d   1      -4.577  76.335 114.868  0.00  0.00    -0.241 OA
ATOM     24  O   LIG d   1      -3.432  78.166 114.832  0.00  0.00    -0.241 OA
ENDBRANCH   3  22
TORSDOF 7
ENDMDL
MODEL 6
REMARK VINA RESULT:      -4.6      2.545      5.345
REMARK  7 active torsions:
REMARK  status: ('A' for Active; 'I' for Inactive)
REMARK    1  A    between atoms: C_2  and  C_3 
REMARK    2  A    between atoms: C_3  and  O_6 
REMARK    3  A    between atoms: C_3  and  C_4 
REMARK    4  A    between atoms: C_7  and  O_6 
REMARK    5  A    between atoms: C_9  and  C_10 
REMARK    6  A    between atoms: N_15  and  C_14 
REMARK    7  A    between atoms: N_20  and  C_19 
REMARK       I    between atoms: C_22  and  N_20 
ROOT
ATOM      1  C   LIG d   1      -3.056  92.853 117.828  0.00  0.00     0.161 C 
ATOM      2  C   LIG d   1      -3.915  93.473 118.751  0.00  0.00     0.016 C 
ATOM      3  C   LIG d   1      -3.617  94.700 119.388  0.00  0.00     0.038 C 
ATOM      4  C   LIG d   1      -2.501  95.470 119.029  0.00  0.00     0.028 C 
ATOM      5  C   LIG d   1      -1.349  94.643 118.469  0.00  0.00    -0.047 C 
ATOM      6  C   LIG d   1      -1.887  93.733 117.341  0.00  0.00     0.091 C 
ENDROOT
BRANCH   1   7
ATOM      7  O   LIG d   1      -3.817  92.364 116.706  0.00  0.00    -0.368 OA
BRANCH   7   8
ATOM      8  C   LIG d   1      -4.369  91.031 116.842  0.00  0.00     0.119 C 
BRANCH   8   9
ATOM      9  C   LIG d   1      -3.289  90.034 116.381  0.00  0.00     0.028 C 
ATOM     10  C   LIG d   1      -2.749  89.176 117.538  0.00  0.00     0.006 C 
ENDBRANCH   8   9
BRANCH   8  11
ATOM     11  C   LIG d   1      -5.551  90.818 115.892  0.00  0.00     0.028 C 
ATOM     12  C   LIG d   1      -6.068  92.130 115.280  0.00  0.00     0.006 C 
ENDBRANCH   8  11
ENDBRANCH   7   8
ENDBRANCH   1   7
BRANCH   6  13
ATOM     13  N   LIG d   1      -0.841  92.830 116.795  0.00  0.00    -0.311 N 
ATOM     14  C   LIG d   1      -0.205  91.917 117.527  0.00  0.00     0.210 C 
ATOM     15  C   LIG d   1       0.851  91.103 116.773  0.00  0.00     0.109 C 
ATOM     16  O   LIG d   1      -0.439  91.681 118.722  0.00  0.00    -0.276 OA
ATOM     17  H   LIG d   1      -0.611  92.931 115.825  0.00  0.00     0.149 HD
ENDBRANCH   6  13
BRANCH   5  18
ATOM     18  N   LIG d   1      -0.309  95.582 118.008  0.00  0.00     0.381 N 
ATOM     19  H   LIG d   1       0.155  95.206 117.206  0.00  0.00    -0.090 HD
ATOM     20  H   LIG d   1       0.370  95.699 118.740  0.00  0.00    -0.090 HD
ATOM     21  H   LIG d   1      -0.719  96.462 117.782  0.00  0.00    -0.090 HD
ENDBRANCH   5  18
BRANCH   3  22
ATOM     22  C   LIG d   1      -4.421  95.148 120.426  0.00  0.00     0.382 C 
ATOM     23  O   LIG d   1      -5.504  94.566 120.676  0.00  0.00    -0.241 OA
ATOM     24  O   LIG d   1      -4.097  96.153 121.086  0.00  0.00    -0.241 OA
ENDBRANCH   3  22
TORSDOF 7
ENDMDL
MODEL 7
REMARK VINA RESULT:      -4.5      3.181      7.076
REMARK  7 active torsions:
REMARK  status: ('A' for Active; 'I' for Inactive)
REMARK    1  A    between atoms: C_2  and  C_3 
REMARK    2  A    between atoms: C_3  and  O_6 
REMARK    3  A    between atoms: C_3  and  C_4 
REMARK    4  A    between atoms: C_7  and  O_6 
REMARK    5  A    between atoms: C_9  and  C_10 
REMARK    6  A    between atoms: N_15  and  C_14 
REMARK    7  A    between atoms: N_20  and  C_19 
REMARK       I    between atoms: C_22  and  N_20 
ROOT
ATOM      1  C   LIG d   1      -0.948  91.910 117.416  0.00  0.00     0.161 C 
ATOM      2  C   LIG d   1       0.325  91.464 117.023  0.00  0.00     0.016 C 
ATOM      3  C   LIG d   1       1.528  92.078 117.442  0.00  0.00     0.038 C 
ATOM      4  C   LIG d   1       1.545  93.094 118.409  0.00  0.00     0.028 C 
ATOM      5  C   LIG d   1       0.258  93.911 118.451  0.00  0.00    -0.047 C 
ATOM      6  C   LIG d   1      -0.946  92.947 118.558  0.00  0.00     0.091 C 
ENDROOT
BRANCH   1   7
ATOM      7  O   LIG d   1      -1.775  90.782 117.764  0.00  0.00    -0.368 OA
BRANCH   7   8
ATOM      8  C   LIG d   1      -2.164  89.915 116.671  0.00  0.00     0.119 C 
BRANCH   8   9
ATOM      9  C   LIG d   1      -3.677  90.102 116.448  0.00  0.00     0.028 C 
ATOM     10  C   LIG d   1      -4.356  90.839 117.615  0.00  0.00     0.006 C 
ENDBRANCH   8   9
BRANCH   8  11
ATOM     11  C   LIG d   1      -1.988  88.439 117.040  0.00  0.00     0.028 C 
ATOM     12  C   LIG d   1      -1.977  88.202 118.559  0.00  0.00     0.006 C 
ENDBRANCH   8  11
ENDBRANCH   7   8
ENDBRANCH   1   7
BRANCH   6  13
ATOM     13  N   LIG d   1      -2.249  93.661 118.520  0.00  0.00    -0.311 N 
ATOM     14  C   LIG d   1      -2.914  94.031 119.613  0.00  0.00     0.210 C 
ATOM     15  C   LIG d   1      -4.248  94.737 119.350  0.00  0.00     0.109 C 
ATOM     16  O   LIG d   1      -2.511  93.870 120.775  0.00  0.00    -0.276 OA
ATOM     17  H   LIG d   1      -2.634  93.860 117.618  0.00  0.00     0.149 HD
ENDBRANCH   6  13
BRANCH   5  18
ATOM     18  N   LIG d   1       0.358  94.841 119.592  0.00  0.00     0.381 N 
ATOM     19  H   LIG d   1      -0.543  95.226 119.795  0.00  0.00    -0.090 HD
ATOM     20  H   LIG d   1       0.974  95.595 119.343  0.00  0.00    -0.090 HD
ATOM     21  H   LIG d   1       0.711  94.363 120.391  0.00  0.00    -0.090 HD
ENDBRANCH   5  18
BRANCH   3  22
ATOM     22  C   LIG d   1       2.730  91.702 116.860  0.00  0.00     0.382 C 
ATOM     23  O   LIG d   1       2.868  90.544 116.399  0.00  0.00    -0.241 OA
ATOM     24  O   LIG d   1       3.692  92.493 116.832  0.00  0.00    -0.241 OA
ENDBRANCH   3  22
TORSDOF 7
ENDMDL
MODEL 8
REMARK VINA RESULT:      -4.5     13.533     15.668
REMARK  7 active torsions:
REMARK  status: ('A' for Active; 'I' for Inactive)
REMARK    1  A    between atoms: C_2  and  C_3 
REMARK    2  A    between atoms: C_3  and  O_6 
REMARK    3  A    between atoms: C_3  and  C_4 
REMARK    4  A    between atoms: C_7  and  O_6 
REMARK    5  A    between atoms: C_9  and  C_10 
REMARK    6  A    between atoms: N_15  and  C_14 
REMARK    7  A    between atoms: N_20  and  C_19 
REMARK       I    between atoms: C_22  and  N_20 
ROOT
ATOM      1  C   LIG d   1      -0.802  78.207 116.088  0.00  0.00     0.161 C 
ATOM      2  C   LIG d   1      -2.131  77.866 115.787  0.00  0.00     0.016 C 
ATOM      3  C   LIG d   1      -2.665  76.571 115.978  0.00  0.00     0.038 C 
ATOM      4  C   LIG d   1      -1.942  75.560 116.629  0.00  0.00     0.028 C 
ATOM      5  C   LIG d   1      -0.430  75.712 116.491  0.00  0.00    -0.047 C 
ATOM      6  C   LIG d   1      -0.031  77.147 116.902  0.00  0.00     0.091 C 
ENDROOT
BRANCH   1   7
ATOM      7  O   LIG d   1      -0.765  79.481 116.762  0.00  0.00    -0.368 OA
BRANCH   7   8
ATOM      8  C   LIG d   1      -0.665  79.435 118.206  0.00  0.00     0.119 C 
BRANCH   8   9
ATOM      9  C   LIG d   1      -2.085  79.627 118.774  0.00  0.00     0.028 C 
ATOM     10  C   LIG d   1      -2.594  78.378 119.514  0.00  0.00     0.006 C 
ENDBRANCH   8   9
BRANCH   8  11
ATOM     11  C   LIG d   1       0.150  80.614 118.746  0.00  0.00     0.028 C 
ATOM     12  C   LIG d   1      -0.731  81.729 119.332  0.00  0.00     0.006 C 
ENDBRANCH   8  11
ENDBRANCH   7   8
ENDBRANCH   1   7
BRANCH   6  13
ATOM     13  N   LIG d   1       1.421  77.407 116.716  0.00  0.00    -0.311 N 
ATOM     14  C   LIG d   1       2.307  77.360 117.710  0.00  0.00     0.210 C 
ATOM     15  C   LIG d   1       3.749  77.679 117.305  0.00  0.00     0.109 C 
ATOM     16  O   LIG d   1       2.040  77.053 118.882  0.00  0.00    -0.276 OA
ATOM     17  H   LIG d   1       1.729  77.632 115.791  0.00  0.00     0.149 HD
ENDBRANCH   6  13
BRANCH   5  18
ATOM     18  N   LIG d   1       0.200  74.674 117.329  0.00  0.00     0.381 N 
ATOM     19  H   LIG d   1       1.103  74.983 117.628  0.00  0.00    -0.090 HD
ATOM     20  H   LIG d   1       0.317  73.840 116.781  0.00  0.00    -0.090 HD
ATOM     21  H   LIG d   1      -0.373  74.481 118.122  0.00  0.00    -0.090 HD
ENDBRANCH   5  18
BRANCH   3  22
ATOM     22  C   LIG d   1      -3.922  76.265 115.480  0.00  0.00     0.382 C 
ATOM     23  O   LIG d   1      -4.898  77.007 115.743  0.00  0.00    -0.241 OA
ATOM     24  O   LIG d   1      -4.100  75.232 114.807  0.00  0.00    -0.241 OA
ENDBRANCH   3  22
TORSDOF 7
ENDMDL
MODEL 9
REMARK VINA RESULT:      -4.4      4.139      8.179
REMARK  7 active torsions:
REMARK  status: ('A' for Active; 'I' for Inactive)
REMARK    1  A    between atoms: C_2  and  C_3 
REMARK    2  A    between atoms: C_3  and  O_6 
REMARK    3  A    between atoms: C_3  and  C_4 
REMARK    4  A    between atoms: C_7  and  O_6 
REMARK    5  A    between atoms: C_9  and  C_10 
REMARK    6  A    between atoms: N_15  and  C_14 
REMARK    7  A    between atoms: N_20  and  C_19 
REMARK       I    between atoms: C_22  and  N_20 
ROOT
ATOM      1  C   LIG d   1       0.503  91.061 116.414  0.00  0.00     0.161 C 
ATOM      2  C   LIG d   1       1.906  91.026 116.463  0.00  0.00     0.016 C 
ATOM      3  C   LIG d   1       2.675  91.836 117.331  0.00  0.00     0.038 C 
ATOM      4  C   LIG d   1       2.082  92.633 118.321  0.00  0.00     0.028 C 
ATOM      5  C   LIG d   1       0.666  93.081 117.972  0.00  0.00    -0.047 C 
ATOM      6  C   LIG d   1      -0.165  91.843 117.565  0.00  0.00     0.091 C 
ENDROOT
BRANCH   1   7
ATOM      7  O   LIG d   1      -0.018  89.719 116.352  0.00  0.00    -0.368 OA
BRANCH   7   8
ATOM      8  C   LIG d   1       0.001  88.970 117.592  0.00  0.00     0.119 C 
BRANCH   8   9
ATOM      9  C   LIG d   1       0.933  87.759 117.388  0.00  0.00     0.028 C 
ATOM     10  C   LIG d   1       0.843  87.184 115.964  0.00  0.00     0.006 C 
ENDBRANCH   8   9
BRANCH   8  11
ATOM     11  C   LIG d   1      -1.375  88.375 117.905  0.00  0.00     0.028 C 
ATOM     12  C   LIG d   1      -2.424  88.704 116.832  0.00  0.00     0.006 C 
ENDBRANCH   8  11
ENDBRANCH   7   8
ENDBRANCH   1   7
BRANCH   6  13
ATOM     13  N   LIG d   1      -1.539  92.202 117.126  0.00  0.00    -0.311 N 
ATOM     14  C   LIG d   1      -2.598  92.170 117.933  0.00  0.00     0.210 C 
ATOM     15  C   LIG d   1      -3.925  92.559 117.274  0.00  0.00     0.109 C 
ATOM     16  O   LIG d   1      -2.560  91.887 119.140  0.00  0.00    -0.276 OA
ATOM     17  H   LIG d   1      -1.656  92.474 116.170  0.00  0.00     0.149 HD
ENDBRANCH   6  13
BRANCH   5  18
ATOM     18  N   LIG d   1       0.119  93.785 119.146  0.00  0.00     0.381 N 
ATOM     19  H   LIG d   1       0.319  94.763 119.079  0.00  0.00    -0.090 HD
ATOM     20  H   LIG d   1       0.561  93.428 119.975  0.00  0.00    -0.090 HD
ATOM     21  H   LIG d   1      -0.866  93.644 119.200  0.00  0.00    -0.090 HD
ENDBRANCH   5  18
BRANCH   3  22
ATOM     22  C   LIG d   1       4.053  91.885 117.185  0.00  0.00     0.382 C 
ATOM     23  O   LIG d   1       4.753  92.489 118.033  0.00  0.00    -0.241 OA
ATOM     24  O   LIG d   1       4.601  91.369 116.192  0.00  0.00    -0.241 OA
ENDBRANCH   3  22
TORSDOF 7
ENDMDL
