MODEL 1
REMARK VINA RESULT:      -5.7      0.000      0.000
REMARK  7 active torsions:
REMARK  status: ('A' for Active; 'I' for Inactive)
REMARK    1  A    between atoms: C_2  and  C_3 
REMARK    2  A    between atoms: C_3  and  O_6 
REMARK    3  A    between atoms: C_3  and  C_4 
REMARK    4  A    between atoms: C_7  and  O_6 
REMARK    5  A    between atoms: C_9  and  C_10 
REMARK    6  A    between atoms: N_15  and  C_14 
REMARK    7  A    between atoms: N_20  and  C_19 
REMARK       I    between atoms: C_22  and  N_20 
ROOT
ATOM      1  C   LIG d   1      -9.518  77.439 118.551  0.00  0.00     0.161 C 
ATOM      2  C   LIG d   1      -8.339  77.596 117.804  0.00  0.00     0.016 C 
ATOM      3  C   LIG d   1      -7.834  76.607 116.929  0.00  0.00     0.038 C 
ATOM      4  C   LIG d   1      -8.559  75.445 116.626  0.00  0.00     0.028 C 
ATOM      5  C   LIG d   1      -9.508  75.016 117.739  0.00  0.00    -0.047 C 
ATOM      6  C   LIG d   1     -10.381  76.224 118.149  0.00  0.00     0.091 C 
ENDROOT
BRANCH   1   7
ATOM      7  O   LIG d   1     -10.299  78.649 118.493  0.00  0.00    -0.368 OA
BRANCH   7   8
ATOM      8  C   LIG d   1      -9.555  79.891 118.552  0.00  0.00     0.119 C 
BRANCH   8   9
ATOM      9  C   LIG d   1      -9.636  80.411 120.000  0.00  0.00     0.028 C 
ATOM     10  C   LIG d   1      -8.288  80.319 120.734  0.00  0.00     0.006 C 
ENDBRANCH   8   9
BRANCH   8  11
ATOM     11  C   LIG d   1     -10.212  80.976 117.693  0.00  0.00     0.028 C 
ATOM     12  C   LIG d   1      -9.302  82.195 117.475  0.00  0.00     0.006 C 
ENDBRANCH   8  11
ENDBRANCH   7   8
ENDBRANCH   1   7
BRANCH   6  13
ATOM     13  N   LIG d   1     -11.280  75.914 119.290  0.00  0.00    -0.311 N 
ATOM     14  C   LIG d   1     -12.538  75.503 119.142  0.00  0.00     0.210 C 
ATOM     15  C   LIG d   1     -13.297  75.257 120.450  0.00  0.00     0.109 C 
ATOM     16  O   LIG d   1     -13.088  75.288 118.052  0.00  0.00    -0.276 OA
ATOM     17  H   LIG d   1     -10.905  76.031 120.211  0.00  0.00     0.149 HD
ENDBRANCH   6  13
BRANCH   5  18
ATOM     18  N   LIG d   1     -10.298  73.876 117.236  0.00  0.00     0.381 N 
ATOM     19  H   LIG d   1     -11.238  73.940 117.574  0.00  0.00    -0.090 HD
ATOM     20  H   LIG d   1      -9.896  73.023 117.584  0.00  0.00    -0.090 HD
ATOM     21  H   LIG d   1     -10.295  73.872 116.240  0.00  0.00    -0.090 HD
ENDBRANCH   5  18
BRANCH   3  22
ATOM     22  C   LIG d   1      -6.570  76.757 116.378  0.00  0.00     0.382 C 
ATOM     23  O   LIG d   1      -5.954  75.756 115.941  0.00  0.00    -0.241 OA
ATOM     24  O   LIG d   1      -6.020  77.875 116.354  0.00  0.00    -0.241 OA
ENDBRANCH   3  22
TORSDOF 7
ENDMDL
MODEL 2
REMARK VINA RESULT:      -5.6     14.151     17.082
REMARK  7 active torsions:
REMARK  status: ('A' for Active; 'I' for Inactive)
REMARK    1  A    between atoms: C_2  and  C_3 
REMARK    2  A    between atoms: C_3  and  O_6 
REMARK    3  A    between atoms: C_3  and  C_4 
REMARK    4  A    between atoms: C_7  and  O_6 
REMARK    5  A    between atoms: C_9  and  C_10 
REMARK    6  A    between atoms: N_15  and  C_14 
REMARK    7  A    between atoms: N_20  and  C_19 
REMARK       I    between atoms: C_22  and  N_20 
ROOT
ATOM      1  C   LIG d   1      -6.515  93.562 117.814  0.00  0.00     0.161 C 
ATOM      2  C   LIG d   1      -7.060  92.448 117.154  0.00  0.00     0.016 C 
ATOM      3  C   LIG d   1      -6.282  91.362 116.689  0.00  0.00     0.038 C 
ATOM      4  C   LIG d   1      -4.917  91.246 116.988  0.00  0.00     0.028 C 
ATOM      5  C   LIG d   1      -4.230  92.589 117.213  0.00  0.00    -0.047 C 
ATOM      6  C   LIG d   1      -5.043  93.401 118.248  0.00  0.00     0.091 C 
ENDROOT
BRANCH   1   7
ATOM      7  O   LIG d   1      -7.336  93.908 118.947  0.00  0.00    -0.368 OA
BRANCH   7   8
ATOM      8  C   LIG d   1      -8.320  94.948 118.727  0.00  0.00     0.119 C 
BRANCH   8   9
ATOM      9  C   LIG d   1      -7.649  96.296 119.055  0.00  0.00     0.028 C 
ATOM     10  C   LIG d   1      -7.462  97.178 117.809  0.00  0.00     0.006 C 
ENDBRANCH   8   9
BRANCH   8  11
ATOM     11  C   LIG d   1      -9.488  94.827 119.710  0.00  0.00     0.028 C 
ATOM     12  C   LIG d   1      -9.032  94.492 121.139  0.00  0.00     0.006 C 
ENDBRANCH   8  11
ENDBRANCH   7   8
ENDBRANCH   1   7
BRANCH   6  13
ATOM     13  N   LIG d   1      -4.486  94.761 118.464  0.00  0.00    -0.311 N 
ATOM     14  C   LIG d   1      -3.617  95.053 119.430  0.00  0.00     0.210 C 
ATOM     15  C   LIG d   1      -3.185  96.521 119.489  0.00  0.00     0.109 C 
ATOM     16  O   LIG d   1      -3.137  94.228 120.223  0.00  0.00    -0.276 OA
ATOM     17  H   LIG d   1      -4.797  95.485 117.846  0.00  0.00     0.149 HD
ENDBRANCH   6  13
BRANCH   5  18
ATOM     18  N   LIG d   1      -2.848  92.314 117.651  0.00  0.00     0.381 N 
ATOM     19  H   LIG d   1      -2.366  93.176 117.810  0.00  0.00    -0.090 HD
ATOM     20  H   LIG d   1      -2.369  91.815 116.922  0.00  0.00    -0.090 HD
ATOM     21  H   LIG d   1      -2.856  91.771 118.486  0.00  0.00    -0.090 HD
ENDBRANCH   5  18
BRANCH   3  22
ATOM     22  C   LIG d   1      -6.864  90.397 115.880  0.00  0.00     0.382 C 
ATOM     23  O   LIG d   1      -8.102  90.199 115.932  0.00  0.00    -0.241 OA
ATOM     24  O   LIG d   1      -6.161  89.692 115.133  0.00  0.00    -0.241 OA
ENDBRANCH   3  22
TORSDOF 7
ENDMDL
MODEL 3
REMARK VINA RESULT:      -5.5     14.177     16.851
REMARK  7 active torsions:
REMARK  status: ('A' for Active; 'I' for Inactive)
REMARK    1  A    between atoms: C_2  and  C_3 
REMARK    2  A    between atoms: C_3  and  O_6 
REMARK    3  A    between atoms: C_3  and  C_4 
REMARK    4  A    between atoms: C_7  and  O_6 
REMARK    5  A    between atoms: C_9  and  C_10 
REMARK    6  A    between atoms: N_15  and  C_14 
REMARK    7  A    between atoms: N_20  and  C_19 
REMARK       I    between atoms: C_22  and  N_20 
ROOT
ATOM      1  C   LIG d   1      -4.702  92.544 117.663  0.00  0.00     0.161 C 
ATOM      2  C   LIG d   1      -4.878  91.519 116.718  0.00  0.00     0.016 C 
ATOM      3  C   LIG d   1      -6.090  91.300 116.024  0.00  0.00     0.038 C 
ATOM      4  C   LIG d   1      -7.170  92.190 116.118  0.00  0.00     0.028 C 
ATOM      5  C   LIG d   1      -7.215  92.950 117.439  0.00  0.00    -0.047 C 
ATOM      6  C   LIG d   1      -5.833  93.593 117.697  0.00  0.00     0.091 C 
ENDROOT
BRANCH   1   7
ATOM      7  O   LIG d   1      -3.429  93.186 117.456  0.00  0.00    -0.368 OA
BRANCH   7   8
ATOM      8  C   LIG d   1      -2.321  92.669 118.233  0.00  0.00     0.119 C 
BRANCH   8   9
ATOM      9  C   LIG d   1      -2.592  93.011 119.711  0.00  0.00     0.028 C 
ATOM     10  C   LIG d   1      -2.081  94.411 120.093  0.00  0.00     0.006 C 
ENDBRANCH   8   9
BRANCH   8  11
ATOM     11  C   LIG d   1      -1.013  93.386 117.884  0.00  0.00     0.028 C 
ATOM     12  C   LIG d   1       0.173  92.421 117.728  0.00  0.00     0.006 C 
ENDBRANCH   8  11
ENDBRANCH   7   8
ENDBRANCH   1   7
BRANCH   6  13
ATOM     13  N   LIG d   1      -5.766  94.285 119.010  0.00  0.00    -0.311 N 
ATOM     14  C   LIG d   1      -6.048  95.576 119.174  0.00  0.00     0.210 C 
ATOM     15  C   LIG d   1      -5.896  96.095 120.607  0.00  0.00     0.109 C 
ATOM     16  O   LIG d   1      -6.441  96.334 118.274  0.00  0.00    -0.276 OA
ATOM     17  H   LIG d   1      -5.486  93.737 119.800  0.00  0.00     0.149 HD
ENDBRANCH   6  13
BRANCH   5  18
ATOM     18  N   LIG d   1      -8.305  93.939 117.348  0.00  0.00     0.381 N 
ATOM     19  H   LIG d   1      -9.177  93.470 117.198  0.00  0.00    -0.090 HD
ATOM     20  H   LIG d   1      -8.133  94.541 116.562  0.00  0.00    -0.090 HD
ATOM     21  H   LIG d   1      -8.349  94.478 118.185  0.00  0.00    -0.090 HD
ENDBRANCH   5  18
BRANCH   3  22
ATOM     22  C   LIG d   1      -6.244  90.156 115.255  0.00  0.00     0.382 C 
ATOM     23  O   LIG d   1      -7.375  89.851 114.806  0.00  0.00    -0.241 OA
ATOM     24  O   LIG d   1      -5.276  89.403 115.042  0.00  0.00    -0.241 OA
ENDBRANCH   3  22
TORSDOF 7
ENDMDL
MODEL 4
REMARK VINA RESULT:      -5.5      2.491      4.994
REMARK  7 active torsions:
REMARK  status: ('A' for Active; 'I' for Inactive)
REMARK    1  A    between atoms: C_2  and  C_3 
REMARK    2  A    between atoms: C_3  and  O_6 
REMARK    3  A    between atoms: C_3  and  C_4 
REMARK    4  A    between atoms: C_7  and  O_6 
REMARK    5  A    between atoms: C_9  and  C_10 
REMARK    6  A    between atoms: N_15  and  C_14 
REMARK    7  A    between atoms: N_20  and  C_19 
REMARK       I    between atoms: C_22  and  N_20 
ROOT
ATOM      1  C   LIG d   1      -7.989  75.121 117.048  0.00  0.00     0.161 C 
ATOM      2  C   LIG d   1      -7.980  73.766 116.677  0.00  0.00     0.016 C 
ATOM      3  C   LIG d   1      -8.859  72.803 117.223  0.00  0.00     0.038 C 
ATOM      4  C   LIG d   1      -9.916  73.162 118.073  0.00  0.00     0.028 C 
ATOM      5  C   LIG d   1      -9.649  74.437 118.866  0.00  0.00    -0.047 C 
ATOM      6  C   LIG d   1      -9.207  75.552 117.891  0.00  0.00     0.091 C 
ENDROOT
BRANCH   1   7
ATOM      7  O   LIG d   1      -7.873  75.950 115.875  0.00  0.00    -0.368 OA
BRANCH   7   8
ATOM      8  C   LIG d   1      -6.564  76.518 115.622  0.00  0.00     0.119 C 
BRANCH   8   9
ATOM      9  C   LIG d   1      -5.762  75.486 114.805  0.00  0.00     0.028 C 
ATOM     10  C   LIG d   1      -4.394  75.174 115.436  0.00  0.00     0.006 C 
ENDBRANCH   8   9
BRANCH   8  11
ATOM     11  C   LIG d   1      -5.778  76.705 116.923  0.00  0.00     0.028 C 
ATOM     12  C   LIG d   1      -5.782  78.160 117.418  0.00  0.00     0.006 C 
ENDBRANCH   8  11
ENDBRANCH   7   8
ENDBRANCH   1   7
BRANCH   6  13
ATOM     13  N   LIG d   1      -8.845  76.810 118.595  0.00  0.00    -0.311 N 
ATOM     14  C   LIG d   1      -9.724  77.769 118.882  0.00  0.00     0.210 C 
ATOM     15  C   LIG d   1      -9.137  78.992 119.593  0.00  0.00     0.109 C 
ATOM     16  O   LIG d   1     -10.940  77.708 118.643  0.00  0.00    -0.276 OA
ATOM     17  H   LIG d   1      -7.885  76.928 118.853  0.00  0.00     0.149 HD
ENDBRANCH   6  13
BRANCH   5  18
ATOM     18  N   LIG d   1     -10.882  74.769 119.604  0.00  0.00     0.381 N 
ATOM     19  H   LIG d   1     -11.467  75.355 119.041  0.00  0.00    -0.090 HD
ATOM     20  H   LIG d   1     -10.637  75.276 120.436  0.00  0.00    -0.090 HD
ATOM     21  H   LIG d   1     -11.370  73.935 119.846  0.00  0.00    -0.090 HD
ENDBRANCH   5  18
BRANCH   3  22
ATOM     22  C   LIG d   1      -8.661  71.458 116.950  0.00  0.00     0.382 C 
ATOM     23  O   LIG d   1      -9.419  70.597 117.458  0.00  0.00    -0.241 OA
ATOM     24  O   LIG d   1      -7.706  71.092 116.239  0.00  0.00    -0.241 OA
ENDBRANCH   3  22
TORSDOF 7
ENDMDL
MODEL 5
REMARK VINA RESULT:      -5.3     14.543     16.652
REMARK  7 active torsions:
REMARK  status: ('A' for Active; 'I' for Inactive)
REMARK    1  A    between atoms: C_2  and  C_3 
REMARK    2  A    between atoms: C_3  and  O_6 
REMARK    3  A    between atoms: C_3  and  C_4 
REMARK    4  A    between atoms: C_7  and  O_6 
REMARK    5  A    between atoms: C_9  and  C_10 
REMARK    6  A    between atoms: N_15  and  C_14 
REMARK    7  A    between atoms: N_20  and  C_19 
REMARK       I    between atoms: C_22  and  N_20 
ROOT
ATOM      1  C   LIG d   1      -4.383  91.944 117.879  0.00  0.00     0.161 C 
ATOM      2  C   LIG d   1      -4.957  91.148 116.874  0.00  0.00     0.016 C 
ATOM      3  C   LIG d   1      -6.069  91.554 116.100  0.00  0.00     0.038 C 
ATOM      4  C   LIG d   1      -6.590  92.854 116.176  0.00  0.00     0.028 C 
ATOM      5  C   LIG d   1      -6.364  93.519 117.530  0.00  0.00    -0.047 C 
ATOM      6  C   LIG d   1      -4.868  93.409 117.900  0.00  0.00     0.091 C 
ENDROOT
BRANCH   1   7
ATOM      7  O   LIG d   1      -2.946  91.893 117.780  0.00  0.00    -0.368 OA
BRANCH   7   8
ATOM      8  C   LIG d   1      -2.304  90.754 118.405  0.00  0.00     0.119 C 
BRANCH   8   9
ATOM      9  C   LIG d   1      -2.516  90.880 119.926  0.00  0.00     0.028 C 
ATOM     10  C   LIG d   1      -1.422  91.722 120.604  0.00  0.00     0.006 C 
ENDBRANCH   8   9
BRANCH   8  11
ATOM     11  C   LIG d   1      -0.786  90.790 118.203  0.00  0.00     0.028 C 
ATOM     12  C   LIG d   1      -0.283  89.679 117.268  0.00  0.00     0.006 C 
ENDBRANCH   8  11
ENDBRANCH   7   8
ENDBRANCH   1   7
BRANCH   6  13
ATOM     13  N   LIG d   1      -4.575  93.960 119.249  0.00  0.00    -0.311 N 
ATOM     14  C   LIG d   1      -3.526  94.737 119.511  0.00  0.00     0.210 C 
ATOM     15  C   LIG d   1      -3.399  95.180 120.972  0.00  0.00     0.109 C 
ATOM     16  O   LIG d   1      -2.706  95.128 118.667  0.00  0.00    -0.276 OA
ATOM     17  H   LIG d   1      -5.207  93.718 119.987  0.00  0.00     0.149 HD
ENDBRANCH   6  13
BRANCH   5  18
ATOM     18  N   LIG d   1      -6.833  94.914 117.425  0.00  0.00     0.381 N 
ATOM     19  H   LIG d   1      -6.060  95.516 117.224  0.00  0.00    -0.090 HD
ATOM     20  H   LIG d   1      -7.228  95.191 118.307  0.00  0.00    -0.090 HD
ATOM     21  H   LIG d   1      -7.519  94.990 116.707  0.00  0.00    -0.090 HD
ENDBRANCH   5  18
BRANCH   3  22
ATOM     22  C   LIG d   1      -6.696  90.641 115.266  0.00  0.00     0.382 C 
ATOM     23  O   LIG d   1      -7.836  90.892 114.805  0.00  0.00    -0.241 OA
ATOM     24  O   LIG d   1      -6.155  89.550 115.004  0.00  0.00    -0.241 OA
ENDBRANCH   3  22
TORSDOF 7
ENDMDL
MODEL 6
REMARK VINA RESULT:      -5.3      2.363      4.985
REMARK  7 active torsions:
REMARK  status: ('A' for Active; 'I' for Inactive)
REMARK    1  A    between atoms: C_2  and  C_3 
REMARK    2  A    between atoms: C_3  and  O_6 
REMARK    3  A    between atoms: C_3  and  C_4 
REMARK    4  A    between atoms: C_7  and  O_6 
REMARK    5  A    between atoms: C_9  and  C_10 
REMARK    6  A    between atoms: N_15  and  C_14 
REMARK    7  A    between atoms: N_20  and  C_19 
REMARK       I    between atoms: C_22  and  N_20 
ROOT
ATOM      1  C   LIG d   1      -8.446  76.207 117.132  0.00  0.00     0.161 C 
ATOM      2  C   LIG d   1      -7.529  75.376 116.468  0.00  0.00     0.016 C 
ATOM      3  C   LIG d   1      -6.182  75.734 116.234  0.00  0.00     0.038 C 
ATOM      4  C   LIG d   1      -5.617  76.894 116.785  0.00  0.00     0.028 C 
ATOM      5  C   LIG d   1      -6.632  78.004 117.033  0.00  0.00    -0.047 C 
ATOM      6  C   LIG d   1      -7.819  77.428 117.838  0.00  0.00     0.091 C 
ENDROOT
BRANCH   1   7
ATOM      7  O   LIG d   1      -9.221  75.431 118.067  0.00  0.00    -0.368 OA
BRANCH   7   8
ATOM      8  C   LIG d   1     -10.419  74.809 117.540  0.00  0.00     0.119 C 
BRANCH   8   9
ATOM      9  C   LIG d   1     -11.629  75.533 118.163  0.00  0.00     0.028 C 
ATOM     10  C   LIG d   1     -11.325  76.082 119.566  0.00  0.00     0.006 C 
ENDBRANCH   8   9
BRANCH   8  11
ATOM     11  C   LIG d   1     -10.538  73.352 117.998  0.00  0.00     0.028 C 
ATOM     12  C   LIG d   1      -9.689  72.390 117.153  0.00  0.00     0.006 C 
ENDBRANCH   8  11
ENDBRANCH   7   8
ENDBRANCH   1   7
BRANCH   6  13
ATOM     13  N   LIG d   1      -8.898  78.427 118.051  0.00  0.00    -0.311 N 
ATOM     14  C   LIG d   1      -9.018  79.150 119.163  0.00  0.00     0.210 C 
ATOM     15  C   LIG d   1     -10.213  80.109 119.185  0.00  0.00     0.109 C 
ATOM     16  O   LIG d   1      -8.230  79.112 120.120  0.00  0.00    -0.276 OA
ATOM     17  H   LIG d   1      -9.563  78.545 117.312  0.00  0.00     0.149 HD
ENDBRANCH   6  13
BRANCH   5  18
ATOM     18  N   LIG d   1      -5.934  79.098 117.735  0.00  0.00     0.381 N 
ATOM     19  H   LIG d   1      -5.468  79.683 117.071  0.00  0.00    -0.090 HD
ATOM     20  H   LIG d   1      -5.243  78.702 118.347  0.00  0.00    -0.090 HD
ATOM     21  H   LIG d   1      -6.587  79.635 118.262  0.00  0.00    -0.090 HD
ENDBRANCH   5  18
BRANCH   3  22
ATOM     22  C   LIG d   1      -5.395  74.947 115.406  0.00  0.00     0.382 C 
ATOM     23  O   LIG d   1      -4.417  75.453 114.805  0.00  0.00    -0.241 OA
ATOM     24  O   LIG d   1      -5.678  73.749 115.219  0.00  0.00    -0.241 OA
ENDBRANCH   3  22
TORSDOF 7
ENDMDL
MODEL 7
REMARK VINA RESULT:      -5.3      2.321      5.954
REMARK  7 active torsions:
REMARK  status: ('A' for Active; 'I' for Inactive)
REMARK    1  A    between atoms: C_2  and  C_3 
REMARK    2  A    between atoms: C_3  and  O_6 
REMARK    3  A    between atoms: C_3  and  C_4 
REMARK    4  A    between atoms: C_7  and  O_6 
REMARK    5  A    between atoms: C_9  and  C_10 
REMARK    6  A    between atoms: N_15  and  C_14 
REMARK    7  A    between atoms: N_20  and  C_19 
REMARK       I    between atoms: C_22  and  N_20 
ROOT
ATOM      1  C   LIG d   1      -9.442  76.734 118.586  0.00  0.00     0.161 C 
ATOM      2  C   LIG d   1     -10.086  77.717 119.355  0.00  0.00     0.016 C 
ATOM      3  C   LIG d   1      -9.620  79.047 119.466  0.00  0.00     0.038 C 
ATOM      4  C   LIG d   1      -8.556  79.527 118.689  0.00  0.00     0.028 C 
ATOM      5  C   LIG d   1      -7.566  78.441 118.281  0.00  0.00    -0.047 C 
ATOM      6  C   LIG d   1      -8.343  77.268 117.643  0.00  0.00     0.091 C 
ENDROOT
BRANCH   1   7
ATOM      7  O   LIG d   1     -10.419  75.980 117.841  0.00  0.00    -0.368 OA
BRANCH   7   8
ATOM      8  C   LIG d   1     -10.562  74.585 118.208  0.00  0.00     0.119 C 
BRANCH   8   9
ATOM      9  C   LIG d   1     -10.193  73.741 116.973  0.00  0.00     0.028 C 
ATOM     10  C   LIG d   1      -9.719  72.327 117.349  0.00  0.00     0.006 C 
ENDBRANCH   8   9
BRANCH   8  11
ATOM     11  C   LIG d   1     -12.022  74.238 118.515  0.00  0.00     0.028 C 
ATOM     12  C   LIG d   1     -12.445  74.645 119.935  0.00  0.00     0.006 C 
ENDBRANCH   8  11
ENDBRANCH   7   8
ENDBRANCH   1   7
BRANCH   6  13
ATOM     13  N   LIG d   1      -7.459  76.126 117.292  0.00  0.00    -0.311 N 
ATOM     14  C   LIG d   1      -7.237  75.729 116.040  0.00  0.00     0.210 C 
ATOM     15  C   LIG d   1      -6.308  74.519 115.901  0.00  0.00     0.109 C 
ATOM     16  O   LIG d   1      -7.696  76.283 115.030  0.00  0.00    -0.276 OA
ATOM     17  H   LIG d   1      -7.021  75.639 118.049  0.00  0.00     0.149 HD
ENDBRANCH   6  13
BRANCH   5  18
ATOM     18  N   LIG d   1      -6.586  79.053 117.363  0.00  0.00     0.381 N 
ATOM     19  H   LIG d   1      -6.459  80.017 117.597  0.00  0.00    -0.090 HD
ATOM     20  H   LIG d   1      -6.943  79.001 116.425  0.00  0.00    -0.090 HD
ATOM     21  H   LIG d   1      -5.716  78.571 117.422  0.00  0.00    -0.090 HD
ENDBRANCH   5  18
BRANCH   3  22
ATOM     22  C   LIG d   1     -10.197  79.902 120.393  0.00  0.00     0.382 C 
ATOM     23  O   LIG d   1     -11.036  79.462 121.216  0.00  0.00    -0.241 OA
ATOM     24  O   LIG d   1      -9.922  81.117 120.388  0.00  0.00    -0.241 OA
ENDBRANCH   3  22
TORSDOF 7
ENDMDL
MODEL 8
REMARK VINA RESULT:      -5.1      2.365      5.146
REMARK  7 active torsions:
REMARK  status: ('A' for Active; 'I' for Inactive)
REMARK    1  A    between atoms: C_2  and  C_3 
REMARK    2  A    between atoms: C_3  and  O_6 
REMARK    3  A    between atoms: C_3  and  C_4 
REMARK    4  A    between atoms: C_7  and  O_6 
REMARK    5  A    between atoms: C_9  and  C_10 
REMARK    6  A    between atoms: N_15  and  C_14 
REMARK    7  A    between atoms: N_20  and  C_19 
REMARK       I    between atoms: C_22  and  N_20 
ROOT
ATOM      1  C   LIG d   1      -7.694  77.281 117.193  0.00  0.00     0.161 C 
ATOM      2  C   LIG d   1      -7.361  78.632 117.386  0.00  0.00     0.016 C 
ATOM      3  C   LIG d   1      -8.102  79.506 118.215  0.00  0.00     0.038 C 
ATOM      4  C   LIG d   1      -9.146  79.046 119.031  0.00  0.00     0.028 C 
ATOM      5  C   LIG d   1      -9.836  77.800 118.488  0.00  0.00    -0.047 C 
ATOM      6  C   LIG d   1      -8.764  76.735 118.162  0.00  0.00     0.091 C 
ENDROOT
BRANCH   1   7
ATOM      7  O   LIG d   1      -6.504  76.471 117.252  0.00  0.00    -0.368 OA
BRANCH   7   8
ATOM      8  C   LIG d   1      -5.678  76.463 116.061  0.00  0.00     0.119 C 
BRANCH   8   9
ATOM      9  C   LIG d   1      -6.152  75.293 115.178  0.00  0.00     0.028 C 
ATOM     10  C   LIG d   1      -5.144  74.131 115.153  0.00  0.00     0.006 C 
ENDBRANCH   8   9
BRANCH   8  11
ATOM     11  C   LIG d   1      -4.217  76.152 116.398  0.00  0.00     0.028 C 
ATOM     12  C   LIG d   1      -3.622  77.127 117.427  0.00  0.00     0.006 C 
ENDBRANCH   8  11
ENDBRANCH   7   8
ENDBRANCH   1   7
BRANCH   6  13
ATOM     13  N   LIG d   1      -9.346  75.514 117.546  0.00  0.00    -0.311 N 
ATOM     14  C   LIG d   1      -9.251  74.302 118.090  0.00  0.00     0.210 C 
ATOM     15  C   LIG d   1      -9.905  73.177 117.281  0.00  0.00     0.109 C 
ATOM     16  O   LIG d   1      -8.716  74.056 119.182  0.00  0.00    -0.276 OA
ATOM     17  H   LIG d   1      -9.826  75.627 116.675  0.00  0.00     0.149 HD
ENDBRANCH   6  13
BRANCH   5  18
ATOM     18  N   LIG d   1     -10.808  77.350 119.502  0.00  0.00     0.381 N 
ATOM     19  H   LIG d   1     -10.466  76.528 119.958  0.00  0.00    -0.090 HD
ATOM     20  H   LIG d   1     -11.672  77.121 119.045  0.00  0.00    -0.090 HD
ATOM     21  H   LIG d   1     -10.959  78.071 120.172  0.00  0.00    -0.090 HD
ENDBRANCH   5  18
BRANCH   3  22
ATOM     22  C   LIG d   1      -7.825  80.865 118.202  0.00  0.00     0.382 C 
ATOM     23  O   LIG d   1      -7.032  81.335 117.351  0.00  0.00    -0.241 OA
ATOM     24  O   LIG d   1      -8.325  81.619 119.058  0.00  0.00    -0.241 OA
ENDBRANCH   3  22
TORSDOF 7
ENDMDL
MODEL 9
REMARK VINA RESULT:      -5.1      1.688      2.162
REMARK  7 active torsions:
REMARK  status: ('A' for Active; 'I' for Inactive)
REMARK    1  A    between atoms: C_2  and  C_3 
REMARK    2  A    between atoms: C_3  and  O_6 
REMARK    3  A    between atoms: C_3  and  C_4 
REMARK    4  A    between atoms: C_7  and  O_6 
REMARK    5  A    between atoms: C_9  and  C_10 
REMARK    6  A    between atoms: N_15  and  C_14 
REMARK    7  A    between atoms: N_20  and  C_19 
REMARK       I    between atoms: C_22  and  N_20 
ROOT
ATOM      1  C   LIG d   1      -7.627  77.665 117.812  0.00  0.00     0.161 C 
ATOM      2  C   LIG d   1      -6.633  77.430 116.847  0.00  0.00     0.016 C 
ATOM      3  C   LIG d   1      -6.596  76.275 116.033  0.00  0.00     0.038 C 
ATOM      4  C   LIG d   1      -7.643  75.341 116.023  0.00  0.00     0.028 C 
ATOM      5  C   LIG d   1      -8.412  75.280 117.338  0.00  0.00    -0.047 C 
ATOM      6  C   LIG d   1      -8.838  76.711 117.737  0.00  0.00     0.091 C 
ENDROOT
BRANCH   1   7
ATOM      7  O   LIG d   1      -8.064  79.036 117.739  0.00  0.00    -0.368 OA
BRANCH   7   8
ATOM      8  C   LIG d   1      -7.643  79.898 118.825  0.00  0.00     0.119 C 
BRANCH   8   9
ATOM      9  C   LIG d   1      -8.886  80.667 119.314  0.00  0.00     0.028 C 
ATOM     10  C   LIG d   1     -10.148  80.314 118.510  0.00  0.00     0.006 C 
ENDBRANCH   8   9
BRANCH   8  11
ATOM     11  C   LIG d   1      -6.667  80.973 118.337  0.00  0.00     0.028 C 
ATOM     12  C   LIG d   1      -6.858  82.319 119.053  0.00  0.00     0.006 C 
ENDBRANCH   8  11
ENDBRANCH   7   8
ENDBRANCH   1   7
BRANCH   6  13
ATOM     13  N   LIG d   1      -9.523  76.752 119.055  0.00  0.00    -0.311 N 
ATOM     14  C   LIG d   1     -10.842  76.632 119.200  0.00  0.00     0.210 C 
ATOM     15  C   LIG d   1     -11.345  76.722 120.644  0.00  0.00     0.109 C 
ATOM     16  O   LIG d   1     -11.639  76.428 118.272  0.00  0.00    -0.276 OA
ATOM     17  H   LIG d   1      -8.949  76.883 119.865  0.00  0.00     0.149 HD
ENDBRANCH   6  13
BRANCH   5  18
ATOM     18  N   LIG d   1      -9.557  74.370 117.142  0.00  0.00     0.381 N 
ATOM     19  H   LIG d   1     -10.241  74.807 116.558  0.00  0.00    -0.090 HD
ATOM     20  H   LIG d   1      -9.979  74.182 118.035  0.00  0.00    -0.090 HD
ATOM     21  H   LIG d   1      -9.248  73.519 116.727  0.00  0.00    -0.090 HD
ENDBRANCH   5  18
BRANCH   3  22
ATOM     22  C   LIG d   1      -5.483  76.025 115.245  0.00  0.00     0.382 C 
ATOM     23  O   LIG d   1      -4.713  76.964 114.931  0.00  0.00    -0.241 OA
ATOM     24  O   LIG d   1      -5.263  74.879 114.808  0.00  0.00    -0.241 OA
ENDBRANCH   3  22
TORSDOF 7
ENDMDL
