MODEL 1
REMARK VINA RESULT:      -5.6      0.000      0.000
REMARK  7 active torsions:
REMARK  status: ('A' for Active; 'I' for Inactive)
REMARK    1  A    between atoms: C_2  and  C_3 
REMARK    2  A    between atoms: C_3  and  O_6 
REMARK    3  A    between atoms: C_3  and  C_4 
REMARK    4  A    between atoms: C_7  and  O_6 
REMARK    5  A    between atoms: C_9  and  C_10 
REMARK    6  A    between atoms: N_15  and  C_14 
REMARK    7  A    between atoms: N_20  and  C_19 
REMARK       I    between atoms: C_22  and  N_20 
ROOT
ATOM      1  C   LIG d   1      -6.552  93.547 117.963  0.00  0.00     0.161 C 
ATOM      2  C   LIG d   1      -7.098  92.495 117.210  0.00  0.00     0.016 C 
ATOM      3  C   LIG d   1      -6.332  91.418 116.708  0.00  0.00     0.038 C 
ATOM      4  C   LIG d   1      -4.985  91.240 117.056  0.00  0.00     0.028 C 
ATOM      5  C   LIG d   1      -4.271  92.543 117.398  0.00  0.00    -0.047 C 
ATOM      6  C   LIG d   1      -5.105  93.313 118.448  0.00  0.00     0.091 C 
ENDROOT
BRANCH   1   7
ATOM      7  O   LIG d   1      -7.412  93.846 119.081  0.00  0.00    -0.368 OA
BRANCH   7   8
ATOM      8  C   LIG d   1      -8.752  94.288 118.753  0.00  0.00     0.119 C 
BRANCH   8   9
ATOM      9  C   LIG d   1      -8.690  95.807 118.502  0.00  0.00     0.028 C 
ATOM     10  C   LIG d   1      -7.785  96.532 119.511  0.00  0.00     0.006 C 
ENDBRANCH   8   9
BRANCH   8  11
ATOM     11  C   LIG d   1      -9.703  94.112 119.941  0.00  0.00     0.028 C 
ATOM     12  C   LIG d   1      -9.024  93.460 121.156  0.00  0.00     0.006 C 
ENDBRANCH   8  11
ENDBRANCH   7   8
ENDBRANCH   1   7
BRANCH   6  13
ATOM     13  N   LIG d   1      -4.520  94.639 118.776  0.00  0.00    -0.311 N 
ATOM     14  C   LIG d   1      -4.228  95.024 120.017  0.00  0.00     0.210 C 
ATOM     15  C   LIG d   1      -3.651  96.438 120.135  0.00  0.00     0.109 C 
ATOM     16  O   LIG d   1      -4.361  94.317 121.027  0.00  0.00    -0.276 OA
ATOM     17  H   LIG d   1      -4.350  95.264 118.012  0.00  0.00     0.149 HD
ENDBRANCH   6  13
BRANCH   5  18
ATOM     18  N   LIG d   1      -2.918  92.198 117.875  0.00  0.00     0.381 N 
ATOM     19  H   LIG d   1      -2.486  93.004 118.281  0.00  0.00    -0.090 HD
ATOM     20  H   LIG d   1      -2.363  91.903 117.092  0.00  0.00    -0.090 HD
ATOM     21  H   LIG d   1      -2.971  91.466 118.549  0.00  0.00    -0.090 HD
ENDBRANCH   5  18
BRANCH   3  22
ATOM     22  C   LIG d   1      -6.905  90.526 115.814  0.00  0.00     0.382 C 
ATOM     23  O   LIG d   1      -8.081  90.127 115.992  0.00  0.00    -0.241 OA
ATOM     24  O   LIG d   1      -6.245  90.079 114.857  0.00  0.00    -0.241 OA
ENDBRANCH   3  22
TORSDOF 7
ENDMDL
MODEL 2
REMARK VINA RESULT:      -5.5      2.166      4.637
REMARK  7 active torsions:
REMARK  status: ('A' for Active; 'I' for Inactive)
REMARK    1  A    between atoms: C_2  and  C_3 
REMARK    2  A    between atoms: C_3  and  O_6 
REMARK    3  A    between atoms: C_3  and  C_4 
REMARK    4  A    between atoms: C_7  and  O_6 
REMARK    5  A    between atoms: C_9  and  C_10 
REMARK    6  A    between atoms: N_15  and  C_14 
REMARK    7  A    between atoms: N_20  and  C_19 
REMARK       I    between atoms: C_22  and  N_20 
ROOT
ATOM      1  C   LIG d   1      -5.108  92.533 118.015  0.00  0.00     0.161 C 
ATOM      2  C   LIG d   1      -5.404  91.594 117.013  0.00  0.00     0.016 C 
ATOM      3  C   LIG d   1      -6.618  91.584 116.290  0.00  0.00     0.038 C 
ATOM      4  C   LIG d   1      -7.564  92.613 116.415  0.00  0.00     0.028 C 
ATOM      5  C   LIG d   1      -7.533  93.302 117.775  0.00  0.00    -0.047 C 
ATOM      6  C   LIG d   1      -6.081  93.729 118.088  0.00  0.00     0.091 C 
ENDROOT
BRANCH   1   7
ATOM      7  O   LIG d   1      -3.752  92.999 117.864  0.00  0.00    -0.368 OA
BRANCH   7   8
ATOM      8  C   LIG d   1      -2.729  91.975 117.811  0.00  0.00     0.119 C 
BRANCH   8   9
ATOM      9  C   LIG d   1      -2.741  91.238 119.164  0.00  0.00     0.028 C 
ATOM     10  C   LIG d   1      -2.671  89.710 119.002  0.00  0.00     0.006 C 
ENDBRANCH   8   9
BRANCH   8  11
ATOM     11  C   LIG d   1      -1.331  92.589 117.696  0.00  0.00     0.028 C 
ATOM     12  C   LIG d   1      -1.364  94.082 117.330  0.00  0.00     0.006 C 
ENDBRANCH   8  11
ENDBRANCH   7   8
ENDBRANCH   1   7
BRANCH   6  13
ATOM     13  N   LIG d   1      -5.947  94.336 119.438  0.00  0.00    -0.311 N 
ATOM     14  C   LIG d   1      -6.046  95.644 119.667  0.00  0.00     0.210 C 
ATOM     15  C   LIG d   1      -5.856  96.061 121.128  0.00  0.00     0.109 C 
ATOM     16  O   LIG d   1      -6.305  96.495 118.803  0.00  0.00    -0.276 OA
ATOM     17  H   LIG d   1      -5.767  93.714 120.202  0.00  0.00     0.149 HD
ENDBRANCH   6  13
BRANCH   5  18
ATOM     18  N   LIG d   1      -8.471  94.439 117.720  0.00  0.00     0.381 N 
ATOM     19  H   LIG d   1      -8.502  94.808 116.790  0.00  0.00    -0.090 HD
ATOM     20  H   LIG d   1      -8.141  95.163 118.335  0.00  0.00    -0.090 HD
ATOM     21  H   LIG d   1      -9.381  94.145 117.999  0.00  0.00    -0.090 HD
ENDBRANCH   5  18
BRANCH   3  22
ATOM     22  C   LIG d   1      -6.914  90.515 115.458  0.00  0.00     0.382 C 
ATOM     23  O   LIG d   1      -8.101  90.128 115.332  0.00  0.00    -0.241 OA
ATOM     24  O   LIG d   1      -6.004  89.905 114.866  0.00  0.00    -0.241 OA
ENDBRANCH   3  22
TORSDOF 7
ENDMDL
MODEL 3
REMARK VINA RESULT:      -5.2      2.560      4.995
REMARK  7 active torsions:
REMARK  status: ('A' for Active; 'I' for Inactive)
REMARK    1  A    between atoms: C_2  and  C_3 
REMARK    2  A    between atoms: C_3  and  O_6 
REMARK    3  A    between atoms: C_3  and  C_4 
REMARK    4  A    between atoms: C_7  and  O_6 
REMARK    5  A    between atoms: C_9  and  C_10 
REMARK    6  A    between atoms: N_15  and  C_14 
REMARK    7  A    between atoms: N_20  and  C_19 
REMARK       I    between atoms: C_22  and  N_20 
ROOT
ATOM      1  C   LIG d   1      -3.958  91.815 117.926  0.00  0.00     0.161 C 
ATOM      2  C   LIG d   1      -4.691  91.046 117.007  0.00  0.00     0.016 C 
ATOM      3  C   LIG d   1      -5.960  91.425 116.512  0.00  0.00     0.038 C 
ATOM      4  C   LIG d   1      -6.518  92.682 116.789  0.00  0.00     0.028 C 
ATOM      5  C   LIG d   1      -6.046  93.276 118.112  0.00  0.00    -0.047 C 
ATOM      6  C   LIG d   1      -4.501  93.241 118.154  0.00  0.00     0.091 C 
ENDROOT
BRANCH   1   7
ATOM      7  O   LIG d   1      -2.574  91.863 117.529  0.00  0.00    -0.368 OA
BRANCH   7   8
ATOM      8  C   LIG d   1      -1.643  91.140 118.370  0.00  0.00     0.119 C 
BRANCH   8   9
ATOM      9  C   LIG d   1      -0.928  90.102 117.484  0.00  0.00     0.028 C 
ATOM     10  C   LIG d   1       0.556  90.440 117.265  0.00  0.00     0.006 C 
ENDBRANCH   8   9
BRANCH   8  11
ATOM     11  C   LIG d   1      -2.376  90.324 119.439  0.00  0.00     0.028 C 
ATOM     12  C   LIG d   1      -2.304  88.810 119.187  0.00  0.00     0.006 C 
ENDBRANCH   8  11
ENDBRANCH   7   8
ENDBRANCH   1   7
BRANCH   6  13
ATOM     13  N   LIG d   1      -3.959  93.727 119.450  0.00  0.00    -0.311 N 
ATOM     14  C   LIG d   1      -3.026  94.672 119.546  0.00  0.00     0.210 C 
ATOM     15  C   LIG d   1      -2.593  95.011 120.975  0.00  0.00     0.109 C 
ATOM     16  O   LIG d   1      -2.538  95.285 118.584  0.00  0.00    -0.276 OA
ATOM     17  H   LIG d   1      -4.321  93.306 120.283  0.00  0.00     0.149 HD
ENDBRANCH   6  13
BRANCH   5  18
ATOM     18  N   LIG d   1      -6.596  94.641 118.208  0.00  0.00     0.381 N 
ATOM     19  H   LIG d   1      -7.458  94.696 117.704  0.00  0.00    -0.090 HD
ATOM     20  H   LIG d   1      -5.946  95.284 117.792  0.00  0.00    -0.090 HD
ATOM     21  H   LIG d   1      -6.746  94.881 119.164  0.00  0.00    -0.090 HD
ENDBRANCH   5  18
BRANCH   3  22
ATOM     22  C   LIG d   1      -6.702  90.526 115.761  0.00  0.00     0.382 C 
ATOM     23  O   LIG d   1      -7.893  90.283 116.071  0.00  0.00    -0.241 OA
ATOM     24  O   LIG d   1      -6.181  89.920 114.805  0.00  0.00    -0.241 OA
ENDBRANCH   3  22
TORSDOF 7
ENDMDL
MODEL 4
REMARK VINA RESULT:      -4.9     12.760     15.239
REMARK  7 active torsions:
REMARK  status: ('A' for Active; 'I' for Inactive)
REMARK    1  A    between atoms: C_2  and  C_3 
REMARK    2  A    between atoms: C_3  and  O_6 
REMARK    3  A    between atoms: C_3  and  C_4 
REMARK    4  A    between atoms: C_7  and  O_6 
REMARK    5  A    between atoms: C_9  and  C_10 
REMARK    6  A    between atoms: N_15  and  C_14 
REMARK    7  A    between atoms: N_20  and  C_19 
REMARK       I    between atoms: C_22  and  N_20 
ROOT
ATOM      1  C   LIG d   1      -7.698  78.901 118.234  0.00  0.00     0.161 C 
ATOM      2  C   LIG d   1      -6.708  78.486 117.328  0.00  0.00     0.016 C 
ATOM      3  C   LIG d   1      -6.615  77.167 116.827  0.00  0.00     0.038 C 
ATOM      4  C   LIG d   1      -7.604  76.206 117.082  0.00  0.00     0.028 C 
ATOM      5  C   LIG d   1      -8.347  76.435 118.394  0.00  0.00    -0.047 C 
ATOM      6  C   LIG d   1      -8.851  77.896 118.437  0.00  0.00     0.091 C 
ENDROOT
BRANCH   1   7
ATOM      7  O   LIG d   1      -8.217  80.185 117.835  0.00  0.00    -0.368 OA
BRANCH   7   8
ATOM      8  C   LIG d   1      -8.115  81.246 118.815  0.00  0.00     0.119 C 
BRANCH   8   9
ATOM      9  C   LIG d   1      -9.540  81.771 119.080  0.00  0.00     0.028 C 
ATOM     10  C   LIG d   1     -10.161  82.434 117.839  0.00  0.00     0.006 C 
ENDBRANCH   8   9
BRANCH   8  11
ATOM     11  C   LIG d   1      -7.338  82.444 118.261  0.00  0.00     0.028 C 
ATOM     12  C   LIG d   1      -6.569  83.211 119.349  0.00  0.00     0.006 C 
ENDBRANCH   8  11
ENDBRANCH   7   8
ENDBRANCH   1   7
BRANCH   6  13
ATOM     13  N   LIG d   1      -9.516  78.228 119.724  0.00  0.00    -0.311 N 
ATOM     14  C   LIG d   1     -10.810  78.015 119.957  0.00  0.00     0.210 C 
ATOM     15  C   LIG d   1     -11.298  78.449 121.342  0.00  0.00     0.109 C 
ATOM     16  O   LIG d   1     -11.593  77.479 119.159  0.00  0.00    -0.276 OA
ATOM     17  H   LIG d   1      -8.947  78.639 120.438  0.00  0.00     0.149 HD
ENDBRANCH   6  13
BRANCH   5  18
ATOM     18  N   LIG d   1      -9.439  75.445 118.467  0.00  0.00     0.381 N 
ATOM     19  H   LIG d   1      -9.116  74.560 118.129  0.00  0.00    -0.090 HD
ATOM     20  H   LIG d   1     -10.195  75.750 117.880  0.00  0.00    -0.090 HD
ATOM     21  H   LIG d   1      -9.755  75.354 119.408  0.00  0.00    -0.090 HD
ENDBRANCH   5  18
BRANCH   3  22
ATOM     22  C   LIG d   1      -5.502  76.787 116.092  0.00  0.00     0.382 C 
ATOM     23  O   LIG d   1      -4.709  77.658 115.660  0.00  0.00    -0.241 OA
ATOM     24  O   LIG d   1      -5.304  75.588 115.819  0.00  0.00    -0.241 OA
ENDBRANCH   3  22
TORSDOF 7
ENDMDL
MODEL 5
REMARK VINA RESULT:      -4.9     12.834     15.219
REMARK  7 active torsions:
REMARK  status: ('A' for Active; 'I' for Inactive)
REMARK    1  A    between atoms: C_2  and  C_3 
REMARK    2  A    between atoms: C_3  and  O_6 
REMARK    3  A    between atoms: C_3  and  C_4 
REMARK    4  A    between atoms: C_7  and  O_6 
REMARK    5  A    between atoms: C_9  and  C_10 
REMARK    6  A    between atoms: N_15  and  C_14 
REMARK    7  A    between atoms: N_20  and  C_19 
REMARK       I    between atoms: C_22  and  N_20 
ROOT
ATOM      1  C   LIG d   1      -8.450  78.659 118.445  0.00  0.00     0.161 C 
ATOM      2  C   LIG d   1      -9.595  77.857 118.582  0.00  0.00     0.016 C 
ATOM      3  C   LIG d   1      -9.676  76.529 118.103  0.00  0.00     0.038 C 
ATOM      4  C   LIG d   1      -8.558  75.858 117.586  0.00  0.00     0.028 C 
ATOM      5  C   LIG d   1      -7.523  76.792 116.968  0.00  0.00    -0.047 C 
ATOM      6  C   LIG d   1      -7.185  77.907 117.984  0.00  0.00     0.091 C 
ENDROOT
BRANCH   1   7
ATOM      7  O   LIG d   1      -8.195  79.359 119.679  0.00  0.00    -0.368 OA
BRANCH   7   8
ATOM      8  C   LIG d   1      -8.392  80.795 119.650  0.00  0.00     0.119 C 
BRANCH   8   9
ATOM      9  C   LIG d   1      -8.856  81.169 118.229  0.00  0.00     0.028 C 
ATOM     10  C   LIG d   1     -10.262  81.793 118.216  0.00  0.00     0.006 C 
ENDBRANCH   8   9
BRANCH   8  11
ATOM     11  C   LIG d   1      -7.071  81.542 119.856  0.00  0.00     0.028 C 
ATOM     12  C   LIG d   1      -6.651  82.359 118.623  0.00  0.00     0.006 C 
ENDBRANCH   8  11
ENDBRANCH   7   8
ENDBRANCH   1   7
BRANCH   6  13
ATOM     13  N   LIG d   1      -6.242  78.913 117.428  0.00  0.00    -0.311 N 
ATOM     14  C   LIG d   1      -4.926  78.878 117.635  0.00  0.00     0.210 C 
ATOM     15  C   LIG d   1      -4.139  80.021 116.988  0.00  0.00     0.109 C 
ATOM     16  O   LIG d   1      -4.333  77.990 118.266  0.00  0.00    -0.276 OA
ATOM     17  H   LIG d   1      -6.635  79.651 116.877  0.00  0.00     0.149 HD
ENDBRANCH   6  13
BRANCH   5  18
ATOM     18  N   LIG d   1      -6.352  75.976 116.595  0.00  0.00     0.381 N 
ATOM     19  H   LIG d   1      -5.579  76.572 116.376  0.00  0.00    -0.090 HD
ATOM     20  H   LIG d   1      -6.578  75.440 115.775  0.00  0.00    -0.090 HD
ATOM     21  H   LIG d   1      -6.109  75.365 117.343  0.00  0.00    -0.090 HD
ENDBRANCH   5  18
BRANCH   3  22
ATOM     22  C   LIG d   1     -10.897  75.871 118.102  0.00  0.00     0.382 C 
ATOM     23  O   LIG d   1     -10.983  74.709 117.639  0.00  0.00    -0.241 OA
ATOM     24  O   LIG d   1     -11.922  76.443 118.518  0.00  0.00    -0.241 OA
ENDBRANCH   3  22
TORSDOF 7
ENDMDL
MODEL 6
REMARK VINA RESULT:      -4.9     13.552     16.463
REMARK  7 active torsions:
REMARK  status: ('A' for Active; 'I' for Inactive)
REMARK    1  A    between atoms: C_2  and  C_3 
REMARK    2  A    between atoms: C_3  and  O_6 
REMARK    3  A    between atoms: C_3  and  C_4 
REMARK    4  A    between atoms: C_7  and  O_6 
REMARK    5  A    between atoms: C_9  and  C_10 
REMARK    6  A    between atoms: N_15  and  C_14 
REMARK    7  A    between atoms: N_20  and  C_19 
REMARK       I    between atoms: C_22  and  N_20 
ROOT
ATOM      1  C   LIG d   1      -6.873  77.285 117.215  0.00  0.00     0.161 C 
ATOM      2  C   LIG d   1      -8.014  76.467 117.185  0.00  0.00     0.016 C 
ATOM      3  C   LIG d   1      -9.215  76.781 117.862  0.00  0.00     0.038 C 
ATOM      4  C   LIG d   1      -9.407  78.017 118.496  0.00  0.00     0.028 C 
ATOM      5  C   LIG d   1      -8.110  78.658 118.979  0.00  0.00    -0.047 C 
ATOM      6  C   LIG d   1      -7.100  78.690 117.809  0.00  0.00     0.091 C 
ENDROOT
BRANCH   1   7
ATOM      7  O   LIG d   1      -6.309  77.386 115.892  0.00  0.00    -0.368 OA
BRANCH   7   8
ATOM      8  C   LIG d   1      -5.078  76.655 115.666  0.00  0.00     0.119 C 
BRANCH   8   9
ATOM      9  C   LIG d   1      -5.422  75.424 114.805  0.00  0.00     0.028 C 
ATOM     10  C   LIG d   1      -4.574  74.195 115.173  0.00  0.00     0.006 C 
ENDBRANCH   8   9
BRANCH   8  11
ATOM     11  C   LIG d   1      -4.518  76.090 116.975  0.00  0.00     0.028 C 
ATOM     12  C   LIG d   1      -3.217  76.782 117.414  0.00  0.00     0.006 C 
ENDBRANCH   8  11
ENDBRANCH   7   8
ENDBRANCH   1   7
BRANCH   6  13
ATOM     13  N   LIG d   1      -5.775  79.225 118.219  0.00  0.00    -0.311 N 
ATOM     14  C   LIG d   1      -5.383  80.475 117.979  0.00  0.00     0.210 C 
ATOM     15  C   LIG d   1      -3.972  80.815 118.468  0.00  0.00     0.109 C 
ATOM     16  O   LIG d   1      -6.082  81.344 117.436  0.00  0.00    -0.276 OA
ATOM     17  H   LIG d   1      -5.156  78.597 118.693  0.00  0.00     0.149 HD
ENDBRANCH   6  13
BRANCH   5  18
ATOM     18  N   LIG d   1      -8.441  79.999 119.495  0.00  0.00     0.381 N 
ATOM     19  H   LIG d   1      -8.512  80.646 118.735  0.00  0.00    -0.090 HD
ATOM     20  H   LIG d   1      -7.701  80.306 120.102  0.00  0.00    -0.090 HD
ATOM     21  H   LIG d   1      -9.301  79.969 119.997  0.00  0.00    -0.090 HD
ENDBRANCH   5  18
BRANCH   3  22
ATOM     22  C   LIG d   1     -10.226  75.835 117.943  0.00  0.00     0.382 C 
ATOM     23  O   LIG d   1      -9.975  74.628 117.712  0.00  0.00    -0.241 OA
ATOM     24  O   LIG d   1     -11.394  76.180 118.200  0.00  0.00    -0.241 OA
ENDBRANCH   3  22
TORSDOF 7
ENDMDL
MODEL 7
REMARK VINA RESULT:      -4.8     15.291     17.730
REMARK  7 active torsions:
REMARK  status: ('A' for Active; 'I' for Inactive)
REMARK    1  A    between atoms: C_2  and  C_3 
REMARK    2  A    between atoms: C_3  and  O_6 
REMARK    3  A    between atoms: C_3  and  C_4 
REMARK    4  A    between atoms: C_7  and  O_6 
REMARK    5  A    between atoms: C_9  and  C_10 
REMARK    6  A    between atoms: N_15  and  C_14 
REMARK    7  A    between atoms: N_20  and  C_19 
REMARK       I    between atoms: C_22  and  N_20 
ROOT
ATOM      1  C   LIG d   1      -3.076  76.843 117.583  0.00  0.00     0.161 C 
ATOM      2  C   LIG d   1      -3.134  78.029 116.831  0.00  0.00     0.016 C 
ATOM      3  C   LIG d   1      -2.190  78.364 115.834  0.00  0.00     0.038 C 
ATOM      4  C   LIG d   1      -1.203  77.461 115.413  0.00  0.00     0.028 C 
ATOM      5  C   LIG d   1      -0.798  76.461 116.491  0.00  0.00    -0.047 C 
ATOM      6  C   LIG d   1      -2.071  75.795 117.062  0.00  0.00     0.091 C 
ENDROOT
BRANCH   1   7
ATOM      7  O   LIG d   1      -4.393  76.266 117.688  0.00  0.00    -0.368 OA
BRANCH   7   8
ATOM      8  C   LIG d   1      -5.331  76.626 116.644  0.00  0.00     0.119 C 
BRANCH   8   9
ATOM      9  C   LIG d   1      -6.568  77.242 117.326  0.00  0.00     0.028 C 
ATOM     10  C   LIG d   1      -7.826  76.374 117.155  0.00  0.00     0.006 C 
ENDBRANCH   8   9
BRANCH   8  11
ATOM     11  C   LIG d   1      -5.849  75.386 115.908  0.00  0.00     0.028 C 
ATOM     12  C   LIG d   1      -4.893  74.906 114.805  0.00  0.00     0.006 C 
ENDBRANCH   8  11
ENDBRANCH   7   8
ENDBRANCH   1   7
BRANCH   6  13
ATOM     13  N   LIG d   1      -1.771  74.864 118.180  0.00  0.00    -0.311 N 
ATOM     14  C   LIG d   1      -1.910  73.542 118.091  0.00  0.00     0.210 C 
ATOM     15  C   LIG d   1      -1.565  72.769 119.368  0.00  0.00     0.109 C 
ATOM     16  O   LIG d   1      -2.255  72.935 117.067  0.00  0.00    -0.276 OA
ATOM     17  H   LIG d   1      -1.455  75.270 119.039  0.00  0.00     0.149 HD
ENDBRANCH   6  13
BRANCH   5  18
ATOM     18  N   LIG d   1       0.134  75.496 115.877  0.00  0.00     0.381 N 
ATOM     19  H   LIG d   1       0.261  74.713 116.486  0.00  0.00    -0.090 HD
ATOM     20  H   LIG d   1       1.025  75.942 115.746  0.00  0.00    -0.090 HD
ATOM     21  H   LIG d   1      -0.224  75.189 114.999  0.00  0.00    -0.090 HD
ENDBRANCH   5  18
BRANCH   3  22
ATOM     22  C   LIG d   1      -2.204  79.633 115.274  0.00  0.00     0.382 C 
ATOM     23  O   LIG d   1      -3.270  80.100 114.805  0.00  0.00    -0.241 OA
ATOM     24  O   LIG d   1      -1.154  80.299 115.192  0.00  0.00    -0.241 OA
ENDBRANCH   3  22
TORSDOF 7
ENDMDL
MODEL 8
REMARK VINA RESULT:      -4.8      1.818      2.531
REMARK  7 active torsions:
REMARK  status: ('A' for Active; 'I' for Inactive)
REMARK    1  A    between atoms: C_2  and  C_3 
REMARK    2  A    between atoms: C_3  and  O_6 
REMARK    3  A    between atoms: C_3  and  C_4 
REMARK    4  A    between atoms: C_7  and  O_6 
REMARK    5  A    between atoms: C_9  and  C_10 
REMARK    6  A    between atoms: N_15  and  C_14 
REMARK    7  A    between atoms: N_20  and  C_19 
REMARK       I    between atoms: C_22  and  N_20 
ROOT
ATOM      1  C   LIG d   1      -5.475  93.092 118.809  0.00  0.00     0.161 C 
ATOM      2  C   LIG d   1      -6.459  92.519 117.988  0.00  0.00     0.016 C 
ATOM      3  C   LIG d   1      -6.180  91.543 117.004  0.00  0.00     0.038 C 
ATOM      4  C   LIG d   1      -4.911  90.960 116.877  0.00  0.00     0.028 C 
ATOM      5  C   LIG d   1      -3.778  91.868 117.343  0.00  0.00    -0.047 C 
ATOM      6  C   LIG d   1      -4.103  92.388 118.762  0.00  0.00     0.091 C 
ENDROOT
BRANCH   1   7
ATOM      7  O   LIG d   1      -5.953  93.166 120.167  0.00  0.00    -0.368 OA
BRANCH   7   8
ATOM      8  C   LIG d   1      -6.181  94.497 120.691  0.00  0.00     0.119 C 
BRANCH   8   9
ATOM      9  C   LIG d   1      -7.456  94.443 121.555  0.00  0.00     0.028 C 
ATOM     10  C   LIG d   1      -8.422  93.334 121.105  0.00  0.00     0.006 C 
ENDBRANCH   8   9
BRANCH   8  11
ATOM     11  C   LIG d   1      -6.492  95.492 119.570  0.00  0.00     0.028 C 
ATOM     12  C   LIG d   1      -5.802  96.850 119.770  0.00  0.00     0.006 C 
ENDBRANCH   8  11
ENDBRANCH   7   8
ENDBRANCH   1   7
BRANCH   6  13
ATOM     13  N   LIG d   1      -3.085  93.350 119.260  0.00  0.00    -0.311 N 
ATOM     14  C   LIG d   1      -2.045  92.995 120.012  0.00  0.00     0.210 C 
ATOM     15  C   LIG d   1      -1.128  94.147 120.434  0.00  0.00     0.109 C 
ATOM     16  O   LIG d   1      -1.778  91.830 120.343  0.00  0.00    -0.276 OA
ATOM     17  H   LIG d   1      -3.208  94.313 119.012  0.00  0.00     0.149 HD
ENDBRANCH   6  13
BRANCH   5  18
ATOM     18  N   LIG d   1      -2.528  91.086 117.286  0.00  0.00     0.381 N 
ATOM     19  H   LIG d   1      -2.355  90.659 118.173  0.00  0.00    -0.090 HD
ATOM     20  H   LIG d   1      -1.765  91.708 117.081  0.00  0.00    -0.090 HD
ATOM     21  H   LIG d   1      -2.595  90.387 116.579  0.00  0.00    -0.090 HD
ENDBRANCH   5  18
BRANCH   3  22
ATOM     22  C   LIG d   1      -7.169  91.170 116.106  0.00  0.00     0.382 C 
ATOM     23  O   LIG d   1      -7.629  90.003 116.130  0.00  0.00    -0.241 OA
ATOM     24  O   LIG d   1      -7.575  91.972 115.244  0.00  0.00    -0.241 OA
ENDBRANCH   3  22
TORSDOF 7
ENDMDL
MODEL 9
REMARK VINA RESULT:      -4.7     13.526     16.357
REMARK  7 active torsions:
REMARK  status: ('A' for Active; 'I' for Inactive)
REMARK    1  A    between atoms: C_2  and  C_3 
REMARK    2  A    between atoms: C_3  and  O_6 
REMARK    3  A    between atoms: C_3  and  C_4 
REMARK    4  A    between atoms: C_7  and  O_6 
REMARK    5  A    between atoms: C_9  and  C_10 
REMARK    6  A    between atoms: N_15  and  C_14 
REMARK    7  A    between atoms: N_20  and  C_19 
REMARK       I    between atoms: C_22  and  N_20 
ROOT
ATOM      1  C   LIG d   1      -7.025  77.315 117.471  0.00  0.00     0.161 C 
ATOM      2  C   LIG d   1      -7.831  76.176 117.312  0.00  0.00     0.016 C 
ATOM      3  C   LIG d   1      -9.177  76.109 117.741  0.00  0.00     0.038 C 
ATOM      4  C   LIG d   1      -9.857  77.236 118.226  0.00  0.00     0.028 C 
ATOM      5  C   LIG d   1      -8.938  78.267 118.872  0.00  0.00    -0.047 C 
ATOM      6  C   LIG d   1      -7.783  78.590 117.896  0.00  0.00     0.091 C 
ENDROOT
BRANCH   1   7
ATOM      7  O   LIG d   1      -6.277  77.557 116.262  0.00  0.00    -0.368 OA
BRANCH   7   8
ATOM      8  C   LIG d   1      -4.938  77.006 116.220  0.00  0.00     0.119 C 
BRANCH   8   9
ATOM      9  C   LIG d   1      -3.949  78.183 116.323  0.00  0.00     0.028 C 
ATOM     10  C   LIG d   1      -3.416  78.379 117.752  0.00  0.00     0.006 C 
ENDBRANCH   8   9
BRANCH   8  11
ATOM     11  C   LIG d   1      -4.648  76.349 114.867  0.00  0.00     0.028 C 
ATOM     12  C   LIG d   1      -5.106  74.883 114.806  0.00  0.00     0.006 C 
ENDBRANCH   8  11
ENDBRANCH   7   8
ENDBRANCH   1   7
BRANCH   6  13
ATOM     13  N   LIG d   1      -6.791  79.528 118.483  0.00  0.00    -0.311 N 
ATOM     14  C   LIG d   1      -6.810  80.843 118.271  0.00  0.00     0.210 C 
ATOM     15  C   LIG d   1      -5.684  81.625 118.955  0.00  0.00     0.109 C 
ATOM     16  O   LIG d   1      -7.672  81.440 117.608  0.00  0.00    -0.276 OA
ATOM     17  H   LIG d   1      -6.075  79.133 119.060  0.00  0.00     0.149 HD
ENDBRANCH   6  13
BRANCH   5  18
ATOM     18  N   LIG d   1      -9.758  79.447 119.207  0.00  0.00     0.381 N 
ATOM     19  H   LIG d   1     -10.442  79.598 118.493  0.00  0.00    -0.090 HD
ATOM     20  H   LIG d   1      -9.162  80.255 119.250  0.00  0.00    -0.090 HD
ATOM     21  H   LIG d   1     -10.208  79.310 120.085  0.00  0.00    -0.090 HD
ENDBRANCH   5  18
BRANCH   3  22
ATOM     22  C   LIG d   1      -9.843  74.893 117.724  0.00  0.00     0.382 C 
ATOM     23  O   LIG d   1     -11.097  74.866 117.761  0.00  0.00    -0.241 OA
ATOM     24  O   LIG d   1      -9.206  73.823 117.719  0.00  0.00    -0.241 OA
ENDBRANCH   3  22
TORSDOF 7
ENDMDL
