MODEL 1
REMARK VINA RESULT:      -5.4      0.000      0.000
REMARK  7 active torsions:
REMARK  status: ('A' for Active; 'I' for Inactive)
REMARK    1  A    between atoms: C_2  and  C_3 
REMARK    2  A    between atoms: C_3  and  O_6 
REMARK    3  A    between atoms: C_3  and  C_4 
REMARK    4  A    between atoms: C_7  and  O_6 
REMARK    5  A    between atoms: C_9  and  C_10 
REMARK    6  A    between atoms: N_15  and  C_14 
REMARK    7  A    between atoms: N_20  and  C_19 
REMARK       I    between atoms: C_22  and  N_20 
ROOT
ATOM      1  C   LIG d   1      -5.259  92.929 117.637  0.00  0.00     0.161 C 
ATOM      2  C   LIG d   1      -5.734  94.143 118.161  0.00  0.00     0.016 C 
ATOM      3  C   LIG d   1      -6.847  94.836 117.631  0.00  0.00     0.038 C 
ATOM      4  C   LIG d   1      -7.658  94.282 116.630  0.00  0.00     0.028 C 
ATOM      5  C   LIG d   1      -6.921  93.295 115.731  0.00  0.00    -0.047 C 
ATOM      6  C   LIG d   1      -6.198  92.254 116.615  0.00  0.00     0.091 C 
ENDROOT
BRANCH   1   7
ATOM      7  O   LIG d   1      -4.952  92.020 118.712  0.00  0.00    -0.368 OA
BRANCH   7   8
ATOM      8  C   LIG d   1      -3.573  91.999 119.156  0.00  0.00     0.119 C 
BRANCH   8   9
ATOM      9  C   LIG d   1      -2.682  92.133 117.905  0.00  0.00     0.028 C 
ATOM     10  C   LIG d   1      -1.361  92.863 118.201  0.00  0.00     0.006 C 
ENDBRANCH   8   9
BRANCH   8  11
ATOM     11  C   LIG d   1      -3.205  90.646 119.772  0.00  0.00     0.028 C 
ATOM     12  C   LIG d   1      -3.092  89.526 118.725  0.00  0.00     0.006 C 
ENDBRANCH   8  11
ENDBRANCH   7   8
ENDBRANCH   1   7
BRANCH   6  13
ATOM     13  N   LIG d   1      -5.383  91.300 115.818  0.00  0.00    -0.311 N 
ATOM     14  C   LIG d   1      -5.605  89.987 115.795  0.00  0.00     0.210 C 
ATOM     15  C   LIG d   1      -4.636  89.182 114.923  0.00  0.00     0.109 C 
ATOM     16  O   LIG d   1      -6.533  89.416 116.388  0.00  0.00    -0.276 OA
ATOM     17  H   LIG d   1      -4.629  91.682 115.282  0.00  0.00     0.149 HD
ENDBRANCH   6  13
BRANCH   5  18
ATOM     18  N   LIG d   1      -7.914  92.692 114.822  0.00  0.00     0.381 N 
ATOM     19  H   LIG d   1      -8.791  92.595 115.295  0.00  0.00    -0.090 HD
ATOM     20  H   LIG d   1      -7.597  91.776 114.556  0.00  0.00    -0.090 HD
ATOM     21  H   LIG d   1      -8.026  93.261 114.012  0.00  0.00    -0.090 HD
ENDBRANCH   5  18
BRANCH   3  22
ATOM     22  C   LIG d   1      -7.134  96.117 118.078  0.00  0.00     0.382 C 
ATOM     23  O   LIG d   1      -7.173  97.071 117.264  0.00  0.00    -0.241 OA
ATOM     24  O   LIG d   1      -7.312  96.338 119.291  0.00  0.00    -0.241 OA
ENDBRANCH   3  22
TORSDOF 7
ENDMDL
MODEL 2
REMARK VINA RESULT:      -5.3      2.316      5.303
REMARK  7 active torsions:
REMARK  status: ('A' for Active; 'I' for Inactive)
REMARK    1  A    between atoms: C_2  and  C_3 
REMARK    2  A    between atoms: C_3  and  O_6 
REMARK    3  A    between atoms: C_3  and  C_4 
REMARK    4  A    between atoms: C_7  and  O_6 
REMARK    5  A    between atoms: C_9  and  C_10 
REMARK    6  A    between atoms: N_15  and  C_14 
REMARK    7  A    between atoms: N_20  and  C_19 
REMARK       I    between atoms: C_22  and  N_20 
ROOT
ATOM      1  C   LIG d   1      -5.598  92.863 117.204  0.00  0.00     0.161 C 
ATOM      2  C   LIG d   1      -6.657  92.018 116.834  0.00  0.00     0.016 C 
ATOM      3  C   LIG d   1      -6.484  90.657 116.493  0.00  0.00     0.038 C 
ATOM      4  C   LIG d   1      -5.251  90.006 116.645  0.00  0.00     0.028 C 
ATOM      5  C   LIG d   1      -4.053  90.942 116.531  0.00  0.00    -0.047 C 
ATOM      6  C   LIG d   1      -4.262  92.142 117.483  0.00  0.00     0.091 C 
ENDROOT
BRANCH   1   7
ATOM      7  O   LIG d   1      -5.983  93.661 118.340  0.00  0.00    -0.368 OA
BRANCH   7   8
ATOM      8  C   LIG d   1      -6.195  95.072 118.086  0.00  0.00     0.119 C 
BRANCH   8   9
ATOM      9  C   LIG d   1      -5.151  95.852 118.907  0.00  0.00     0.028 C 
ATOM     10  C   LIG d   1      -4.913  95.233 120.295  0.00  0.00     0.006 C 
ENDBRANCH   8   9
BRANCH   8  11
ATOM     11  C   LIG d   1      -7.556  95.535 118.616  0.00  0.00     0.028 C 
ATOM     12  C   LIG d   1      -8.449  94.368 119.065  0.00  0.00     0.006 C 
ENDBRANCH   8  11
ENDBRANCH   7   8
ENDBRANCH   1   7
BRANCH   6  13
ATOM     13  N   LIG d   1      -3.176  93.150 117.372  0.00  0.00    -0.311 N 
ATOM     14  C   LIG d   1      -2.336  93.435 118.366  0.00  0.00     0.210 C 
ATOM     15  C   LIG d   1      -1.302  94.520 118.048  0.00  0.00     0.109 C 
ATOM     16  O   LIG d   1      -2.329  92.870 119.470  0.00  0.00    -0.276 OA
ATOM     17  H   LIG d   1      -3.090  93.634 116.499  0.00  0.00     0.149 HD
ENDBRANCH   6  13
BRANCH   5  18
ATOM     18  N   LIG d   1      -2.843  90.159 116.846  0.00  0.00     0.381 N 
ATOM     19  H   LIG d   1      -3.055  89.474 117.544  0.00  0.00    -0.090 HD
ATOM     20  H   LIG d   1      -2.142  90.778 117.214  0.00  0.00    -0.090 HD
ATOM     21  H   LIG d   1      -2.503  89.711 116.023  0.00  0.00    -0.090 HD
ENDBRANCH   5  18
BRANCH   3  22
ATOM     22  C   LIG d   1      -7.544  89.943 115.955  0.00  0.00     0.382 C 
ATOM     23  O   LIG d   1      -8.062  89.004 116.606  0.00  0.00    -0.241 OA
ATOM     24  O   LIG d   1      -7.960  90.197 114.809  0.00  0.00    -0.241 OA
ENDBRANCH   3  22
TORSDOF 7
ENDMDL
MODEL 3
REMARK VINA RESULT:      -5.3     32.468     34.821
REMARK  7 active torsions:
REMARK  status: ('A' for Active; 'I' for Inactive)
REMARK    1  A    between atoms: C_2  and  C_3 
REMARK    2  A    between atoms: C_3  and  O_6 
REMARK    3  A    between atoms: C_3  and  C_4 
REMARK    4  A    between atoms: C_7  and  O_6 
REMARK    5  A    between atoms: C_9  and  C_10 
REMARK    6  A    between atoms: N_15  and  C_14 
REMARK    7  A    between atoms: N_20  and  C_19 
REMARK       I    between atoms: C_22  and  N_20 
ROOT
ATOM      1  C   LIG d   1      -2.384  57.433 118.872  0.00  0.00     0.161 C 
ATOM      2  C   LIG d   1      -2.880  58.555 119.557  0.00  0.00     0.016 C 
ATOM      3  C   LIG d   1      -2.117  59.721 119.794  0.00  0.00     0.038 C 
ATOM      4  C   LIG d   1      -0.847  59.905 119.228  0.00  0.00     0.028 C 
ATOM      5  C   LIG d   1      -0.111  58.597 118.955  0.00  0.00    -0.047 C 
ATOM      6  C   LIG d   1      -1.039  57.658 118.151  0.00  0.00     0.091 C 
ENDROOT
BRANCH   1   7
ATOM      7  O   LIG d   1      -3.375  56.949 117.944  0.00  0.00    -0.368 OA
BRANCH   7   8
ATOM      8  C   LIG d   1      -3.895  57.920 117.003  0.00  0.00     0.119 C 
BRANCH   8   9
ATOM      9  C   LIG d   1      -5.433  57.850 117.067  0.00  0.00     0.028 C 
ATOM     10  C   LIG d   1      -6.089  59.234 116.925  0.00  0.00     0.006 C 
ENDBRANCH   8   9
BRANCH   8  11
ATOM     11  C   LIG d   1      -3.531  57.549 115.562  0.00  0.00     0.028 C 
ATOM     12  C   LIG d   1      -2.847  58.698 114.805  0.00  0.00     0.006 C 
ENDBRANCH   8  11
ENDBRANCH   7   8
ENDBRANCH   1   7
BRANCH   6  13
ATOM     13  N   LIG d   1      -0.427  56.324 117.914  0.00  0.00    -0.311 N 
ATOM     14  C   LIG d   1      -0.117  55.865 116.703  0.00  0.00     0.210 C 
ATOM     15  C   LIG d   1       0.486  54.457 116.680  0.00  0.00     0.109 C 
ATOM     16  O   LIG d   1      -0.253  56.503 115.648  0.00  0.00    -0.276 OA
ATOM     17  H   LIG d   1      -0.253  55.753 118.717  0.00  0.00     0.149 HD
ENDBRANCH   6  13
BRANCH   5  18
ATOM     18  N   LIG d   1       1.136  58.928 118.241  0.00  0.00     0.381 N 
ATOM     19  H   LIG d   1       1.459  59.832 118.523  0.00  0.00    -0.090 HD
ATOM     20  H   LIG d   1       0.949  58.954 117.254  0.00  0.00    -0.090 HD
ATOM     21  H   LIG d   1       1.833  58.244 118.436  0.00  0.00    -0.090 HD
ENDBRANCH   5  18
BRANCH   3  22
ATOM     22  C   LIG d   1      -2.609  60.704 120.640  0.00  0.00     0.382 C 
ATOM     23  O   LIG d   1      -3.833  60.740 120.914  0.00  0.00    -0.241 OA
ATOM     24  O   LIG d   1      -1.852  61.581 121.098  0.00  0.00    -0.241 OA
ENDBRANCH   3  22
TORSDOF 7
ENDMDL
MODEL 4
REMARK VINA RESULT:      -5.2      1.932      4.720
REMARK  7 active torsions:
REMARK  status: ('A' for Active; 'I' for Inactive)
REMARK    1  A    between atoms: C_2  and  C_3 
REMARK    2  A    between atoms: C_3  and  O_6 
REMARK    3  A    between atoms: C_3  and  C_4 
REMARK    4  A    between atoms: C_7  and  O_6 
REMARK    5  A    between atoms: C_9  and  C_10 
REMARK    6  A    between atoms: N_15  and  C_14 
REMARK    7  A    between atoms: N_20  and  C_19 
REMARK       I    between atoms: C_22  and  N_20 
ROOT
ATOM      1  C   LIG d   1      -5.230  93.167 117.350  0.00  0.00     0.161 C 
ATOM      2  C   LIG d   1      -5.183  91.779 117.134  0.00  0.00     0.016 C 
ATOM      3  C   LIG d   1      -6.135  91.080 116.357  0.00  0.00     0.038 C 
ATOM      4  C   LIG d   1      -7.119  91.748 115.613  0.00  0.00     0.028 C 
ATOM      5  C   LIG d   1      -7.513  93.098 116.203  0.00  0.00    -0.047 C 
ATOM      6  C   LIG d   1      -6.233  93.927 116.457  0.00  0.00     0.091 C 
ENDROOT
BRANCH   1   7
ATOM      7  O   LIG d   1      -3.910  93.728 117.212  0.00  0.00    -0.368 OA
BRANCH   7   8
ATOM      8  C   LIG d   1      -3.240  94.093 118.444  0.00  0.00     0.119 C 
BRANCH   8   9
ATOM      9  C   LIG d   1      -3.185  95.632 118.501  0.00  0.00     0.028 C 
ATOM     10  C   LIG d   1      -3.771  96.192 119.809  0.00  0.00     0.006 C 
ENDBRANCH   8   9
BRANCH   8  11
ATOM     11  C   LIG d   1      -1.779  93.635 118.441  0.00  0.00     0.028 C 
ATOM     12  C   LIG d   1      -1.620  92.155 118.061  0.00  0.00     0.006 C 
ENDBRANCH   8  11
ENDBRANCH   7   8
ENDBRANCH   1   7
BRANCH   6  13
ATOM     13  N   LIG d   1      -6.521  95.229 117.112  0.00  0.00    -0.311 N 
ATOM     14  C   LIG d   1      -7.095  95.337 118.308  0.00  0.00     0.210 C 
ATOM     15  C   LIG d   1      -7.321  96.773 118.791  0.00  0.00     0.109 C 
ATOM     16  O   LIG d   1      -7.410  94.379 119.030  0.00  0.00    -0.276 OA
ATOM     17  H   LIG d   1      -6.269  96.058 116.609  0.00  0.00     0.149 HD
ENDBRANCH   6  13
BRANCH   5  18
ATOM     18  N   LIG d   1      -8.442  93.744 115.257  0.00  0.00     0.381 N 
ATOM     19  H   LIG d   1      -8.549  93.172 114.443  0.00  0.00    -0.090 HD
ATOM     20  H   LIG d   1      -8.055  94.627 114.974  0.00  0.00    -0.090 HD
ATOM     21  H   LIG d   1      -9.327  93.885 115.692  0.00  0.00    -0.090 HD
ENDBRANCH   5  18
BRANCH   3  22
ATOM     22  C   LIG d   1      -6.132  89.694 116.350  0.00  0.00     0.382 C 
ATOM     23  O   LIG d   1      -5.053  89.070 116.198  0.00  0.00    -0.241 OA
ATOM     24  O   LIG d   1      -7.199  89.059 116.448  0.00  0.00    -0.241 OA
ENDBRANCH   3  22
TORSDOF 7
ENDMDL
MODEL 5
REMARK VINA RESULT:      -5.1      2.004      2.998
REMARK  7 active torsions:
REMARK  status: ('A' for Active; 'I' for Inactive)
REMARK    1  A    between atoms: C_2  and  C_3 
REMARK    2  A    between atoms: C_3  and  O_6 
REMARK    3  A    between atoms: C_3  and  C_4 
REMARK    4  A    between atoms: C_7  and  O_6 
REMARK    5  A    between atoms: C_9  and  C_10 
REMARK    6  A    between atoms: N_15  and  C_14 
REMARK    7  A    between atoms: N_20  and  C_19 
REMARK       I    between atoms: C_22  and  N_20 
ROOT
ATOM      1  C   LIG d   1      -4.564  92.561 117.491  0.00  0.00     0.161 C 
ATOM      2  C   LIG d   1      -5.700  93.362 117.287  0.00  0.00     0.016 C 
ATOM      3  C   LIG d   1      -6.716  93.049 116.356  0.00  0.00     0.038 C 
ATOM      4  C   LIG d   1      -6.740  91.826 115.668  0.00  0.00     0.028 C 
ATOM      5  C   LIG d   1      -5.357  91.216 115.468  0.00  0.00    -0.047 C 
ATOM      6  C   LIG d   1      -4.628  91.168 116.830  0.00  0.00     0.091 C 
ENDROOT
BRANCH   1   7
ATOM      7  O   LIG d   1      -4.303  92.434 118.903  0.00  0.00    -0.368 OA
BRANCH   7   8
ATOM      8  C   LIG d   1      -3.130  93.125 119.399  0.00  0.00     0.119 C 
BRANCH   8   9
ATOM      9  C   LIG d   1      -3.616  94.368 120.169  0.00  0.00     0.028 C 
ATOM     10  C   LIG d   1      -3.473  95.660 119.348  0.00  0.00     0.006 C 
ENDBRANCH   8   9
BRANCH   8  11
ATOM     11  C   LIG d   1      -2.276  93.669 118.249  0.00  0.00     0.028 C 
ATOM     12  C   LIG d   1      -0.876  93.037 118.196  0.00  0.00     0.006 C 
ENDBRANCH   8  11
ENDBRANCH   7   8
ENDBRANCH   1   7
BRANCH   6  13
ATOM     13  N   LIG d   1      -3.236  90.662 116.711  0.00  0.00    -0.311 N 
ATOM     14  C   LIG d   1      -2.736  89.701 117.485  0.00  0.00     0.210 C 
ATOM     15  C   LIG d   1      -1.272  89.343 117.209  0.00  0.00     0.109 C 
ATOM     16  O   LIG d   1      -3.375  89.088 118.354  0.00  0.00    -0.276 OA
ATOM     17  H   LIG d   1      -2.656  91.082 116.011  0.00  0.00     0.149 HD
ENDBRANCH   6  13
BRANCH   5  18
ATOM     18  N   LIG d   1      -5.540  89.884 114.863  0.00  0.00     0.381 N 
ATOM     19  H   LIG d   1      -5.653  89.974 113.873  0.00  0.00    -0.090 HD
ATOM     20  H   LIG d   1      -6.374  89.468 115.239  0.00  0.00    -0.090 HD
ATOM     21  H   LIG d   1      -4.753  89.307 115.063  0.00  0.00    -0.090 HD
ENDBRANCH   5  18
BRANCH   3  22
ATOM     22  C   LIG d   1      -7.702  93.982 116.075  0.00  0.00     0.382 C 
ATOM     23  O   LIG d   1      -7.557  95.175 116.433  0.00  0.00    -0.241 OA
ATOM     24  O   LIG d   1      -8.756  93.636 115.506  0.00  0.00    -0.241 OA
ENDBRANCH   3  22
TORSDOF 7
ENDMDL
MODEL 6
REMARK VINA RESULT:      -5.0      2.578      4.125
REMARK  7 active torsions:
REMARK  status: ('A' for Active; 'I' for Inactive)
REMARK    1  A    between atoms: C_2  and  C_3 
REMARK    2  A    between atoms: C_3  and  O_6 
REMARK    3  A    between atoms: C_3  and  C_4 
REMARK    4  A    between atoms: C_7  and  O_6 
REMARK    5  A    between atoms: C_9  and  C_10 
REMARK    6  A    between atoms: N_15  and  C_14 
REMARK    7  A    between atoms: N_20  and  C_19 
REMARK       I    between atoms: C_22  and  N_20 
ROOT
ATOM      1  C   LIG d   1      -4.199  92.842 116.874  0.00  0.00     0.161 C 
ATOM      2  C   LIG d   1      -5.514  93.067 116.434  0.00  0.00     0.016 C 
ATOM      3  C   LIG d   1      -6.326  92.062 115.860  0.00  0.00     0.038 C 
ATOM      4  C   LIG d   1      -5.927  90.718 115.824  0.00  0.00     0.028 C 
ATOM      5  C   LIG d   1      -4.414  90.535 115.795  0.00  0.00    -0.047 C 
ATOM      6  C   LIG d   1      -3.787  91.356 116.945  0.00  0.00     0.091 C 
ENDROOT
BRANCH   1   7
ATOM      7  O   LIG d   1      -3.994  93.480 118.149  0.00  0.00    -0.368 OA
BRANCH   7   8
ATOM      8  C   LIG d   1      -3.288  94.745 118.123  0.00  0.00     0.119 C 
BRANCH   8   9
ATOM      9  C   LIG d   1      -1.857  94.488 118.634  0.00  0.00     0.028 C 
ATOM     10  C   LIG d   1      -1.825  93.513 119.823  0.00  0.00     0.006 C 
ENDBRANCH   8   9
BRANCH   8  11
ATOM     11  C   LIG d   1      -3.898  95.745 119.110  0.00  0.00     0.028 C 
ATOM     12  C   LIG d   1      -5.432  95.669 119.164  0.00  0.00     0.006 C 
ENDBRANCH   8  11
ENDBRANCH   7   8
ENDBRANCH   1   7
BRANCH   6  13
ATOM     13  N   LIG d   1      -2.302  91.301 116.937  0.00  0.00    -0.311 N 
ATOM     14  C   LIG d   1      -1.597  90.440 117.669  0.00  0.00     0.210 C 
ATOM     15  C   LIG d   1      -0.076  90.565 117.528  0.00  0.00     0.109 C 
ATOM     16  O   LIG d   1      -2.086  89.564 118.397  0.00  0.00    -0.276 OA
ATOM     17  H   LIG d   1      -1.824  91.956 116.350  0.00  0.00     0.149 HD
ENDBRANCH   6  13
BRANCH   5  18
ATOM     18  N   LIG d   1      -4.137  89.090 115.899  0.00  0.00     0.381 N 
ATOM     19  H   LIG d   1      -3.190  88.946 116.187  0.00  0.00    -0.090 HD
ATOM     20  H   LIG d   1      -4.260  88.670 114.995  0.00  0.00    -0.090 HD
ATOM     21  H   LIG d   1      -4.758  88.670 116.556  0.00  0.00    -0.090 HD
ENDBRANCH   5  18
BRANCH   3  22
ATOM     22  C   LIG d   1      -7.536  92.406 115.277  0.00  0.00     0.382 C 
ATOM     23  O   LIG d   1      -7.822  93.614 115.093  0.00  0.00    -0.241 OA
ATOM     24  O   LIG d   1      -8.364  91.526 114.973  0.00  0.00    -0.241 OA
ENDBRANCH   3  22
TORSDOF 7
ENDMDL
MODEL 7
REMARK VINA RESULT:      -4.9     32.866     34.494
REMARK  7 active torsions:
REMARK  status: ('A' for Active; 'I' for Inactive)
REMARK    1  A    between atoms: C_2  and  C_3 
REMARK    2  A    between atoms: C_3  and  O_6 
REMARK    3  A    between atoms: C_3  and  C_4 
REMARK    4  A    between atoms: C_7  and  O_6 
REMARK    5  A    between atoms: C_9  and  C_10 
REMARK    6  A    between atoms: N_15  and  C_14 
REMARK    7  A    between atoms: N_20  and  C_19 
REMARK       I    between atoms: C_22  and  N_20 
ROOT
ATOM      1  C   LIG d   1      -1.473  58.660 118.258  0.00  0.00     0.161 C 
ATOM      2  C   LIG d   1      -0.178  58.671 118.802  0.00  0.00     0.016 C 
ATOM      3  C   LIG d   1       0.171  59.394 119.966  0.00  0.00     0.038 C 
ATOM      4  C   LIG d   1      -0.794  60.037 120.756  0.00  0.00     0.028 C 
ATOM      5  C   LIG d   1      -2.027  60.473 119.972  0.00  0.00    -0.047 C 
ATOM      6  C   LIG d   1      -2.562  59.266 119.168  0.00  0.00     0.091 C 
ENDROOT
BRANCH   1   7
ATOM      7  O   LIG d   1      -1.831  57.318 117.874  0.00  0.00    -0.368 OA
BRANCH   7   8
ATOM      8  C   LIG d   1      -1.830  57.040 116.452  0.00  0.00     0.119 C 
BRANCH   8   9
ATOM      9  C   LIG d   1      -0.499  56.340 116.117  0.00  0.00     0.028 C 
ATOM     10  C   LIG d   1      -0.482  54.868 116.560  0.00  0.00     0.006 C 
ENDBRANCH   8   9
BRANCH   8  11
ATOM     11  C   LIG d   1      -1.827  58.333 115.632  0.00  0.00     0.028 C 
ATOM     12  C   LIG d   1      -3.126  58.538 114.836  0.00  0.00     0.006 C 
ENDBRANCH   8  11
ENDBRANCH   7   8
ENDBRANCH   1   7
BRANCH   6  13
ATOM     13  N   LIG d   1      -3.719  59.627 118.307  0.00  0.00    -0.311 N 
ATOM     14  C   LIG d   1      -4.806  58.867 118.184  0.00  0.00     0.210 C 
ATOM     15  C   LIG d   1      -5.872  59.415 117.230  0.00  0.00     0.109 C 
ATOM     16  O   LIG d   1      -5.003  57.809 118.799  0.00  0.00    -0.276 OA
ATOM     17  H   LIG d   1      -3.656  60.485 117.796  0.00  0.00     0.149 HD
ENDBRANCH   6  13
BRANCH   5  18
ATOM     18  N   LIG d   1      -3.006  61.003 120.940  0.00  0.00     0.381 N 
ATOM     19  H   LIG d   1      -3.364  61.878 120.613  0.00  0.00    -0.090 HD
ATOM     20  H   LIG d   1      -2.543  61.159 121.818  0.00  0.00    -0.090 HD
ATOM     21  H   LIG d   1      -3.752  60.354 121.060  0.00  0.00    -0.090 HD
ENDBRANCH   5  18
BRANCH   3  22
ATOM     22  C   LIG d   1       1.504  59.511 120.329  0.00  0.00     0.382 C 
ATOM     23  O   LIG d   1       1.808  59.921 121.474  0.00  0.00    -0.241 OA
ATOM     24  O   LIG d   1       2.406  59.253 119.510  0.00  0.00    -0.241 OA
ENDBRANCH   3  22
TORSDOF 7
ENDMDL
MODEL 8
REMARK VINA RESULT:      -4.8     32.789     34.555
REMARK  7 active torsions:
REMARK  status: ('A' for Active; 'I' for Inactive)
REMARK    1  A    between atoms: C_2  and  C_3 
REMARK    2  A    between atoms: C_3  and  O_6 
REMARK    3  A    between atoms: C_3  and  C_4 
REMARK    4  A    between atoms: C_7  and  O_6 
REMARK    5  A    between atoms: C_9  and  C_10 
REMARK    6  A    between atoms: N_15  and  C_14 
REMARK    7  A    between atoms: N_20  and  C_19 
REMARK       I    between atoms: C_22  and  N_20 
ROOT
ATOM      1  C   LIG d   1      -1.608  58.739 118.782  0.00  0.00     0.161 C 
ATOM      2  C   LIG d   1      -2.474  58.395 117.730  0.00  0.00     0.016 C 
ATOM      3  C   LIG d   1      -2.028  58.067 116.430  0.00  0.00     0.038 C 
ATOM      4  C   LIG d   1      -0.666  57.912 116.130  0.00  0.00     0.028 C 
ATOM      5  C   LIG d   1       0.249  58.740 117.026  0.00  0.00    -0.047 C 
ATOM      6  C   LIG d   1      -0.115  58.467 118.504  0.00  0.00     0.091 C 
ENDROOT
BRANCH   1   7
ATOM      7  O   LIG d   1      -2.021  58.075 119.992  0.00  0.00    -0.368 OA
BRANCH   7   8
ATOM      8  C   LIG d   1      -2.694  58.900 120.974  0.00  0.00     0.119 C 
BRANCH   8   9
ATOM      9  C   LIG d   1      -4.201  58.594 120.882  0.00  0.00     0.028 C 
ATOM     10  C   LIG d   1      -4.989  59.727 120.203  0.00  0.00     0.006 C 
ENDBRANCH   8   9
BRANCH   8  11
ATOM     11  C   LIG d   1      -2.561  60.388 120.637  0.00  0.00     0.028 C 
ATOM     12  C   LIG d   1      -1.569  61.121 121.554  0.00  0.00     0.006 C 
ENDBRANCH   8  11
ENDBRANCH   7   8
ENDBRANCH   1   7
BRANCH   6  13
ATOM     13  N   LIG d   1       0.677  59.301 119.445  0.00  0.00    -0.311 N 
ATOM     14  C   LIG d   1       1.328  58.804 120.495  0.00  0.00     0.210 C 
ATOM     15  C   LIG d   1       2.066  59.840 121.349  0.00  0.00     0.109 C 
ATOM     16  O   LIG d   1       1.392  57.599 120.782  0.00  0.00    -0.276 OA
ATOM     17  H   LIG d   1       0.705  60.286 119.269  0.00  0.00     0.149 HD
ENDBRANCH   6  13
BRANCH   5  18
ATOM     18  N   LIG d   1       1.641  58.379 116.697  0.00  0.00     0.381 N 
ATOM     19  H   LIG d   1       1.934  58.873 115.878  0.00  0.00    -0.090 HD
ATOM     20  H   LIG d   1       1.684  57.394 116.503  0.00  0.00    -0.090 HD
ATOM     21  H   LIG d   1       2.241  58.601 117.461  0.00  0.00    -0.090 HD
ENDBRANCH   5  18
BRANCH   3  22
ATOM     22  C   LIG d   1      -2.948  57.929 115.402  0.00  0.00     0.382 C 
ATOM     23  O   LIG d   1      -3.379  58.945 114.805  0.00  0.00    -0.241 OA
ATOM     24  O   LIG d   1      -3.386  56.804 115.093  0.00  0.00    -0.241 OA
ENDBRANCH   3  22
TORSDOF 7
ENDMDL
MODEL 9
REMARK VINA RESULT:      -4.7     33.179     35.527
REMARK  7 active torsions:
REMARK  status: ('A' for Active; 'I' for Inactive)
REMARK    1  A    between atoms: C_2  and  C_3 
REMARK    2  A    between atoms: C_3  and  O_6 
REMARK    3  A    between atoms: C_3  and  C_4 
REMARK    4  A    between atoms: C_7  and  O_6 
REMARK    5  A    between atoms: C_9  and  C_10 
REMARK    6  A    between atoms: N_15  and  C_14 
REMARK    7  A    between atoms: N_20  and  C_19 
REMARK       I    between atoms: C_22  and  N_20 
ROOT
ATOM      1  C   LIG d   1      -2.140  57.289 118.109  0.00  0.00     0.161 C 
ATOM      2  C   LIG d   1      -3.405  57.292 117.497  0.00  0.00     0.016 C 
ATOM      3  C   LIG d   1      -4.260  58.417 117.482  0.00  0.00     0.038 C 
ATOM      4  C   LIG d   1      -3.843  59.672 117.951  0.00  0.00     0.028 C 
ATOM      5  C   LIG d   1      -2.769  59.588 119.031  0.00  0.00    -0.047 C 
ATOM      6  C   LIG d   1      -1.623  58.681 118.529  0.00  0.00     0.091 C 
ENDROOT
BRANCH   1   7
ATOM      7  O   LIG d   1      -1.183  56.636 117.252  0.00  0.00    -0.368 OA
BRANCH   7   8
ATOM      8  C   LIG d   1      -1.013  55.212 117.456  0.00  0.00     0.119 C 
BRANCH   8   9
ATOM      9  C   LIG d   1      -1.018  54.958 118.976  0.00  0.00     0.028 C 
ATOM     10  C   LIG d   1      -1.794  53.686 119.356  0.00  0.00     0.006 C 
ENDBRANCH   8   9
BRANCH   8  11
ATOM     11  C   LIG d   1       0.361  54.741 116.971  0.00  0.00     0.028 C 
ATOM     12  C   LIG d   1       0.275  53.809 115.751  0.00  0.00     0.006 C 
ENDBRANCH   8  11
ENDBRANCH   7   8
ENDBRANCH   1   7
BRANCH   6  13
ATOM     13  N   LIG d   1      -0.569  58.478 119.558  0.00  0.00    -0.311 N 
ATOM     14  C   LIG d   1       0.708  58.808 119.374  0.00  0.00     0.210 C 
ATOM     15  C   LIG d   1       1.633  58.495 120.555  0.00  0.00     0.109 C 
ATOM     16  O   LIG d   1       1.157  59.361 118.359  0.00  0.00    -0.276 OA
ATOM     17  H   LIG d   1      -0.852  58.063 120.424  0.00  0.00     0.149 HD
ENDBRANCH   6  13
BRANCH   5  18
ATOM     18  N   LIG d   1      -2.329  60.964 119.330  0.00  0.00     0.381 N 
ATOM     19  H   LIG d   1      -2.980  61.400 119.952  0.00  0.00    -0.090 HD
ATOM     20  H   LIG d   1      -2.309  61.492 118.475  0.00  0.00    -0.090 HD
ATOM     21  H   LIG d   1      -1.422  60.950 119.742  0.00  0.00    -0.090 HD
ENDBRANCH   5  18
BRANCH   3  22
ATOM     22  C   LIG d   1      -5.564  58.284 117.030  0.00  0.00     0.382 C 
ATOM     23  O   LIG d   1      -6.069  59.172 116.301  0.00  0.00    -0.241 OA
ATOM     24  O   LIG d   1      -6.256  57.308 117.377  0.00  0.00    -0.241 OA
ENDBRANCH   3  22
TORSDOF 7
ENDMDL
