MODEL 1
REMARK VINA RESULT:      -5.1      0.000      0.000
REMARK  7 active torsions:
REMARK  status: ('A' for Active; 'I' for Inactive)
REMARK    1  A    between atoms: C_2  and  C_3 
REMARK    2  A    between atoms: C_3  and  O_6 
REMARK    3  A    between atoms: C_3  and  C_4 
REMARK    4  A    between atoms: C_7  and  O_6 
REMARK    5  A    between atoms: C_9  and  C_10 
REMARK    6  A    between atoms: N_15  and  C_14 
REMARK    7  A    between atoms: N_20  and  C_19 
REMARK       I    between atoms: C_22  and  N_20 
ROOT
ATOM      1  C   LIG d   1      -3.067  78.317 115.601  0.00  0.00     0.161 C 
ATOM      2  C   LIG d   1      -3.200  79.344 114.652  0.00  0.00     0.016 C 
ATOM      3  C   LIG d   1      -2.574  79.318 113.385  0.00  0.00     0.038 C 
ATOM      4  C   LIG d   1      -1.889  78.186 112.919  0.00  0.00     0.028 C 
ATOM      5  C   LIG d   1      -1.305  77.329 114.037  0.00  0.00    -0.047 C 
ATOM      6  C   LIG d   1      -2.416  77.024 115.068  0.00  0.00     0.091 C 
ENDROOT
BRANCH   1   7
ATOM      7  O   LIG d   1      -4.351  78.026 116.189  0.00  0.00    -0.368 OA
BRANCH   7   8
ATOM      8  C   LIG d   1      -4.564  78.523 117.533  0.00  0.00     0.119 C 
BRANCH   8   9
ATOM      9  C   LIG d   1      -5.330  77.436 118.313  0.00  0.00     0.028 C 
ATOM     10  C   LIG d   1      -5.270  76.065 117.619  0.00  0.00     0.006 C 
ENDBRANCH   8   9
BRANCH   8  11
ATOM     11  C   LIG d   1      -5.483  79.748 117.536  0.00  0.00     0.028 C 
ATOM     12  C   LIG d   1      -6.934  79.403 117.907  0.00  0.00     0.006 C 
ENDBRANCH   8  11
ENDBRANCH   7   8
ENDBRANCH   1   7
BRANCH   6  13
ATOM     13  N   LIG d   1      -1.909  76.261 116.238  0.00  0.00    -0.311 N 
ATOM     14  C   LIG d   1      -1.954  74.932 116.322  0.00  0.00     0.210 C 
ATOM     15  C   LIG d   1      -1.396  74.347 117.623  0.00  0.00     0.109 C 
ATOM     16  O   LIG d   1      -2.373  74.181 115.428  0.00  0.00    -0.276 OA
ATOM     17  H   LIG d   1      -1.523  76.790 116.996  0.00  0.00     0.149 HD
ENDBRANCH   6  13
BRANCH   5  18
ATOM     18  N   LIG d   1      -0.741  76.114 113.419  0.00  0.00     0.381 N 
ATOM     19  H   LIG d   1      -1.419  75.379 113.437  0.00  0.00    -0.090 HD
ATOM     20  H   LIG d   1       0.058  75.819 113.952  0.00  0.00    -0.090 HD
ATOM     21  H   LIG d   1      -0.471  76.304 112.479  0.00  0.00    -0.090 HD
ENDBRANCH   5  18
BRANCH   3  22
ATOM     22  C   LIG d   1      -2.595  80.450 112.584  0.00  0.00     0.382 C 
ATOM     23  O   LIG d   1      -3.572  81.236 112.636  0.00  0.00    -0.241 OA
ATOM     24  O   LIG d   1      -1.671  80.672 111.779  0.00  0.00    -0.241 OA
ENDBRANCH   3  22
TORSDOF 7
ENDMDL
MODEL 2
REMARK VINA RESULT:      -4.9      2.666      5.340
REMARK  7 active torsions:
REMARK  status: ('A' for Active; 'I' for Inactive)
REMARK    1  A    between atoms: C_2  and  C_3 
REMARK    2  A    between atoms: C_3  and  O_6 
REMARK    3  A    between atoms: C_3  and  C_4 
REMARK    4  A    between atoms: C_7  and  O_6 
REMARK    5  A    between atoms: C_9  and  C_10 
REMARK    6  A    between atoms: N_15  and  C_14 
REMARK    7  A    between atoms: N_20  and  C_19 
REMARK       I    between atoms: C_22  and  N_20 
ROOT
ATOM      1  C   LIG d   1      -2.074  79.202 114.541  0.00  0.00     0.161 C 
ATOM      2  C   LIG d   1      -3.045  78.299 115.004  0.00  0.00     0.016 C 
ATOM      3  C   LIG d   1      -3.603  77.276 114.203  0.00  0.00     0.038 C 
ATOM      4  C   LIG d   1      -3.113  76.989 112.921  0.00  0.00     0.028 C 
ATOM      5  C   LIG d   1      -2.484  78.194 112.229  0.00  0.00    -0.047 C 
ATOM      6  C   LIG d   1      -1.447  78.834 113.180  0.00  0.00     0.091 C 
ENDROOT
BRANCH   1   7
ATOM      7  O   LIG d   1      -1.046  79.368 115.537  0.00  0.00    -0.368 OA
BRANCH   7   8
ATOM      8  C   LIG d   1      -1.155  78.526 116.712  0.00  0.00     0.119 C 
BRANCH   8   9
ATOM      9  C   LIG d   1      -0.964  79.428 117.947  0.00  0.00     0.028 C 
ATOM     10  C   LIG d   1       0.257  80.353 117.815  0.00  0.00     0.006 C 
ENDBRANCH   8   9
BRANCH   8  11
ATOM     11  C   LIG d   1      -0.014  77.506 116.774  0.00  0.00     0.028 C 
ATOM     12  C   LIG d   1      -0.501  76.056 116.627  0.00  0.00     0.006 C 
ENDBRANCH   8  11
ENDBRANCH   7   8
ENDBRANCH   1   7
BRANCH   6  13
ATOM     13  N   LIG d   1      -0.845  80.069 112.613  0.00  0.00    -0.311 N 
ATOM     14  C   LIG d   1      -1.564  81.084 112.137  0.00  0.00     0.210 C 
ATOM     15  C   LIG d   1      -0.745  82.253 111.581  0.00  0.00     0.109 C 
ATOM     16  O   LIG d   1      -2.803  81.140 112.152  0.00  0.00    -0.276 OA
ATOM     17  H   LIG d   1       0.155  80.121 112.591  0.00  0.00     0.149 HD
ENDBRANCH   6  13
BRANCH   5  18
ATOM     18  N   LIG d   1      -1.893  77.722 110.962  0.00  0.00     0.381 N 
ATOM     19  H   LIG d   1      -1.291  76.944 111.138  0.00  0.00    -0.090 HD
ATOM     20  H   LIG d   1      -1.343  78.463 110.564  0.00  0.00    -0.090 HD
ATOM     21  H   LIG d   1      -2.614  77.457 110.328  0.00  0.00    -0.090 HD
ENDBRANCH   5  18
BRANCH   3  22
ATOM     22  C   LIG d   1      -4.690  76.553 114.670  0.00  0.00     0.382 C 
ATOM     23  O   LIG d   1      -4.857  75.366 114.302  0.00  0.00    -0.241 OA
ATOM     24  O   LIG d   1      -5.530  77.088 115.418  0.00  0.00    -0.241 OA
ENDBRANCH   3  22
TORSDOF 7
ENDMDL
MODEL 3
REMARK VINA RESULT:      -4.8      2.336      5.235
REMARK  7 active torsions:
REMARK  status: ('A' for Active; 'I' for Inactive)
REMARK    1  A    between atoms: C_2  and  C_3 
REMARK    2  A    between atoms: C_3  and  O_6 
REMARK    3  A    between atoms: C_3  and  C_4 
REMARK    4  A    between atoms: C_7  and  O_6 
REMARK    5  A    between atoms: C_9  and  C_10 
REMARK    6  A    between atoms: N_15  and  C_14 
REMARK    7  A    between atoms: N_20  and  C_19 
REMARK       I    between atoms: C_22  and  N_20 
ROOT
ATOM      1  C   LIG d   1      -2.139  76.133 115.131  0.00  0.00     0.161 C 
ATOM      2  C   LIG d   1      -2.023  75.443 116.349  0.00  0.00     0.016 C 
ATOM      3  C   LIG d   1      -1.412  75.993 117.500  0.00  0.00     0.038 C 
ATOM      4  C   LIG d   1      -1.010  77.336 117.555  0.00  0.00     0.028 C 
ATOM      5  C   LIG d   1      -0.649  77.916 116.192  0.00  0.00    -0.047 C 
ATOM      6  C   LIG d   1      -1.806  77.637 115.206  0.00  0.00     0.091 C 
ENDROOT
BRANCH   1   7
ATOM      7  O   LIG d   1      -3.459  75.939 114.584  0.00  0.00    -0.368 OA
BRANCH   7   8
ATOM      8  C   LIG d   1      -4.517  75.695 115.544  0.00  0.00     0.119 C 
BRANCH   8   9
ATOM      9  C   LIG d   1      -5.432  74.603 114.956  0.00  0.00     0.028 C 
ATOM     10  C   LIG d   1      -6.545  74.184 115.931  0.00  0.00     0.006 C 
ENDBRANCH   8   9
BRANCH   8  11
ATOM     11  C   LIG d   1      -5.412  76.927 115.711  0.00  0.00     0.028 C 
ATOM     12  C   LIG d   1      -5.094  77.725 116.985  0.00  0.00     0.006 C 
ENDBRANCH   8  11
ENDBRANCH   7   8
ENDBRANCH   1   7
BRANCH   6  13
ATOM     13  N   LIG d   1      -1.499  78.099 113.827  0.00  0.00    -0.311 N 
ATOM     14  C   LIG d   1      -2.201  79.037 113.194  0.00  0.00     0.210 C 
ATOM     15  C   LIG d   1      -1.728  79.349 111.771  0.00  0.00     0.109 C 
ATOM     16  O   LIG d   1      -3.150  79.663 113.688  0.00  0.00    -0.276 OA
ATOM     17  H   LIG d   1      -0.724  77.666 113.363  0.00  0.00     0.149 HD
ENDBRANCH   6  13
BRANCH   5  18
ATOM     18  N   LIG d   1      -0.381  79.355 116.377  0.00  0.00     0.381 N 
ATOM     19  H   LIG d   1      -1.225  79.826 116.639  0.00  0.00    -0.090 HD
ATOM     20  H   LIG d   1      -0.062  79.741 115.506  0.00  0.00    -0.090 HD
ATOM     21  H   LIG d   1       0.312  79.485 117.081  0.00  0.00    -0.090 HD
ENDBRANCH   5  18
BRANCH   3  22
ATOM     22  C   LIG d   1      -1.164  75.185 118.599  0.00  0.00     0.382 C 
ATOM     23  O   LIG d   1      -0.004  74.755 118.811  0.00  0.00    -0.241 OA
ATOM     24  O   LIG d   1      -2.092  74.845 119.356  0.00  0.00    -0.241 OA
ENDBRANCH   3  22
TORSDOF 7
ENDMDL
MODEL 4
REMARK VINA RESULT:      -4.7      2.629      3.793
REMARK  7 active torsions:
REMARK  status: ('A' for Active; 'I' for Inactive)
REMARK    1  A    between atoms: C_2  and  C_3 
REMARK    2  A    between atoms: C_3  and  O_6 
REMARK    3  A    between atoms: C_3  and  C_4 
REMARK    4  A    between atoms: C_7  and  O_6 
REMARK    5  A    between atoms: C_9  and  C_10 
REMARK    6  A    between atoms: N_15  and  C_14 
REMARK    7  A    between atoms: N_20  and  C_19 
REMARK       I    between atoms: C_22  and  N_20 
ROOT
ATOM      1  C   LIG d   1      -3.917  77.585 115.652  0.00  0.00     0.161 C 
ATOM      2  C   LIG d   1      -3.944  77.160 114.314  0.00  0.00     0.016 C 
ATOM      3  C   LIG d   1      -2.927  77.465 113.380  0.00  0.00     0.038 C 
ATOM      4  C   LIG d   1      -1.733  78.093 113.763  0.00  0.00     0.028 C 
ATOM      5  C   LIG d   1      -1.884  78.984 114.991  0.00  0.00    -0.047 C 
ATOM      6  C   LIG d   1      -2.570  78.176 116.116  0.00  0.00     0.091 C 
ENDROOT
BRANCH   1   7
ATOM      7  O   LIG d   1      -4.314  76.502 116.517  0.00  0.00    -0.368 OA
BRANCH   7   8
ATOM      8  C   LIG d   1      -4.163  75.167 115.976  0.00  0.00     0.119 C 
BRANCH   8   9
ATOM      9  C   LIG d   1      -5.522  74.455 116.113  0.00  0.00     0.028 C 
ATOM     10  C   LIG d   1      -6.180  74.180 114.750  0.00  0.00     0.006 C 
ENDBRANCH   8   9
BRANCH   8  11
ATOM     11  C   LIG d   1      -3.184  74.335 116.811  0.00  0.00     0.028 C 
ATOM     12  C   LIG d   1      -2.647  75.097 118.033  0.00  0.00     0.006 C 
ENDBRANCH   8  11
ENDBRANCH   7   8
ENDBRANCH   1   7
BRANCH   6  13
ATOM     13  N   LIG d   1      -2.832  78.998 117.326  0.00  0.00    -0.311 N 
ATOM     14  C   LIG d   1      -2.010  79.044 118.374  0.00  0.00     0.210 C 
ATOM     15  C   LIG d   1      -2.480  79.939 119.525  0.00  0.00     0.109 C 
ATOM     16  O   LIG d   1      -0.923  78.453 118.446  0.00  0.00    -0.276 OA
ATOM     17  H   LIG d   1      -3.677  79.534 117.339  0.00  0.00     0.149 HD
ENDBRANCH   6  13
BRANCH   5  18
ATOM     18  N   LIG d   1      -0.539  79.464 115.361  0.00  0.00     0.381 N 
ATOM     19  H   LIG d   1      -0.594  80.015 116.195  0.00  0.00    -0.090 HD
ATOM     20  H   LIG d   1      -0.187  80.046 114.622  0.00  0.00    -0.090 HD
ATOM     21  H   LIG d   1       0.072  78.691 115.505  0.00  0.00    -0.090 HD
ENDBRANCH   5  18
BRANCH   3  22
ATOM     22  C   LIG d   1      -3.118  77.177 112.037  0.00  0.00     0.382 C 
ATOM     23  O   LIG d   1      -4.246  77.347 111.513  0.00  0.00    -0.241 OA
ATOM     24  O   LIG d   1      -2.189  76.707 111.353  0.00  0.00    -0.241 OA
ENDBRANCH   3  22
TORSDOF 7
ENDMDL
MODEL 5
REMARK VINA RESULT:      -4.6      1.798      2.387
REMARK  7 active torsions:
REMARK  status: ('A' for Active; 'I' for Inactive)
REMARK    1  A    between atoms: C_2  and  C_3 
REMARK    2  A    between atoms: C_3  and  O_6 
REMARK    3  A    between atoms: C_3  and  C_4 
REMARK    4  A    between atoms: C_7  and  O_6 
REMARK    5  A    between atoms: C_9  and  C_10 
REMARK    6  A    between atoms: N_15  and  C_14 
REMARK    7  A    between atoms: N_20  and  C_19 
REMARK       I    between atoms: C_22  and  N_20 
ROOT
ATOM      1  C   LIG d   1      -3.141  76.791 115.914  0.00  0.00     0.161 C 
ATOM      2  C   LIG d   1      -3.366  77.870 115.043  0.00  0.00     0.016 C 
ATOM      3  C   LIG d   1      -2.562  78.136 113.910  0.00  0.00     0.038 C 
ATOM      4  C   LIG d   1      -1.565  77.246 113.483  0.00  0.00     0.028 C 
ATOM      5  C   LIG d   1      -0.974  76.411 114.614  0.00  0.00    -0.047 C 
ATOM      6  C   LIG d   1      -2.127  75.747 115.402  0.00  0.00     0.091 C 
ENDROOT
BRANCH   1   7
ATOM      7  O   LIG d   1      -4.394  76.156 116.237  0.00  0.00    -0.368 OA
BRANCH   7   8
ATOM      8  C   LIG d   1      -5.587  76.808 115.738  0.00  0.00     0.119 C 
BRANCH   8   9
ATOM      9  C   LIG d   1      -6.381  77.318 116.957  0.00  0.00     0.028 C 
ATOM     10  C   LIG d   1      -6.707  76.194 117.955  0.00  0.00     0.006 C 
ENDBRANCH   8   9
BRANCH   8  11
ATOM     11  C   LIG d   1      -6.516  75.812 115.037  0.00  0.00     0.028 C 
ATOM     12  C   LIG d   1      -5.834  74.467 114.743  0.00  0.00     0.006 C 
ENDBRANCH   8  11
ENDBRANCH   7   8
ENDBRANCH   1   7
BRANCH   6  13
ATOM     13  N   LIG d   1      -1.641  74.979 116.578  0.00  0.00    -0.311 N 
ATOM     14  C   LIG d   1      -0.926  75.520 117.563  0.00  0.00     0.210 C 
ATOM     15  C   LIG d   1      -0.509  74.547 118.670  0.00  0.00     0.109 C 
ATOM     16  O   LIG d   1      -0.626  76.721 117.642  0.00  0.00    -0.276 OA
ATOM     17  H   LIG d   1      -1.866  74.004 116.611  0.00  0.00     0.149 HD
ENDBRANCH   6  13
BRANCH   5  18
ATOM     18  N   LIG d   1      -0.049  75.434 114.010  0.00  0.00     0.381 N 
ATOM     19  H   LIG d   1       0.896  75.701 114.199  0.00  0.00    -0.090 HD
ATOM     20  H   LIG d   1      -0.183  75.431 113.015  0.00  0.00    -0.090 HD
ATOM     21  H   LIG d   1      -0.224  74.525 114.379  0.00  0.00    -0.090 HD
ENDBRANCH   5  18
BRANCH   3  22
ATOM     22  C   LIG d   1      -2.728  79.323 113.213  0.00  0.00     0.382 C 
ATOM     23  O   LIG d   1      -3.167  80.340 113.803  0.00  0.00    -0.241 OA
ATOM     24  O   LIG d   1      -2.485  79.379 111.993  0.00  0.00    -0.241 OA
ENDBRANCH   3  22
TORSDOF 7
ENDMDL
MODEL 6
REMARK VINA RESULT:      -4.5      2.259      5.871
REMARK  7 active torsions:
REMARK  status: ('A' for Active; 'I' for Inactive)
REMARK    1  A    between atoms: C_2  and  C_3 
REMARK    2  A    between atoms: C_3  and  O_6 
REMARK    3  A    between atoms: C_3  and  C_4 
REMARK    4  A    between atoms: C_7  and  O_6 
REMARK    5  A    between atoms: C_9  and  C_10 
REMARK    6  A    between atoms: N_15  and  C_14 
REMARK    7  A    between atoms: N_20  and  C_19 
REMARK       I    between atoms: C_22  and  N_20 
ROOT
ATOM      1  C   LIG d   1      -2.943  78.547 115.564  0.00  0.00     0.161 C 
ATOM      2  C   LIG d   1      -2.112  77.454 115.265  0.00  0.00     0.016 C 
ATOM      3  C   LIG d   1      -2.184  76.214 115.941  0.00  0.00     0.038 C 
ATOM      4  C   LIG d   1      -3.201  75.932 116.866  0.00  0.00     0.028 C 
ATOM      5  C   LIG d   1      -3.748  77.173 117.562  0.00  0.00    -0.047 C 
ATOM      6  C   LIG d   1      -4.132  78.221 116.492  0.00  0.00     0.091 C 
ENDROOT
BRANCH   1   7
ATOM      7  O   LIG d   1      -3.412  79.151 114.342  0.00  0.00    -0.368 OA
BRANCH   7   8
ATOM      8  C   LIG d   1      -2.530  79.044 113.198  0.00  0.00     0.119 C 
BRANCH   8   9
ATOM      9  C   LIG d   1      -2.469  80.431 112.529  0.00  0.00     0.028 C 
ATOM     10  C   LIG d   1      -1.084  80.734 111.932  0.00  0.00     0.006 C 
ENDBRANCH   8   9
BRANCH   8  11
ATOM     11  C   LIG d   1      -3.109  78.106 112.134  0.00  0.00     0.028 C 
ATOM     12  C   LIG d   1      -2.039  77.218 111.478  0.00  0.00     0.006 C 
ENDBRANCH   8  11
ENDBRANCH   7   8
ENDBRANCH   1   7
BRANCH   6  13
ATOM     13  N   LIG d   1      -4.598  79.498 117.091  0.00  0.00    -0.311 N 
ATOM     14  C   LIG d   1      -5.865  79.731 117.428  0.00  0.00     0.210 C 
ATOM     15  C   LIG d   1      -6.135  81.121 118.012  0.00  0.00     0.109 C 
ATOM     16  O   LIG d   1      -6.786  78.906 117.328  0.00  0.00    -0.276 OA
ATOM     17  H   LIG d   1      -3.911  80.212 117.236  0.00  0.00     0.149 HD
ENDBRANCH   6  13
BRANCH   5  18
ATOM     18  N   LIG d   1      -4.892  76.750 118.393  0.00  0.00     0.381 N 
ATOM     19  H   LIG d   1      -4.884  77.251 119.259  0.00  0.00    -0.090 HD
ATOM     20  H   LIG d   1      -4.802  75.770 118.594  0.00  0.00    -0.090 HD
ATOM     21  H   LIG d   1      -5.746  76.920 117.909  0.00  0.00    -0.090 HD
ENDBRANCH   5  18
BRANCH   3  22
ATOM     22  C   LIG d   1      -1.207  75.255 115.724  0.00  0.00     0.382 C 
ATOM     23  O   LIG d   1      -0.521  74.829 116.684  0.00  0.00    -0.241 OA
ATOM     24  O   LIG d   1      -0.972  74.843 114.572  0.00  0.00    -0.241 OA
ENDBRANCH   3  22
TORSDOF 7
ENDMDL
MODEL 7
REMARK VINA RESULT:      -4.4      2.693      5.075
REMARK  7 active torsions:
REMARK  status: ('A' for Active; 'I' for Inactive)
REMARK    1  A    between atoms: C_2  and  C_3 
REMARK    2  A    between atoms: C_3  and  O_6 
REMARK    3  A    between atoms: C_3  and  C_4 
REMARK    4  A    between atoms: C_7  and  O_6 
REMARK    5  A    between atoms: C_9  and  C_10 
REMARK    6  A    between atoms: N_15  and  C_14 
REMARK    7  A    between atoms: N_20  and  C_19 
REMARK       I    between atoms: C_22  and  N_20 
ROOT
ATOM      1  C   LIG d   1      -2.961  78.451 115.681  0.00  0.00     0.161 C 
ATOM      2  C   LIG d   1      -1.727  79.042 115.998  0.00  0.00     0.016 C 
ATOM      3  C   LIG d   1      -0.786  78.454 116.875  0.00  0.00     0.038 C 
ATOM      4  C   LIG d   1      -0.951  77.155 117.378  0.00  0.00     0.028 C 
ATOM      5  C   LIG d   1      -2.411  76.730 117.488  0.00  0.00    -0.047 C 
ATOM      6  C   LIG d   1      -3.111  76.983 116.133  0.00  0.00     0.091 C 
ENDROOT
BRANCH   1   7
ATOM      7  O   LIG d   1      -3.209  78.567 114.266  0.00  0.00    -0.368 OA
BRANCH   7   8
ATOM      8  C   LIG d   1      -2.039  78.557 113.411  0.00  0.00     0.119 C 
BRANCH   8   9
ATOM      9  C   LIG d   1      -2.353  79.439 112.187  0.00  0.00     0.028 C 
ATOM     10  C   LIG d   1      -2.808  80.853 112.583  0.00  0.00     0.006 C 
ENDBRANCH   8   9
BRANCH   8  11
ATOM     11  C   LIG d   1      -1.774  77.158 112.846  0.00  0.00     0.028 C 
ATOM     12  C   LIG d   1      -1.937  77.092 111.319  0.00  0.00     0.006 C 
ENDBRANCH   8  11
ENDBRANCH   7   8
ENDBRANCH   1   7
BRANCH   6  13
ATOM     13  N   LIG d   1      -4.564  76.672 116.178  0.00  0.00    -0.311 N 
ATOM     14  C   LIG d   1      -5.192  75.969 115.238  0.00  0.00     0.210 C 
ATOM     15  C   LIG d   1      -6.695  75.780 115.469  0.00  0.00     0.109 C 
ATOM     16  O   LIG d   1      -4.643  75.456 114.252  0.00  0.00    -0.276 OA
ATOM     17  H   LIG d   1      -5.081  77.024 116.960  0.00  0.00     0.149 HD
ENDBRANCH   6  13
BRANCH   5  18
ATOM     18  N   LIG d   1      -2.433  75.312 117.893  0.00  0.00     0.381 N 
ATOM     19  H   LIG d   1      -2.796  75.230 118.822  0.00  0.00    -0.090 HD
ATOM     20  H   LIG d   1      -1.492  74.958 117.890  0.00  0.00    -0.090 HD
ATOM     21  H   LIG d   1      -2.995  74.785 117.262  0.00  0.00    -0.090 HD
ENDBRANCH   5  18
BRANCH   3  22
ATOM     22  C   LIG d   1       0.318  79.185 117.287  0.00  0.00     0.382 C 
ATOM     23  O   LIG d   1       1.189  78.649 118.014  0.00  0.00    -0.241 OA
ATOM     24  O   LIG d   1       0.432  80.386 116.979  0.00  0.00    -0.241 OA
ENDBRANCH   3  22
TORSDOF 7
ENDMDL
MODEL 8
REMARK VINA RESULT:      -4.3      2.739      3.468
REMARK  7 active torsions:
REMARK  status: ('A' for Active; 'I' for Inactive)
REMARK    1  A    between atoms: C_2  and  C_3 
REMARK    2  A    between atoms: C_3  and  O_6 
REMARK    3  A    between atoms: C_3  and  C_4 
REMARK    4  A    between atoms: C_7  and  O_6 
REMARK    5  A    between atoms: C_9  and  C_10 
REMARK    6  A    between atoms: N_15  and  C_14 
REMARK    7  A    between atoms: N_20  and  C_19 
REMARK       I    between atoms: C_22  and  N_20 
ROOT
ATOM      1  C   LIG d   1      -3.858  78.209 117.157  0.00  0.00     0.161 C 
ATOM      2  C   LIG d   1      -2.822  79.043 117.608  0.00  0.00     0.016 C 
ATOM      3  C   LIG d   1      -1.519  79.034 117.058  0.00  0.00     0.038 C 
ATOM      4  C   LIG d   1      -1.204  78.291 115.911  0.00  0.00     0.028 C 
ATOM      5  C   LIG d   1      -2.079  77.054 115.731  0.00  0.00    -0.047 C 
ATOM      6  C   LIG d   1      -3.564  77.471 115.834  0.00  0.00     0.091 C 
ENDROOT
BRANCH   1   7
ATOM      7  O   LIG d   1      -5.081  78.963 117.049  0.00  0.00    -0.368 OA
BRANCH   7   8
ATOM      8  C   LIG d   1      -5.879  79.059 118.254  0.00  0.00     0.119 C 
BRANCH   8   9
ATOM      9  C   LIG d   1      -6.409  77.647 118.572  0.00  0.00     0.028 C 
ATOM     10  C   LIG d   1      -7.519  77.205 117.604  0.00  0.00     0.006 C 
ENDBRANCH   8   9
BRANCH   8  11
ATOM     11  C   LIG d   1      -7.127  79.919 118.029  0.00  0.00     0.028 C 
ATOM     12  C   LIG d   1      -6.791  81.378 117.684  0.00  0.00     0.006 C 
ENDBRANCH   8  11
ENDBRANCH   7   8
ENDBRANCH   1   7
BRANCH   6  13
ATOM     13  N   LIG d   1      -4.486  76.309 115.752  0.00  0.00    -0.311 N 
ATOM     14  C   LIG d   1      -5.030  75.882 114.614  0.00  0.00     0.210 C 
ATOM     15  C   LIG d   1      -5.968  74.680 114.756  0.00  0.00     0.109 C 
ATOM     16  O   LIG d   1      -4.800  76.366 113.495  0.00  0.00    -0.276 OA
ATOM     17  H   LIG d   1      -4.703  75.838 116.609  0.00  0.00     0.149 HD
ENDBRANCH   6  13
BRANCH   5  18
ATOM     18  N   LIG d   1      -1.736  76.452 114.429  0.00  0.00     0.381 N 
ATOM     19  H   LIG d   1      -2.048  77.047 113.688  0.00  0.00    -0.090 HD
ATOM     20  H   LIG d   1      -2.209  75.569 114.345  0.00  0.00    -0.090 HD
ATOM     21  H   LIG d   1      -0.751  76.317 114.364  0.00  0.00    -0.090 HD
ENDBRANCH   5  18
BRANCH   3  22
ATOM     22  C   LIG d   1      -0.505  79.744 117.682  0.00  0.00     0.382 C 
ATOM     23  O   LIG d   1      -0.486  79.842 118.933  0.00  0.00    -0.241 OA
ATOM     24  O   LIG d   1       0.367  80.324 117.008  0.00  0.00    -0.241 OA
ENDBRANCH   3  22
TORSDOF 7
ENDMDL
MODEL 9
REMARK VINA RESULT:      -4.3      2.833      5.347
REMARK  7 active torsions:
REMARK  status: ('A' for Active; 'I' for Inactive)
REMARK    1  A    between atoms: C_2  and  C_3 
REMARK    2  A    between atoms: C_3  and  O_6 
REMARK    3  A    between atoms: C_3  and  C_4 
REMARK    4  A    between atoms: C_7  and  O_6 
REMARK    5  A    between atoms: C_9  and  C_10 
REMARK    6  A    between atoms: N_15  and  C_14 
REMARK    7  A    between atoms: N_20  and  C_19 
REMARK       I    between atoms: C_22  and  N_20 
ROOT
ATOM      1  C   LIG d   1      -1.848  75.502 115.606  0.00  0.00     0.161 C 
ATOM      2  C   LIG d   1      -3.138  75.139 115.183  0.00  0.00     0.016 C 
ATOM      3  C   LIG d   1      -4.242  75.030 116.059  0.00  0.00     0.038 C 
ATOM      4  C   LIG d   1      -4.165  75.425 117.402  0.00  0.00     0.028 C 
ATOM      5  C   LIG d   1      -2.760  75.316 117.986  0.00  0.00    -0.047 C 
ATOM      6  C   LIG d   1      -1.769  76.044 117.048  0.00  0.00     0.091 C 
ENDROOT
BRANCH   1   7
ATOM      7  O   LIG d   1      -1.279  76.451 114.682  0.00  0.00    -0.368 OA
BRANCH   7   8
ATOM      8  C   LIG d   1      -2.221  77.300 113.980  0.00  0.00     0.119 C 
BRANCH   8   9
ATOM      9  C   LIG d   1      -1.781  77.358 112.505  0.00  0.00     0.028 C 
ATOM     10  C   LIG d   1      -2.942  77.709 111.559  0.00  0.00     0.006 C 
ENDBRANCH   8   9
BRANCH   8  11
ATOM     11  C   LIG d   1      -2.149  78.745 114.482  0.00  0.00     0.028 C 
ATOM     12  C   LIG d   1      -3.280  79.091 115.463  0.00  0.00     0.006 C 
ENDBRANCH   8  11
ENDBRANCH   7   8
ENDBRANCH   1   7
BRANCH   6  13
ATOM     13  N   LIG d   1      -0.360  75.914 117.501  0.00  0.00    -0.311 N 
ATOM     14  C   LIG d   1       0.473  76.947 117.611  0.00  0.00     0.210 C 
ATOM     15  C   LIG d   1       1.888  76.590 118.077  0.00  0.00     0.109 C 
ATOM     16  O   LIG d   1       0.165  78.129 117.398  0.00  0.00    -0.276 OA
ATOM     17  H   LIG d   1      -0.036  74.993 117.725  0.00  0.00     0.149 HD
ENDBRANCH   6  13
BRANCH   5  18
ATOM     18  N   LIG d   1      -2.796  75.888 119.345  0.00  0.00     0.381 N 
ATOM     19  H   LIG d   1      -3.090  76.843 119.303  0.00  0.00    -0.090 HD
ATOM     20  H   LIG d   1      -1.870  75.860 119.734  0.00  0.00    -0.090 HD
ATOM     21  H   LIG d   1      -3.421  75.365 119.918  0.00  0.00    -0.090 HD
ENDBRANCH   5  18
BRANCH   3  22
ATOM     22  C   LIG d   1      -5.431  74.482 115.601  0.00  0.00     0.382 C 
ATOM     23  O   LIG d   1      -5.563  74.198 114.386  0.00  0.00    -0.241 OA
ATOM     24  O   LIG d   1      -6.388  74.310 116.379  0.00  0.00    -0.241 OA
ENDBRANCH   3  22
TORSDOF 7
ENDMDL
