MODEL 1
REMARK VINA RESULT:      -5.1      0.000      0.000
REMARK  7 active torsions:
REMARK  status: ('A' for Active; 'I' for Inactive)
REMARK    1  A    between atoms: C_2  and  C_3 
REMARK    2  A    between atoms: C_3  and  O_6 
REMARK    3  A    between atoms: C_3  and  C_4 
REMARK    4  A    between atoms: C_7  and  O_6 
REMARK    5  A    between atoms: C_9  and  C_10 
REMARK    6  A    between atoms: N_15  and  C_14 
REMARK    7  A    between atoms: N_20  and  C_19 
REMARK       I    between atoms: C_22  and  N_20 
ROOT
ATOM      1  C   LIG d   1      -2.943  77.235 116.617  0.00  0.00     0.161 C 
ATOM      2  C   LIG d   1      -3.698  78.343 117.035  0.00  0.00     0.016 C 
ATOM      3  C   LIG d   1      -3.441  79.666 116.608  0.00  0.00     0.038 C 
ATOM      4  C   LIG d   1      -2.500  79.952 115.607  0.00  0.00     0.028 C 
ATOM      5  C   LIG d   1      -1.372  78.929 115.527  0.00  0.00    -0.047 C 
ATOM      6  C   LIG d   1      -1.984  77.513 115.440  0.00  0.00     0.091 C 
ENDROOT
BRANCH   1   7
ATOM      7  O   LIG d   1      -3.822  76.137 116.298  0.00  0.00    -0.368 OA
BRANCH   7   8
ATOM      8  C   LIG d   1      -5.037  76.479 115.588  0.00  0.00     0.119 C 
BRANCH   8   9
ATOM      9  C   LIG d   1      -6.203  75.756 116.289  0.00  0.00     0.028 C 
ATOM     10  C   LIG d   1      -6.942  76.664 117.286  0.00  0.00     0.006 C 
ENDBRANCH   8   9
BRANCH   8  11
ATOM     11  C   LIG d   1      -5.020  75.930 114.158  0.00  0.00     0.028 C 
ATOM     12  C   LIG d   1      -5.168  74.401 114.106  0.00  0.00     0.006 C 
ENDBRANCH   8  11
ENDBRANCH   7   8
ENDBRANCH   1   7
BRANCH   6  13
ATOM     13  N   LIG d   1      -0.948  76.446 115.443  0.00  0.00    -0.311 N 
ATOM     14  C   LIG d   1      -0.449  75.907 114.332  0.00  0.00     0.210 C 
ATOM     15  C   LIG d   1       0.594  74.808 114.560  0.00  0.00     0.109 C 
ATOM     16  O   LIG d   1      -0.748  76.255 113.180  0.00  0.00    -0.276 OA
ATOM     17  H   LIG d   1      -0.626  76.126 116.335  0.00  0.00     0.149 HD
ENDBRANCH   6  13
BRANCH   5  18
ATOM     18  N   LIG d   1      -0.542  79.273 114.357  0.00  0.00     0.381 N 
ATOM     19  H   LIG d   1      -0.924  80.073 113.894  0.00  0.00    -0.090 HD
ATOM     20  H   LIG d   1      -0.553  78.501 113.713  0.00  0.00    -0.090 HD
ATOM     21  H   LIG d   1       0.393  79.461 114.645  0.00  0.00    -0.090 HD
ENDBRANCH   5  18
BRANCH   3  22
ATOM     22  C   LIG d   1      -4.103  80.724 117.212  0.00  0.00     0.382 C 
ATOM     23  O   LIG d   1      -5.354  80.713 117.299  0.00  0.00    -0.241 OA
ATOM     24  O   LIG d   1      -3.467  81.710 117.631  0.00  0.00    -0.241 OA
ENDBRANCH   3  22
TORSDOF 7
ENDMDL
MODEL 2
REMARK VINA RESULT:      -5.0      2.024      2.928
REMARK  7 active torsions:
REMARK  status: ('A' for Active; 'I' for Inactive)
REMARK    1  A    between atoms: C_2  and  C_3 
REMARK    2  A    between atoms: C_3  and  O_6 
REMARK    3  A    between atoms: C_3  and  C_4 
REMARK    4  A    between atoms: C_7  and  O_6 
REMARK    5  A    between atoms: C_9  and  C_10 
REMARK    6  A    between atoms: N_15  and  C_14 
REMARK    7  A    between atoms: N_20  and  C_19 
REMARK       I    between atoms: C_22  and  N_20 
ROOT
ATOM      1  C   LIG d   1      -1.553  79.525 115.881  0.00  0.00     0.161 C 
ATOM      2  C   LIG d   1      -2.050  80.839 115.855  0.00  0.00     0.016 C 
ATOM      3  C   LIG d   1      -2.194  81.592 114.667  0.00  0.00     0.038 C 
ATOM      4  C   LIG d   1      -1.993  81.024 113.400  0.00  0.00     0.028 C 
ATOM      5  C   LIG d   1      -1.009  79.859 113.407  0.00  0.00    -0.047 C 
ATOM      6  C   LIG d   1      -1.433  78.850 114.499  0.00  0.00     0.091 C 
ENDROOT
BRANCH   1   7
ATOM      7  O   LIG d   1      -2.357  78.717 116.765  0.00  0.00    -0.368 OA
BRANCH   7   8
ATOM      8  C   LIG d   1      -3.785  78.738 116.525  0.00  0.00     0.119 C 
BRANCH   8   9
ATOM      9  C   LIG d   1      -4.473  79.092 117.857  0.00  0.00     0.028 C 
ATOM     10  C   LIG d   1      -5.059  80.514 117.856  0.00  0.00     0.006 C 
ENDBRANCH   8   9
BRANCH   8  11
ATOM     11  C   LIG d   1      -4.308  77.346 116.155  0.00  0.00     0.028 C 
ATOM     12  C   LIG d   1      -5.717  77.074 116.706  0.00  0.00     0.006 C 
ENDBRANCH   8  11
ENDBRANCH   7   8
ENDBRANCH   1   7
BRANCH   6  13
ATOM     13  N   LIG d   1      -0.476  77.721 114.630  0.00  0.00    -0.311 N 
ATOM     14  C   LIG d   1      -0.806  76.450 114.408  0.00  0.00     0.210 C 
ATOM     15  C   LIG d   1       0.327  75.441 114.620  0.00  0.00     0.109 C 
ATOM     16  O   LIG d   1      -1.922  76.066 114.025  0.00  0.00    -0.276 OA
ATOM     17  H   LIG d   1       0.459  77.946 114.907  0.00  0.00     0.149 HD
ENDBRANCH   6  13
BRANCH   5  18
ATOM     18  N   LIG d   1      -0.998  79.276 112.053  0.00  0.00     0.381 N 
ATOM     19  H   LIG d   1      -0.068  78.996 111.812  0.00  0.00    -0.090 HD
ATOM     20  H   LIG d   1      -1.297  79.975 111.396  0.00  0.00    -0.090 HD
ATOM     21  H   LIG d   1      -1.610  78.491 112.015  0.00  0.00    -0.090 HD
ENDBRANCH   5  18
BRANCH   3  22
ATOM     22  C   LIG d   1      -2.506  82.941 114.742  0.00  0.00     0.382 C 
ATOM     23  O   LIG d   1      -3.625  83.302 115.179  0.00  0.00    -0.241 OA
ATOM     24  O   LIG d   1      -1.699  83.799 114.338  0.00  0.00    -0.241 OA
ENDBRANCH   3  22
TORSDOF 7
ENDMDL
MODEL 3
REMARK VINA RESULT:      -5.0      4.610      7.545
REMARK  7 active torsions:
REMARK  status: ('A' for Active; 'I' for Inactive)
REMARK    1  A    between atoms: C_2  and  C_3 
REMARK    2  A    between atoms: C_3  and  O_6 
REMARK    3  A    between atoms: C_3  and  C_4 
REMARK    4  A    between atoms: C_7  and  O_6 
REMARK    5  A    between atoms: C_9  and  C_10 
REMARK    6  A    between atoms: N_15  and  C_14 
REMARK    7  A    between atoms: N_20  and  C_19 
REMARK       I    between atoms: C_22  and  N_20 
ROOT
ATOM      1  C   LIG d   1      -0.526  80.841 112.497  0.00  0.00     0.161 C 
ATOM      2  C   LIG d   1      -1.180  79.634 112.201  0.00  0.00     0.016 C 
ATOM      3  C   LIG d   1      -2.184  79.071 113.022  0.00  0.00     0.038 C 
ATOM      4  C   LIG d   1      -2.712  79.759 114.124  0.00  0.00     0.028 C 
ATOM      5  C   LIG d   1      -1.732  80.747 114.748  0.00  0.00    -0.047 C 
ATOM      6  C   LIG d   1      -1.166  81.661 113.636  0.00  0.00     0.091 C 
ENDROOT
BRANCH   1   7
ATOM      7  O   LIG d   1      -0.415  81.642 111.304  0.00  0.00    -0.368 OA
BRANCH   7   8
ATOM      8  C   LIG d   1       0.931  81.940 110.859  0.00  0.00     0.119 C 
BRANCH   8   9
ATOM      9  C   LIG d   1       1.054  83.472 110.749  0.00  0.00     0.028 C 
ATOM     10  C   LIG d   1      -0.312  84.161 110.595  0.00  0.00     0.006 C 
ENDBRANCH   8   9
BRANCH   8  11
ATOM     11  C   LIG d   1       1.180  81.410 109.443  0.00  0.00     0.028 C 
ATOM     12  C   LIG d   1       1.679  79.957 109.430  0.00  0.00     0.006 C 
ENDBRANCH   8  11
ENDBRANCH   7   8
ENDBRANCH   1   7
BRANCH   6  13
ATOM     13  N   LIG d   1      -0.135  82.602 114.147  0.00  0.00    -0.311 N 
ATOM     14  C   LIG d   1      -0.386  83.879 114.432  0.00  0.00     0.210 C 
ATOM     15  C   LIG d   1       0.823  84.680 114.927  0.00  0.00     0.109 C 
ATOM     16  O   LIG d   1      -1.501  84.416 114.353  0.00  0.00    -0.276 OA
ATOM     17  H   LIG d   1       0.791  82.242 114.271  0.00  0.00     0.149 HD
ENDBRANCH   6  13
BRANCH   5  18
ATOM     18  N   LIG d   1      -2.455  81.492 115.795  0.00  0.00     0.381 N 
ATOM     19  H   LIG d   1      -3.306  81.017 116.022  0.00  0.00    -0.090 HD
ATOM     20  H   LIG d   1      -2.687  82.405 115.445  0.00  0.00    -0.090 HD
ATOM     21  H   LIG d   1      -1.886  81.575 116.609  0.00  0.00    -0.090 HD
ENDBRANCH   5  18
BRANCH   3  22
ATOM     22  C   LIG d   1      -2.643  77.788 112.765  0.00  0.00     0.382 C 
ATOM     23  O   LIG d   1      -3.650  77.616 112.036  0.00  0.00    -0.241 OA
ATOM     24  O   LIG d   1      -2.090  76.803 113.289  0.00  0.00    -0.241 OA
ENDBRANCH   3  22
TORSDOF 7
ENDMDL
MODEL 4
REMARK VINA RESULT:      -4.9      2.589      3.334
REMARK  7 active torsions:
REMARK  status: ('A' for Active; 'I' for Inactive)
REMARK    1  A    between atoms: C_2  and  C_3 
REMARK    2  A    between atoms: C_3  and  O_6 
REMARK    3  A    between atoms: C_3  and  C_4 
REMARK    4  A    between atoms: C_7  and  O_6 
REMARK    5  A    between atoms: C_9  and  C_10 
REMARK    6  A    between atoms: N_15  and  C_14 
REMARK    7  A    between atoms: N_20  and  C_19 
REMARK       I    between atoms: C_22  and  N_20 
ROOT
ATOM      1  C   LIG d   1      -2.466  78.418 115.051  0.00  0.00     0.161 C 
ATOM      2  C   LIG d   1      -2.755  79.307 114.003  0.00  0.00     0.016 C 
ATOM      3  C   LIG d   1      -1.926  80.399 113.657  0.00  0.00     0.038 C 
ATOM      4  C   LIG d   1      -0.666  80.588 114.244  0.00  0.00     0.028 C 
ATOM      5  C   LIG d   1      -0.561  80.012 115.652  0.00  0.00    -0.047 C 
ATOM      6  C   LIG d   1      -1.041  78.543 115.630  0.00  0.00     0.091 C 
ENDROOT
BRANCH   1   7
ATOM      7  O   LIG d   1      -2.718  77.064 114.628  0.00  0.00    -0.368 OA
BRANCH   7   8
ATOM      8  C   LIG d   1      -3.790  76.371 115.313  0.00  0.00     0.119 C 
BRANCH   8   9
ATOM      9  C   LIG d   1      -4.850  76.000 114.258  0.00  0.00     0.028 C 
ATOM     10  C   LIG d   1      -5.058  74.480 114.144  0.00  0.00     0.006 C 
ENDBRANCH   8   9
BRANCH   8  11
ATOM     11  C   LIG d   1      -4.507  77.294 116.302  0.00  0.00     0.028 C 
ATOM     12  C   LIG d   1      -5.936  76.828 116.623  0.00  0.00     0.006 C 
ENDBRANCH   8  11
ENDBRANCH   7   8
ENDBRANCH   1   7
BRANCH   6  13
ATOM     13  N   LIG d   1      -1.050  77.930 116.984  0.00  0.00    -0.311 N 
ATOM     14  C   LIG d   1      -0.499  76.748 117.258  0.00  0.00     0.210 C 
ATOM     15  C   LIG d   1      -0.638  76.292 118.713  0.00  0.00     0.109 C 
ATOM     16  O   LIG d   1       0.120  76.051 116.440  0.00  0.00    -0.276 OA
ATOM     17  H   LIG d   1      -1.504  78.443 117.714  0.00  0.00     0.149 HD
ENDBRANCH   6  13
BRANCH   5  18
ATOM     18  N   LIG d   1       0.841  80.156 116.089  0.00  0.00     0.381 N 
ATOM     19  H   LIG d   1       1.455  79.817 115.376  0.00  0.00    -0.090 HD
ATOM     20  H   LIG d   1       0.982  79.603 116.916  0.00  0.00    -0.090 HD
ATOM     21  H   LIG d   1       1.041  81.113 116.283  0.00  0.00    -0.090 HD
ENDBRANCH   5  18
BRANCH   3  22
ATOM     22  C   LIG d   1      -2.374  81.339 112.741  0.00  0.00     0.382 C 
ATOM     23  O   LIG d   1      -3.591  81.394 112.444  0.00  0.00    -0.241 OA
ATOM     24  O   LIG d   1      -1.569  82.103 112.175  0.00  0.00    -0.241 OA
ENDBRANCH   3  22
TORSDOF 7
ENDMDL
MODEL 5
REMARK VINA RESULT:      -4.9      2.594      4.071
REMARK  7 active torsions:
REMARK  status: ('A' for Active; 'I' for Inactive)
REMARK    1  A    between atoms: C_2  and  C_3 
REMARK    2  A    between atoms: C_3  and  O_6 
REMARK    3  A    between atoms: C_3  and  C_4 
REMARK    4  A    between atoms: C_7  and  O_6 
REMARK    5  A    between atoms: C_9  and  C_10 
REMARK    6  A    between atoms: N_15  and  C_14 
REMARK    7  A    between atoms: N_20  and  C_19 
REMARK       I    between atoms: C_22  and  N_20 
ROOT
ATOM      1  C   LIG d   1      -2.483  79.620 115.473  0.00  0.00     0.161 C 
ATOM      2  C   LIG d   1      -2.417  80.844 114.787  0.00  0.00     0.016 C 
ATOM      3  C   LIG d   1      -1.970  80.963 113.450  0.00  0.00     0.038 C 
ATOM      4  C   LIG d   1      -1.700  79.840 112.655  0.00  0.00     0.028 C 
ATOM      5  C   LIG d   1      -1.270  78.618 113.459  0.00  0.00    -0.047 C 
ATOM      6  C   LIG d   1      -2.299  78.370 114.586  0.00  0.00     0.091 C 
ENDROOT
BRANCH   1   7
ATOM      7  O   LIG d   1      -3.722  79.536 116.204  0.00  0.00    -0.368 OA
BRANCH   7   8
ATOM      8  C   LIG d   1      -3.606  79.319 117.632  0.00  0.00     0.119 C 
BRANCH   8   9
ATOM      9  C   LIG d   1      -4.426  78.062 117.978  0.00  0.00     0.028 C 
ATOM     10  C   LIG d   1      -5.357  77.634 116.830  0.00  0.00     0.006 C 
ENDBRANCH   8   9
BRANCH   8  11
ATOM     11  C   LIG d   1      -4.256  80.458 118.424  0.00  0.00     0.028 C 
ATOM     12  C   LIG d   1      -3.290  81.621 118.698  0.00  0.00     0.006 C 
ENDBRANCH   8  11
ENDBRANCH   7   8
ENDBRANCH   1   7
BRANCH   6  13
ATOM     13  N   LIG d   1      -1.909  77.243 115.473  0.00  0.00    -0.311 N 
ATOM     14  C   LIG d   1      -2.337  75.994 115.301  0.00  0.00     0.210 C 
ATOM     15  C   LIG d   1      -1.830  74.988 116.340  0.00  0.00     0.109 C 
ATOM     16  O   LIG d   1      -3.063  75.616 114.369  0.00  0.00    -0.276 OA
ATOM     17  H   LIG d   1      -1.297  77.454 116.236  0.00  0.00     0.149 HD
ENDBRANCH   6  13
BRANCH   5  18
ATOM     18  N   LIG d   1      -1.155  77.485 112.522  0.00  0.00     0.381 N 
ATOM     19  H   LIG d   1      -1.739  76.732 112.827  0.00  0.00    -0.090 HD
ATOM     20  H   LIG d   1      -0.203  77.163 112.515  0.00  0.00    -0.090 HD
ATOM     21  H   LIG d   1      -1.423  77.772 111.606  0.00  0.00    -0.090 HD
ENDBRANCH   5  18
BRANCH   3  22
ATOM     22  C   LIG d   1      -1.750  82.221 112.909  0.00  0.00     0.382 C 
ATOM     23  O   LIG d   1      -1.634  82.358 111.668  0.00  0.00    -0.241 OA
ATOM     24  O   LIG d   1      -1.623  83.214 113.650  0.00  0.00    -0.241 OA
ENDBRANCH   3  22
TORSDOF 7
ENDMDL
MODEL 6
REMARK VINA RESULT:      -4.7      2.589      5.932
REMARK  7 active torsions:
REMARK  status: ('A' for Active; 'I' for Inactive)
REMARK    1  A    between atoms: C_2  and  C_3 
REMARK    2  A    between atoms: C_3  and  O_6 
REMARK    3  A    between atoms: C_3  and  C_4 
REMARK    4  A    between atoms: C_7  and  O_6 
REMARK    5  A    between atoms: C_9  and  C_10 
REMARK    6  A    between atoms: N_15  and  C_14 
REMARK    7  A    between atoms: N_20  and  C_19 
REMARK       I    between atoms: C_22  and  N_20 
ROOT
ATOM      1  C   LIG d   1      -3.522  78.184 116.056  0.00  0.00     0.161 C 
ATOM      2  C   LIG d   1      -3.859  77.015 115.353  0.00  0.00     0.016 C 
ATOM      3  C   LIG d   1      -5.016  76.250 115.626  0.00  0.00     0.038 C 
ATOM      4  C   LIG d   1      -6.000  76.688 116.524  0.00  0.00     0.028 C 
ATOM      5  C   LIG d   1      -5.457  77.601 117.619  0.00  0.00    -0.047 C 
ATOM      6  C   LIG d   1      -4.639  78.738 116.964  0.00  0.00     0.091 C 
ENDROOT
BRANCH   1   7
ATOM      7  O   LIG d   1      -3.077  79.198 115.133  0.00  0.00    -0.368 OA
BRANCH   7   8
ATOM      8  C   LIG d   1      -1.644  79.321 114.962  0.00  0.00     0.119 C 
BRANCH   8   9
ATOM      9  C   LIG d   1      -1.184  80.542 115.782  0.00  0.00     0.028 C 
ATOM     10  C   LIG d   1      -1.803  81.856 115.276  0.00  0.00     0.006 C 
ENDBRANCH   8   9
BRANCH   8  11
ATOM     11  C   LIG d   1      -1.281  79.647 113.511  0.00  0.00     0.028 C 
ATOM     12  C   LIG d   1      -2.335  79.150 112.507  0.00  0.00     0.006 C 
ENDBRANCH   8  11
ENDBRANCH   7   8
ENDBRANCH   1   7
BRANCH   6  13
ATOM     13  N   LIG d   1      -4.003  79.629 117.968  0.00  0.00    -0.311 N 
ATOM     14  C   LIG d   1      -4.170  80.950 117.987  0.00  0.00     0.210 C 
ATOM     15  C   LIG d   1      -3.407  81.683 119.095  0.00  0.00     0.109 C 
ATOM     16  O   LIG d   1      -4.903  81.581 117.210  0.00  0.00    -0.276 OA
ATOM     17  H   LIG d   1      -3.416  79.197 118.655  0.00  0.00     0.149 HD
ENDBRANCH   6  13
BRANCH   5  18
ATOM     18  N   LIG d   1      -6.608  78.093 118.400  0.00  0.00     0.381 N 
ATOM     19  H   LIG d   1      -7.355  78.341 117.783  0.00  0.00    -0.090 HD
ATOM     20  H   LIG d   1      -6.330  78.916 118.905  0.00  0.00    -0.090 HD
ATOM     21  H   LIG d   1      -6.913  77.390 119.037  0.00  0.00    -0.090 HD
ENDBRANCH   5  18
BRANCH   3  22
ATOM     22  C   LIG d   1      -5.178  75.011 115.024  0.00  0.00     0.382 C 
ATOM     23  O   LIG d   1      -6.060  74.222 115.441  0.00  0.00    -0.241 OA
ATOM     24  O   LIG d   1      -4.425  74.656 114.098  0.00  0.00    -0.241 OA
ENDBRANCH   3  22
TORSDOF 7
ENDMDL
MODEL 7
REMARK VINA RESULT:      -4.7      3.243      5.626
REMARK  7 active torsions:
REMARK  status: ('A' for Active; 'I' for Inactive)
REMARK    1  A    between atoms: C_2  and  C_3 
REMARK    2  A    between atoms: C_3  and  O_6 
REMARK    3  A    between atoms: C_3  and  C_4 
REMARK    4  A    between atoms: C_7  and  O_6 
REMARK    5  A    between atoms: C_9  and  C_10 
REMARK    6  A    between atoms: N_15  and  C_14 
REMARK    7  A    between atoms: N_20  and  C_19 
REMARK       I    between atoms: C_22  and  N_20 
ROOT
ATOM      1  C   LIG d   1      -1.920  81.100 114.894  0.00  0.00     0.161 C 
ATOM      2  C   LIG d   1      -1.522  81.991 113.884  0.00  0.00     0.016 C 
ATOM      3  C   LIG d   1      -1.078  81.573 112.608  0.00  0.00     0.038 C 
ATOM      4  C   LIG d   1      -1.146  80.232 112.202  0.00  0.00     0.028 C 
ATOM      5  C   LIG d   1      -1.065  79.244 113.360  0.00  0.00    -0.047 C 
ATOM      6  C   LIG d   1      -2.106  79.640 114.432  0.00  0.00     0.091 C 
ENDROOT
BRANCH   1   7
ATOM      7  O   LIG d   1      -3.122  81.583 115.526  0.00  0.00    -0.368 OA
BRANCH   7   8
ATOM      8  C   LIG d   1      -2.970  82.105 116.869  0.00  0.00     0.119 C 
BRANCH   8   9
ATOM      9  C   LIG d   1      -1.492  81.931 117.270  0.00  0.00     0.028 C 
ATOM     10  C   LIG d   1      -1.321  81.643 118.771  0.00  0.00     0.006 C 
ENDBRANCH   8   9
BRANCH   8  11
ATOM     11  C   LIG d   1      -3.765  81.274 117.882  0.00  0.00     0.028 C 
ATOM     12  C   LIG d   1      -5.285  81.449 117.734  0.00  0.00     0.006 C 
ENDBRANCH   8  11
ENDBRANCH   7   8
ENDBRANCH   1   7
BRANCH   6  13
ATOM     13  N   LIG d   1      -2.036  78.774 115.638  0.00  0.00    -0.311 N 
ATOM     14  C   LIG d   1      -3.079  78.096 116.115  0.00  0.00     0.210 C 
ATOM     15  C   LIG d   1      -2.795  77.280 117.380  0.00  0.00     0.109 C 
ATOM     16  O   LIG d   1      -4.203  78.068 115.593  0.00  0.00    -0.276 OA
ATOM     17  H   LIG d   1      -1.153  78.715 116.106  0.00  0.00     0.149 HD
ENDBRANCH   6  13
BRANCH   5  18
ATOM     18  N   LIG d   1      -1.287  77.893 112.810  0.00  0.00     0.381 N 
ATOM     19  H   LIG d   1      -1.039  77.205 113.492  0.00  0.00    -0.090 HD
ATOM     20  H   LIG d   1      -0.696  77.768 112.007  0.00  0.00    -0.090 HD
ATOM     21  H   LIG d   1      -2.242  77.784 112.549  0.00  0.00    -0.090 HD
ENDBRANCH   5  18
BRANCH   3  22
ATOM     22  C   LIG d   1      -0.522  82.498 111.737  0.00  0.00     0.382 C 
ATOM     23  O   LIG d   1       0.716  82.703 111.748  0.00  0.00    -0.241 OA
ATOM     24  O   LIG d   1      -1.247  83.161 110.971  0.00  0.00    -0.241 OA
ENDBRANCH   3  22
TORSDOF 7
ENDMDL
MODEL 8
REMARK VINA RESULT:      -4.7      2.516      4.996
REMARK  7 active torsions:
REMARK  status: ('A' for Active; 'I' for Inactive)
REMARK    1  A    between atoms: C_2  and  C_3 
REMARK    2  A    between atoms: C_3  and  O_6 
REMARK    3  A    between atoms: C_3  and  C_4 
REMARK    4  A    between atoms: C_7  and  O_6 
REMARK    5  A    between atoms: C_9  and  C_10 
REMARK    6  A    between atoms: N_15  and  C_14 
REMARK    7  A    between atoms: N_20  and  C_19 
REMARK       I    between atoms: C_22  and  N_20 
ROOT
ATOM      1  C   LIG d   1      -1.841  78.221 115.409  0.00  0.00     0.161 C 
ATOM      2  C   LIG d   1      -2.809  77.237 115.148  0.00  0.00     0.016 C 
ATOM      3  C   LIG d   1      -3.353  77.001 113.864  0.00  0.00     0.038 C 
ATOM      4  C   LIG d   1      -2.852  77.637 112.719  0.00  0.00     0.028 C 
ATOM      5  C   LIG d   1      -2.227  78.998 113.005  0.00  0.00    -0.047 C 
ATOM      6  C   LIG d   1      -1.202  78.848 114.152  0.00  0.00     0.091 C 
ENDROOT
BRANCH   1   7
ATOM      7  O   LIG d   1      -0.821  77.686 116.276  0.00  0.00    -0.368 OA
BRANCH   7   8
ATOM      8  C   LIG d   1      -0.677  76.244 116.275  0.00  0.00     0.119 C 
BRANCH   8   9
ATOM      9  C   LIG d   1      -0.652  75.781 117.745  0.00  0.00     0.028 C 
ATOM     10  C   LIG d   1      -0.384  74.273 117.881  0.00  0.00     0.006 C 
ENDBRANCH   8   9
BRANCH   8  11
ATOM     11  C   LIG d   1       0.675  75.820 115.694  0.00  0.00     0.028 C 
ATOM     12  C   LIG d   1       0.564  75.284 114.257  0.00  0.00     0.006 C 
ENDBRANCH   8  11
ENDBRANCH   7   8
ENDBRANCH   1   7
BRANCH   6  13
ATOM     13  N   LIG d   1      -0.605  80.149 114.553  0.00  0.00    -0.311 N 
ATOM     14  C   LIG d   1      -1.329  81.227 114.850  0.00  0.00     0.210 C 
ATOM     15  C   LIG d   1      -0.514  82.471 115.219  0.00  0.00     0.109 C 
ATOM     16  O   LIG d   1      -2.568  81.262 114.875  0.00  0.00    -0.276 OA
ATOM     17  H   LIG d   1       0.394  80.201 114.589  0.00  0.00     0.149 HD
ENDBRANCH   6  13
BRANCH   5  18
ATOM     18  N   LIG d   1      -1.624  79.485 111.750  0.00  0.00     0.381 N 
ATOM     19  H   LIG d   1      -2.343  79.688 111.085  0.00  0.00    -0.090 HD
ATOM     20  H   LIG d   1      -1.038  78.763 111.370  0.00  0.00    -0.090 HD
ATOM     21  H   LIG d   1      -1.084  80.303 111.927  0.00  0.00    -0.090 HD
ENDBRANCH   5  18
BRANCH   3  22
ATOM     22  C   LIG d   1      -4.438  76.149 113.724  0.00  0.00     0.382 C 
ATOM     23  O   LIG d   1      -5.463  76.536 113.112  0.00  0.00    -0.241 OA
ATOM     24  O   LIG d   1      -4.422  75.016 114.239  0.00  0.00    -0.241 OA
ENDBRANCH   3  22
TORSDOF 7
ENDMDL
MODEL 9
REMARK VINA RESULT:      -4.6      2.867      5.638
REMARK  7 active torsions:
REMARK  status: ('A' for Active; 'I' for Inactive)
REMARK    1  A    between atoms: C_2  and  C_3 
REMARK    2  A    between atoms: C_3  and  O_6 
REMARK    3  A    between atoms: C_3  and  C_4 
REMARK    4  A    between atoms: C_7  and  O_6 
REMARK    5  A    between atoms: C_9  and  C_10 
REMARK    6  A    between atoms: N_15  and  C_14 
REMARK    7  A    between atoms: N_20  and  C_19 
REMARK       I    between atoms: C_22  and  N_20 
ROOT
ATOM      1  C   LIG d   1      -2.213  79.823 115.212  0.00  0.00     0.161 C 
ATOM      2  C   LIG d   1      -2.775  78.537 115.160  0.00  0.00     0.016 C 
ATOM      3  C   LIG d   1      -2.721  77.710 114.014  0.00  0.00     0.038 C 
ATOM      4  C   LIG d   1      -1.963  78.056 112.885  0.00  0.00     0.028 C 
ATOM      5  C   LIG d   1      -1.798  79.561 112.704  0.00  0.00    -0.047 C 
ATOM      6  C   LIG d   1      -1.286  80.172 114.029  0.00  0.00     0.091 C 
ENDROOT
BRANCH   1   7
ATOM      7  O   LIG d   1      -1.517  80.001 116.462  0.00  0.00    -0.368 OA
BRANCH   7   8
ATOM      8  C   LIG d   1      -2.256  80.672 117.513  0.00  0.00     0.119 C 
BRANCH   8   9
ATOM      9  C   LIG d   1      -3.380  81.485 116.841  0.00  0.00     0.028 C 
ATOM     10  C   LIG d   1      -4.700  81.421 117.627  0.00  0.00     0.006 C 
ENDBRANCH   8   9
BRANCH   8  11
ATOM     11  C   LIG d   1      -1.385  81.703 118.236  0.00  0.00     0.028 C 
ATOM     12  C   LIG d   1      -0.133  82.092 117.434  0.00  0.00     0.006 C 
ENDBRANCH   8  11
ENDBRANCH   7   8
ENDBRANCH   1   7
BRANCH   6  13
ATOM     13  N   LIG d   1      -1.178  81.653 113.964  0.00  0.00    -0.311 N 
ATOM     14  C   LIG d   1      -0.051  82.293 113.656  0.00  0.00     0.210 C 
ATOM     15  C   LIG d   1      -0.152  83.822 113.666  0.00  0.00     0.109 C 
ATOM     16  O   LIG d   1       1.014  81.740 113.343  0.00  0.00    -0.276 OA
ATOM     17  H   LIG d   1      -2.003  82.180 114.173  0.00  0.00     0.149 HD
ENDBRANCH   6  13
BRANCH   5  18
ATOM     18  N   LIG d   1      -0.876  79.775 111.574  0.00  0.00     0.381 N 
ATOM     19  H   LIG d   1      -0.002  80.128 111.911  0.00  0.00    -0.090 HD
ATOM     20  H   LIG d   1      -1.274  80.460 110.955  0.00  0.00    -0.090 HD
ATOM     21  H   LIG d   1      -0.730  78.919 111.085  0.00  0.00    -0.090 HD
ENDBRANCH   5  18
BRANCH   3  22
ATOM     22  C   LIG d   1      -3.463  76.539 113.976  0.00  0.00     0.382 C 
ATOM     23  O   LIG d   1      -4.500  76.477 113.273  0.00  0.00    -0.241 OA
ATOM     24  O   LIG d   1      -3.132  75.559 114.670  0.00  0.00    -0.241 OA
ENDBRANCH   3  22
TORSDOF 7
ENDMDL
