MODEL 1
REMARK VINA RESULT:      -5.6      0.000      0.000
REMARK  7 active torsions:
REMARK  status: ('A' for Active; 'I' for Inactive)
REMARK    1  A    between atoms: C_2  and  C_3 
REMARK    2  A    between atoms: C_3  and  O_6 
REMARK    3  A    between atoms: C_3  and  C_4 
REMARK    4  A    between atoms: C_7  and  O_6 
REMARK    5  A    between atoms: C_9  and  C_10 
REMARK    6  A    between atoms: N_15  and  C_14 
REMARK    7  A    between atoms: N_20  and  C_19 
REMARK       I    between atoms: C_22  and  N_20 
ROOT
ATOM      1  C   LIG d   1      -2.458  79.661 114.549  0.00  0.00     0.161 C 
ATOM      2  C   LIG d   1      -1.919  80.850 114.029  0.00  0.00     0.016 C 
ATOM      3  C   LIG d   1      -1.347  80.947 112.740  0.00  0.00     0.038 C 
ATOM      4  C   LIG d   1      -1.412  79.890 111.819  0.00  0.00     0.028 C 
ATOM      5  C   LIG d   1      -1.495  78.517 112.477  0.00  0.00    -0.047 C 
ATOM      6  C   LIG d   1      -2.638  78.528 113.517  0.00  0.00     0.091 C 
ENDROOT
BRANCH   1   7
ATOM      7  O   LIG d   1      -3.708  79.940 115.210  0.00  0.00    -0.368 OA
BRANCH   7   8
ATOM      8  C   LIG d   1      -3.789  79.559 116.606  0.00  0.00     0.119 C 
BRANCH   8   9
ATOM      9  C   LIG d   1      -5.104  78.779 116.797  0.00  0.00     0.028 C 
ATOM     10  C   LIG d   1      -4.950  77.596 117.767  0.00  0.00     0.006 C 
ENDBRANCH   8   9
BRANCH   8  11
ATOM     11  C   LIG d   1      -3.910  80.787 117.513  0.00  0.00     0.028 C 
ATOM     12  C   LIG d   1      -5.319  81.399 117.502  0.00  0.00     0.006 C 
ENDBRANCH   8  11
ENDBRANCH   7   8
ENDBRANCH   1   7
BRANCH   6  13
ATOM     13  N   LIG d   1      -2.733  77.248 114.267  0.00  0.00    -0.311 N 
ATOM     14  C   LIG d   1      -3.813  76.468 114.251  0.00  0.00     0.210 C 
ATOM     15  C   LIG d   1      -3.709  75.204 115.110  0.00  0.00     0.109 C 
ATOM     16  O   LIG d   1      -4.834  76.686 113.582  0.00  0.00    -0.276 OA
ATOM     17  H   LIG d   1      -1.938  76.979 114.812  0.00  0.00     0.149 HD
ENDBRANCH   6  13
BRANCH   5  18
ATOM     18  N   LIG d   1      -1.696  77.522 111.407  0.00  0.00     0.381 N 
ATOM     19  H   LIG d   1      -1.595  77.960 110.513  0.00  0.00    -0.090 HD
ATOM     20  H   LIG d   1      -2.629  77.156 111.475  0.00  0.00    -0.090 HD
ATOM     21  H   LIG d   1      -1.034  76.783 111.499  0.00  0.00    -0.090 HD
ENDBRANCH   5  18
BRANCH   3  22
ATOM     22  C   LIG d   1      -0.665  82.098 112.375  0.00  0.00     0.382 C 
ATOM     23  O   LIG d   1      -1.098  82.812 111.439  0.00  0.00    -0.241 OA
ATOM     24  O   LIG d   1       0.401  82.407 112.940  0.00  0.00    -0.241 OA
ENDBRANCH   3  22
TORSDOF 7
ENDMDL
MODEL 2
REMARK VINA RESULT:      -5.4      0.736      1.495
REMARK  7 active torsions:
REMARK  status: ('A' for Active; 'I' for Inactive)
REMARK    1  A    between atoms: C_2  and  C_3 
REMARK    2  A    between atoms: C_3  and  O_6 
REMARK    3  A    between atoms: C_3  and  C_4 
REMARK    4  A    between atoms: C_7  and  O_6 
REMARK    5  A    between atoms: C_9  and  C_10 
REMARK    6  A    between atoms: N_15  and  C_14 
REMARK    7  A    between atoms: N_20  and  C_19 
REMARK       I    between atoms: C_22  and  N_20 
ROOT
ATOM      1  C   LIG d   1      -2.410  79.864 114.549  0.00  0.00     0.161 C 
ATOM      2  C   LIG d   1      -1.821  81.012 113.995  0.00  0.00     0.016 C 
ATOM      3  C   LIG d   1      -1.265  81.052 112.696  0.00  0.00     0.038 C 
ATOM      4  C   LIG d   1      -1.397  79.981 111.800  0.00  0.00     0.028 C 
ATOM      5  C   LIG d   1      -1.538  78.628 112.489  0.00  0.00    -0.047 C 
ATOM      6  C   LIG d   1      -2.663  78.719 113.546  0.00  0.00     0.091 C 
ENDROOT
BRANCH   1   7
ATOM      7  O   LIG d   1      -3.634  80.219 115.223  0.00  0.00    -0.368 OA
BRANCH   7   8
ATOM      8  C   LIG d   1      -3.747  79.796 116.604  0.00  0.00     0.119 C 
BRANCH   8   9
ATOM      9  C   LIG d   1      -5.186  80.101 117.065  0.00  0.00     0.028 C 
ATOM     10  C   LIG d   1      -5.339  81.535 117.600  0.00  0.00     0.006 C 
ENDBRANCH   8   9
BRANCH   8  11
ATOM     11  C   LIG d   1      -2.843  80.628 117.518  0.00  0.00     0.028 C 
ATOM     12  C   LIG d   1      -1.770  79.784 118.223  0.00  0.00     0.006 C 
ENDBRANCH   8  11
ENDBRANCH   7   8
ENDBRANCH   1   7
BRANCH   6  13
ATOM     13  N   LIG d   1      -2.810  77.462 114.326  0.00  0.00    -0.311 N 
ATOM     14  C   LIG d   1      -3.702  76.518 114.032  0.00  0.00     0.210 C 
ATOM     15  C   LIG d   1      -3.701  75.311 114.976  0.00  0.00     0.109 C 
ATOM     16  O   LIG d   1      -4.472  76.549 113.060  0.00  0.00    -0.276 OA
ATOM     17  H   LIG d   1      -2.204  77.340 115.113  0.00  0.00     0.149 HD
ENDBRANCH   6  13
BRANCH   5  18
ATOM     18  N   LIG d   1      -1.806  77.621 111.445  0.00  0.00     0.381 N 
ATOM     19  H   LIG d   1      -0.942  77.262 111.092  0.00  0.00    -0.090 HD
ATOM     20  H   LIG d   1      -2.298  78.061 110.688  0.00  0.00    -0.090 HD
ATOM     21  H   LIG d   1      -2.354  76.879 111.820  0.00  0.00    -0.090 HD
ENDBRANCH   5  18
BRANCH   3  22
ATOM     22  C   LIG d   1      -0.533  82.159 112.295  0.00  0.00     0.382 C 
ATOM     23  O   LIG d   1       0.542  82.444 112.876  0.00  0.00    -0.241 OA
ATOM     24  O   LIG d   1      -0.956  82.903 111.389  0.00  0.00    -0.241 OA
ENDBRANCH   3  22
TORSDOF 7
ENDMDL
MODEL 3
REMARK VINA RESULT:      -5.3      2.937      4.207
REMARK  7 active torsions:
REMARK  status: ('A' for Active; 'I' for Inactive)
REMARK    1  A    between atoms: C_2  and  C_3 
REMARK    2  A    between atoms: C_3  and  O_6 
REMARK    3  A    between atoms: C_3  and  C_4 
REMARK    4  A    between atoms: C_7  and  O_6 
REMARK    5  A    between atoms: C_9  and  C_10 
REMARK    6  A    between atoms: N_15  and  C_14 
REMARK    7  A    between atoms: N_20  and  C_19 
REMARK       I    between atoms: C_22  and  N_20 
ROOT
ATOM      1  C   LIG d   1      -2.181  78.502 115.146  0.00  0.00     0.161 C 
ATOM      2  C   LIG d   1      -2.526  79.353 114.083  0.00  0.00     0.016 C 
ATOM      3  C   LIG d   1      -1.712  80.423 113.646  0.00  0.00     0.038 C 
ATOM      4  C   LIG d   1      -0.417  80.623 114.149  0.00  0.00     0.028 C 
ATOM      5  C   LIG d   1      -0.232  80.101 115.570  0.00  0.00    -0.047 C 
ATOM      6  C   LIG d   1      -0.723  78.636 115.634  0.00  0.00     0.091 C 
ENDROOT
BRANCH   1   7
ATOM      7  O   LIG d   1      -2.467  77.135 114.791  0.00  0.00    -0.368 OA
BRANCH   7   8
ATOM      8  C   LIG d   1      -3.472  76.466 115.592  0.00  0.00     0.119 C 
BRANCH   8   9
ATOM      9  C   LIG d   1      -2.997  75.017 115.815  0.00  0.00     0.028 C 
ATOM     10  C   LIG d   1      -1.494  74.843 115.539  0.00  0.00     0.006 C 
ENDBRANCH   8   9
BRANCH   8  11
ATOM     11  C   LIG d   1      -4.798  76.346 114.835  0.00  0.00     0.028 C 
ATOM     12  C   LIG d   1      -5.077  74.916 114.345  0.00  0.00     0.006 C 
ENDBRANCH   8  11
ENDBRANCH   7   8
ENDBRANCH   1   7
BRANCH   6  13
ATOM     13  N   LIG d   1      -0.655  78.075 117.009  0.00  0.00    -0.311 N 
ATOM     14  C   LIG d   1       0.376  77.364 117.461  0.00  0.00     0.210 C 
ATOM     15  C   LIG d   1       0.234  76.863 118.901  0.00  0.00     0.109 C 
ATOM     16  O   LIG d   1       1.409  77.128 116.816  0.00  0.00    -0.276 OA
ATOM     17  H   LIG d   1      -1.438  78.246 117.610  0.00  0.00     0.149 HD
ENDBRANCH   6  13
BRANCH   5  18
ATOM     18  N   LIG d   1       1.194  80.248 115.917  0.00  0.00     0.381 N 
ATOM     19  H   LIG d   1       1.598  79.348 116.080  0.00  0.00    -0.090 HD
ATOM     20  H   LIG d   1       1.268  80.785 116.763  0.00  0.00    -0.090 HD
ATOM     21  H   LIG d   1       1.678  80.710 115.179  0.00  0.00    -0.090 HD
ENDBRANCH   5  18
BRANCH   3  22
ATOM     22  C   LIG d   1      -2.207  81.331 112.723  0.00  0.00     0.382 C 
ATOM     23  O   LIG d   1      -3.436  81.366 112.475  0.00  0.00    -0.241 OA
ATOM     24  O   LIG d   1      -1.435  82.086 112.103  0.00  0.00    -0.241 OA
ENDBRANCH   3  22
TORSDOF 7
ENDMDL
MODEL 4
REMARK VINA RESULT:      -5.1      2.492      5.400
REMARK  7 active torsions:
REMARK  status: ('A' for Active; 'I' for Inactive)
REMARK    1  A    between atoms: C_2  and  C_3 
REMARK    2  A    between atoms: C_3  and  O_6 
REMARK    3  A    between atoms: C_3  and  C_4 
REMARK    4  A    between atoms: C_7  and  O_6 
REMARK    5  A    between atoms: C_9  and  C_10 
REMARK    6  A    between atoms: N_15  and  C_14 
REMARK    7  A    between atoms: N_20  and  C_19 
REMARK       I    between atoms: C_22  and  N_20 
ROOT
ATOM      1  C   LIG d   1      -2.126  80.322 114.137  0.00  0.00     0.161 C 
ATOM      2  C   LIG d   1      -2.697  79.059 114.368  0.00  0.00     0.016 C 
ATOM      3  C   LIG d   1      -2.694  78.017 113.412  0.00  0.00     0.038 C 
ATOM      4  C   LIG d   1      -1.982  78.119 112.207  0.00  0.00     0.028 C 
ATOM      5  C   LIG d   1      -1.818  79.554 111.719  0.00  0.00    -0.047 C 
ATOM      6  C   LIG d   1      -1.249  80.414 112.871  0.00  0.00     0.091 C 
ENDROOT
BRANCH   1   7
ATOM      7  O   LIG d   1      -1.379  80.740 115.296  0.00  0.00    -0.368 OA
BRANCH   7   8
ATOM      8  C   LIG d   1      -0.040  80.200 115.419  0.00  0.00     0.119 C 
BRANCH   8   9
ATOM      9  C   LIG d   1       0.035  79.449 116.763  0.00  0.00     0.028 C 
ATOM     10  C   LIG d   1      -0.026  77.923 116.586  0.00  0.00     0.006 C 
ENDBRANCH   8   9
BRANCH   8  11
ATOM     11  C   LIG d   1       1.004  81.317 115.520  0.00  0.00     0.028 C 
ATOM     12  C   LIG d   1       2.329  80.840 116.136  0.00  0.00     0.006 C 
ENDBRANCH   8  11
ENDBRANCH   7   8
ENDBRANCH   1   7
BRANCH   6  13
ATOM     13  N   LIG d   1      -1.136  81.849 112.505  0.00  0.00    -0.311 N 
ATOM     14  C   LIG d   1      -0.059  82.376 111.924  0.00  0.00     0.210 C 
ATOM     15  C   LIG d   1      -0.143  83.881 111.650  0.00  0.00     0.109 C 
ATOM     16  O   LIG d   1       0.945  81.733 111.582  0.00  0.00    -0.276 OA
ATOM     17  H   LIG d   1      -1.918  82.437 112.718  0.00  0.00     0.149 HD
ENDBRANCH   6  13
BRANCH   5  18
ATOM     18  N   LIG d   1      -0.943  79.524 110.532  0.00  0.00     0.381 N 
ATOM     19  H   LIG d   1      -1.455  79.820 109.726  0.00  0.00    -0.090 HD
ATOM     20  H   LIG d   1      -0.633  78.580 110.380  0.00  0.00    -0.090 HD
ATOM     21  H   LIG d   1      -0.157  80.121 110.673  0.00  0.00    -0.090 HD
ENDBRANCH   5  18
BRANCH   3  22
ATOM     22  C   LIG d   1      -3.442  76.873 113.640  0.00  0.00     0.382 C 
ATOM     23  O   LIG d   1      -4.467  76.646 112.953  0.00  0.00    -0.241 OA
ATOM     24  O   LIG d   1      -3.130  76.086 114.555  0.00  0.00    -0.241 OA
ENDBRANCH   3  22
TORSDOF 7
ENDMDL
MODEL 5
REMARK VINA RESULT:      -5.1      2.985      5.318
REMARK  7 active torsions:
REMARK  status: ('A' for Active; 'I' for Inactive)
REMARK    1  A    between atoms: C_2  and  C_3 
REMARK    2  A    between atoms: C_3  and  O_6 
REMARK    3  A    between atoms: C_3  and  C_4 
REMARK    4  A    between atoms: C_7  and  O_6 
REMARK    5  A    between atoms: C_9  and  C_10 
REMARK    6  A    between atoms: N_15  and  C_14 
REMARK    7  A    between atoms: N_20  and  C_19 
REMARK       I    between atoms: C_22  and  N_20 
ROOT
ATOM      1  C   LIG d   1      -1.634  77.601 114.670  0.00  0.00     0.161 C 
ATOM      2  C   LIG d   1      -2.942  77.424 114.190  0.00  0.00     0.016 C 
ATOM      3  C   LIG d   1      -3.779  76.356 114.587  0.00  0.00     0.038 C 
ATOM      4  C   LIG d   1      -3.415  75.470 115.612  0.00  0.00     0.028 C 
ATOM      5  C   LIG d   1      -1.906  75.308 115.765  0.00  0.00    -0.047 C 
ATOM      6  C   LIG d   1      -1.260  76.709 115.872  0.00  0.00     0.091 C 
ENDROOT
BRANCH   1   7
ATOM      7  O   LIG d   1      -1.413  78.989 114.989  0.00  0.00    -0.368 OA
BRANCH   7   8
ATOM      8  C   LIG d   1      -1.895  79.430 116.282  0.00  0.00     0.119 C 
BRANCH   8   9
ATOM      9  C   LIG d   1      -3.240  80.147 116.055  0.00  0.00     0.028 C 
ATOM     10  C   LIG d   1      -4.379  79.535 116.889  0.00  0.00     0.006 C 
ENDBRANCH   8   9
BRANCH   8  11
ATOM     11  C   LIG d   1      -0.970  80.488 116.890  0.00  0.00     0.028 C 
ATOM     12  C   LIG d   1       0.465  80.411 116.343  0.00  0.00     0.006 C 
ENDBRANCH   8  11
ENDBRANCH   7   8
ENDBRANCH   1   7
BRANCH   6  13
ATOM     13  N   LIG d   1       0.224  76.644 115.940  0.00  0.00    -0.311 N 
ATOM     14  C   LIG d   1       0.919  76.913 117.043  0.00  0.00     0.210 C 
ATOM     15  C   LIG d   1       2.440  76.807 116.891  0.00  0.00     0.109 C 
ATOM     16  O   LIG d   1       0.420  77.198 118.142  0.00  0.00    -0.276 OA
ATOM     17  H   LIG d   1       0.708  76.390 115.101  0.00  0.00     0.149 HD
ENDBRANCH   6  13
BRANCH   5  18
ATOM     18  N   LIG d   1      -1.666  74.469 116.954  0.00  0.00     0.381 N 
ATOM     19  H   LIG d   1      -0.878  73.874 116.796  0.00  0.00    -0.090 HD
ATOM     20  H   LIG d   1      -2.472  73.889 117.111  0.00  0.00    -0.090 HD
ATOM     21  H   LIG d   1      -1.502  75.045 117.751  0.00  0.00    -0.090 HD
ENDBRANCH   5  18
BRANCH   3  22
ATOM     22  C   LIG d   1      -4.979  76.141 113.927  0.00  0.00     0.382 C 
ATOM     23  O   LIG d   1      -5.969  75.693 114.555  0.00  0.00    -0.241 OA
ATOM     24  O   LIG d   1      -5.073  76.348 112.703  0.00  0.00    -0.241 OA
ENDBRANCH   3  22
TORSDOF 7
ENDMDL
MODEL 6
REMARK VINA RESULT:      -5.0      2.303      3.009
REMARK  7 active torsions:
REMARK  status: ('A' for Active; 'I' for Inactive)
REMARK    1  A    between atoms: C_2  and  C_3 
REMARK    2  A    between atoms: C_3  and  O_6 
REMARK    3  A    between atoms: C_3  and  C_4 
REMARK    4  A    between atoms: C_7  and  O_6 
REMARK    5  A    between atoms: C_9  and  C_10 
REMARK    6  A    between atoms: N_15  and  C_14 
REMARK    7  A    between atoms: N_20  and  C_19 
REMARK       I    between atoms: C_22  and  N_20 
ROOT
ATOM      1  C   LIG d   1      -2.277  79.349 116.170  0.00  0.00     0.161 C 
ATOM      2  C   LIG d   1      -2.593  80.212 115.108  0.00  0.00     0.016 C 
ATOM      3  C   LIG d   1      -2.291  79.926 113.756  0.00  0.00     0.038 C 
ATOM      4  C   LIG d   1      -1.784  78.680 113.358  0.00  0.00     0.028 C 
ATOM      5  C   LIG d   1      -0.983  77.975 114.447  0.00  0.00    -0.047 C 
ATOM      6  C   LIG d   1      -1.825  77.936 115.743  0.00  0.00     0.091 C 
ENDROOT
BRANCH   1   7
ATOM      7  O   LIG d   1      -3.392  79.264 117.079  0.00  0.00    -0.368 OA
BRANCH   7   8
ATOM      8  C   LIG d   1      -4.688  79.027 116.477  0.00  0.00     0.119 C 
BRANCH   8   9
ATOM      9  C   LIG d   1      -5.721  79.864 117.257  0.00  0.00     0.028 C 
ATOM     10  C   LIG d   1      -5.240  81.303 117.509  0.00  0.00     0.006 C 
ENDBRANCH   8   9
BRANCH   8  11
ATOM     11  C   LIG d   1      -5.128  77.571 116.657  0.00  0.00     0.028 C 
ATOM     12  C   LIG d   1      -5.102  76.775 115.342  0.00  0.00     0.006 C 
ENDBRANCH   8  11
ENDBRANCH   7   8
ENDBRANCH   1   7
BRANCH   6  13
ATOM     13  N   LIG d   1      -1.083  77.338 116.883  0.00  0.00    -0.311 N 
ATOM     14  C   LIG d   1      -1.219  76.068 117.261  0.00  0.00     0.210 C 
ATOM     15  C   LIG d   1      -0.376  75.660 118.473  0.00  0.00     0.109 C 
ATOM     16  O   LIG d   1      -1.934  75.232 116.687  0.00  0.00    -0.276 OA
ATOM     17  H   LIG d   1      -0.457  77.937 117.385  0.00  0.00     0.149 HD
ENDBRANCH   6  13
BRANCH   5  18
ATOM     18  N   LIG d   1      -0.633  76.633 113.945  0.00  0.00     0.381 N 
ATOM     19  H   LIG d   1       0.355  76.494 114.010  0.00  0.00    -0.090 HD
ATOM     20  H   LIG d   1      -0.898  76.568 112.978  0.00  0.00    -0.090 HD
ATOM     21  H   LIG d   1      -1.109  75.936 114.474  0.00  0.00    -0.090 HD
ENDBRANCH   5  18
BRANCH   3  22
ATOM     22  C   LIG d   1      -2.458  80.908 112.792  0.00  0.00     0.382 C 
ATOM     23  O   LIG d   1      -1.760  80.890 111.750  0.00  0.00    -0.241 OA
ATOM     24  O   LIG d   1      -3.268  81.837 112.971  0.00  0.00    -0.241 OA
ENDBRANCH   3  22
TORSDOF 7
ENDMDL
MODEL 7
REMARK VINA RESULT:      -4.9      2.515      5.250
REMARK  7 active torsions:
REMARK  status: ('A' for Active; 'I' for Inactive)
REMARK    1  A    between atoms: C_2  and  C_3 
REMARK    2  A    between atoms: C_3  and  O_6 
REMARK    3  A    between atoms: C_3  and  C_4 
REMARK    4  A    between atoms: C_7  and  O_6 
REMARK    5  A    between atoms: C_9  and  C_10 
REMARK    6  A    between atoms: N_15  and  C_14 
REMARK    7  A    between atoms: N_20  and  C_19 
REMARK       I    between atoms: C_22  and  N_20 
ROOT
ATOM      1  C   LIG d   1      -3.123  78.463 114.902  0.00  0.00     0.161 C 
ATOM      2  C   LIG d   1      -4.023  77.390 115.018  0.00  0.00     0.016 C 
ATOM      3  C   LIG d   1      -3.615  76.040 115.110  0.00  0.00     0.038 C 
ATOM      4  C   LIG d   1      -2.266  75.680 115.244  0.00  0.00     0.028 C 
ATOM      5  C   LIG d   1      -1.305  76.690 114.624  0.00  0.00    -0.047 C 
ATOM      6  C   LIG d   1      -1.646  78.100 115.158  0.00  0.00     0.091 C 
ENDROOT
BRANCH   1   7
ATOM      7  O   LIG d   1      -3.532  79.540 115.769  0.00  0.00    -0.368 OA
BRANCH   7   8
ATOM      8  C   LIG d   1      -4.271  79.157 116.955  0.00  0.00     0.119 C 
BRANCH   8   9
ATOM      9  C   LIG d   1      -5.330  80.247 117.212  0.00  0.00     0.028 C 
ATOM     10  C   LIG d   1      -4.815  81.357 118.144  0.00  0.00     0.006 C 
ENDBRANCH   8   9
BRANCH   8  11
ATOM     11  C   LIG d   1      -3.373  79.163 118.196  0.00  0.00     0.028 C 
ATOM     12  C   LIG d   1      -3.060  77.749 118.712  0.00  0.00     0.006 C 
ENDBRANCH   8  11
ENDBRANCH   7   8
ENDBRANCH   1   7
BRANCH   6  13
ATOM     13  N   LIG d   1      -0.808  79.159 114.538  0.00  0.00    -0.311 N 
ATOM     14  C   LIG d   1      -0.268  80.163 115.226  0.00  0.00     0.210 C 
ATOM     15  C   LIG d   1       0.544  81.157 114.389  0.00  0.00     0.109 C 
ATOM     16  O   LIG d   1      -0.358  80.308 116.454  0.00  0.00    -0.276 OA
ATOM     17  H   LIG d   1      -0.657  79.101 113.550  0.00  0.00     0.149 HD
ENDBRANCH   6  13
BRANCH   5  18
ATOM     18  N   LIG d   1       0.067  76.261 114.956  0.00  0.00     0.381 N 
ATOM     19  H   LIG d   1       0.677  77.054 114.963  0.00  0.00    -0.090 HD
ATOM     20  H   LIG d   1       0.388  75.622 114.250  0.00  0.00    -0.090 HD
ATOM     21  H   LIG d   1       0.079  75.817 115.848  0.00  0.00    -0.090 HD
ENDBRANCH   5  18
BRANCH   3  22
ATOM     22  C   LIG d   1      -4.561  75.029 115.027  0.00  0.00     0.382 C 
ATOM     23  O   LIG d   1      -5.380  74.859 115.962  0.00  0.00    -0.241 OA
ATOM     24  O   LIG d   1      -4.577  74.257 114.050  0.00  0.00    -0.241 OA
ENDBRANCH   3  22
TORSDOF 7
ENDMDL
MODEL 8
REMARK VINA RESULT:      -4.8      3.269      5.642
REMARK  7 active torsions:
REMARK  status: ('A' for Active; 'I' for Inactive)
REMARK    1  A    between atoms: C_2  and  C_3 
REMARK    2  A    between atoms: C_3  and  O_6 
REMARK    3  A    between atoms: C_3  and  C_4 
REMARK    4  A    between atoms: C_7  and  O_6 
REMARK    5  A    between atoms: C_9  and  C_10 
REMARK    6  A    between atoms: N_15  and  C_14 
REMARK    7  A    between atoms: N_20  and  C_19 
REMARK       I    between atoms: C_22  and  N_20 
ROOT
ATOM      1  C   LIG d   1      -1.463  76.487 114.906  0.00  0.00     0.161 C 
ATOM      2  C   LIG d   1      -1.318  75.742 116.088  0.00  0.00     0.016 C 
ATOM      3  C   LIG d   1      -0.809  76.282 117.291  0.00  0.00     0.038 C 
ATOM      4  C   LIG d   1      -0.549  77.653 117.437  0.00  0.00     0.028 C 
ATOM      5  C   LIG d   1      -0.202  78.346 116.124  0.00  0.00    -0.047 C 
ATOM      6  C   LIG d   1      -1.289  78.011 115.077  0.00  0.00     0.091 C 
ENDROOT
BRANCH   1   7
ATOM      7  O   LIG d   1      -2.735  76.194 114.296  0.00  0.00    -0.368 OA
BRANCH   7   8
ATOM      8  C   LIG d   1      -3.814  75.858 115.202  0.00  0.00     0.119 C 
BRANCH   8   9
ATOM      9  C   LIG d   1      -4.707  74.820 114.494  0.00  0.00     0.028 C 
ATOM     10  C   LIG d   1      -5.731  74.180 115.446  0.00  0.00     0.006 C 
ENDBRANCH   8   9
BRANCH   8  11
ATOM     11  C   LIG d   1      -4.722  77.064 115.460  0.00  0.00     0.028 C 
ATOM     12  C   LIG d   1      -4.661  77.555 116.915  0.00  0.00     0.006 C 
ENDBRANCH   8  11
ENDBRANCH   7   8
ENDBRANCH   1   7
BRANCH   6  13
ATOM     13  N   LIG d   1      -0.983  78.581 113.739  0.00  0.00    -0.311 N 
ATOM     14  C   LIG d   1      -1.832  79.347 113.057  0.00  0.00     0.210 C 
ATOM     15  C   LIG d   1      -1.326  79.814 111.688  0.00  0.00     0.109 C 
ATOM     16  O   LIG d   1      -2.945  79.709 113.468  0.00  0.00    -0.276 OA
ATOM     17  H   LIG d   1      -0.089  78.363 113.344  0.00  0.00     0.149 HD
ENDBRANCH   6  13
BRANCH   5  18
ATOM     18  N   LIG d   1      -0.091  79.791 116.399  0.00  0.00     0.381 N 
ATOM     19  H   LIG d   1      -0.140  79.953 117.385  0.00  0.00    -0.090 HD
ATOM     20  H   LIG d   1      -0.862  80.266 115.963  0.00  0.00    -0.090 HD
ATOM     21  H   LIG d   1       0.770  80.141 116.040  0.00  0.00    -0.090 HD
ENDBRANCH   5  18
BRANCH   3  22
ATOM     22  C   LIG d   1      -0.517  75.440 118.353  0.00  0.00     0.382 C 
ATOM     23  O   LIG d   1      -0.529  75.883 119.527  0.00  0.00    -0.241 OA
ATOM     24  O   LIG d   1      -0.198  74.253 118.149  0.00  0.00    -0.241 OA
ENDBRANCH   3  22
TORSDOF 7
ENDMDL
MODEL 9
REMARK VINA RESULT:      -4.8      1.934      2.626
REMARK  7 active torsions:
REMARK  status: ('A' for Active; 'I' for Inactive)
REMARK    1  A    between atoms: C_2  and  C_3 
REMARK    2  A    between atoms: C_3  and  O_6 
REMARK    3  A    between atoms: C_3  and  C_4 
REMARK    4  A    between atoms: C_7  and  O_6 
REMARK    5  A    between atoms: C_9  and  C_10 
REMARK    6  A    between atoms: N_15  and  C_14 
REMARK    7  A    between atoms: N_20  and  C_19 
REMARK       I    between atoms: C_22  and  N_20 
ROOT
ATOM      1  C   LIG d   1      -3.068  79.273 115.971  0.00  0.00     0.161 C 
ATOM      2  C   LIG d   1      -2.072  80.246 116.153  0.00  0.00     0.016 C 
ATOM      3  C   LIG d   1      -0.841  80.240 115.457  0.00  0.00     0.038 C 
ATOM      4  C   LIG d   1      -0.583  79.338 114.414  0.00  0.00     0.028 C 
ATOM      5  C   LIG d   1      -1.353  78.028 114.543  0.00  0.00    -0.047 C 
ATOM      6  C   LIG d   1      -2.851  78.345 114.757  0.00  0.00     0.091 C 
ENDROOT
BRANCH   1   7
ATOM      7  O   LIG d   1      -4.361  79.905 115.893  0.00  0.00    -0.368 OA
BRANCH   7   8
ATOM      8  C   LIG d   1      -5.205  79.776 117.063  0.00  0.00     0.119 C 
BRANCH   8   9
ATOM      9  C   LIG d   1      -5.399  81.187 117.652  0.00  0.00     0.028 C 
ATOM     10  C   LIG d   1      -4.409  81.490 118.789  0.00  0.00     0.006 C 
ENDBRANCH   8   9
BRANCH   8  11
ATOM     11  C   LIG d   1      -4.511  78.969 118.165  0.00  0.00     0.028 C 
ATOM     12  C   LIG d   1      -5.221  77.640 118.467  0.00  0.00     0.006 C 
ENDBRANCH   8  11
ENDBRANCH   7   8
ENDBRANCH   1   7
BRANCH   6  13
ATOM     13  N   LIG d   1      -3.664  77.120 114.977  0.00  0.00    -0.311 N 
ATOM     14  C   LIG d   1      -4.312  76.486 114.001  0.00  0.00     0.210 C 
ATOM     15  C   LIG d   1      -5.108  75.255 114.447  0.00  0.00     0.109 C 
ATOM     16  O   LIG d   1      -4.279  76.808 112.804  0.00  0.00    -0.276 OA
ATOM     17  H   LIG d   1      -3.720  76.772 115.914  0.00  0.00     0.149 HD
ENDBRANCH   6  13
BRANCH   5  18
ATOM     18  N   LIG d   1      -1.098  77.239 113.323  0.00  0.00     0.381 N 
ATOM     19  H   LIG d   1      -0.467  77.735 112.725  0.00  0.00    -0.090 HD
ATOM     20  H   LIG d   1      -1.965  77.112 112.831  0.00  0.00    -0.090 HD
ATOM     21  H   LIG d   1      -0.711  76.353 113.564  0.00  0.00    -0.090 HD
ENDBRANCH   5  18
BRANCH   3  22
ATOM     22  C   LIG d   1       0.164  81.119 115.831  0.00  0.00     0.382 C 
ATOM     23  O   LIG d   1       0.331  81.402 117.042  0.00  0.00    -0.241 OA
ATOM     24  O   LIG d   1       0.877  81.667 114.969  0.00  0.00    -0.241 OA
ENDBRANCH   3  22
TORSDOF 7
ENDMDL
