MODEL 1
REMARK VINA RESULT:      -5.6      0.000      0.000
REMARK  7 active torsions:
REMARK  status: ('A' for Active; 'I' for Inactive)
REMARK    1  A    between atoms: C_2  and  C_3 
REMARK    2  A    between atoms: C_3  and  O_6 
REMARK    3  A    between atoms: C_3  and  C_4 
REMARK    4  A    between atoms: C_7  and  O_6 
REMARK    5  A    between atoms: C_9  and  C_10 
REMARK    6  A    between atoms: N_15  and  C_14 
REMARK    7  A    between atoms: N_20  and  C_19 
REMARK       I    between atoms: C_22  and  N_20 
ROOT
ATOM      1  C   LIG d   1      -2.929  77.143 113.159  0.00  0.00     0.161 C 
ATOM      2  C   LIG d   1      -2.611  78.423 112.676  0.00  0.00     0.016 C 
ATOM      3  C   LIG d   1      -2.567  79.575 113.494  0.00  0.00     0.038 C 
ATOM      4  C   LIG d   1      -2.692  79.498 114.890  0.00  0.00     0.028 C 
ATOM      5  C   LIG d   1      -3.514  78.302 115.359  0.00  0.00    -0.047 C 
ATOM      6  C   LIG d   1      -2.959  77.021 114.696  0.00  0.00     0.091 C 
ENDROOT
BRANCH   1   7
ATOM      7  O   LIG d   1      -2.027  76.170 112.596  0.00  0.00    -0.368 OA
BRANCH   7   8
ATOM      8  C   LIG d   1      -0.628  76.546 112.558  0.00  0.00     0.119 C 
BRANCH   8   9
ATOM      9  C   LIG d   1      -0.074  76.130 111.182  0.00  0.00     0.028 C 
ATOM     10  C   LIG d   1       0.903  74.946 111.276  0.00  0.00     0.006 C 
ENDBRANCH   8   9
BRANCH   8  11
ATOM     11  C   LIG d   1       0.190  75.753 113.582  0.00  0.00     0.028 C 
ATOM     12  C   LIG d   1       0.539  76.575 114.832  0.00  0.00     0.006 C 
ENDBRANCH   8  11
ENDBRANCH   7   8
ENDBRANCH   1   7
BRANCH   6  13
ATOM     13  N   LIG d   1      -3.759  75.815 115.036  0.00  0.00    -0.311 N 
ATOM     14  C   LIG d   1      -5.053  75.689 114.749  0.00  0.00     0.210 C 
ATOM     15  C   LIG d   1      -5.692  74.374 115.205  0.00  0.00     0.109 C 
ATOM     16  O   LIG d   1      -5.726  76.528 114.130  0.00  0.00    -0.276 OA
ATOM     17  H   LIG d   1      -3.285  75.072 115.512  0.00  0.00     0.149 HD
ENDBRANCH   6  13
BRANCH   5  18
ATOM     18  N   LIG d   1      -3.447  78.267 116.832  0.00  0.00     0.381 N 
ATOM     19  H   LIG d   1      -3.673  77.349 117.160  0.00  0.00    -0.090 HD
ATOM     20  H   LIG d   1      -4.124  78.909 117.204  0.00  0.00    -0.090 HD
ATOM     21  H   LIG d   1      -2.534  78.521 117.139  0.00  0.00    -0.090 HD
ENDBRANCH   5  18
BRANCH   3  22
ATOM     22  C   LIG d   1      -2.437  80.827 112.913  0.00  0.00     0.382 C 
ATOM     23  O   LIG d   1      -3.432  81.586 112.828  0.00  0.00    -0.241 OA
ATOM     24  O   LIG d   1      -1.346  81.190 112.433  0.00  0.00    -0.241 OA
ENDBRANCH   3  22
TORSDOF 7
ENDMDL
MODEL 2
REMARK VINA RESULT:      -5.5      2.322      4.782
REMARK  7 active torsions:
REMARK  status: ('A' for Active; 'I' for Inactive)
REMARK    1  A    between atoms: C_2  and  C_3 
REMARK    2  A    between atoms: C_3  and  O_6 
REMARK    3  A    between atoms: C_3  and  C_4 
REMARK    4  A    between atoms: C_7  and  O_6 
REMARK    5  A    between atoms: C_9  and  C_10 
REMARK    6  A    between atoms: N_15  and  C_14 
REMARK    7  A    between atoms: N_20  and  C_19 
REMARK       I    between atoms: C_22  and  N_20 
ROOT
ATOM      1  C   LIG d   1      -3.108  78.234 115.382  0.00  0.00     0.161 C 
ATOM      2  C   LIG d   1      -3.190  79.359 114.545  0.00  0.00     0.016 C 
ATOM      3  C   LIG d   1      -2.284  79.610 113.489  0.00  0.00     0.038 C 
ATOM      4  C   LIG d   1      -1.318  78.670 113.101  0.00  0.00     0.028 C 
ATOM      5  C   LIG d   1      -0.876  77.752 114.236  0.00  0.00    -0.047 C 
ATOM      6  C   LIG d   1      -2.129  77.141 114.904  0.00  0.00     0.091 C 
ENDROOT
BRANCH   1   7
ATOM      7  O   LIG d   1      -4.422  77.676 115.581  0.00  0.00    -0.368 OA
BRANCH   7   8
ATOM      8  C   LIG d   1      -5.034  77.930 116.870  0.00  0.00     0.119 C 
BRANCH   8   9
ATOM      9  C   LIG d   1      -6.531  77.586 116.747  0.00  0.00     0.028 C 
ATOM     10  C   LIG d   1      -6.823  76.648 115.564  0.00  0.00     0.006 C 
ENDBRANCH   8   9
BRANCH   8  11
ATOM     11  C   LIG d   1      -4.988  79.420 117.224  0.00  0.00     0.028 C 
ATOM     12  C   LIG d   1      -6.386  80.028 117.423  0.00  0.00     0.006 C 
ENDBRANCH   8  11
ENDBRANCH   7   8
ENDBRANCH   1   7
BRANCH   6  13
ATOM     13  N   LIG d   1      -1.790  76.296 116.078  0.00  0.00    -0.311 N 
ATOM     14  C   LIG d   1      -1.622  74.977 116.008  0.00  0.00     0.210 C 
ATOM     15  C   LIG d   1      -1.296  74.294 117.341  0.00  0.00     0.109 C 
ATOM     16  O   LIG d   1      -1.681  74.311 114.964  0.00  0.00    -0.276 OA
ATOM     17  H   LIG d   1      -1.692  76.759 116.961  0.00  0.00     0.149 HD
ENDBRANCH   6  13
BRANCH   5  18
ATOM     18  N   LIG d   1       0.026  76.736 113.662  0.00  0.00     0.381 N 
ATOM     19  H   LIG d   1      -0.331  75.821 113.849  0.00  0.00    -0.090 HD
ATOM     20  H   LIG d   1       0.928  76.819 114.098  0.00  0.00    -0.090 HD
ATOM     21  H   LIG d   1       0.111  76.872 112.678  0.00  0.00    -0.090 HD
ENDBRANCH   5  18
BRANCH   3  22
ATOM     22  C   LIG d   1      -2.314  80.832 112.834  0.00  0.00     0.382 C 
ATOM     23  O   LIG d   1      -1.260  81.308 112.347  0.00  0.00    -0.241 OA
ATOM     24  O   LIG d   1      -3.372  81.485 112.763  0.00  0.00    -0.241 OA
ENDBRANCH   3  22
TORSDOF 7
ENDMDL
MODEL 3
REMARK VINA RESULT:      -5.4      2.526      4.736
REMARK  7 active torsions:
REMARK  status: ('A' for Active; 'I' for Inactive)
REMARK    1  A    between atoms: C_2  and  C_3 
REMARK    2  A    between atoms: C_3  and  O_6 
REMARK    3  A    between atoms: C_3  and  C_4 
REMARK    4  A    between atoms: C_7  and  O_6 
REMARK    5  A    between atoms: C_9  and  C_10 
REMARK    6  A    between atoms: N_15  and  C_14 
REMARK    7  A    between atoms: N_20  and  C_19 
REMARK       I    between atoms: C_22  and  N_20 
ROOT
ATOM      1  C   LIG d   1      -2.768  77.320 114.739  0.00  0.00     0.161 C 
ATOM      2  C   LIG d   1      -3.078  77.494 113.380  0.00  0.00     0.016 C 
ATOM      3  C   LIG d   1      -2.170  77.215 112.333  0.00  0.00     0.038 C 
ATOM      4  C   LIG d   1      -0.933  76.596 112.569  0.00  0.00     0.028 C 
ATOM      5  C   LIG d   1      -0.376  76.869 113.962  0.00  0.00    -0.047 C 
ATOM      6  C   LIG d   1      -1.464  76.542 115.010  0.00  0.00     0.091 C 
ENDROOT
BRANCH   1   7
ATOM      7  O   LIG d   1      -3.875  76.695 115.417  0.00  0.00    -0.368 OA
BRANCH   7   8
ATOM      8  C   LIG d   1      -3.939  75.250 115.334  0.00  0.00     0.119 C 
BRANCH   8   9
ATOM      9  C   LIG d   1      -5.285  74.882 114.680  0.00  0.00     0.028 C 
ATOM     10  C   LIG d   1      -6.279  76.055 114.684  0.00  0.00     0.006 C 
ENDBRANCH   8   9
BRANCH   8  11
ATOM     11  C   LIG d   1      -3.978  74.613 116.727  0.00  0.00     0.028 C 
ATOM     12  C   LIG d   1      -4.145  75.649 117.851  0.00  0.00     0.006 C 
ENDBRANCH   8  11
ENDBRANCH   7   8
ENDBRANCH   1   7
BRANCH   6  13
ATOM     13  N   LIG d   1      -1.030  76.860 116.396  0.00  0.00    -0.311 N 
ATOM     14  C   LIG d   1      -0.528  75.955 117.233  0.00  0.00     0.210 C 
ATOM     15  C   LIG d   1      -0.163  76.490 118.622  0.00  0.00     0.109 C 
ATOM     16  O   LIG d   1      -0.321  74.766 116.948  0.00  0.00    -0.276 OA
ATOM     17  H   LIG d   1      -1.134  77.809 116.700  0.00  0.00     0.149 HD
ENDBRANCH   6  13
BRANCH   5  18
ATOM     18  N   LIG d   1       0.844  76.054 114.121  0.00  0.00     0.381 N 
ATOM     19  H   LIG d   1       0.962  75.807 115.083  0.00  0.00    -0.090 HD
ATOM     20  H   LIG d   1       1.638  76.600 113.836  0.00  0.00    -0.090 HD
ATOM     21  H   LIG d   1       0.779  75.231 113.564  0.00  0.00    -0.090 HD
ENDBRANCH   5  18
BRANCH   3  22
ATOM     22  C   LIG d   1      -2.480  77.592 111.035  0.00  0.00     0.382 C 
ATOM     23  O   LIG d   1      -3.536  77.180 110.497  0.00  0.00    -0.241 OA
ATOM     24  O   LIG d   1      -1.695  78.304 110.380  0.00  0.00    -0.241 OA
ENDBRANCH   3  22
TORSDOF 7
ENDMDL
MODEL 4
REMARK VINA RESULT:      -5.3      2.337      4.666
REMARK  7 active torsions:
REMARK  status: ('A' for Active; 'I' for Inactive)
REMARK    1  A    between atoms: C_2  and  C_3 
REMARK    2  A    between atoms: C_3  and  O_6 
REMARK    3  A    between atoms: C_3  and  C_4 
REMARK    4  A    between atoms: C_7  and  O_6 
REMARK    5  A    between atoms: C_9  and  C_10 
REMARK    6  A    between atoms: N_15  and  C_14 
REMARK    7  A    between atoms: N_20  and  C_19 
REMARK       I    between atoms: C_22  and  N_20 
ROOT
ATOM      1  C   LIG d   1      -3.000  78.243 115.341  0.00  0.00     0.161 C 
ATOM      2  C   LIG d   1      -3.114  79.397 114.549  0.00  0.00     0.016 C 
ATOM      3  C   LIG d   1      -2.311  79.644 113.413  0.00  0.00     0.038 C 
ATOM      4  C   LIG d   1      -1.434  78.676 112.900  0.00  0.00     0.028 C 
ATOM      5  C   LIG d   1      -0.922  77.703 113.956  0.00  0.00    -0.047 C 
ATOM      6  C   LIG d   1      -2.126  77.125 114.733  0.00  0.00     0.091 C 
ENDROOT
BRANCH   1   7
ATOM      7  O   LIG d   1      -4.311  77.736 115.660  0.00  0.00    -0.368 OA
BRANCH   7   8
ATOM      8  C   LIG d   1      -4.935  78.285 116.847  0.00  0.00     0.119 C 
BRANCH   8   9
ATOM      9  C   LIG d   1      -3.856  78.360 117.944  0.00  0.00     0.028 C 
ATOM     10  C   LIG d   1      -3.920  79.674 118.741  0.00  0.00     0.006 C 
ENDBRANCH   8   9
BRANCH   8  11
ATOM     11  C   LIG d   1      -6.009  77.342 117.398  0.00  0.00     0.028 C 
ATOM     12  C   LIG d   1      -5.558  75.873 117.418  0.00  0.00     0.006 C 
ENDBRANCH   8  11
ENDBRANCH   7   8
ENDBRANCH   1   7
BRANCH   6  13
ATOM     13  N   LIG d   1      -1.708  76.228 115.841  0.00  0.00    -0.311 N 
ATOM     14  C   LIG d   1      -2.143  74.976 115.974  0.00  0.00     0.210 C 
ATOM     15  C   LIG d   1      -1.603  74.230 117.199  0.00  0.00     0.109 C 
ATOM     16  O   LIG d   1      -2.899  74.401 115.177  0.00  0.00    -0.276 OA
ATOM     17  H   LIG d   1      -1.071  76.603 116.516  0.00  0.00     0.149 HD
ENDBRANCH   6  13
BRANCH   5  18
ATOM     18  N   LIG d   1      -0.131  76.669 113.262  0.00  0.00     0.381 N 
ATOM     19  H   LIG d   1      -0.440  76.585 112.314  0.00  0.00    -0.090 HD
ATOM     20  H   LIG d   1      -0.277  75.786 113.720  0.00  0.00    -0.090 HD
ATOM     21  H   LIG d   1       0.836  76.907 113.284  0.00  0.00    -0.090 HD
ENDBRANCH   5  18
BRANCH   3  22
ATOM     22  C   LIG d   1      -2.350  80.888 112.800  0.00  0.00     0.382 C 
ATOM     23  O   LIG d   1      -1.302  81.386 112.324  0.00  0.00    -0.241 OA
ATOM     24  O   LIG d   1      -3.412  81.537 112.756  0.00  0.00    -0.241 OA
ENDBRANCH   3  22
TORSDOF 7
ENDMDL
MODEL 5
REMARK VINA RESULT:      -5.3      2.943      5.664
REMARK  7 active torsions:
REMARK  status: ('A' for Active; 'I' for Inactive)
REMARK    1  A    between atoms: C_2  and  C_3 
REMARK    2  A    between atoms: C_3  and  O_6 
REMARK    3  A    between atoms: C_3  and  C_4 
REMARK    4  A    between atoms: C_7  and  O_6 
REMARK    5  A    between atoms: C_9  and  C_10 
REMARK    6  A    between atoms: N_15  and  C_14 
REMARK    7  A    between atoms: N_20  and  C_19 
REMARK       I    between atoms: C_22  and  N_20 
ROOT
ATOM      1  C   LIG d   1      -2.102  75.575 114.594  0.00  0.00     0.161 C 
ATOM      2  C   LIG d   1      -1.888  75.107 115.901  0.00  0.00     0.016 C 
ATOM      3  C   LIG d   1      -1.069  75.772 116.842  0.00  0.00     0.038 C 
ATOM      4  C   LIG d   1      -0.525  77.040 116.586  0.00  0.00     0.028 C 
ATOM      5  C   LIG d   1      -0.301  77.315 115.103  0.00  0.00    -0.047 C 
ATOM      6  C   LIG d   1      -1.607  77.014 114.333  0.00  0.00     0.091 C 
ENDROOT
BRANCH   1   7
ATOM      7  O   LIG d   1      -3.497  75.457 114.255  0.00  0.00    -0.368 OA
BRANCH   7   8
ATOM      8  C   LIG d   1      -4.420  75.380 115.369  0.00  0.00     0.119 C 
BRANCH   8   9
ATOM      9  C   LIG d   1      -5.477  74.313 115.023  0.00  0.00     0.028 C 
ATOM     10  C   LIG d   1      -6.555  74.180 116.111  0.00  0.00     0.006 C 
ENDBRANCH   8   9
BRANCH   8  11
ATOM     11  C   LIG d   1      -5.202  76.686 115.537  0.00  0.00     0.028 C 
ATOM     12  C   LIG d   1      -4.568  77.632 116.569  0.00  0.00     0.006 C 
ENDBRANCH   8  11
ENDBRANCH   7   8
ENDBRANCH   1   7
BRANCH   6  13
ATOM     13  N   LIG d   1      -1.450  77.176 112.864  0.00  0.00    -0.311 N 
ATOM     14  C   LIG d   1      -2.281  77.896 112.113  0.00  0.00     0.210 C 
ATOM     15  C   LIG d   1      -1.948  77.916 110.618  0.00  0.00     0.109 C 
ATOM     16  O   LIG d   1      -3.243  78.547 112.548  0.00  0.00    -0.276 OA
ATOM     17  H   LIG d   1      -0.677  76.707 112.434  0.00  0.00     0.149 HD
ENDBRANCH   6  13
BRANCH   5  18
ATOM     18  N   LIG d   1       0.138  78.717 114.971  0.00  0.00     0.381 N 
ATOM     19  H   LIG d   1       0.346  79.094 115.874  0.00  0.00    -0.090 HD
ATOM     20  H   LIG d   1      -0.610  79.255 114.570  0.00  0.00    -0.090 HD
ATOM     21  H   LIG d   1       0.944  78.769 114.388  0.00  0.00    -0.090 HD
ENDBRANCH   5  18
BRANCH   3  22
ATOM     22  C   LIG d   1      -0.754  75.150 118.040  0.00  0.00     0.382 C 
ATOM     23  O   LIG d   1       0.281  75.484 118.667  0.00  0.00    -0.241 OA
ATOM     24  O   LIG d   1      -1.466  74.228 118.480  0.00  0.00    -0.241 OA
ENDBRANCH   3  22
TORSDOF 7
ENDMDL
MODEL 6
REMARK VINA RESULT:      -5.1      2.712      5.554
REMARK  7 active torsions:
REMARK  status: ('A' for Active; 'I' for Inactive)
REMARK    1  A    between atoms: C_2  and  C_3 
REMARK    2  A    between atoms: C_3  and  O_6 
REMARK    3  A    between atoms: C_3  and  C_4 
REMARK    4  A    between atoms: C_7  and  O_6 
REMARK    5  A    between atoms: C_9  and  C_10 
REMARK    6  A    between atoms: N_15  and  C_14 
REMARK    7  A    between atoms: N_20  and  C_19 
REMARK       I    between atoms: C_22  and  N_20 
ROOT
ATOM      1  C   LIG d   1      -1.478  79.406 114.056  0.00  0.00     0.161 C 
ATOM      2  C   LIG d   1      -2.367  78.377 114.406  0.00  0.00     0.016 C 
ATOM      3  C   LIG d   1      -2.849  77.417 113.486  0.00  0.00     0.038 C 
ATOM      4  C   LIG d   1      -2.352  77.331 112.177  0.00  0.00     0.028 C 
ATOM      5  C   LIG d   1      -1.832  78.660 111.638  0.00  0.00    -0.047 C 
ATOM      6  C   LIG d   1      -0.839  79.261 112.659  0.00  0.00     0.091 C 
ENDROOT
BRANCH   1   7
ATOM      7  O   LIG d   1      -0.455  79.532 115.064  0.00  0.00    -0.368 OA
BRANCH   7   8
ATOM      8  C   LIG d   1      -0.437  78.505 116.085  0.00  0.00     0.119 C 
BRANCH   8   9
ATOM      9  C   LIG d   1      -0.396  79.213 117.453  0.00  0.00     0.028 C 
ATOM     10  C   LIG d   1      -1.761  79.200 118.161  0.00  0.00     0.006 C 
ENDBRANCH   8   9
BRANCH   8  11
ATOM     11  C   LIG d   1       0.850  77.677 116.019  0.00  0.00     0.028 C 
ATOM     12  C   LIG d   1       0.736  76.473 115.070  0.00  0.00     0.006 C 
ENDBRANCH   8  11
ENDBRANCH   7   8
ENDBRANCH   1   7
BRANCH   6  13
ATOM     13  N   LIG d   1      -0.346  80.602 112.248  0.00  0.00    -0.311 N 
ATOM     14  C   LIG d   1      -1.124  81.682 112.188  0.00  0.00     0.210 C 
ATOM     15  C   LIG d   1      -0.420  82.960 111.721  0.00  0.00     0.109 C 
ATOM     16  O   LIG d   1      -2.321  81.709 112.508  0.00  0.00    -0.276 OA
ATOM     17  H   LIG d   1       0.621  80.676 112.002  0.00  0.00     0.149 HD
ENDBRANCH   6  13
BRANCH   5  18
ATOM     18  N   LIG d   1      -1.219  78.397 110.322  0.00  0.00     0.381 N 
ATOM     19  H   LIG d   1      -1.837  77.841 109.766  0.00  0.00    -0.090 HD
ATOM     20  H   LIG d   1      -0.367  77.883 110.456  0.00  0.00    -0.090 HD
ATOM     21  H   LIG d   1      -1.027  79.258 109.858  0.00  0.00    -0.090 HD
ENDBRANCH   5  18
BRANCH   3  22
ATOM     22  C   LIG d   1      -3.868  76.556 113.862  0.00  0.00     0.382 C 
ATOM     23  O   LIG d   1      -5.060  76.948 113.842  0.00  0.00    -0.241 OA
ATOM     24  O   LIG d   1      -3.607  75.406 114.263  0.00  0.00    -0.241 OA
ENDBRANCH   3  22
TORSDOF 7
ENDMDL
MODEL 7
REMARK VINA RESULT:      -5.1      3.134      5.594
REMARK  7 active torsions:
REMARK  status: ('A' for Active; 'I' for Inactive)
REMARK    1  A    between atoms: C_2  and  C_3 
REMARK    2  A    between atoms: C_3  and  O_6 
REMARK    3  A    between atoms: C_3  and  C_4 
REMARK    4  A    between atoms: C_7  and  O_6 
REMARK    5  A    between atoms: C_9  and  C_10 
REMARK    6  A    between atoms: N_15  and  C_14 
REMARK    7  A    between atoms: N_20  and  C_19 
REMARK       I    between atoms: C_22  and  N_20 
ROOT
ATOM      1  C   LIG d   1      -3.245  77.407 115.527  0.00  0.00     0.161 C 
ATOM      2  C   LIG d   1      -3.012  77.533 116.907  0.00  0.00     0.016 C 
ATOM      3  C   LIG d   1      -1.913  78.238 117.449  0.00  0.00     0.038 C 
ATOM      4  C   LIG d   1      -1.050  78.997 116.646  0.00  0.00     0.028 C 
ATOM      5  C   LIG d   1      -0.950  78.486 115.212  0.00  0.00    -0.047 C 
ATOM      6  C   LIG d   1      -2.376  78.321 114.639  0.00  0.00     0.091 C 
ENDROOT
BRANCH   1   7
ATOM      7  O   LIG d   1      -4.643  77.616 115.247  0.00  0.00    -0.368 OA
BRANCH   7   8
ATOM      8  C   LIG d   1      -5.572  76.780 115.979  0.00  0.00     0.119 C 
BRANCH   8   9
ATOM      9  C   LIG d   1      -6.185  75.782 114.979  0.00  0.00     0.028 C 
ATOM     10  C   LIG d   1      -5.472  74.419 114.997  0.00  0.00     0.006 C 
ENDBRANCH   8   9
BRANCH   8  11
ATOM     11  C   LIG d   1      -6.753  77.596 116.514  0.00  0.00     0.028 C 
ATOM     12  C   LIG d   1      -7.996  76.735 116.789  0.00  0.00     0.006 C 
ENDBRANCH   8  11
ENDBRANCH   7   8
ENDBRANCH   1   7
BRANCH   6  13
ATOM     13  N   LIG d   1      -2.373  77.745 113.268  0.00  0.00    -0.311 N 
ATOM     14  C   LIG d   1      -2.360  78.486 112.162  0.00  0.00     0.210 C 
ATOM     15  C   LIG d   1      -2.379  77.692 110.852  0.00  0.00     0.109 C 
ATOM     16  O   LIG d   1      -2.302  79.725 112.141  0.00  0.00    -0.276 OA
ATOM     17  H   LIG d   1      -2.388  76.747 113.193  0.00  0.00     0.149 HD
ENDBRANCH   6  13
BRANCH   5  18
ATOM     18  N   LIG d   1      -0.129  79.448 114.452  0.00  0.00     0.381 N 
ATOM     19  H   LIG d   1      -0.553  79.627 113.564  0.00  0.00    -0.090 HD
ATOM     20  H   LIG d   1       0.778  79.046 114.293  0.00  0.00    -0.090 HD
ATOM     21  H   LIG d   1      -0.039  80.298 114.963  0.00  0.00    -0.090 HD
ENDBRANCH   5  18
BRANCH   3  22
ATOM     22  C   LIG d   1      -1.645  78.155 118.807  0.00  0.00     0.382 C 
ATOM     23  O   LIG d   1      -2.539  78.438 119.641  0.00  0.00    -0.241 OA
ATOM     24  O   LIG d   1      -0.509  77.843 119.209  0.00  0.00    -0.241 OA
ENDBRANCH   3  22
TORSDOF 7
ENDMDL
MODEL 8
REMARK VINA RESULT:      -5.0      2.588      4.579
REMARK  7 active torsions:
REMARK  status: ('A' for Active; 'I' for Inactive)
REMARK    1  A    between atoms: C_2  and  C_3 
REMARK    2  A    between atoms: C_3  and  O_6 
REMARK    3  A    between atoms: C_3  and  C_4 
REMARK    4  A    between atoms: C_7  and  O_6 
REMARK    5  A    between atoms: C_9  and  C_10 
REMARK    6  A    between atoms: N_15  and  C_14 
REMARK    7  A    between atoms: N_20  and  C_19 
REMARK       I    between atoms: C_22  and  N_20 
ROOT
ATOM      1  C   LIG d   1      -2.995  78.118 115.645  0.00  0.00     0.161 C 
ATOM      2  C   LIG d   1      -3.103  78.928 114.502  0.00  0.00     0.016 C 
ATOM      3  C   LIG d   1      -1.995  79.542 113.875  0.00  0.00     0.038 C 
ATOM      4  C   LIG d   1      -0.676  79.263 114.262  0.00  0.00     0.028 C 
ATOM      5  C   LIG d   1      -0.548  78.850 115.724  0.00  0.00    -0.047 C 
ATOM      6  C   LIG d   1      -1.553  77.712 116.015  0.00  0.00     0.091 C 
ENDROOT
BRANCH   1   7
ATOM      7  O   LIG d   1      -3.822  76.947 115.494  0.00  0.00    -0.368 OA
BRANCH   7   8
ATOM      8  C   LIG d   1      -4.887  76.791 116.463  0.00  0.00     0.119 C 
BRANCH   8   9
ATOM      9  C   LIG d   1      -4.735  75.394 117.097  0.00  0.00     0.028 C 
ATOM     10  C   LIG d   1      -3.693  74.530 116.368  0.00  0.00     0.006 C 
ENDBRANCH   8   9
BRANCH   8  11
ATOM     11  C   LIG d   1      -6.260  76.781 115.785  0.00  0.00     0.028 C 
ATOM     12  C   LIG d   1      -6.229  76.147 114.385  0.00  0.00     0.006 C 
ENDBRANCH   8  11
ENDBRANCH   7   8
ENDBRANCH   1   7
BRANCH   6  13
ATOM     13  N   LIG d   1      -1.552  77.306 117.444  0.00  0.00    -0.311 N 
ATOM     14  C   LIG d   1      -0.846  76.280 117.915  0.00  0.00     0.210 C 
ATOM     15  C   LIG d   1      -1.004  76.021 119.417  0.00  0.00     0.109 C 
ATOM     16  O   LIG d   1      -0.078  75.580 117.238  0.00  0.00    -0.276 OA
ATOM     17  H   LIG d   1      -2.124  77.840 118.070  0.00  0.00     0.149 HD
ENDBRANCH   6  13
BRANCH   5  18
ATOM     18  N   LIG d   1       0.855  78.456 115.955  0.00  0.00     0.381 N 
ATOM     19  H   LIG d   1       1.141  77.799 115.257  0.00  0.00    -0.090 HD
ATOM     20  H   LIG d   1       0.924  78.011 116.854  0.00  0.00    -0.090 HD
ATOM     21  H   LIG d   1       1.444  79.259 115.928  0.00  0.00    -0.090 HD
ENDBRANCH   5  18
BRANCH   3  22
ATOM     22  C   LIG d   1      -2.203  80.478 112.874  0.00  0.00     0.382 C 
ATOM     23  O   LIG d   1      -3.283  81.114 112.825  0.00  0.00    -0.241 OA
ATOM     24  O   LIG d   1      -1.342  80.662 111.992  0.00  0.00    -0.241 OA
ENDBRANCH   3  22
TORSDOF 7
ENDMDL
MODEL 9
REMARK VINA RESULT:      -4.8      2.177      4.519
REMARK  7 active torsions:
REMARK  status: ('A' for Active; 'I' for Inactive)
REMARK    1  A    between atoms: C_2  and  C_3 
REMARK    2  A    between atoms: C_3  and  O_6 
REMARK    3  A    between atoms: C_3  and  C_4 
REMARK    4  A    between atoms: C_7  and  O_6 
REMARK    5  A    between atoms: C_9  and  C_10 
REMARK    6  A    between atoms: N_15  and  C_14 
REMARK    7  A    between atoms: N_20  and  C_19 
REMARK       I    between atoms: C_22  and  N_20 
ROOT
ATOM      1  C   LIG d   1      -1.543  76.661 114.567  0.00  0.00     0.161 C 
ATOM      2  C   LIG d   1      -2.837  76.263 114.193  0.00  0.00     0.016 C 
ATOM      3  C   LIG d   1      -4.001  76.630 114.907  0.00  0.00     0.038 C 
ATOM      4  C   LIG d   1      -3.962  77.551 115.964  0.00  0.00     0.028 C 
ATOM      5  C   LIG d   1      -2.623  77.582 116.692  0.00  0.00    -0.047 C 
ATOM      6  C   LIG d   1      -1.492  77.757 115.653  0.00  0.00     0.091 C 
ENDROOT
BRANCH   1   7
ATOM      7  O   LIG d   1      -0.803  77.076 113.402  0.00  0.00    -0.368 OA
BRANCH   7   8
ATOM      8  C   LIG d   1      -1.580  77.659 112.327  0.00  0.00     0.119 C 
BRANCH   8   9
ATOM      9  C   LIG d   1      -1.065  77.060 111.005  0.00  0.00     0.028 C 
ATOM     10  C   LIG d   1      -0.044  75.932 111.230  0.00  0.00     0.006 C 
ENDBRANCH   8   9
BRANCH   8  11
ATOM     11  C   LIG d   1      -1.332  79.166 112.214  0.00  0.00     0.028 C 
ATOM     12  C   LIG d   1      -2.357  80.000 112.998  0.00  0.00     0.006 C 
ENDBRANCH   8  11
ENDBRANCH   7   8
ENDBRANCH   1   7
BRANCH   6  13
ATOM     13  N   LIG d   1      -0.141  77.713 116.272  0.00  0.00    -0.311 N 
ATOM     14  C   LIG d   1       0.550  78.804 116.600  0.00  0.00     0.210 C 
ATOM     15  C   LIG d   1       1.930  78.535 117.208  0.00  0.00     0.109 C 
ATOM     16  O   LIG d   1       0.139  79.967 116.474  0.00  0.00    -0.276 OA
ATOM     17  H   LIG d   1       0.256  76.809 116.438  0.00  0.00     0.149 HD
ENDBRANCH   6  13
BRANCH   5  18
ATOM     18  N   LIG d   1      -2.676  78.678 117.678  0.00  0.00     0.381 N 
ATOM     19  H   LIG d   1      -1.748  78.960 117.922  0.00  0.00    -0.090 HD
ATOM     20  H   LIG d   1      -3.135  78.347 118.508  0.00  0.00    -0.090 HD
ATOM     21  H   LIG d   1      -3.177  79.453 117.300  0.00  0.00    -0.090 HD
ENDBRANCH   5  18
BRANCH   3  22
ATOM     22  C   LIG d   1      -5.215  76.042 114.589  0.00  0.00     0.382 C 
ATOM     23  O   LIG d   1      -6.277  76.702 114.691  0.00  0.00    -0.241 OA
ATOM     24  O   LIG d   1      -5.267  74.846 114.245  0.00  0.00    -0.241 OA
ENDBRANCH   3  22
TORSDOF 7
ENDMDL
