MODEL 1
REMARK VINA RESULT:      -5.5      0.000      0.000
REMARK  7 active torsions:
REMARK  status: ('A' for Active; 'I' for Inactive)
REMARK    1  A    between atoms: C_2  and  C_3 
REMARK    2  A    between atoms: C_3  and  O_6 
REMARK    3  A    between atoms: C_3  and  C_4 
REMARK    4  A    between atoms: C_7  and  O_6 
REMARK    5  A    between atoms: C_9  and  C_10 
REMARK    6  A    between atoms: N_15  and  C_14 
REMARK    7  A    between atoms: N_20  and  C_19 
REMARK       I    between atoms: C_22  and  N_20 
ROOT
ATOM      1  C   LIG d   1      -2.019  75.627 114.993  0.00  0.00     0.161 C 
ATOM      2  C   LIG d   1      -1.815  75.231 116.325  0.00  0.00     0.016 C 
ATOM      3  C   LIG d   1      -1.162  76.038 117.285  0.00  0.00     0.038 C 
ATOM      4  C   LIG d   1      -0.800  77.366 117.015  0.00  0.00     0.028 C 
ATOM      5  C   LIG d   1      -0.531  77.632 115.538  0.00  0.00    -0.047 C 
ATOM      6  C   LIG d   1      -1.730  77.116 114.709  0.00  0.00     0.091 C 
ENDROOT
BRANCH   1   7
ATOM      7  O   LIG d   1      -3.358  75.289 114.583  0.00  0.00    -0.368 OA
BRANCH   7   8
ATOM      8  C   LIG d   1      -4.358  75.261 115.631  0.00  0.00     0.119 C 
BRANCH   8   9
ATOM      9  C   LIG d   1      -5.391  74.180 115.257  0.00  0.00     0.028 C 
ATOM     10  C   LIG d   1      -6.608  74.181 116.197  0.00  0.00     0.006 C 
ENDBRANCH   8   9
BRANCH   8  11
ATOM     11  C   LIG d   1      -5.146  76.573 115.686  0.00  0.00     0.028 C 
ATOM     12  C   LIG d   1      -4.804  77.422 116.921  0.00  0.00     0.006 C 
ENDBRANCH   8  11
ENDBRANCH   7   8
ENDBRANCH   1   7
BRANCH   6  13
ATOM     13  N   LIG d   1      -1.512  77.261 113.246  0.00  0.00    -0.311 N 
ATOM     14  C   LIG d   1      -2.335  77.935 112.445  0.00  0.00     0.210 C 
ATOM     15  C   LIG d   1      -1.936  77.944 110.967  0.00  0.00     0.109 C 
ATOM     16  O   LIG d   1      -3.341  78.553 112.824  0.00  0.00    -0.276 OA
ATOM     17  H   LIG d   1      -0.702  76.816 112.859  0.00  0.00     0.149 HD
ENDBRANCH   6  13
BRANCH   5  18
ATOM     18  N   LIG d   1      -0.300  79.080 115.380  0.00  0.00     0.381 N 
ATOM     19  H   LIG d   1      -0.827  79.584 116.066  0.00  0.00    -0.090 HD
ATOM     20  H   LIG d   1      -0.617  79.363 114.469  0.00  0.00    -0.090 HD
ATOM     21  H   LIG d   1       0.670  79.284 115.481  0.00  0.00    -0.090 HD
ENDBRANCH   5  18
BRANCH   3  22
ATOM     22  C   LIG d   1      -0.828  75.503 118.520  0.00  0.00     0.382 C 
ATOM     23  O   LIG d   1      -1.000  76.178 119.563  0.00  0.00    -0.241 OA
ATOM     24  O   LIG d   1      -0.317  74.370 118.601  0.00  0.00    -0.241 OA
ENDBRANCH   3  22
TORSDOF 7
ENDMDL
MODEL 2
REMARK VINA RESULT:      -5.0      2.719      5.692
REMARK  7 active torsions:
REMARK  status: ('A' for Active; 'I' for Inactive)
REMARK    1  A    between atoms: C_2  and  C_3 
REMARK    2  A    between atoms: C_3  and  O_6 
REMARK    3  A    between atoms: C_3  and  C_4 
REMARK    4  A    between atoms: C_7  and  O_6 
REMARK    5  A    between atoms: C_9  and  C_10 
REMARK    6  A    between atoms: N_15  and  C_14 
REMARK    7  A    between atoms: N_20  and  C_19 
REMARK       I    between atoms: C_22  and  N_20 
ROOT
ATOM      1  C   LIG d   1      -2.392  78.835 116.105  0.00  0.00     0.161 C 
ATOM      2  C   LIG d   1      -2.657  79.873 115.197  0.00  0.00     0.016 C 
ATOM      3  C   LIG d   1      -2.353  79.799 113.818  0.00  0.00     0.038 C 
ATOM      4  C   LIG d   1      -1.897  78.613 113.223  0.00  0.00     0.028 C 
ATOM      5  C   LIG d   1      -1.141  77.704 114.185  0.00  0.00    -0.047 C 
ATOM      6  C   LIG d   1      -1.998  77.492 115.454  0.00  0.00     0.091 C 
ENDROOT
BRANCH   1   7
ATOM      7  O   LIG d   1      -3.520  78.654 116.984  0.00  0.00    -0.368 OA
BRANCH   7   8
ATOM      8  C   LIG d   1      -3.982  79.838 117.679  0.00  0.00     0.119 C 
BRANCH   8   9
ATOM      9  C   LIG d   1      -3.285  79.869 119.053  0.00  0.00     0.028 C 
ATOM     10  C   LIG d   1      -2.394  81.109 119.232  0.00  0.00     0.006 C 
ENDBRANCH   8   9
BRANCH   8  11
ATOM     11  C   LIG d   1      -5.480  79.754 117.986  0.00  0.00     0.028 C 
ATOM     12  C   LIG d   1      -6.229  81.055 117.656  0.00  0.00     0.006 C 
ENDBRANCH   8  11
ENDBRANCH   7   8
ENDBRANCH   1   7
BRANCH   6  13
ATOM     13  N   LIG d   1      -1.296  76.682 116.484  0.00  0.00    -0.311 N 
ATOM     14  C   LIG d   1      -1.389  75.356 116.563  0.00  0.00     0.210 C 
ATOM     15  C   LIG d   1      -0.601  74.720 117.712  0.00  0.00     0.109 C 
ATOM     16  O   LIG d   1      -2.025  74.644 115.772  0.00  0.00    -0.276 OA
ATOM     17  H   LIG d   1      -0.733  77.177 117.148  0.00  0.00     0.149 HD
ENDBRANCH   6  13
BRANCH   5  18
ATOM     18  N   LIG d   1      -0.845  76.447 113.472  0.00  0.00     0.381 N 
ATOM     19  H   LIG d   1      -0.207  75.895 114.009  0.00  0.00    -0.090 HD
ATOM     20  H   LIG d   1      -0.410  76.667 112.593  0.00  0.00    -0.090 HD
ATOM     21  H   LIG d   1      -1.686  75.937 113.315  0.00  0.00    -0.090 HD
ENDBRANCH   5  18
BRANCH   3  22
ATOM     22  C   LIG d   1      -2.466  80.932 113.027  0.00  0.00     0.382 C 
ATOM     23  O   LIG d   1      -1.619  81.157 112.129  0.00  0.00    -0.241 OA
ATOM     24  O   LIG d   1      -3.379  81.754 113.229  0.00  0.00    -0.241 OA
ENDBRANCH   3  22
TORSDOF 7
ENDMDL
MODEL 3
REMARK VINA RESULT:      -4.9      1.763      2.034
REMARK  7 active torsions:
REMARK  status: ('A' for Active; 'I' for Inactive)
REMARK    1  A    between atoms: C_2  and  C_3 
REMARK    2  A    between atoms: C_3  and  O_6 
REMARK    3  A    between atoms: C_3  and  C_4 
REMARK    4  A    between atoms: C_7  and  O_6 
REMARK    5  A    between atoms: C_9  and  C_10 
REMARK    6  A    between atoms: N_15  and  C_14 
REMARK    7  A    between atoms: N_20  and  C_19 
REMARK       I    between atoms: C_22  and  N_20 
ROOT
ATOM      1  C   LIG d   1      -2.819  77.318 115.394  0.00  0.00     0.161 C 
ATOM      2  C   LIG d   1      -2.695  77.502 116.781  0.00  0.00     0.016 C 
ATOM      3  C   LIG d   1      -1.862  78.484 117.365  0.00  0.00     0.038 C 
ATOM      4  C   LIG d   1      -1.207  79.455 116.592  0.00  0.00     0.028 C 
ATOM      5  C   LIG d   1      -0.904  78.995 115.171  0.00  0.00    -0.047 C 
ATOM      6  C   LIG d   1      -2.199  78.440 114.535  0.00  0.00     0.091 C 
ENDROOT
BRANCH   1   7
ATOM      7  O   LIG d   1      -4.206  77.131 115.048  0.00  0.00    -0.368 OA
BRANCH   7   8
ATOM      8  C   LIG d   1      -4.987  76.324 115.964  0.00  0.00     0.119 C 
BRANCH   8   9
ATOM      9  C   LIG d   1      -5.197  74.947 115.304  0.00  0.00     0.028 C 
ATOM     10  C   LIG d   1      -6.383  74.180 115.911  0.00  0.00     0.006 C 
ENDBRANCH   8   9
BRANCH   8  11
ATOM     11  C   LIG d   1      -6.393  76.901 116.154  0.00  0.00     0.028 C 
ATOM     12  C   LIG d   1      -6.529  77.726 117.443  0.00  0.00     0.006 C 
ENDBRANCH   8  11
ENDBRANCH   7   8
ENDBRANCH   1   7
BRANCH   6  13
ATOM     13  N   LIG d   1      -1.972  77.890 113.173  0.00  0.00    -0.311 N 
ATOM     14  C   LIG d   1      -2.096  78.613 112.061  0.00  0.00     0.210 C 
ATOM     15  C   LIG d   1      -1.836  77.846 110.760  0.00  0.00     0.109 C 
ATOM     16  O   LIG d   1      -2.364  79.823 112.030  0.00  0.00    -0.276 OA
ATOM     17  H   LIG d   1      -1.720  76.924 113.108  0.00  0.00     0.149 HD
ENDBRANCH   6  13
BRANCH   5  18
ATOM     18  N   LIG d   1      -0.348  80.148 114.438  0.00  0.00     0.381 N 
ATOM     19  H   LIG d   1      -0.847  80.277 113.581  0.00  0.00    -0.090 HD
ATOM     20  H   LIG d   1       0.614  79.960 114.216  0.00  0.00    -0.090 HD
ATOM     21  H   LIG d   1      -0.413  80.970 114.996  0.00  0.00    -0.090 HD
ENDBRANCH   5  18
BRANCH   3  22
ATOM     22  C   LIG d   1      -1.645  78.476 118.734  0.00  0.00     0.382 C 
ATOM     23  O   LIG d   1      -2.087  77.533 119.434  0.00  0.00    -0.241 OA
ATOM     24  O   LIG d   1      -1.051  79.423 119.285  0.00  0.00    -0.241 OA
ENDBRANCH   3  22
TORSDOF 7
ENDMDL
MODEL 4
REMARK VINA RESULT:      -4.8      2.920      4.266
REMARK  7 active torsions:
REMARK  status: ('A' for Active; 'I' for Inactive)
REMARK    1  A    between atoms: C_2  and  C_3 
REMARK    2  A    between atoms: C_3  and  O_6 
REMARK    3  A    between atoms: C_3  and  C_4 
REMARK    4  A    between atoms: C_7  and  O_6 
REMARK    5  A    between atoms: C_9  and  C_10 
REMARK    6  A    between atoms: N_15  and  C_14 
REMARK    7  A    between atoms: N_20  and  C_19 
REMARK       I    between atoms: C_22  and  N_20 
ROOT
ATOM      1  C   LIG d   1      -3.318  78.408 116.550  0.00  0.00     0.161 C 
ATOM      2  C   LIG d   1      -2.447  79.488 116.772  0.00  0.00     0.016 C 
ATOM      3  C   LIG d   1      -1.232  79.665 116.070  0.00  0.00     0.038 C 
ATOM      4  C   LIG d   1      -0.878  78.850 114.984  0.00  0.00     0.028 C 
ATOM      5  C   LIG d   1      -1.480  77.450 115.056  0.00  0.00    -0.047 C 
ATOM      6  C   LIG d   1      -3.003  77.570 115.293  0.00  0.00     0.091 C 
ENDROOT
BRANCH   1   7
ATOM      7  O   LIG d   1      -4.680  78.880 116.509  0.00  0.00    -0.368 OA
BRANCH   7   8
ATOM      8  C   LIG d   1      -5.315  79.104 117.792  0.00  0.00     0.119 C 
BRANCH   8   9
ATOM      9  C   LIG d   1      -6.206  77.882 118.087  0.00  0.00     0.028 C 
ATOM     10  C   LIG d   1      -6.843  77.299 116.815  0.00  0.00     0.006 C 
ENDBRANCH   8   9
BRANCH   8  11
ATOM     11  C   LIG d   1      -6.271  80.300 117.738  0.00  0.00     0.028 C 
ATOM     12  C   LIG d   1      -5.977  81.347 118.823  0.00  0.00     0.006 C 
ENDBRANCH   8  11
ENDBRANCH   7   8
ENDBRANCH   1   7
BRANCH   6  13
ATOM     13  N   LIG d   1      -3.656  76.246 115.460  0.00  0.00    -0.311 N 
ATOM     14  C   LIG d   1      -4.488  75.721 114.562  0.00  0.00     0.210 C 
ATOM     15  C   LIG d   1      -5.068  74.354 114.939  0.00  0.00     0.109 C 
ATOM     16  O   LIG d   1      -4.776  76.243 113.474  0.00  0.00    -0.276 OA
ATOM     17  H   LIG d   1      -3.454  75.740 116.300  0.00  0.00     0.149 HD
ENDBRANCH   6  13
BRANCH   5  18
ATOM     18  N   LIG d   1      -1.144  76.756 113.799  0.00  0.00     0.381 N 
ATOM     19  H   LIG d   1      -0.173  76.515 113.794  0.00  0.00    -0.090 HD
ATOM     20  H   LIG d   1      -1.318  77.376 113.028  0.00  0.00    -0.090 HD
ATOM     21  H   LIG d   1      -1.698  75.933 113.705  0.00  0.00    -0.090 HD
ENDBRANCH   5  18
BRANCH   3  22
ATOM     22  C   LIG d   1      -0.339  80.643 116.478  0.00  0.00     0.382 C 
ATOM     23  O   LIG d   1       0.671  80.900 115.780  0.00  0.00    -0.241 OA
ATOM     24  O   LIG d   1      -0.506  81.240 117.558  0.00  0.00    -0.241 OA
ENDBRANCH   3  22
TORSDOF 7
ENDMDL
MODEL 5
REMARK VINA RESULT:      -4.7      2.495      5.489
REMARK  7 active torsions:
REMARK  status: ('A' for Active; 'I' for Inactive)
REMARK    1  A    between atoms: C_2  and  C_3 
REMARK    2  A    between atoms: C_3  and  O_6 
REMARK    3  A    between atoms: C_3  and  C_4 
REMARK    4  A    between atoms: C_7  and  O_6 
REMARK    5  A    between atoms: C_9  and  C_10 
REMARK    6  A    between atoms: N_15  and  C_14 
REMARK    7  A    between atoms: N_20  and  C_19 
REMARK       I    between atoms: C_22  and  N_20 
ROOT
ATOM      1  C   LIG d   1      -1.723  78.395 114.236  0.00  0.00     0.161 C 
ATOM      2  C   LIG d   1      -1.801  77.932 112.912  0.00  0.00     0.016 C 
ATOM      3  C   LIG d   1      -1.204  78.599 111.817  0.00  0.00     0.038 C 
ATOM      4  C   LIG d   1      -0.355  79.701 111.995  0.00  0.00     0.028 C 
ATOM      5  C   LIG d   1      -0.656  80.501 113.258  0.00  0.00    -0.047 C 
ATOM      6  C   LIG d   1      -0.708  79.535 114.463  0.00  0.00     0.091 C 
ENDROOT
BRANCH   1   7
ATOM      7  O   LIG d   1      -1.446  77.293 115.123  0.00  0.00    -0.368 OA
BRANCH   7   8
ATOM      8  C   LIG d   1      -1.959  76.001 114.714  0.00  0.00     0.119 C 
BRANCH   8   9
ATOM      9  C   LIG d   1      -3.069  75.608 115.708  0.00  0.00     0.028 C 
ATOM     10  C   LIG d   1      -4.339  75.107 115.001  0.00  0.00     0.006 C 
ENDBRANCH   8   9
BRANCH   8  11
ATOM     11  C   LIG d   1      -0.891  74.911 114.846  0.00  0.00     0.028 C 
ATOM     12  C   LIG d   1      -0.676  74.461 116.300  0.00  0.00     0.006 C 
ENDBRANCH   8  11
ENDBRANCH   7   8
ENDBRANCH   1   7
BRANCH   6  13
ATOM     13  N   LIG d   1      -1.080  80.223 115.727  0.00  0.00    -0.311 N 
ATOM     14  C   LIG d   1      -0.348  80.164 116.838  0.00  0.00     0.210 C 
ATOM     15  C   LIG d   1      -0.923  80.930 118.033  0.00  0.00     0.109 C 
ATOM     16  O   LIG d   1       0.739  79.575 116.937  0.00  0.00    -0.276 OA
ATOM     17  H   LIG d   1      -1.932  80.749 115.725  0.00  0.00     0.149 HD
ENDBRANCH   6  13
BRANCH   5  18
ATOM     18  N   LIG d   1       0.387  81.535 113.390  0.00  0.00     0.381 N 
ATOM     19  H   LIG d   1       0.171  82.312 112.798  0.00  0.00    -0.090 HD
ATOM     20  H   LIG d   1       1.267  81.149 113.095  0.00  0.00    -0.090 HD
ATOM     21  H   LIG d   1       0.450  81.837 114.337  0.00  0.00    -0.090 HD
ENDBRANCH   5  18
BRANCH   3  22
ATOM     22  C   LIG d   1      -1.488  78.188 110.524  0.00  0.00     0.382 C 
ATOM     23  O   LIG d   1      -2.172  77.154 110.331  0.00  0.00    -0.241 OA
ATOM     24  O   LIG d   1      -1.031  78.812 109.548  0.00  0.00    -0.241 OA
ENDBRANCH   3  22
TORSDOF 7
ENDMDL
MODEL 6
REMARK VINA RESULT:      -4.6      3.078      5.309
REMARK  7 active torsions:
REMARK  status: ('A' for Active; 'I' for Inactive)
REMARK    1  A    between atoms: C_2  and  C_3 
REMARK    2  A    between atoms: C_3  and  O_6 
REMARK    3  A    between atoms: C_3  and  C_4 
REMARK    4  A    between atoms: C_7  and  O_6 
REMARK    5  A    between atoms: C_9  and  C_10 
REMARK    6  A    between atoms: N_15  and  C_14 
REMARK    7  A    between atoms: N_20  and  C_19 
REMARK       I    between atoms: C_22  and  N_20 
ROOT
ATOM      1  C   LIG d   1      -2.178  79.884 114.249  0.00  0.00     0.161 C 
ATOM      2  C   LIG d   1      -2.656  78.609 114.594  0.00  0.00     0.016 C 
ATOM      3  C   LIG d   1      -2.632  77.505 113.710  0.00  0.00     0.038 C 
ATOM      4  C   LIG d   1      -1.987  77.564 112.466  0.00  0.00     0.028 C 
ATOM      5  C   LIG d   1      -1.938  78.970 111.876  0.00  0.00    -0.047 C 
ATOM      6  C   LIG d   1      -1.370  79.940 112.936  0.00  0.00     0.091 C 
ENDROOT
BRANCH   1   7
ATOM      7  O   LIG d   1      -1.404  80.426 115.338  0.00  0.00    -0.368 OA
BRANCH   7   8
ATOM      8  C   LIG d   1      -1.280  79.586 116.512  0.00  0.00     0.119 C 
BRANCH   8   9
ATOM      9  C   LIG d   1      -1.825  80.385 117.712  0.00  0.00     0.028 C 
ATOM     10  C   LIG d   1      -3.236  79.934 118.124  0.00  0.00     0.006 C 
ENDBRANCH   8   9
BRANCH   8  11
ATOM     11  C   LIG d   1       0.189  79.307 116.844  0.00  0.00     0.028 C 
ATOM     12  C   LIG d   1       0.983  80.585 117.156  0.00  0.00     0.006 C 
ENDBRANCH   8  11
ENDBRANCH   7   8
ENDBRANCH   1   7
BRANCH   6  13
ATOM     13  N   LIG d   1      -1.366  81.351 112.470  0.00  0.00    -0.311 N 
ATOM     14  C   LIG d   1      -0.336  81.912 111.838  0.00  0.00     0.210 C 
ATOM     15  C   LIG d   1      -0.532  83.384 111.461  0.00  0.00     0.109 C 
ATOM     16  O   LIG d   1       0.709  81.321 111.526  0.00  0.00    -0.276 OA
ATOM     17  H   LIG d   1      -2.187  81.894 112.654  0.00  0.00     0.149 HD
ENDBRANCH   6  13
BRANCH   5  18
ATOM     18  N   LIG d   1      -1.120  78.909 110.650  0.00  0.00     0.381 N 
ATOM     19  H   LIG d   1      -0.149  78.920 110.889  0.00  0.00    -0.090 HD
ATOM     20  H   LIG d   1      -1.316  79.720 110.089  0.00  0.00    -0.090 HD
ATOM     21  H   LIG d   1      -1.334  78.082 110.137  0.00  0.00    -0.090 HD
ENDBRANCH   5  18
BRANCH   3  22
ATOM     22  C   LIG d   1      -3.295  76.336 114.054  0.00  0.00     0.382 C 
ATOM     23  O   LIG d   1      -2.712  75.465 114.743  0.00  0.00    -0.241 OA
ATOM     24  O   LIG d   1      -4.452  76.123 113.646  0.00  0.00    -0.241 OA
ENDBRANCH   3  22
TORSDOF 7
ENDMDL
MODEL 7
REMARK VINA RESULT:      -4.6      2.061      5.096
REMARK  7 active torsions:
REMARK  status: ('A' for Active; 'I' for Inactive)
REMARK    1  A    between atoms: C_2  and  C_3 
REMARK    2  A    between atoms: C_3  and  O_6 
REMARK    3  A    between atoms: C_3  and  C_4 
REMARK    4  A    between atoms: C_7  and  O_6 
REMARK    5  A    between atoms: C_9  and  C_10 
REMARK    6  A    between atoms: N_15  and  C_14 
REMARK    7  A    between atoms: N_20  and  C_19 
REMARK       I    between atoms: C_22  and  N_20 
ROOT
ATOM      1  C   LIG d   1      -2.805  77.657 116.291  0.00  0.00     0.161 C 
ATOM      2  C   LIG d   1      -3.306  77.735 114.981  0.00  0.00     0.016 C 
ATOM      3  C   LIG d   1      -2.587  77.296 113.846  0.00  0.00     0.038 C 
ATOM      4  C   LIG d   1      -1.372  76.604 113.960  0.00  0.00     0.028 C 
ATOM      5  C   LIG d   1      -0.593  76.951 115.224  0.00  0.00    -0.047 C 
ATOM      6  C   LIG d   1      -1.529  76.804 116.446  0.00  0.00     0.091 C 
ENDROOT
BRANCH   1   7
ATOM      7  O   LIG d   1      -3.836  77.182 117.180  0.00  0.00    -0.368 OA
BRANCH   7   8
ATOM      8  C   LIG d   1      -4.282  78.116 118.194  0.00  0.00     0.119 C 
BRANCH   8   9
ATOM      9  C   LIG d   1      -5.821  78.054 118.235  0.00  0.00     0.028 C 
ATOM     10  C   LIG d   1      -6.387  76.925 117.357  0.00  0.00     0.006 C 
ENDBRANCH   8   9
BRANCH   8  11
ATOM     11  C   LIG d   1      -3.944  79.559 117.811  0.00  0.00     0.028 C 
ATOM     12  C   LIG d   1      -5.193  80.411 117.537  0.00  0.00     0.006 C 
ENDBRANCH   8  11
ENDBRANCH   7   8
ENDBRANCH   1   7
BRANCH   6  13
ATOM     13  N   LIG d   1      -0.870  77.206 117.716  0.00  0.00    -0.311 N 
ATOM     14  C   LIG d   1      -0.586  76.352 118.697  0.00  0.00     0.210 C 
ATOM     15  C   LIG d   1       0.076  76.978 119.929  0.00  0.00     0.109 C 
ATOM     16  O   LIG d   1      -0.790  75.129 118.651  0.00  0.00    -0.276 OA
ATOM     17  H   LIG d   1      -0.641  78.175 117.824  0.00  0.00     0.149 HD
ENDBRANCH   6  13
BRANCH   5  18
ATOM     18  N   LIG d   1       0.581  76.060 115.284  0.00  0.00     0.381 N 
ATOM     19  H   LIG d   1       0.863  75.809 114.357  0.00  0.00    -0.090 HD
ATOM     20  H   LIG d   1       0.327  75.221 115.774  0.00  0.00    -0.090 HD
ATOM     21  H   LIG d   1       1.331  76.515 115.756  0.00  0.00    -0.090 HD
ENDBRANCH   5  18
BRANCH   3  22
ATOM     22  C   LIG d   1      -3.065  77.583 112.576  0.00  0.00     0.382 C 
ATOM     23  O   LIG d   1      -2.294  77.525 111.588  0.00  0.00    -0.241 OA
ATOM     24  O   LIG d   1      -4.246  77.942 112.412  0.00  0.00    -0.241 OA
ENDBRANCH   3  22
TORSDOF 7
ENDMDL
MODEL 8
REMARK VINA RESULT:      -4.5      3.406      5.384
REMARK  7 active torsions:
REMARK  status: ('A' for Active; 'I' for Inactive)
REMARK    1  A    between atoms: C_2  and  C_3 
REMARK    2  A    between atoms: C_3  and  O_6 
REMARK    3  A    between atoms: C_3  and  C_4 
REMARK    4  A    between atoms: C_7  and  O_6 
REMARK    5  A    between atoms: C_9  and  C_10 
REMARK    6  A    between atoms: N_15  and  C_14 
REMARK    7  A    between atoms: N_20  and  C_19 
REMARK       I    between atoms: C_22  and  N_20 
ROOT
ATOM      1  C   LIG d   1      -4.562  78.027 117.168  0.00  0.00     0.161 C 
ATOM      2  C   LIG d   1      -5.833  78.615 117.277  0.00  0.00     0.016 C 
ATOM      3  C   LIG d   1      -6.067  79.848 117.927  0.00  0.00     0.038 C 
ATOM      4  C   LIG d   1      -5.015  80.656 118.385  0.00  0.00     0.028 C 
ATOM      5  C   LIG d   1      -3.760  79.869 118.747  0.00  0.00    -0.047 C 
ATOM      6  C   LIG d   1      -3.388  78.946 117.564  0.00  0.00     0.091 C 
ENDROOT
BRANCH   1   7
ATOM      7  O   LIG d   1      -4.372  77.517 115.833  0.00  0.00    -0.368 OA
BRANCH   7   8
ATOM      8  C   LIG d   1      -4.127  76.093 115.723  0.00  0.00     0.119 C 
BRANCH   8   9
ATOM      9  C   LIG d   1      -2.842  75.907 114.893  0.00  0.00     0.028 C 
ATOM     10  C   LIG d   1      -1.864  74.913 115.542  0.00  0.00     0.006 C 
ENDBRANCH   8   9
BRANCH   8  11
ATOM     11  C   LIG d   1      -5.232  75.399 114.921  0.00  0.00     0.028 C 
ATOM     12  C   LIG d   1      -6.015  74.370 115.752  0.00  0.00     0.006 C 
ENDBRANCH   8  11
ENDBRANCH   7   8
ENDBRANCH   1   7
BRANCH   6  13
ATOM     13  N   LIG d   1      -2.220  78.079 117.867  0.00  0.00    -0.311 N 
ATOM     14  C   LIG d   1      -1.054  78.171 117.229  0.00  0.00     0.210 C 
ATOM     15  C   LIG d   1       0.012  77.168 117.684  0.00  0.00     0.109 C 
ATOM     16  O   LIG d   1      -0.791  79.008 116.353  0.00  0.00    -0.276 OA
ATOM     17  H   LIG d   1      -2.336  77.393 118.586  0.00  0.00     0.149 HD
ENDBRANCH   6  13
BRANCH   5  18
ATOM     18  N   LIG d   1      -2.703  80.843 119.076  0.00  0.00     0.381 N 
ATOM     19  H   LIG d   1      -2.631  80.943 120.068  0.00  0.00    -0.090 HD
ATOM     20  H   LIG d   1      -2.950  81.735 118.686  0.00  0.00    -0.090 HD
ATOM     21  H   LIG d   1      -1.831  80.539 118.701  0.00  0.00    -0.090 HD
ENDBRANCH   5  18
BRANCH   3  22
ATOM     22  C   LIG d   1      -7.368  80.266 118.161  0.00  0.00     0.382 C 
ATOM     23  O   LIG d   1      -7.857  81.203 117.485  0.00  0.00    -0.241 OA
ATOM     24  O   LIG d   1      -8.045  79.747 119.069  0.00  0.00    -0.241 OA
ENDBRANCH   3  22
TORSDOF 7
ENDMDL
MODEL 9
REMARK VINA RESULT:      -4.5      2.607      5.198
REMARK  7 active torsions:
REMARK  status: ('A' for Active; 'I' for Inactive)
REMARK    1  A    between atoms: C_2  and  C_3 
REMARK    2  A    between atoms: C_3  and  O_6 
REMARK    3  A    between atoms: C_3  and  C_4 
REMARK    4  A    between atoms: C_7  and  O_6 
REMARK    5  A    between atoms: C_9  and  C_10 
REMARK    6  A    between atoms: N_15  and  C_14 
REMARK    7  A    between atoms: N_20  and  C_19 
REMARK       I    between atoms: C_22  and  N_20 
ROOT
ATOM      1  C   LIG d   1      -2.798  78.197 115.244  0.00  0.00     0.161 C 
ATOM      2  C   LIG d   1      -2.847  79.468 114.647  0.00  0.00     0.016 C 
ATOM      3  C   LIG d   1      -2.323  79.745 113.364  0.00  0.00     0.038 C 
ATOM      4  C   LIG d   1      -1.846  78.730 112.522  0.00  0.00     0.028 C 
ATOM      5  C   LIG d   1      -1.314  77.517 113.278  0.00  0.00    -0.047 C 
ATOM      6  C   LIG d   1      -2.381  77.053 114.296  0.00  0.00     0.091 C 
ENDROOT
BRANCH   1   7
ATOM      7  O   LIG d   1      -4.065  77.898 115.863  0.00  0.00    -0.368 OA
BRANCH   7   8
ATOM      8  C   LIG d   1      -4.055  77.774 117.306  0.00  0.00     0.119 C 
BRANCH   8   9
ATOM      9  C   LIG d   1      -5.274  78.549 117.845  0.00  0.00     0.028 C 
ATOM     10  C   LIG d   1      -5.139  80.068 117.646  0.00  0.00     0.006 C 
ENDBRANCH   8   9
BRANCH   8  11
ATOM     11  C   LIG d   1      -2.833  78.466 117.917  0.00  0.00     0.028 C 
ATOM     12  C   LIG d   1      -2.113  77.594 118.958  0.00  0.00     0.006 C 
ENDBRANCH   8  11
ENDBRANCH   7   8
ENDBRANCH   1   7
BRANCH   6  13
ATOM     13  N   LIG d   1      -1.908  75.922 115.136  0.00  0.00    -0.311 N 
ATOM     14  C   LIG d   1      -0.812  75.977 115.891  0.00  0.00     0.210 C 
ATOM     15  C   LIG d   1      -0.493  74.693 116.663  0.00  0.00     0.109 C 
ATOM     16  O   LIG d   1      -0.091  76.978 116.018  0.00  0.00    -0.276 OA
ATOM     17  H   LIG d   1      -2.451  75.081 115.117  0.00  0.00     0.149 HD
ENDBRANCH   6  13
BRANCH   5  18
ATOM     18  N   LIG d   1      -0.979  76.483 112.281  0.00  0.00     0.381 N 
ATOM     19  H   LIG d   1      -0.135  76.016 112.548  0.00  0.00    -0.090 HD
ATOM     20  H   LIG d   1      -0.827  76.925 111.392  0.00  0.00    -0.090 HD
ATOM     21  H   LIG d   1      -1.722  75.824 112.209  0.00  0.00    -0.090 HD
ENDBRANCH   5  18
BRANCH   3  22
ATOM     22  C   LIG d   1      -2.237  81.058 112.926  0.00  0.00     0.382 C 
ATOM     23  O   LIG d   1      -3.282  81.712 112.696  0.00  0.00    -0.241 OA
ATOM     24  O   LIG d   1      -1.126  81.583 112.717  0.00  0.00    -0.241 OA
ENDBRANCH   3  22
TORSDOF 7
ENDMDL
