MODEL 1
REMARK VINA RESULT:      -5.1      0.000      0.000
REMARK  7 active torsions:
REMARK  status: ('A' for Active; 'I' for Inactive)
REMARK    1  A    between atoms: C_2  and  C_3 
REMARK    2  A    between atoms: C_3  and  O_6 
REMARK    3  A    between atoms: C_3  and  C_4 
REMARK    4  A    between atoms: C_7  and  O_6 
REMARK    5  A    between atoms: C_9  and  C_10 
REMARK    6  A    between atoms: N_15  and  C_14 
REMARK    7  A    between atoms: N_20  and  C_19 
REMARK       I    between atoms: C_22  and  N_20 
ROOT
ATOM      1  C   LIG d   1      -2.679  77.963 116.465  0.00  0.00     0.161 C 
ATOM      2  C   LIG d   1      -3.010  78.667 115.296  0.00  0.00     0.016 C 
ATOM      3  C   LIG d   1      -2.348  78.478 114.061  0.00  0.00     0.038 C 
ATOM      4  C   LIG d   1      -1.405  77.457 113.873  0.00  0.00     0.028 C 
ATOM      5  C   LIG d   1      -0.681  77.059 115.155  0.00  0.00    -0.047 C 
ATOM      6  C   LIG d   1      -1.728  76.766 116.253  0.00  0.00     0.091 C 
ENDROOT
BRANCH   1   7
ATOM      7  O   LIG d   1      -3.882  77.534 117.134  0.00  0.00    -0.368 OA
BRANCH   7   8
ATOM      8  C   LIG d   1      -5.035  77.303 116.287  0.00  0.00     0.119 C 
BRANCH   8   9
ATOM      9  C   LIG d   1      -6.261  77.904 117.001  0.00  0.00     0.028 C 
ATOM     10  C   LIG d   1      -6.060  79.384 117.367  0.00  0.00     0.006 C 
ENDBRANCH   8   9
BRANCH   8  11
ATOM     11  C   LIG d   1      -5.336  75.808 116.152  0.00  0.00     0.028 C 
ATOM     12  C   LIG d   1      -5.125  75.284 114.722  0.00  0.00     0.006 C 
ENDBRANCH   8  11
ENDBRANCH   7   8
ENDBRANCH   1   7
BRANCH   6  13
ATOM     13  N   LIG d   1      -1.103  76.451 117.563  0.00  0.00    -0.311 N 
ATOM     14  C   LIG d   1      -0.904  75.208 118.001  0.00  0.00     0.210 C 
ATOM     15  C   LIG d   1      -0.263  75.106 119.388  0.00  0.00     0.109 C 
ATOM     16  O   LIG d   1      -1.169  74.181 117.358  0.00  0.00    -0.276 OA
ATOM     17  H   LIG d   1      -0.829  77.225 118.136  0.00  0.00     0.149 HD
ENDBRANCH   6  13
BRANCH   5  18
ATOM     18  N   LIG d   1       0.170  75.895 114.842  0.00  0.00     0.381 N 
ATOM     19  H   LIG d   1      -0.306  75.051 115.090  0.00  0.00    -0.090 HD
ATOM     20  H   LIG d   1       1.013  75.953 115.387  0.00  0.00    -0.090 HD
ATOM     21  H   LIG d   1       0.393  75.886 113.871  0.00  0.00    -0.090 HD
ENDBRANCH   5  18
BRANCH   3  22
ATOM     22  C   LIG d   1      -2.600  79.344 113.007  0.00  0.00     0.382 C 
ATOM     23  O   LIG d   1      -3.248  80.400 113.204  0.00  0.00    -0.241 OA
ATOM     24  O   LIG d   1      -2.226  79.060 111.853  0.00  0.00    -0.241 OA
ENDBRANCH   3  22
TORSDOF 7
ENDMDL
MODEL 2
REMARK VINA RESULT:      -5.0      1.760      2.017
REMARK  7 active torsions:
REMARK  status: ('A' for Active; 'I' for Inactive)
REMARK    1  A    between atoms: C_2  and  C_3 
REMARK    2  A    between atoms: C_3  and  O_6 
REMARK    3  A    between atoms: C_3  and  C_4 
REMARK    4  A    between atoms: C_7  and  O_6 
REMARK    5  A    between atoms: C_9  and  C_10 
REMARK    6  A    between atoms: N_15  and  C_14 
REMARK    7  A    between atoms: N_20  and  C_19 
REMARK       I    between atoms: C_22  and  N_20 
ROOT
ATOM      1  C   LIG d   1      -2.846  75.863 116.131  0.00  0.00     0.161 C 
ATOM      2  C   LIG d   1      -3.222  76.890 115.249  0.00  0.00     0.016 C 
ATOM      3  C   LIG d   1      -2.396  77.358 114.202  0.00  0.00     0.038 C 
ATOM      4  C   LIG d   1      -1.190  76.724 113.869  0.00  0.00     0.028 C 
ATOM      5  C   LIG d   1      -0.537  76.009 115.046  0.00  0.00    -0.047 C 
ATOM      6  C   LIG d   1      -1.580  75.084 115.714  0.00  0.00     0.091 C 
ENDROOT
BRANCH   1   7
ATOM      7  O   LIG d   1      -3.950  74.957 116.326  0.00  0.00    -0.368 OA
BRANCH   7   8
ATOM      8  C   LIG d   1      -5.274  75.530 116.199  0.00  0.00     0.119 C 
BRANCH   8   9
ATOM      9  C   LIG d   1      -6.069  75.144 117.462  0.00  0.00     0.028 C 
ATOM     10  C   LIG d   1      -7.283  74.255 117.143  0.00  0.00     0.006 C 
ENDBRANCH   8   9
BRANCH   8  11
ATOM     11  C   LIG d   1      -6.042  74.906 115.030  0.00  0.00     0.028 C 
ATOM     12  C   LIG d   1      -6.509  75.946 114.000  0.00  0.00     0.006 C 
ENDBRANCH   8  11
ENDBRANCH   7   8
ENDBRANCH   1   7
BRANCH   6  13
ATOM     13  N   LIG d   1      -1.048  74.410 116.926  0.00  0.00    -0.311 N 
ATOM     14  C   LIG d   1      -0.575  75.068 117.983  0.00  0.00     0.210 C 
ATOM     15  C   LIG d   1      -0.055  74.180 119.118  0.00  0.00     0.109 C 
ATOM     16  O   LIG d   1      -0.566  76.302 118.102  0.00  0.00    -0.276 OA
ATOM     17  H   LIG d   1      -1.046  73.408 116.927  0.00  0.00     0.149 HD
ENDBRANCH   6  13
BRANCH   5  18
ATOM     18  N   LIG d   1       0.636  75.278 114.529  0.00  0.00     0.381 N 
ATOM     19  H   LIG d   1       0.729  74.405 115.008  0.00  0.00    -0.090 HD
ATOM     20  H   LIG d   1       1.462  75.823 114.703  0.00  0.00    -0.090 HD
ATOM     21  H   LIG d   1       0.534  75.119 113.551  0.00  0.00    -0.090 HD
ENDBRANCH   5  18
BRANCH   3  22
ATOM     22  C   LIG d   1      -2.756  78.499 113.500  0.00  0.00     0.382 C 
ATOM     23  O   LIG d   1      -2.776  79.611 114.080  0.00  0.00    -0.241 OA
ATOM     24  O   LIG d   1      -3.104  78.423 112.307  0.00  0.00    -0.241 OA
ENDBRANCH   3  22
TORSDOF 7
ENDMDL
MODEL 3
REMARK VINA RESULT:      -4.9      1.637      2.223
REMARK  7 active torsions:
REMARK  status: ('A' for Active; 'I' for Inactive)
REMARK    1  A    between atoms: C_2  and  C_3 
REMARK    2  A    between atoms: C_3  and  O_6 
REMARK    3  A    between atoms: C_3  and  C_4 
REMARK    4  A    between atoms: C_7  and  O_6 
REMARK    5  A    between atoms: C_9  and  C_10 
REMARK    6  A    between atoms: N_15  and  C_14 
REMARK    7  A    between atoms: N_20  and  C_19 
REMARK       I    between atoms: C_22  and  N_20 
ROOT
ATOM      1  C   LIG d   1      -3.019  76.776 115.166  0.00  0.00     0.161 C 
ATOM      2  C   LIG d   1      -3.177  77.226 113.845  0.00  0.00     0.016 C 
ATOM      3  C   LIG d   1      -2.234  78.047 113.184  0.00  0.00     0.038 C 
ATOM      4  C   LIG d   1      -0.989  78.352 113.754  0.00  0.00     0.028 C 
ATOM      5  C   LIG d   1      -1.001  78.339 115.278  0.00  0.00    -0.047 C 
ATOM      6  C   LIG d   1      -1.616  77.006 115.764  0.00  0.00     0.091 C 
ENDROOT
BRANCH   1   7
ATOM      7  O   LIG d   1      -3.379  75.383 115.254  0.00  0.00    -0.368 OA
BRANCH   7   8
ATOM      8  C   LIG d   1      -4.601  75.085 115.974  0.00  0.00     0.119 C 
BRANCH   8   9
ATOM      9  C   LIG d   1      -5.671  74.706 114.932  0.00  0.00     0.028 C 
ATOM     10  C   LIG d   1      -6.635  75.867 114.633  0.00  0.00     0.006 C 
ENDBRANCH   8   9
BRANCH   8  11
ATOM     11  C   LIG d   1      -5.147  76.327 116.684  0.00  0.00     0.028 C 
ATOM     12  C   LIG d   1      -5.195  76.167 118.211  0.00  0.00     0.006 C 
ENDBRANCH   8  11
ENDBRANCH   7   8
ENDBRANCH   1   7
BRANCH   6  13
ATOM     13  N   LIG d   1      -1.742  76.947 117.244  0.00  0.00    -0.311 N 
ATOM     14  C   LIG d   1      -1.373  75.892 117.969  0.00  0.00     0.210 C 
ATOM     15  C   LIG d   1      -1.607  76.031 119.477  0.00  0.00     0.109 C 
ATOM     16  O   LIG d   1      -0.843  74.869 117.511  0.00  0.00    -0.276 OA
ATOM     17  H   LIG d   1      -2.133  77.747 117.701  0.00  0.00     0.149 HD
ENDBRANCH   6  13
BRANCH   5  18
ATOM     18  N   LIG d   1       0.388  78.536 115.737  0.00  0.00     0.381 N 
ATOM     19  H   LIG d   1       0.444  78.378 116.723  0.00  0.00    -0.090 HD
ATOM     20  H   LIG d   1       0.659  79.486 115.553  0.00  0.00    -0.090 HD
ATOM     21  H   LIG d   1       0.997  77.910 115.257  0.00  0.00    -0.090 HD
ENDBRANCH   5  18
BRANCH   3  22
ATOM     22  C   LIG d   1      -2.551  78.605 111.955  0.00  0.00     0.382 C 
ATOM     23  O   LIG d   1      -3.193  77.937 111.110  0.00  0.00    -0.241 OA
ATOM     24  O   LIG d   1      -2.164  79.753 111.665  0.00  0.00    -0.241 OA
ENDBRANCH   3  22
TORSDOF 7
ENDMDL
MODEL 4
REMARK VINA RESULT:      -4.8      1.751      5.032
REMARK  7 active torsions:
REMARK  status: ('A' for Active; 'I' for Inactive)
REMARK    1  A    between atoms: C_2  and  C_3 
REMARK    2  A    between atoms: C_3  and  O_6 
REMARK    3  A    between atoms: C_3  and  C_4 
REMARK    4  A    between atoms: C_7  and  O_6 
REMARK    5  A    between atoms: C_9  and  C_10 
REMARK    6  A    between atoms: N_15  and  C_14 
REMARK    7  A    between atoms: N_20  and  C_19 
REMARK       I    between atoms: C_22  and  N_20 
ROOT
ATOM      1  C   LIG d   1      -2.000  75.957 115.017  0.00  0.00     0.161 C 
ATOM      2  C   LIG d   1      -1.760  75.312 116.241  0.00  0.00     0.016 C 
ATOM      3  C   LIG d   1      -0.939  75.852 117.257  0.00  0.00     0.038 C 
ATOM      4  C   LIG d   1      -0.421  77.154 117.179  0.00  0.00     0.028 C 
ATOM      5  C   LIG d   1      -0.222  77.641 115.747  0.00  0.00    -0.047 C 
ATOM      6  C   LIG d   1      -1.534  77.427 114.958  0.00  0.00     0.091 C 
ENDROOT
BRANCH   1   7
ATOM      7  O   LIG d   1      -3.399  75.862 114.680  0.00  0.00    -0.368 OA
BRANCH   7   8
ATOM      8  C   LIG d   1      -4.314  75.719 115.794  0.00  0.00     0.119 C 
BRANCH   8   9
ATOM      9  C   LIG d   1      -5.493  74.850 115.317  0.00  0.00     0.028 C 
ATOM     10  C   LIG d   1      -6.753  75.682 115.021  0.00  0.00     0.006 C 
ENDBRANCH   8   9
BRANCH   8  11
ATOM     11  C   LIG d   1      -4.933  77.065 116.182  0.00  0.00     0.028 C 
ATOM     12  C   LIG d   1      -4.389  77.610 117.513  0.00  0.00     0.006 C 
ENDBRANCH   8  11
ENDBRANCH   7   8
ENDBRANCH   1   7
BRANCH   6  13
ATOM     13  N   LIG d   1      -1.400  77.800 113.525  0.00  0.00    -0.311 N 
ATOM     14  C   LIG d   1      -2.058  78.814 112.967  0.00  0.00     0.210 C 
ATOM     15  C   LIG d   1      -1.791  79.014 111.472  0.00  0.00     0.109 C 
ATOM     16  O   LIG d   1      -2.813  79.588 113.576  0.00  0.00    -0.276 OA
ATOM     17  H   LIG d   1      -0.784  77.244 112.965  0.00  0.00     0.149 HD
ENDBRANCH   6  13
BRANCH   5  18
ATOM     18  N   LIG d   1       0.190  79.056 115.812  0.00  0.00     0.381 N 
ATOM     19  H   LIG d   1       0.415  79.300 116.755  0.00  0.00    -0.090 HD
ATOM     20  H   LIG d   1      -0.576  79.632 115.511  0.00  0.00    -0.090 HD
ATOM     21  H   LIG d   1       0.980  79.208 115.224  0.00  0.00    -0.090 HD
ENDBRANCH   5  18
BRANCH   3  22
ATOM     22  C   LIG d   1      -0.596  75.072 118.351  0.00  0.00     0.382 C 
ATOM     23  O   LIG d   1       0.515  75.232 118.912  0.00  0.00    -0.241 OA
ATOM     24  O   LIG d   1      -1.365  74.180 118.757  0.00  0.00    -0.241 OA
ENDBRANCH   3  22
TORSDOF 7
ENDMDL
MODEL 5
REMARK VINA RESULT:      -4.6      1.773      4.996
REMARK  7 active torsions:
REMARK  status: ('A' for Active; 'I' for Inactive)
REMARK    1  A    between atoms: C_2  and  C_3 
REMARK    2  A    between atoms: C_3  and  O_6 
REMARK    3  A    between atoms: C_3  and  C_4 
REMARK    4  A    between atoms: C_7  and  O_6 
REMARK    5  A    between atoms: C_9  and  C_10 
REMARK    6  A    between atoms: N_15  and  C_14 
REMARK    7  A    between atoms: N_20  and  C_19 
REMARK       I    between atoms: C_22  and  N_20 
ROOT
ATOM      1  C   LIG d   1      -3.677  76.162 115.204  0.00  0.00     0.161 C 
ATOM      2  C   LIG d   1      -3.453  75.599 116.471  0.00  0.00     0.016 C 
ATOM      3  C   LIG d   1      -2.245  75.753 117.189  0.00  0.00     0.038 C 
ATOM      4  C   LIG d   1      -1.226  76.613 116.750  0.00  0.00     0.028 C 
ATOM      5  C   LIG d   1      -1.203  76.802 115.237  0.00  0.00    -0.047 C 
ATOM      6  C   LIG d   1      -2.619  77.194 114.759  0.00  0.00     0.091 C 
ENDROOT
BRANCH   1   7
ATOM      7  O   LIG d   1      -4.995  76.742 115.153  0.00  0.00    -0.368 OA
BRANCH   7   8
ATOM      8  C   LIG d   1      -5.802  76.598 116.348  0.00  0.00     0.119 C 
BRANCH   8   9
ATOM      9  C   LIG d   1      -7.060  75.796 115.964  0.00  0.00     0.028 C 
ATOM     10  C   LIG d   1      -7.028  74.358 116.507  0.00  0.00     0.006 C 
ENDBRANCH   8   9
BRANCH   8  11
ATOM     11  C   LIG d   1      -6.318  77.954 116.837  0.00  0.00     0.028 C 
ATOM     12  C   LIG d   1      -7.560  77.831 117.734  0.00  0.00     0.006 C 
ENDBRANCH   8  11
ENDBRANCH   7   8
ENDBRANCH   1   7
BRANCH   6  13
ATOM     13  N   LIG d   1      -2.705  77.316 113.280  0.00  0.00    -0.311 N 
ATOM     14  C   LIG d   1      -2.499  78.458 112.626  0.00  0.00     0.210 C 
ATOM     15  C   LIG d   1      -2.656  78.369 111.105  0.00  0.00     0.109 C 
ATOM     16  O   LIG d   1      -2.171  79.529 113.158  0.00  0.00    -0.276 OA
ATOM     17  H   LIG d   1      -2.936  76.489 112.767  0.00  0.00     0.149 HD
ENDBRANCH   6  13
BRANCH   5  18
ATOM     18  N   LIG d   1      -0.185  77.825 114.932  0.00  0.00     0.381 N 
ATOM     19  H   LIG d   1      -0.624  78.630 114.531  0.00  0.00    -0.090 HD
ATOM     20  H   LIG d   1       0.461  77.450 114.259  0.00  0.00    -0.090 HD
ATOM     21  H   LIG d   1       0.301  78.081 115.763  0.00  0.00    -0.090 HD
ENDBRANCH   5  18
BRANCH   3  22
ATOM     22  C   LIG d   1      -2.030  75.011 118.341  0.00  0.00     0.382 C 
ATOM     23  O   LIG d   1      -0.958  75.141 118.979  0.00  0.00    -0.241 OA
ATOM     24  O   LIG d   1      -2.875  74.181 118.724  0.00  0.00    -0.241 OA
ENDBRANCH   3  22
TORSDOF 7
ENDMDL
MODEL 6
REMARK VINA RESULT:      -4.5      2.502      4.978
REMARK  7 active torsions:
REMARK  status: ('A' for Active; 'I' for Inactive)
REMARK    1  A    between atoms: C_2  and  C_3 
REMARK    2  A    between atoms: C_3  and  O_6 
REMARK    3  A    between atoms: C_3  and  C_4 
REMARK    4  A    between atoms: C_7  and  O_6 
REMARK    5  A    between atoms: C_9  and  C_10 
REMARK    6  A    between atoms: N_15  and  C_14 
REMARK    7  A    between atoms: N_20  and  C_19 
REMARK       I    between atoms: C_22  and  N_20 
ROOT
ATOM      1  C   LIG d   1      -2.776  78.261 115.248  0.00  0.00     0.161 C 
ATOM      2  C   LIG d   1      -1.466  78.555 115.664  0.00  0.00     0.016 C 
ATOM      3  C   LIG d   1      -0.670  77.661 116.417  0.00  0.00     0.038 C 
ATOM      4  C   LIG d   1      -1.078  76.344 116.677  0.00  0.00     0.028 C 
ATOM      5  C   LIG d   1      -2.593  76.175 116.712  0.00  0.00    -0.047 C 
ATOM      6  C   LIG d   1      -3.196  76.787 115.428  0.00  0.00     0.091 C 
ENDROOT
BRANCH   1   7
ATOM      7  O   LIG d   1      -2.957  78.670 113.878  0.00  0.00    -0.368 OA
BRANCH   7   8
ATOM      8  C   LIG d   1      -1.754  78.763 113.076  0.00  0.00     0.119 C 
BRANCH   8   9
ATOM      9  C   LIG d   1      -1.822  80.087 112.291  0.00  0.00     0.028 C 
ATOM     10  C   LIG d   1      -0.429  80.676 112.011  0.00  0.00     0.006 C 
ENDBRANCH   8   9
BRANCH   8  11
ATOM     11  C   LIG d   1      -1.706  77.662 112.013  0.00  0.00     0.028 C 
ATOM     12  C   LIG d   1      -2.579  77.979 110.788  0.00  0.00     0.006 C 
ENDBRANCH   8  11
ENDBRANCH   7   8
ENDBRANCH   1   7
BRANCH   6  13
ATOM     13  N   LIG d   1      -4.682  76.739 115.420  0.00  0.00    -0.311 N 
ATOM     14  C   LIG d   1      -5.381  75.765 114.840  0.00  0.00     0.210 C 
ATOM     15  C   LIG d   1      -6.902  75.918 114.931  0.00  0.00     0.109 C 
ATOM     16  O   LIG d   1      -4.885  74.772 114.286  0.00  0.00    -0.276 OA
ATOM     17  H   LIG d   1      -5.165  77.489 115.874  0.00  0.00     0.149 HD
ENDBRANCH   6  13
BRANCH   5  18
ATOM     18  N   LIG d   1      -2.877  74.735 116.855  0.00  0.00     0.381 N 
ATOM     19  H   LIG d   1      -3.472  74.583 117.645  0.00  0.00    -0.090 HD
ATOM     20  H   LIG d   1      -2.013  74.247 117.014  0.00  0.00    -0.090 HD
ATOM     21  H   LIG d   1      -3.315  74.390 116.029  0.00  0.00    -0.090 HD
ENDBRANCH   5  18
BRANCH   3  22
ATOM     22  C   LIG d   1       0.533  78.096 116.952  0.00  0.00     0.382 C 
ATOM     23  O   LIG d   1       0.798  79.322 116.984  0.00  0.00    -0.241 OA
ATOM     24  O   LIG d   1       1.375  77.276 117.362  0.00  0.00    -0.241 OA
ENDBRANCH   3  22
TORSDOF 7
ENDMDL
MODEL 7
REMARK VINA RESULT:      -4.4      2.534      4.994
REMARK  7 active torsions:
REMARK  status: ('A' for Active; 'I' for Inactive)
REMARK    1  A    between atoms: C_2  and  C_3 
REMARK    2  A    between atoms: C_3  and  O_6 
REMARK    3  A    between atoms: C_3  and  C_4 
REMARK    4  A    between atoms: C_7  and  O_6 
REMARK    5  A    between atoms: C_9  and  C_10 
REMARK    6  A    between atoms: N_15  and  C_14 
REMARK    7  A    between atoms: N_20  and  C_19 
REMARK       I    between atoms: C_22  and  N_20 
ROOT
ATOM      1  C   LIG d   1      -1.296  77.376 114.557  0.00  0.00     0.161 C 
ATOM      2  C   LIG d   1      -2.566  76.867 114.237  0.00  0.00     0.016 C 
ATOM      3  C   LIG d   1      -3.664  76.898 115.128  0.00  0.00     0.038 C 
ATOM      4  C   LIG d   1      -3.606  77.581 116.352  0.00  0.00     0.028 C 
ATOM      5  C   LIG d   1      -2.198  77.671 116.930  0.00  0.00    -0.047 C 
ATOM      6  C   LIG d   1      -1.245  78.224 115.845  0.00  0.00     0.091 C 
ENDROOT
BRANCH   1   7
ATOM      7  O   LIG d   1      -0.776  78.127 113.442  0.00  0.00    -0.368 OA
BRANCH   7   8
ATOM      8  C   LIG d   1      -1.738  78.520 112.433  0.00  0.00     0.119 C 
BRANCH   8   9
ATOM      9  C   LIG d   1      -1.295  77.889 111.099  0.00  0.00     0.028 C 
ATOM     10  C   LIG d   1      -0.897  78.945 110.054  0.00  0.00     0.006 C 
ENDBRANCH   8   9
BRANCH   8  11
ATOM     11  C   LIG d   1      -1.710  80.033 112.196  0.00  0.00     0.028 C 
ATOM     12  C   LIG d   1      -2.979  80.739 112.698  0.00  0.00     0.006 C 
ENDBRANCH   8  11
ENDBRANCH   7   8
ENDBRANCH   1   7
BRANCH   6  13
ATOM     13  N   LIG d   1       0.169  78.264 116.301  0.00  0.00    -0.311 N 
ATOM     14  C   LIG d   1       0.707  79.308 116.929  0.00  0.00     0.210 C 
ATOM     15  C   LIG d   1       2.187  79.151 117.293  0.00  0.00     0.109 C 
ATOM     16  O   LIG d   1       0.091  80.337 117.247  0.00  0.00    -0.276 OA
ATOM     17  H   LIG d   1       0.733  77.459 116.111  0.00  0.00     0.149 HD
ENDBRANCH   6  13
BRANCH   5  18
ATOM     18  N   LIG d   1      -2.263  78.523 118.132  0.00  0.00     0.381 N 
ATOM     19  H   LIG d   1      -3.030  79.161 118.054  0.00  0.00    -0.090 HD
ATOM     20  H   LIG d   1      -1.414  79.058 118.197  0.00  0.00    -0.090 HD
ATOM     21  H   LIG d   1      -2.372  77.958 118.945  0.00  0.00    -0.090 HD
ENDBRANCH   5  18
BRANCH   3  22
ATOM     22  C   LIG d   1      -4.824  76.207 114.813  0.00  0.00     0.382 C 
ATOM     23  O   LIG d   1      -5.943  76.701 115.091  0.00  0.00    -0.241 OA
ATOM     24  O   LIG d   1      -4.764  75.075 114.296  0.00  0.00    -0.241 OA
ENDBRANCH   3  22
TORSDOF 7
ENDMDL
MODEL 8
REMARK VINA RESULT:      -4.3      2.576      4.109
REMARK  7 active torsions:
REMARK  status: ('A' for Active; 'I' for Inactive)
REMARK    1  A    between atoms: C_2  and  C_3 
REMARK    2  A    between atoms: C_3  and  O_6 
REMARK    3  A    between atoms: C_3  and  C_4 
REMARK    4  A    between atoms: C_7  and  O_6 
REMARK    5  A    between atoms: C_9  and  C_10 
REMARK    6  A    between atoms: N_15  and  C_14 
REMARK    7  A    between atoms: N_20  and  C_19 
REMARK       I    between atoms: C_22  and  N_20 
ROOT
ATOM      1  C   LIG d   1      -3.465  78.040 116.970  0.00  0.00     0.161 C 
ATOM      2  C   LIG d   1      -2.524  78.944 117.491  0.00  0.00     0.016 C 
ATOM      3  C   LIG d   1      -1.142  78.883 117.198  0.00  0.00     0.038 C 
ATOM      4  C   LIG d   1      -0.626  78.001 116.237  0.00  0.00     0.028 C 
ATOM      5  C   LIG d   1      -1.462  76.738 116.063  0.00  0.00    -0.047 C 
ATOM      6  C   LIG d   1      -2.937  77.140 115.833  0.00  0.00     0.091 C 
ENDROOT
BRANCH   1   7
ATOM      7  O   LIG d   1      -4.641  78.754 116.539  0.00  0.00    -0.368 OA
BRANCH   7   8
ATOM      8  C   LIG d   1      -5.723  78.838 117.498  0.00  0.00     0.119 C 
BRANCH   8   9
ATOM      9  C   LIG d   1      -6.798  77.819 117.074  0.00  0.00     0.028 C 
ATOM     10  C   LIG d   1      -6.768  76.543 117.933  0.00  0.00     0.006 C 
ENDBRANCH   8   9
BRANCH   8  11
ATOM     11  C   LIG d   1      -6.414  80.204 117.440  0.00  0.00     0.028 C 
ATOM     12  C   LIG d   1      -7.929  80.115 117.681  0.00  0.00     0.006 C 
ENDBRANCH   8  11
ENDBRANCH   7   8
ENDBRANCH   1   7
BRANCH   6  13
ATOM     13  N   LIG d   1      -3.837  75.962 115.737  0.00  0.00    -0.311 N 
ATOM     14  C   LIG d   1      -4.721  75.793 114.754  0.00  0.00     0.210 C 
ATOM     15  C   LIG d   1      -5.564  74.518 114.856  0.00  0.00     0.109 C 
ATOM     16  O   LIG d   1      -4.863  76.561 113.791  0.00  0.00    -0.276 OA
ATOM     17  H   LIG d   1      -3.767  75.274 116.460  0.00  0.00     0.149 HD
ENDBRANCH   6  13
BRANCH   5  18
ATOM     18  N   LIG d   1      -0.889  75.975 114.938  0.00  0.00     0.381 N 
ATOM     19  H   LIG d   1      -0.677  76.595 114.181  0.00  0.00    -0.090 HD
ATOM     20  H   LIG d   1      -1.568  75.307 114.618  0.00  0.00    -0.090 HD
ATOM     21  H   LIG d   1      -0.061  75.505 115.232  0.00  0.00    -0.090 HD
ENDBRANCH   5  18
BRANCH   3  22
ATOM     22  C   LIG d   1      -0.255  79.686 117.900  0.00  0.00     0.382 C 
ATOM     23  O   LIG d   1      -0.224  79.639 119.153  0.00  0.00    -0.241 OA
ATOM     24  O   LIG d   1       0.483  80.488 117.298  0.00  0.00    -0.241 OA
ENDBRANCH   3  22
TORSDOF 7
ENDMDL
MODEL 9
REMARK VINA RESULT:      -4.3      2.537      3.764
REMARK  7 active torsions:
REMARK  status: ('A' for Active; 'I' for Inactive)
REMARK    1  A    between atoms: C_2  and  C_3 
REMARK    2  A    between atoms: C_3  and  O_6 
REMARK    3  A    between atoms: C_3  and  C_4 
REMARK    4  A    between atoms: C_7  and  O_6 
REMARK    5  A    between atoms: C_9  and  C_10 
REMARK    6  A    between atoms: N_15  and  C_14 
REMARK    7  A    between atoms: N_20  and  C_19 
REMARK       I    between atoms: C_22  and  N_20 
ROOT
ATOM      1  C   LIG d   1      -1.967  77.879 116.071  0.00  0.00     0.161 C 
ATOM      2  C   LIG d   1      -3.229  77.536 115.560  0.00  0.00     0.016 C 
ATOM      3  C   LIG d   1      -3.708  76.207 115.495  0.00  0.00     0.038 C 
ATOM      4  C   LIG d   1      -3.012  75.139 116.081  0.00  0.00     0.028 C 
ATOM      5  C   LIG d   1      -1.506  75.367 116.157  0.00  0.00    -0.047 C 
ATOM      6  C   LIG d   1      -1.240  76.740 116.816  0.00  0.00     0.091 C 
ENDROOT
BRANCH   1   7
ATOM      7  O   LIG d   1      -2.081  79.039 116.919  0.00  0.00    -0.368 OA
BRANCH   7   8
ATOM      8  C   LIG d   1      -2.308  78.780 118.326  0.00  0.00     0.119 C 
BRANCH   8   9
ATOM      9  C   LIG d   1      -3.713  79.308 118.674  0.00  0.00     0.028 C 
ATOM     10  C   LIG d   1      -4.721  78.174 118.924  0.00  0.00     0.006 C 
ENDBRANCH   8   9
BRANCH   8  11
ATOM     11  C   LIG d   1      -1.344  79.584 119.203  0.00  0.00     0.028 C 
ATOM     12  C   LIG d   1      -0.324  80.391 118.383  0.00  0.00     0.006 C 
ENDBRANCH   8  11
ENDBRANCH   7   8
ENDBRANCH   1   7
BRANCH   6  13
ATOM     13  N   LIG d   1       0.207  77.079 116.854  0.00  0.00    -0.311 N 
ATOM     14  C   LIG d   1       0.981  76.872 117.918  0.00  0.00     0.210 C 
ATOM     15  C   LIG d   1       2.439  77.311 117.752  0.00  0.00     0.109 C 
ATOM     16  O   LIG d   1       0.606  76.336 118.971  0.00  0.00    -0.276 OA
ATOM     17  H   LIG d   1       0.601  77.489 116.030  0.00  0.00     0.149 HD
ENDBRANCH   6  13
BRANCH   5  18
ATOM     18  N   LIG d   1      -0.923  74.241 116.911  0.00  0.00     0.381 N 
ATOM     19  H   LIG d   1      -0.047  74.516 117.307  0.00  0.00    -0.090 HD
ATOM     20  H   LIG d   1      -0.758  73.478 116.279  0.00  0.00    -0.090 HD
ATOM     21  H   LIG d   1      -1.547  73.955 117.634  0.00  0.00    -0.090 HD
ENDBRANCH   5  18
BRANCH   3  22
ATOM     22  C   LIG d   1      -4.878  75.931 114.804  0.00  0.00     0.382 C 
ATOM     23  O   LIG d   1      -5.837  76.739 114.846  0.00  0.00    -0.241 OA
ATOM     24  O   LIG d   1      -5.002  74.864 114.174  0.00  0.00    -0.241 OA
ENDBRANCH   3  22
TORSDOF 7
ENDMDL
