MODEL 1
REMARK VINA RESULT:      -5.2      0.000      0.000
REMARK  7 active torsions:
REMARK  status: ('A' for Active; 'I' for Inactive)
REMARK    1  A    between atoms: C_2  and  C_3 
REMARK    2  A    between atoms: C_3  and  O_6 
REMARK    3  A    between atoms: C_3  and  C_4 
REMARK    4  A    between atoms: C_7  and  O_6 
REMARK    5  A    between atoms: C_9  and  C_10 
REMARK    6  A    between atoms: N_15  and  C_14 
REMARK    7  A    between atoms: N_20  and  C_19 
REMARK       I    between atoms: C_22  and  N_20 
ROOT
ATOM      1  C   LIG d   1      -4.329  78.444 116.579  0.00  0.00     0.161 C 
ATOM      2  C   LIG d   1      -4.179  77.345 115.717  0.00  0.00     0.016 C 
ATOM      3  C   LIG d   1      -5.207  76.406 115.468  0.00  0.00     0.038 C 
ATOM      4  C   LIG d   1      -6.511  76.589 115.950  0.00  0.00     0.028 C 
ATOM      5  C   LIG d   1      -6.573  77.412 117.233  0.00  0.00    -0.047 C 
ATOM      6  C   LIG d   1      -5.779  78.722 117.027  0.00  0.00     0.091 C 
ENDROOT
BRANCH   1   7
ATOM      7  O   LIG d   1      -3.757  79.620 115.974  0.00  0.00    -0.368 OA
BRANCH   7   8
ATOM      8  C   LIG d   1      -2.366  79.884 116.283  0.00  0.00     0.119 C 
BRANCH   8   9
ATOM      9  C   LIG d   1      -2.308  81.213 117.060  0.00  0.00     0.028 C 
ATOM     10  C   LIG d   1      -2.353  81.004 118.584  0.00  0.00     0.006 C 
ENDBRANCH   8   9
BRANCH   8  11
ATOM     11  C   LIG d   1      -1.549  80.123 115.010  0.00  0.00     0.028 C 
ATOM     12  C   LIG d   1      -2.362  80.805 113.899  0.00  0.00     0.006 C 
ENDBRANCH   8  11
ENDBRANCH   7   8
ENDBRANCH   1   7
BRANCH   6  13
ATOM     13  N   LIG d   1      -5.718  79.547 118.262  0.00  0.00    -0.311 N 
ATOM     14  C   LIG d   1      -6.220  80.778 118.346  0.00  0.00     0.210 C 
ATOM     15  C   LIG d   1      -6.033  81.461 119.705  0.00  0.00     0.109 C 
ATOM     16  O   LIG d   1      -6.831  81.357 117.435  0.00  0.00    -0.276 OA
ATOM     17  H   LIG d   1      -5.267  79.143 119.059  0.00  0.00     0.149 HD
ENDBRANCH   6  13
BRANCH   5  18
ATOM     18  N   LIG d   1      -7.996  77.641 117.547  0.00  0.00     0.381 N 
ATOM     19  H   LIG d   1      -8.318  76.943 118.188  0.00  0.00    -0.090 HD
ATOM     20  H   LIG d   1      -8.532  77.564 116.701  0.00  0.00    -0.090 HD
ATOM     21  H   LIG d   1      -8.116  78.547 117.943  0.00  0.00    -0.090 HD
ENDBRANCH   5  18
BRANCH   3  22
ATOM     22  C   LIG d   1      -4.923  75.247 114.761  0.00  0.00     0.382 C 
ATOM     23  O   LIG d   1      -3.906  74.571 115.049  0.00  0.00    -0.241 OA
ATOM     24  O   LIG d   1      -5.645  74.895 113.810  0.00  0.00    -0.241 OA
ENDBRANCH   3  22
TORSDOF 7
ENDMDL
MODEL 2
REMARK VINA RESULT:      -5.1      2.869      5.898
REMARK  7 active torsions:
REMARK  status: ('A' for Active; 'I' for Inactive)
REMARK    1  A    between atoms: C_2  and  C_3 
REMARK    2  A    between atoms: C_3  and  O_6 
REMARK    3  A    between atoms: C_3  and  C_4 
REMARK    4  A    between atoms: C_7  and  O_6 
REMARK    5  A    between atoms: C_9  and  C_10 
REMARK    6  A    between atoms: N_15  and  C_14 
REMARK    7  A    between atoms: N_20  and  C_19 
REMARK       I    between atoms: C_22  and  N_20 
ROOT
ATOM      1  C   LIG d   1      -2.742  79.812 115.531  0.00  0.00     0.161 C 
ATOM      2  C   LIG d   1      -2.520  81.037 114.880  0.00  0.00     0.016 C 
ATOM      3  C   LIG d   1      -2.077  81.137 113.541  0.00  0.00     0.038 C 
ATOM      4  C   LIG d   1      -1.972  80.013 112.709  0.00  0.00     0.028 C 
ATOM      5  C   LIG d   1      -1.700  78.720 113.469  0.00  0.00    -0.047 C 
ATOM      6  C   LIG d   1      -2.739  78.578 114.605  0.00  0.00     0.091 C 
ENDROOT
BRANCH   1   7
ATOM      7  O   LIG d   1      -3.972  79.873 116.280  0.00  0.00    -0.368 OA
BRANCH   7   8
ATOM      8  C   LIG d   1      -4.002  80.817 117.379  0.00  0.00     0.119 C 
BRANCH   8   9
ATOM      9  C   LIG d   1      -3.102  80.255 118.496  0.00  0.00     0.028 C 
ATOM     10  C   LIG d   1      -1.824  81.088 118.694  0.00  0.00     0.006 C 
ENDBRANCH   8   9
BRANCH   8  11
ATOM     11  C   LIG d   1      -5.401  80.910 117.995  0.00  0.00     0.028 C 
ATOM     12  C   LIG d   1      -5.385  81.457 119.431  0.00  0.00     0.006 C 
ENDBRANCH   8  11
ENDBRANCH   7   8
ENDBRANCH   1   7
BRANCH   6  13
ATOM     13  N   LIG d   1      -2.494  77.381 115.451  0.00  0.00    -0.311 N 
ATOM     14  C   LIG d   1      -3.077  76.202 115.240  0.00  0.00     0.210 C 
ATOM     15  C   LIG d   1      -2.700  75.106 116.242  0.00  0.00     0.109 C 
ATOM     16  O   LIG d   1      -3.845  75.951 114.299  0.00  0.00    -0.276 OA
ATOM     17  H   LIG d   1      -1.860  77.487 116.219  0.00  0.00     0.149 HD
ENDBRANCH   6  13
BRANCH   5  18
ATOM     18  N   LIG d   1      -1.751  77.612 112.497  0.00  0.00     0.381 N 
ATOM     19  H   LIG d   1      -1.558  77.958 111.578  0.00  0.00    -0.090 HD
ATOM     20  H   LIG d   1      -2.677  77.220 112.498  0.00  0.00    -0.090 HD
ATOM     21  H   LIG d   1      -1.086  76.912 112.742  0.00  0.00    -0.090 HD
ENDBRANCH   5  18
BRANCH   3  22
ATOM     22  C   LIG d   1      -1.697  82.370 113.034  0.00  0.00     0.382 C 
ATOM     23  O   LIG d   1      -1.405  83.307 113.816  0.00  0.00    -0.241 OA
ATOM     24  O   LIG d   1      -1.684  82.571 111.805  0.00  0.00    -0.241 OA
ENDBRANCH   3  22
TORSDOF 7
ENDMDL
MODEL 3
REMARK VINA RESULT:      -4.9      3.022      5.948
REMARK  7 active torsions:
REMARK  status: ('A' for Active; 'I' for Inactive)
REMARK    1  A    between atoms: C_2  and  C_3 
REMARK    2  A    between atoms: C_3  and  O_6 
REMARK    3  A    between atoms: C_3  and  C_4 
REMARK    4  A    between atoms: C_7  and  O_6 
REMARK    5  A    between atoms: C_9  and  C_10 
REMARK    6  A    between atoms: N_15  and  C_14 
REMARK    7  A    between atoms: N_20  and  C_19 
REMARK       I    between atoms: C_22  and  N_20 
ROOT
ATOM      1  C   LIG d   1      -2.060  79.268 115.825  0.00  0.00     0.161 C 
ATOM      2  C   LIG d   1      -2.356  80.524 115.270  0.00  0.00     0.016 C 
ATOM      3  C   LIG d   1      -2.464  80.754 113.879  0.00  0.00     0.038 C 
ATOM      4  C   LIG d   1      -2.431  79.704 112.949  0.00  0.00     0.028 C 
ATOM      5  C   LIG d   1      -1.632  78.497 113.427  0.00  0.00    -0.047 C 
ATOM      6  C   LIG d   1      -2.130  78.089 114.833  0.00  0.00     0.091 C 
ENDROOT
BRANCH   1   7
ATOM      7  O   LIG d   1      -2.915  79.021 116.959  0.00  0.00    -0.368 OA
BRANCH   7   8
ATOM      8  C   LIG d   1      -4.340  79.115 116.715  0.00  0.00     0.119 C 
BRANCH   8   9
ATOM      9  C   LIG d   1      -4.945  79.985 117.833  0.00  0.00     0.028 C 
ATOM     10  C   LIG d   1      -3.877  80.785 118.597  0.00  0.00     0.006 C 
ENDBRANCH   8   9
BRANCH   8  11
ATOM     11  C   LIG d   1      -5.020  77.749 116.851  0.00  0.00     0.028 C 
ATOM     12  C   LIG d   1      -4.425  76.898 117.985  0.00  0.00     0.006 C 
ENDBRANCH   8  11
ENDBRANCH   7   8
ENDBRANCH   1   7
BRANCH   6  13
ATOM     13  N   LIG d   1      -1.344  76.968 115.410  0.00  0.00    -0.311 N 
ATOM     14  C   LIG d   1      -1.816  75.728 115.532  0.00  0.00     0.210 C 
ATOM     15  C   LIG d   1      -0.848  74.728 116.172  0.00  0.00     0.109 C 
ATOM     16  O   LIG d   1      -2.933  75.355 115.143  0.00  0.00    -0.276 OA
ATOM     17  H   LIG d   1      -0.416  77.175 115.723  0.00  0.00     0.149 HD
ENDBRANCH   6  13
BRANCH   5  18
ATOM     18  N   LIG d   1      -1.795  77.428 112.423  0.00  0.00     0.381 N 
ATOM     19  H   LIG d   1      -2.723  77.057 112.473  0.00  0.00    -0.090 HD
ATOM     20  H   LIG d   1      -1.147  76.688 112.628  0.00  0.00    -0.090 HD
ATOM     21  H   LIG d   1      -1.622  77.789 111.511  0.00  0.00    -0.090 HD
ENDBRANCH   5  18
BRANCH   3  22
ATOM     22  C   LIG d   1      -2.567  82.053 113.403  0.00  0.00     0.382 C 
ATOM     23  O   LIG d   1      -2.113  82.343 112.271  0.00  0.00    -0.241 OA
ATOM     24  O   LIG d   1      -3.069  82.947 114.111  0.00  0.00    -0.241 OA
ENDBRANCH   3  22
TORSDOF 7
ENDMDL
MODEL 4
REMARK VINA RESULT:      -4.8      3.882      6.138
REMARK  7 active torsions:
REMARK  status: ('A' for Active; 'I' for Inactive)
REMARK    1  A    between atoms: C_2  and  C_3 
REMARK    2  A    between atoms: C_3  and  O_6 
REMARK    3  A    between atoms: C_3  and  C_4 
REMARK    4  A    between atoms: C_7  and  O_6 
REMARK    5  A    between atoms: C_9  and  C_10 
REMARK    6  A    between atoms: N_15  and  C_14 
REMARK    7  A    between atoms: N_20  and  C_19 
REMARK       I    between atoms: C_22  and  N_20 
ROOT
ATOM      1  C   LIG d   1      -3.113  76.719 116.298  0.00  0.00     0.161 C 
ATOM      2  C   LIG d   1      -3.527  77.124 115.018  0.00  0.00     0.016 C 
ATOM      3  C   LIG d   1      -2.664  77.168 113.899  0.00  0.00     0.038 C 
ATOM      4  C   LIG d   1      -1.357  76.662 113.950  0.00  0.00     0.028 C 
ATOM      5  C   LIG d   1      -0.742  76.713 115.345  0.00  0.00    -0.047 C 
ATOM      6  C   LIG d   1      -1.719  76.058 116.348  0.00  0.00     0.091 C 
ENDROOT
BRANCH   1   7
ATOM      7  O   LIG d   1      -4.102  75.846 116.878  0.00  0.00    -0.368 OA
BRANCH   7   8
ATOM      8  C   LIG d   1      -5.388  75.807 116.211  0.00  0.00     0.119 C 
BRANCH   8   9
ATOM      9  C   LIG d   1      -6.455  76.229 117.239  0.00  0.00     0.028 C 
ATOM     10  C   LIG d   1      -7.866  76.291 116.628  0.00  0.00     0.006 C 
ENDBRANCH   8   9
BRANCH   8  11
ATOM     11  C   LIG d   1      -5.761  74.379 115.803  0.00  0.00     0.028 C 
ATOM     12  C   LIG d   1      -5.778  74.180 114.279  0.00  0.00     0.006 C 
ENDBRANCH   8  11
ENDBRANCH   7   8
ENDBRANCH   1   7
BRANCH   6  13
ATOM     13  N   LIG d   1      -1.232  76.141 117.750  0.00  0.00    -0.311 N 
ATOM     14  C   LIG d   1      -0.413  75.244 118.296  0.00  0.00     0.210 C 
ATOM     15  C   LIG d   1      -0.050  75.506 119.760  0.00  0.00     0.109 C 
ATOM     16  O   LIG d   1       0.073  74.273 117.696  0.00  0.00    -0.276 OA
ATOM     17  H   LIG d   1      -1.552  76.914 118.299  0.00  0.00     0.149 HD
ENDBRANCH   6  13
BRANCH   5  18
ATOM     18  N   LIG d   1       0.564  76.030 115.281  0.00  0.00     0.381 N 
ATOM     19  H   LIG d   1       0.613  75.326 115.990  0.00  0.00    -0.090 HD
ATOM     20  H   LIG d   1       1.291  76.703 115.454  0.00  0.00    -0.090 HD
ATOM     21  H   LIG d   1       0.690  75.618 114.383  0.00  0.00    -0.090 HD
ENDBRANCH   5  18
BRANCH   3  22
ATOM     22  C   LIG d   1      -3.096  77.759 112.722  0.00  0.00     0.382 C 
ATOM     23  O   LIG d   1      -2.789  78.949 112.469  0.00  0.00    -0.241 OA
ATOM     24  O   LIG d   1      -3.824  77.132 111.930  0.00  0.00    -0.241 OA
ENDBRANCH   3  22
TORSDOF 7
ENDMDL
MODEL 5
REMARK VINA RESULT:      -4.6      3.159      4.850
REMARK  7 active torsions:
REMARK  status: ('A' for Active; 'I' for Inactive)
REMARK    1  A    between atoms: C_2  and  C_3 
REMARK    2  A    between atoms: C_3  and  O_6 
REMARK    3  A    between atoms: C_3  and  C_4 
REMARK    4  A    between atoms: C_7  and  O_6 
REMARK    5  A    between atoms: C_9  and  C_10 
REMARK    6  A    between atoms: N_15  and  C_14 
REMARK    7  A    between atoms: N_20  and  C_19 
REMARK       I    between atoms: C_22  and  N_20 
ROOT
ATOM      1  C   LIG d   1      -2.463  79.489 115.450  0.00  0.00     0.161 C 
ATOM      2  C   LIG d   1      -3.062  78.219 115.394  0.00  0.00     0.016 C 
ATOM      3  C   LIG d   1      -3.094  77.426 114.224  0.00  0.00     0.038 C 
ATOM      4  C   LIG d   1      -2.393  77.786 113.064  0.00  0.00     0.028 C 
ATOM      5  C   LIG d   1      -2.199  79.291 112.916  0.00  0.00    -0.047 C 
ATOM      6  C   LIG d   1      -1.597  79.850 114.226  0.00  0.00     0.091 C 
ENDROOT
BRANCH   1   7
ATOM      7  O   LIG d   1      -1.694  79.613 116.663  0.00  0.00    -0.368 OA
BRANCH   7   8
ATOM      8  C   LIG d   1      -2.379  80.201 117.795  0.00  0.00     0.119 C 
BRANCH   8   9
ATOM      9  C   LIG d   1      -3.593  80.978 117.249  0.00  0.00     0.028 C 
ATOM     10  C   LIG d   1      -4.809  80.900 118.187  0.00  0.00     0.006 C 
ENDBRANCH   8   9
BRANCH   8  11
ATOM     11  C   LIG d   1      -1.507  81.250 118.491  0.00  0.00     0.028 C 
ATOM     12  C   LIG d   1      -0.067  81.278 117.955  0.00  0.00     0.006 C 
ENDBRANCH   8  11
ENDBRANCH   7   8
ENDBRANCH   1   7
BRANCH   6  13
ATOM     13  N   LIG d   1      -1.453  81.329 114.197  0.00  0.00    -0.311 N 
ATOM     14  C   LIG d   1      -0.286  81.955 114.341  0.00  0.00     0.210 C 
ATOM     15  C   LIG d   1      -0.363  83.484 114.301  0.00  0.00     0.109 C 
ATOM     16  O   LIG d   1       0.810  81.388 114.466  0.00  0.00    -0.276 OA
ATOM     17  H   LIG d   1      -2.288  81.866 114.069  0.00  0.00     0.149 HD
ENDBRANCH   6  13
BRANCH   5  18
ATOM     18  N   LIG d   1      -1.336  79.516 111.741  0.00  0.00     0.381 N 
ATOM     19  H   LIG d   1      -0.839  78.677 111.520  0.00  0.00    -0.090 HD
ATOM     20  H   LIG d   1      -0.665  80.231 111.962  0.00  0.00    -0.090 HD
ATOM     21  H   LIG d   1      -1.889  79.799 110.962  0.00  0.00    -0.090 HD
ENDBRANCH   5  18
BRANCH   3  22
ATOM     22  C   LIG d   1      -3.868  76.275 114.195  0.00  0.00     0.382 C 
ATOM     23  O   LIG d   1      -3.599  75.319 114.962  0.00  0.00    -0.241 OA
ATOM     24  O   LIG d   1      -4.805  76.164 113.382  0.00  0.00    -0.241 OA
ENDBRANCH   3  22
TORSDOF 7
ENDMDL
MODEL 6
REMARK VINA RESULT:      -4.6      2.480      6.334
REMARK  7 active torsions:
REMARK  status: ('A' for Active; 'I' for Inactive)
REMARK    1  A    between atoms: C_2  and  C_3 
REMARK    2  A    between atoms: C_3  and  O_6 
REMARK    3  A    between atoms: C_3  and  C_4 
REMARK    4  A    between atoms: C_7  and  O_6 
REMARK    5  A    between atoms: C_9  and  C_10 
REMARK    6  A    between atoms: N_15  and  C_14 
REMARK    7  A    between atoms: N_20  and  C_19 
REMARK       I    between atoms: C_22  and  N_20 
ROOT
ATOM      1  C   LIG d   1      -4.424  77.701 116.874  0.00  0.00     0.161 C 
ATOM      2  C   LIG d   1      -5.240  78.752 117.324  0.00  0.00     0.016 C 
ATOM      3  C   LIG d   1      -4.799  80.092 117.425  0.00  0.00     0.038 C 
ATOM      4  C   LIG d   1      -3.549  80.499 116.934  0.00  0.00     0.028 C 
ATOM      5  C   LIG d   1      -2.506  79.388 116.937  0.00  0.00    -0.047 C 
ATOM      6  C   LIG d   1      -3.094  78.145 116.230  0.00  0.00     0.091 C 
ENDROOT
BRANCH   1   7
ATOM      7  O   LIG d   1      -5.165  76.863 115.965  0.00  0.00    -0.368 OA
BRANCH   7   8
ATOM      8  C   LIG d   1      -5.301  75.472 116.349  0.00  0.00     0.119 C 
BRANCH   8   9
ATOM      9  C   LIG d   1      -5.664  74.676 115.081  0.00  0.00     0.028 C 
ATOM     10  C   LIG d   1      -5.765  75.571 113.834  0.00  0.00     0.006 C 
ENDBRANCH   8   9
BRANCH   8  11
ATOM     11  C   LIG d   1      -6.480  75.270 117.306  0.00  0.00     0.028 C 
ATOM     12  C   LIG d   1      -7.453  74.180 116.830  0.00  0.00     0.006 C 
ENDBRANCH   8  11
ENDBRANCH   7   8
ENDBRANCH   1   7
BRANCH   6  13
ATOM     13  N   LIG d   1      -2.169  76.983 116.263  0.00  0.00    -0.311 N 
ATOM     14  C   LIG d   1      -1.886  76.241 115.194  0.00  0.00     0.210 C 
ATOM     15  C   LIG d   1      -0.923  75.077 115.450  0.00  0.00     0.109 C 
ATOM     16  O   LIG d   1      -2.316  76.455 114.050  0.00  0.00    -0.276 OA
ATOM     17  H   LIG d   1      -1.750  76.757 117.144  0.00  0.00     0.149 HD
ENDBRANCH   6  13
BRANCH   5  18
ATOM     18  N   LIG d   1      -1.296  79.911 116.275  0.00  0.00     0.381 N 
ATOM     19  H   LIG d   1      -0.935  79.227 115.639  0.00  0.00    -0.090 HD
ATOM     20  H   LIG d   1      -0.596  80.092 116.973  0.00  0.00    -0.090 HD
ATOM     21  H   LIG d   1      -1.512  80.750 115.784  0.00  0.00    -0.090 HD
ENDBRANCH   5  18
BRANCH   3  22
ATOM     22  C   LIG d   1      -5.597  81.033 118.057  0.00  0.00     0.382 C 
ATOM     23  O   LIG d   1      -5.264  81.484 119.180  0.00  0.00    -0.241 OA
ATOM     24  O   LIG d   1      -6.668  81.403 117.540  0.00  0.00    -0.241 OA
ENDBRANCH   3  22
TORSDOF 7
ENDMDL
MODEL 7
REMARK VINA RESULT:      -4.6      3.830      6.983
REMARK  7 active torsions:
REMARK  status: ('A' for Active; 'I' for Inactive)
REMARK    1  A    between atoms: C_2  and  C_3 
REMARK    2  A    between atoms: C_3  and  O_6 
REMARK    3  A    between atoms: C_3  and  C_4 
REMARK    4  A    between atoms: C_7  and  O_6 
REMARK    5  A    between atoms: C_9  and  C_10 
REMARK    6  A    between atoms: N_15  and  C_14 
REMARK    7  A    between atoms: N_20  and  C_19 
REMARK       I    between atoms: C_22  and  N_20 
ROOT
ATOM      1  C   LIG d   1      -2.290  81.754 114.257  0.00  0.00     0.161 C 
ATOM      2  C   LIG d   1      -1.969  82.179 112.957  0.00  0.00     0.016 C 
ATOM      3  C   LIG d   1      -0.708  82.709 112.600  0.00  0.00     0.038 C 
ATOM      4  C   LIG d   1       0.375  82.710 113.492  0.00  0.00     0.028 C 
ATOM      5  C   LIG d   1      -0.047  82.758 114.957  0.00  0.00    -0.047 C 
ATOM      6  C   LIG d   1      -1.086  81.643 115.216  0.00  0.00     0.091 C 
ENDROOT
BRANCH   1   7
ATOM      7  O   LIG d   1      -3.001  80.501 114.200  0.00  0.00    -0.368 OA
BRANCH   7   8
ATOM      8  C   LIG d   1      -2.195  79.320 113.971  0.00  0.00     0.119 C 
BRANCH   8   9
ATOM      9  C   LIG d   1      -2.464  78.848 112.529  0.00  0.00     0.028 C 
ATOM     10  C   LIG d   1      -3.123  77.460 112.479  0.00  0.00     0.006 C 
ENDBRANCH   8   9
BRANCH   8  11
ATOM     11  C   LIG d   1      -2.639  78.159 114.866  0.00  0.00     0.028 C 
ATOM     12  C   LIG d   1      -3.516  78.617 116.043  0.00  0.00     0.006 C 
ENDBRANCH   8  11
ENDBRANCH   7   8
ENDBRANCH   1   7
BRANCH   6  13
ATOM     13  N   LIG d   1      -1.614  81.673 116.605  0.00  0.00    -0.311 N 
ATOM     14  C   LIG d   1      -1.117  80.933 117.595  0.00  0.00     0.210 C 
ATOM     15  C   LIG d   1      -1.821  81.101 118.945  0.00  0.00     0.109 C 
ATOM     16  O   LIG d   1      -0.139  80.178 117.490  0.00  0.00    -0.276 OA
ATOM     17  H   LIG d   1      -2.388  82.282 116.786  0.00  0.00     0.149 HD
ENDBRANCH   6  13
BRANCH   5  18
ATOM     18  N   LIG d   1       1.172  82.614 115.776  0.00  0.00     0.381 N 
ATOM     19  H   LIG d   1       1.683  81.805 115.484  0.00  0.00    -0.090 HD
ATOM     20  H   LIG d   1       0.905  82.489 116.736  0.00  0.00    -0.090 HD
ATOM     21  H   LIG d   1       1.741  83.426 115.685  0.00  0.00    -0.090 HD
ENDBRANCH   5  18
BRANCH   3  22
ATOM     22  C   LIG d   1      -0.533  83.283 111.350  0.00  0.00     0.382 C 
ATOM     23  O   LIG d   1      -0.779  84.501 111.180  0.00  0.00    -0.241 OA
ATOM     24  O   LIG d   1      -0.174  82.588 110.381  0.00  0.00    -0.241 OA
ENDBRANCH   3  22
TORSDOF 7
ENDMDL
MODEL 8
REMARK VINA RESULT:      -4.6      3.498      6.334
REMARK  7 active torsions:
REMARK  status: ('A' for Active; 'I' for Inactive)
REMARK    1  A    between atoms: C_2  and  C_3 
REMARK    2  A    between atoms: C_3  and  O_6 
REMARK    3  A    between atoms: C_3  and  C_4 
REMARK    4  A    between atoms: C_7  and  O_6 
REMARK    5  A    between atoms: C_9  and  C_10 
REMARK    6  A    between atoms: N_15  and  C_14 
REMARK    7  A    between atoms: N_20  and  C_19 
REMARK       I    between atoms: C_22  and  N_20 
ROOT
ATOM      1  C   LIG d   1      -2.171  79.255 115.608  0.00  0.00     0.161 C 
ATOM      2  C   LIG d   1      -2.626  79.998 114.505  0.00  0.00     0.016 C 
ATOM      3  C   LIG d   1      -1.840  80.968 113.843  0.00  0.00     0.038 C 
ATOM      4  C   LIG d   1      -0.483  81.156 114.145  0.00  0.00     0.028 C 
ATOM      5  C   LIG d   1      -0.126  80.788 115.581  0.00  0.00    -0.047 C 
ATOM      6  C   LIG d   1      -0.656  79.367 115.881  0.00  0.00     0.091 C 
ENDROOT
BRANCH   1   7
ATOM      7  O   LIG d   1      -2.552  77.874 115.457  0.00  0.00    -0.368 OA
BRANCH   7   8
ATOM      8  C   LIG d   1      -3.715  77.448 116.209  0.00  0.00     0.119 C 
BRANCH   8   9
ATOM      9  C   LIG d   1      -3.244  76.403 117.238  0.00  0.00     0.028 C 
ATOM     10  C   LIG d   1      -3.483  76.857 118.688  0.00  0.00     0.006 C 
ENDBRANCH   8   9
BRANCH   8  11
ATOM     11  C   LIG d   1      -4.718  76.713 115.314  0.00  0.00     0.028 C 
ATOM     12  C   LIG d   1      -6.164  76.823 115.825  0.00  0.00     0.006 C 
ENDBRANCH   8  11
ENDBRANCH   7   8
ENDBRANCH   1   7
BRANCH   6  13
ATOM     13  N   LIG d   1      -0.423  78.961 117.292  0.00  0.00    -0.311 N 
ATOM     14  C   LIG d   1       0.119  77.796 117.640  0.00  0.00     0.210 C 
ATOM     15  C   LIG d   1       0.252  77.569 119.149  0.00  0.00     0.109 C 
ATOM     16  O   LIG d   1       0.532  76.942 116.841  0.00  0.00    -0.276 OA
ATOM     17  H   LIG d   1      -0.700  79.608 118.004  0.00  0.00     0.149 HD
ENDBRANCH   6  13
BRANCH   5  18
ATOM     18  N   LIG d   1       1.339  80.899 115.719  0.00  0.00     0.381 N 
ATOM     19  H   LIG d   1       1.573  81.777 116.139  0.00  0.00    -0.090 HD
ATOM     20  H   LIG d   1       1.755  80.866 114.805  0.00  0.00    -0.090 HD
ATOM     21  H   LIG d   1       1.686  80.152 116.278  0.00  0.00    -0.090 HD
ENDBRANCH   5  18
BRANCH   3  22
ATOM     22  C   LIG d   1      -2.422  81.792 112.891  0.00  0.00     0.382 C 
ATOM     23  O   LIG d   1      -3.641  81.671 112.619  0.00  0.00    -0.241 OA
ATOM     24  O   LIG d   1      -1.735  82.625 112.270  0.00  0.00    -0.241 OA
ENDBRANCH   3  22
TORSDOF 7
ENDMDL
MODEL 9
REMARK VINA RESULT:      -4.5      3.837      6.410
REMARK  7 active torsions:
REMARK  status: ('A' for Active; 'I' for Inactive)
REMARK    1  A    between atoms: C_2  and  C_3 
REMARK    2  A    between atoms: C_3  and  O_6 
REMARK    3  A    between atoms: C_3  and  C_4 
REMARK    4  A    between atoms: C_7  and  O_6 
REMARK    5  A    between atoms: C_9  and  C_10 
REMARK    6  A    between atoms: N_15  and  C_14 
REMARK    7  A    between atoms: N_20  and  C_19 
REMARK       I    between atoms: C_22  and  N_20 
ROOT
ATOM      1  C   LIG d   1      -2.281  79.821 115.984  0.00  0.00     0.161 C 
ATOM      2  C   LIG d   1      -2.708  80.440 114.798  0.00  0.00     0.016 C 
ATOM      3  C   LIG d   1      -1.851  81.185 113.956  0.00  0.00     0.038 C 
ATOM      4  C   LIG d   1      -0.465  81.235 114.167  0.00  0.00     0.028 C 
ATOM      5  C   LIG d   1      -0.067  81.047 115.627  0.00  0.00    -0.047 C 
ATOM      6  C   LIG d   1      -0.750  79.772 116.172  0.00  0.00     0.091 C 
ENDROOT
BRANCH   1   7
ATOM      7  O   LIG d   1      -2.839  78.495 116.072  0.00  0.00    -0.368 OA
BRANCH   7   8
ATOM      8  C   LIG d   1      -2.215  77.484 115.243  0.00  0.00     0.119 C 
BRANCH   8   9
ATOM      9  C   LIG d   1      -3.229  77.090 114.152  0.00  0.00     0.028 C 
ATOM     10  C   LIG d   1      -2.746  77.463 112.740  0.00  0.00     0.006 C 
ENDBRANCH   8   9
BRANCH   8  11
ATOM     11  C   LIG d   1      -1.951  76.200 116.035  0.00  0.00     0.028 C 
ATOM     12  C   LIG d   1      -2.558  76.234 117.446  0.00  0.00     0.006 C 
ENDBRANCH   8  11
ENDBRANCH   7   8
ENDBRANCH   1   7
BRANCH   6  13
ATOM     13  N   LIG d   1      -0.481  79.559 117.619  0.00  0.00    -0.311 N 
ATOM     14  C   LIG d   1       0.257  78.555 118.087  0.00  0.00     0.210 C 
ATOM     15  C   LIG d   1       0.392  78.508 119.612  0.00  0.00     0.109 C 
ATOM     16  O   LIG d   1       0.840  77.717 117.383  0.00  0.00    -0.276 OA
ATOM     17  H   LIG d   1      -0.890  80.211 118.259  0.00  0.00     0.149 HD
ENDBRANCH   6  13
BRANCH   5  18
ATOM     18  N   LIG d   1       1.405  80.983 115.683  0.00  0.00     0.381 N 
ATOM     19  H   LIG d   1       1.693  80.083 116.010  0.00  0.00    -0.090 HD
ATOM     20  H   LIG d   1       1.736  81.675 116.333  0.00  0.00    -0.090 HD
ATOM     21  H   LIG d   1       1.789  81.155 114.780  0.00  0.00    -0.090 HD
ENDBRANCH   5  18
BRANCH   3  22
ATOM     22  C   LIG d   1      -2.385  81.923 112.911  0.00  0.00     0.382 C 
ATOM     23  O   LIG d   1      -1.640  82.651 112.212  0.00  0.00    -0.241 OA
ATOM     24  O   LIG d   1      -3.610  81.905 112.686  0.00  0.00    -0.241 OA
ENDBRANCH   3  22
TORSDOF 7
ENDMDL
