MODEL 1
REMARK VINA RESULT:      -5.2      0.000      0.000
REMARK  7 active torsions:
REMARK  status: ('A' for Active; 'I' for Inactive)
REMARK    1  A    between atoms: C_2  and  C_3 
REMARK    2  A    between atoms: C_3  and  O_6 
REMARK    3  A    between atoms: C_3  and  C_4 
REMARK    4  A    between atoms: C_7  and  O_6 
REMARK    5  A    between atoms: C_9  and  C_10 
REMARK    6  A    between atoms: N_15  and  C_14 
REMARK    7  A    between atoms: N_20  and  C_19 
REMARK       I    between atoms: C_22  and  N_20 
ROOT
ATOM      1  C   LIG d   1      -2.979  79.304 115.763  0.00  0.00     0.161 C 
ATOM      2  C   LIG d   1      -2.947  80.578 115.172  0.00  0.00     0.016 C 
ATOM      3  C   LIG d   1      -2.524  80.809 113.843  0.00  0.00     0.038 C 
ATOM      4  C   LIG d   1      -2.245  79.756 112.960  0.00  0.00     0.028 C 
ATOM      5  C   LIG d   1      -1.779  78.485 113.662  0.00  0.00    -0.047 C 
ATOM      6  C   LIG d   1      -2.785  78.131 114.780  0.00  0.00     0.091 C 
ENDROOT
BRANCH   1   7
ATOM      7  O   LIG d   1      -4.205  79.140 116.504  0.00  0.00    -0.368 OA
BRANCH   7   8
ATOM      8  C   LIG d   1      -4.634  80.281 117.287  0.00  0.00     0.119 C 
BRANCH   8   9
ATOM      9  C   LIG d   1      -3.880  80.231 118.630  0.00  0.00     0.028 C 
ATOM     10  C   LIG d   1      -2.994  81.468 118.852  0.00  0.00     0.006 C 
ENDBRANCH   8   9
BRANCH   8  11
ATOM     11  C   LIG d   1      -6.118  80.180 117.651  0.00  0.00     0.028 C 
ATOM     12  C   LIG d   1      -6.804  81.552 117.741  0.00  0.00     0.006 C 
ENDBRANCH   8  11
ENDBRANCH   7   8
ENDBRANCH   1   7
BRANCH   6  13
ATOM     13  N   LIG d   1      -2.359  76.947 115.572  0.00  0.00    -0.311 N 
ATOM     14  C   LIG d   1      -2.749  75.703 115.297  0.00  0.00     0.210 C 
ATOM     15  C   LIG d   1      -2.210  74.632 116.251  0.00  0.00     0.109 C 
ATOM     16  O   LIG d   1      -3.463  75.381 114.336  0.00  0.00    -0.276 OA
ATOM     17  H   LIG d   1      -1.754  77.113 116.352  0.00  0.00     0.149 HD
ENDBRANCH   6  13
BRANCH   5  18
ATOM     18  N   LIG d   1      -1.657  77.429 112.638  0.00  0.00     0.381 N 
ATOM     19  H   LIG d   1      -0.813  77.558 112.117  0.00  0.00    -0.090 HD
ATOM     20  H   LIG d   1      -2.433  77.501 112.004  0.00  0.00    -0.090 HD
ATOM     21  H   LIG d   1      -1.655  76.532 113.071  0.00  0.00    -0.090 HD
ENDBRANCH   5  18
BRANCH   3  22
ATOM     22  C   LIG d   1      -2.337  82.109 113.397  0.00  0.00     0.382 C 
ATOM     23  O   LIG d   1      -2.088  82.327 112.187  0.00  0.00    -0.241 OA
ATOM     24  O   LIG d   1      -2.370  83.062 114.198  0.00  0.00    -0.241 OA
ENDBRANCH   3  22
TORSDOF 7
ENDMDL
MODEL 2
REMARK VINA RESULT:      -5.1      1.227      1.840
REMARK  7 active torsions:
REMARK  status: ('A' for Active; 'I' for Inactive)
REMARK    1  A    between atoms: C_2  and  C_3 
REMARK    2  A    between atoms: C_3  and  O_6 
REMARK    3  A    between atoms: C_3  and  C_4 
REMARK    4  A    between atoms: C_7  and  O_6 
REMARK    5  A    between atoms: C_9  and  C_10 
REMARK    6  A    between atoms: N_15  and  C_14 
REMARK    7  A    between atoms: N_20  and  C_19 
REMARK       I    between atoms: C_22  and  N_20 
ROOT
ATOM      1  C   LIG d   1      -2.359  79.095 116.139  0.00  0.00     0.161 C 
ATOM      2  C   LIG d   1      -2.666  80.376 115.652  0.00  0.00     0.016 C 
ATOM      3  C   LIG d   1      -2.669  80.706 114.277  0.00  0.00     0.038 C 
ATOM      4  C   LIG d   1      -2.510  79.731 113.280  0.00  0.00     0.028 C 
ATOM      5  C   LIG d   1      -1.698  78.524 113.738  0.00  0.00    -0.047 C 
ATOM      6  C   LIG d   1      -2.293  77.992 115.062  0.00  0.00     0.091 C 
ENDROOT
BRANCH   1   7
ATOM      7  O   LIG d   1      -3.293  78.728 117.174  0.00  0.00    -0.368 OA
BRANCH   7   8
ATOM      8  C   LIG d   1      -4.687  79.024 116.908  0.00  0.00     0.119 C 
BRANCH   8   9
ATOM      9  C   LIG d   1      -5.201  79.905 118.063  0.00  0.00     0.028 C 
ATOM     10  C   LIG d   1      -5.884  81.189 117.563  0.00  0.00     0.006 C 
ENDBRANCH   8   9
BRANCH   8  11
ATOM     11  C   LIG d   1      -5.544  77.756 116.953  0.00  0.00     0.028 C 
ATOM     12  C   LIG d   1      -4.783  76.542 117.509  0.00  0.00     0.006 C 
ENDBRANCH   8  11
ENDBRANCH   7   8
ENDBRANCH   1   7
BRANCH   6  13
ATOM     13  N   LIG d   1      -1.506  76.862 115.623  0.00  0.00    -0.311 N 
ATOM     14  C   LIG d   1      -1.791  75.583 115.387  0.00  0.00     0.210 C 
ATOM     15  C   LIG d   1      -0.865  74.576 116.078  0.00  0.00     0.109 C 
ATOM     16  O   LIG d   1      -2.701  75.186 114.644  0.00  0.00    -0.276 OA
ATOM     17  H   LIG d   1      -0.730  77.094 116.211  0.00  0.00     0.149 HD
ENDBRANCH   6  13
BRANCH   5  18
ATOM     18  N   LIG d   1      -1.728  77.528 112.649  0.00  0.00     0.381 N 
ATOM     19  H   LIG d   1      -0.838  77.497 112.194  0.00  0.00    -0.090 HD
ATOM     20  H   LIG d   1      -2.418  77.806 111.974  0.00  0.00    -0.090 HD
ATOM     21  H   LIG d   1      -1.954  76.630 113.015  0.00  0.00    -0.090 HD
ENDBRANCH   5  18
BRANCH   3  22
ATOM     22  C   LIG d   1      -2.792  82.031 113.888  0.00  0.00     0.382 C 
ATOM     23  O   LIG d   1      -3.537  82.807 114.533  0.00  0.00    -0.241 OA
ATOM     24  O   LIG d   1      -2.201  82.449 112.875  0.00  0.00    -0.241 OA
ENDBRANCH   3  22
TORSDOF 7
ENDMDL
MODEL 3
REMARK VINA RESULT:      -5.0      1.865      2.421
REMARK  7 active torsions:
REMARK  status: ('A' for Active; 'I' for Inactive)
REMARK    1  A    between atoms: C_2  and  C_3 
REMARK    2  A    between atoms: C_3  and  O_6 
REMARK    3  A    between atoms: C_3  and  C_4 
REMARK    4  A    between atoms: C_7  and  O_6 
REMARK    5  A    between atoms: C_9  and  C_10 
REMARK    6  A    between atoms: N_15  and  C_14 
REMARK    7  A    between atoms: N_20  and  C_19 
REMARK       I    between atoms: C_22  and  N_20 
ROOT
ATOM      1  C   LIG d   1      -0.470  80.134 115.072  0.00  0.00     0.161 C 
ATOM      2  C   LIG d   1      -0.607  81.379 114.437  0.00  0.00     0.016 C 
ATOM      3  C   LIG d   1      -1.325  81.564 113.233  0.00  0.00     0.038 C 
ATOM      4  C   LIG d   1      -2.087  80.536 112.659  0.00  0.00     0.028 C 
ATOM      5  C   LIG d   1      -1.568  79.141 112.990  0.00  0.00    -0.047 C 
ATOM      6  C   LIG d   1      -1.387  79.022 114.520  0.00  0.00     0.091 C 
ENDROOT
BRANCH   1   7
ATOM      7  O   LIG d   1      -0.665  80.286 116.492  0.00  0.00    -0.368 OA
BRANCH   7   8
ATOM      8  C   LIG d   1      -1.342  81.494 116.917  0.00  0.00     0.119 C 
BRANCH   8   9
ATOM      9  C   LIG d   1      -0.562  82.064 118.118  0.00  0.00     0.028 C 
ATOM     10  C   LIG d   1      -1.395  82.070 119.410  0.00  0.00     0.006 C 
ENDBRANCH   8   9
BRANCH   8  11
ATOM     11  C   LIG d   1      -2.744  81.189 117.453  0.00  0.00     0.028 C 
ATOM     12  C   LIG d   1      -3.841  81.380 116.394  0.00  0.00     0.006 C 
ENDBRANCH   8  11
ENDBRANCH   7   8
ENDBRANCH   1   7
BRANCH   6  13
ATOM     13  N   LIG d   1      -0.803  77.716 114.923  0.00  0.00    -0.311 N 
ATOM     14  C   LIG d   1      -1.537  76.651 115.238  0.00  0.00     0.210 C 
ATOM     15  C   LIG d   1      -0.735  75.410 115.644  0.00  0.00     0.109 C 
ATOM     16  O   LIG d   1      -2.775  76.606 115.189  0.00  0.00    -0.276 OA
ATOM     17  H   LIG d   1       0.196  77.655 114.959  0.00  0.00     0.149 HD
ENDBRANCH   6  13
BRANCH   5  18
ATOM     18  N   LIG d   1      -2.532  78.166 112.445  0.00  0.00     0.381 N 
ATOM     19  H   LIG d   1      -3.138  78.619 111.790  0.00  0.00    -0.090 HD
ATOM     20  H   LIG d   1      -3.093  77.808 113.198  0.00  0.00    -0.090 HD
ATOM     21  H   LIG d   1      -2.046  77.420 111.998  0.00  0.00    -0.090 HD
ENDBRANCH   5  18
BRANCH   3  22
ATOM     22  C   LIG d   1      -1.252  82.780 112.570  0.00  0.00     0.382 C 
ATOM     23  O   LIG d   1      -1.295  83.852 113.219  0.00  0.00    -0.241 OA
ATOM     24  O   LIG d   1      -1.188  82.818 111.326  0.00  0.00    -0.241 OA
ENDBRANCH   3  22
TORSDOF 7
ENDMDL
MODEL 4
REMARK VINA RESULT:      -5.0      2.673      4.535
REMARK  7 active torsions:
REMARK  status: ('A' for Active; 'I' for Inactive)
REMARK    1  A    between atoms: C_2  and  C_3 
REMARK    2  A    between atoms: C_3  and  O_6 
REMARK    3  A    between atoms: C_3  and  C_4 
REMARK    4  A    between atoms: C_7  and  O_6 
REMARK    5  A    between atoms: C_9  and  C_10 
REMARK    6  A    between atoms: N_15  and  C_14 
REMARK    7  A    between atoms: N_20  and  C_19 
REMARK       I    between atoms: C_22  and  N_20 
ROOT
ATOM      1  C   LIG d   1      -4.383  77.805 116.607  0.00  0.00     0.161 C 
ATOM      2  C   LIG d   1      -5.192  78.870 117.040  0.00  0.00     0.016 C 
ATOM      3  C   LIG d   1      -4.801  80.226 116.962  0.00  0.00     0.038 C 
ATOM      4  C   LIG d   1      -3.628  80.622 116.302  0.00  0.00     0.028 C 
ATOM      5  C   LIG d   1      -2.543  79.551 116.298  0.00  0.00    -0.047 C 
ATOM      6  C   LIG d   1      -3.148  78.225 115.783  0.00  0.00     0.091 C 
ENDROOT
BRANCH   1   7
ATOM      7  O   LIG d   1      -5.179  76.856 115.869  0.00  0.00    -0.368 OA
BRANCH   7   8
ATOM      8  C   LIG d   1      -5.468  75.607 116.544  0.00  0.00     0.119 C 
BRANCH   8   9
ATOM      9  C   LIG d   1      -5.452  74.492 115.480  0.00  0.00     0.028 C 
ATOM     10  C   LIG d   1      -5.207  75.037 114.062  0.00  0.00     0.006 C 
ENDBRANCH   8   9
BRANCH   8  11
ATOM     11  C   LIG d   1      -6.888  75.599 117.118  0.00  0.00     0.028 C 
ATOM     12  C   LIG d   1      -7.447  74.180 117.307  0.00  0.00     0.006 C 
ENDBRANCH   8  11
ENDBRANCH   7   8
ENDBRANCH   1   7
BRANCH   6  13
ATOM     13  N   LIG d   1      -2.175  77.103 115.827  0.00  0.00    -0.311 N 
ATOM     14  C   LIG d   1      -1.760  76.450 114.743  0.00  0.00     0.210 C 
ATOM     15  C   LIG d   1      -0.770  75.312 115.013  0.00  0.00     0.109 C 
ATOM     16  O   LIG d   1      -2.092  76.726 113.580  0.00  0.00    -0.276 OA
ATOM     17  H   LIG d   1      -1.830  76.833 116.727  0.00  0.00     0.149 HD
ENDBRANCH   6  13
BRANCH   5  18
ATOM     18  N   LIG d   1      -1.433  80.044 115.461  0.00  0.00     0.381 N 
ATOM     19  H   LIG d   1      -1.431  79.564 114.584  0.00  0.00    -0.090 HD
ATOM     20  H   LIG d   1      -0.564  79.851 115.928  0.00  0.00    -0.090 HD
ATOM     21  H   LIG d   1      -1.527  81.024 115.312  0.00  0.00    -0.090 HD
ENDBRANCH   5  18
BRANCH   3  22
ATOM     22  C   LIG d   1      -5.568  81.199 117.584  0.00  0.00     0.382 C 
ATOM     23  O   LIG d   1      -5.230  81.640 118.708  0.00  0.00    -0.241 OA
ATOM     24  O   LIG d   1      -6.618  81.610 117.054  0.00  0.00    -0.241 OA
ENDBRANCH   3  22
TORSDOF 7
ENDMDL
MODEL 5
REMARK VINA RESULT:      -4.8      2.821      4.641
REMARK  7 active torsions:
REMARK  status: ('A' for Active; 'I' for Inactive)
REMARK    1  A    between atoms: C_2  and  C_3 
REMARK    2  A    between atoms: C_3  and  O_6 
REMARK    3  A    between atoms: C_3  and  C_4 
REMARK    4  A    between atoms: C_7  and  O_6 
REMARK    5  A    between atoms: C_9  and  C_10 
REMARK    6  A    between atoms: N_15  and  C_14 
REMARK    7  A    between atoms: N_20  and  C_19 
REMARK       I    between atoms: C_22  and  N_20 
ROOT
ATOM      1  C   LIG d   1      -4.813  78.114 116.928  0.00  0.00     0.161 C 
ATOM      2  C   LIG d   1      -5.747  79.093 117.308  0.00  0.00     0.016 C 
ATOM      3  C   LIG d   1      -5.466  80.479 117.306  0.00  0.00     0.038 C 
ATOM      4  C   LIG d   1      -4.273  80.992 116.776  0.00  0.00     0.028 C 
ATOM      5  C   LIG d   1      -3.106  80.014 116.850  0.00  0.00    -0.047 C 
ATOM      6  C   LIG d   1      -3.545  78.662 116.241  0.00  0.00     0.091 C 
ENDROOT
BRANCH   1   7
ATOM      7  O   LIG d   1      -5.451  77.130 116.091  0.00  0.00    -0.368 OA
BRANCH   7   8
ATOM      8  C   LIG d   1      -5.632  75.816 116.675  0.00  0.00     0.119 C 
BRANCH   8   9
ATOM      9  C   LIG d   1      -5.172  74.779 115.632  0.00  0.00     0.028 C 
ATOM     10  C   LIG d   1      -5.295  75.301 114.191  0.00  0.00     0.006 C 
ENDBRANCH   8   9
BRANCH   8  11
ATOM     11  C   LIG d   1      -7.113  75.515 116.921  0.00  0.00     0.028 C 
ATOM     12  C   LIG d   1      -7.597  75.993 118.299  0.00  0.00     0.006 C 
ENDBRANCH   8  11
ENDBRANCH   7   8
ENDBRANCH   1   7
BRANCH   6  13
ATOM     13  N   LIG d   1      -2.489  77.622 116.351  0.00  0.00    -0.311 N 
ATOM     14  C   LIG d   1      -1.986  76.975 115.301  0.00  0.00     0.210 C 
ATOM     15  C   LIG d   1      -0.921  75.927 115.636  0.00  0.00     0.109 C 
ATOM     16  O   LIG d   1      -2.298  77.192 114.120  0.00  0.00    -0.276 OA
ATOM     17  H   LIG d   1      -2.156  77.405 117.269  0.00  0.00     0.149 HD
ENDBRANCH   6  13
BRANCH   5  18
ATOM     18  N   LIG d   1      -1.966  80.625 116.140  0.00  0.00     0.381 N 
ATOM     19  H   LIG d   1      -1.752  80.091 115.322  0.00  0.00    -0.090 HD
ATOM     20  H   LIG d   1      -1.163  80.613 116.744  0.00  0.00    -0.090 HD
ATOM     21  H   LIG d   1      -2.186  81.562 115.886  0.00  0.00    -0.090 HD
ENDBRANCH   5  18
BRANCH   3  22
ATOM     22  C   LIG d   1      -6.369  81.364 117.876  0.00  0.00     0.382 C 
ATOM     23  O   LIG d   1      -7.487  81.551 117.338  0.00  0.00    -0.241 OA
ATOM     24  O   LIG d   1      -6.062  82.010 118.895  0.00  0.00    -0.241 OA
ENDBRANCH   3  22
TORSDOF 7
ENDMDL
MODEL 6
REMARK VINA RESULT:      -4.5      2.948      4.341
REMARK  7 active torsions:
REMARK  status: ('A' for Active; 'I' for Inactive)
REMARK    1  A    between atoms: C_2  and  C_3 
REMARK    2  A    between atoms: C_3  and  O_6 
REMARK    3  A    between atoms: C_3  and  C_4 
REMARK    4  A    between atoms: C_7  and  O_6 
REMARK    5  A    between atoms: C_9  and  C_10 
REMARK    6  A    between atoms: N_15  and  C_14 
REMARK    7  A    between atoms: N_20  and  C_19 
REMARK       I    between atoms: C_22  and  N_20 
ROOT
ATOM      1  C   LIG d   1      -2.930  76.572 117.147  0.00  0.00     0.161 C 
ATOM      2  C   LIG d   1      -3.219  77.724 116.396  0.00  0.00     0.016 C 
ATOM      3  C   LIG d   1      -2.452  78.139 115.283  0.00  0.00     0.038 C 
ATOM      4  C   LIG d   1      -1.428  77.343 114.750  0.00  0.00     0.028 C 
ATOM      5  C   LIG d   1      -0.778  76.423 115.778  0.00  0.00    -0.047 C 
ATOM      6  C   LIG d   1      -1.884  75.632 116.513  0.00  0.00     0.091 C 
ENDROOT
BRANCH   1   7
ATOM      7  O   LIG d   1      -4.148  75.853 117.425  0.00  0.00    -0.368 OA
BRANCH   7   8
ATOM      8  C   LIG d   1      -5.277  76.156 116.569  0.00  0.00     0.119 C 
BRANCH   8   9
ATOM      9  C   LIG d   1      -6.524  76.266 117.468  0.00  0.00     0.028 C 
ATOM     10  C   LIG d   1      -7.514  75.111 117.242  0.00  0.00     0.006 C 
ENDBRANCH   8   9
BRANCH   8  11
ATOM     11  C   LIG d   1      -5.572  75.003 115.605  0.00  0.00     0.028 C 
ATOM     12  C   LIG d   1      -4.852  75.155 114.256  0.00  0.00     0.006 C 
ENDBRANCH   8  11
ENDBRANCH   7   8
ENDBRANCH   1   7
BRANCH   6  13
ATOM     13  N   LIG d   1      -1.341  74.769 117.594  0.00  0.00    -0.311 N 
ATOM     14  C   LIG d   1      -0.676  75.243 118.646  0.00  0.00     0.210 C 
ATOM     15  C   LIG d   1      -0.184  74.180 119.633  0.00  0.00     0.109 C 
ATOM     16  O   LIG d   1      -0.474  76.446 118.871  0.00  0.00    -0.276 OA
ATOM     17  H   LIG d   1      -1.487  73.782 117.507  0.00  0.00     0.149 HD
ENDBRANCH   6  13
BRANCH   5  18
ATOM     18  N   LIG d   1       0.174  75.554 115.060  0.00  0.00     0.381 N 
ATOM     19  H   LIG d   1       0.834  75.169 115.705  0.00  0.00    -0.090 HD
ATOM     20  H   LIG d   1       0.675  76.108 114.388  0.00  0.00    -0.090 HD
ATOM     21  H   LIG d   1      -0.316  74.820 114.597  0.00  0.00    -0.090 HD
ENDBRANCH   5  18
BRANCH   3  22
ATOM     22  C   LIG d   1      -2.682  79.384 114.716  0.00  0.00     0.382 C 
ATOM     23  O   LIG d   1      -1.990  79.766 113.742  0.00  0.00    -0.241 OA
ATOM     24  O   LIG d   1      -3.543  80.147 115.195  0.00  0.00    -0.241 OA
ENDBRANCH   3  22
TORSDOF 7
ENDMDL
MODEL 7
REMARK VINA RESULT:      -4.5      1.538      1.815
REMARK  7 active torsions:
REMARK  status: ('A' for Active; 'I' for Inactive)
REMARK    1  A    between atoms: C_2  and  C_3 
REMARK    2  A    between atoms: C_3  and  O_6 
REMARK    3  A    between atoms: C_3  and  C_4 
REMARK    4  A    between atoms: C_7  and  O_6 
REMARK    5  A    between atoms: C_9  and  C_10 
REMARK    6  A    between atoms: N_15  and  C_14 
REMARK    7  A    between atoms: N_20  and  C_19 
REMARK       I    between atoms: C_22  and  N_20 
ROOT
ATOM      1  C   LIG d   1      -2.585  80.645 115.062  0.00  0.00     0.161 C 
ATOM      2  C   LIG d   1      -2.265  81.959 114.682  0.00  0.00     0.016 C 
ATOM      3  C   LIG d   1      -1.577  82.278 113.489  0.00  0.00     0.038 C 
ATOM      4  C   LIG d   1      -1.293  81.310 112.515  0.00  0.00     0.028 C 
ATOM      5  C   LIG d   1      -1.148  79.902 113.085  0.00  0.00    -0.047 C 
ATOM      6  C   LIG d   1      -2.382  79.585 113.960  0.00  0.00     0.091 C 
ENDROOT
BRANCH   1   7
ATOM      7  O   LIG d   1      -3.937  80.596 115.561  0.00  0.00    -0.368 OA
BRANCH   7   8
ATOM      8  C   LIG d   1      -4.084  80.320 116.976  0.00  0.00     0.119 C 
BRANCH   8   9
ATOM      9  C   LIG d   1      -2.669  80.221 117.578  0.00  0.00     0.028 C 
ATOM     10  C   LIG d   1      -2.685  79.741 119.039  0.00  0.00     0.006 C 
ENDBRANCH   8   9
BRANCH   8  11
ATOM     11  C   LIG d   1      -4.722  78.948 117.213  0.00  0.00     0.028 C 
ATOM     12  C   LIG d   1      -6.180  79.043 117.691  0.00  0.00     0.006 C 
ENDBRANCH   8  11
ENDBRANCH   7   8
ENDBRANCH   1   7
BRANCH   6  13
ATOM     13  N   LIG d   1      -2.281  78.259 114.623  0.00  0.00    -0.311 N 
ATOM     14  C   LIG d   1      -2.798  77.143 114.114  0.00  0.00     0.210 C 
ATOM     15  C   LIG d   1      -2.598  75.888 114.969  0.00  0.00     0.109 C 
ATOM     16  O   LIG d   1      -3.376  77.067 113.019  0.00  0.00    -0.276 OA
ATOM     17  H   LIG d   1      -1.801  78.224 115.501  0.00  0.00     0.149 HD
ENDBRANCH   6  13
BRANCH   5  18
ATOM     18  N   LIG d   1      -0.991  78.975 111.948  0.00  0.00     0.381 N 
ATOM     19  H   LIG d   1      -0.112  79.137 111.498  0.00  0.00    -0.090 HD
ATOM     20  H   LIG d   1      -1.723  79.151 111.282  0.00  0.00    -0.090 HD
ATOM     21  H   LIG d   1      -1.041  78.033 112.267  0.00  0.00    -0.090 HD
ENDBRANCH   5  18
BRANCH   3  22
ATOM     22  C   LIG d   1      -1.130  83.574 113.280  0.00  0.00     0.382 C 
ATOM     23  O   LIG d   1      -0.458  83.847 112.256  0.00  0.00    -0.241 OA
ATOM     24  O   LIG d   1      -1.352  84.463 114.123  0.00  0.00    -0.241 OA
ENDBRANCH   3  22
TORSDOF 7
ENDMDL
MODEL 8
REMARK VINA RESULT:      -4.5      2.433      4.710
REMARK  7 active torsions:
REMARK  status: ('A' for Active; 'I' for Inactive)
REMARK    1  A    between atoms: C_2  and  C_3 
REMARK    2  A    between atoms: C_3  and  O_6 
REMARK    3  A    between atoms: C_3  and  C_4 
REMARK    4  A    between atoms: C_7  and  O_6 
REMARK    5  A    between atoms: C_9  and  C_10 
REMARK    6  A    between atoms: N_15  and  C_14 
REMARK    7  A    between atoms: N_20  and  C_19 
REMARK       I    between atoms: C_22  and  N_20 
ROOT
ATOM      1  C   LIG d   1      -2.256  78.079 115.302  0.00  0.00     0.161 C 
ATOM      2  C   LIG d   1      -2.217  78.808 114.101  0.00  0.00     0.016 C 
ATOM      3  C   LIG d   1      -2.507  80.189 114.019  0.00  0.00     0.038 C 
ATOM      4  C   LIG d   1      -2.711  80.973 115.164  0.00  0.00     0.028 C 
ATOM      5  C   LIG d   1      -3.257  80.184 116.349  0.00  0.00    -0.047 C 
ATOM      6  C   LIG d   1      -2.368  78.941 116.577  0.00  0.00     0.091 C 
ENDROOT
BRANCH   1   7
ATOM      7  O   LIG d   1      -1.110  77.209 115.384  0.00  0.00    -0.368 OA
BRANCH   7   8
ATOM      8  C   LIG d   1      -1.374  75.792 115.237  0.00  0.00     0.119 C 
BRANCH   8   9
ATOM      9  C   LIG d   1      -2.903  75.610 115.178  0.00  0.00     0.028 C 
ATOM     10  C   LIG d   1      -3.433  74.723 116.318  0.00  0.00     0.006 C 
ENDBRANCH   8   9
BRANCH   8  11
ATOM     11  C   LIG d   1      -0.919  75.010 116.472  0.00  0.00     0.028 C 
ATOM     12  C   LIG d   1      -0.007  75.832 117.396  0.00  0.00     0.006 C 
ENDBRANCH   8  11
ENDBRANCH   7   8
ENDBRANCH   1   7
BRANCH   6  13
ATOM     13  N   LIG d   1      -2.882  78.068 117.666  0.00  0.00    -0.311 N 
ATOM     14  C   LIG d   1      -2.449  78.133 118.923  0.00  0.00     0.210 C 
ATOM     15  C   LIG d   1      -3.097  77.130 119.883  0.00  0.00     0.109 C 
ATOM     16  O   LIG d   1      -1.613  78.948 119.342  0.00  0.00    -0.276 OA
ATOM     17  H   LIG d   1      -3.585  77.399 117.420  0.00  0.00     0.149 HD
ENDBRANCH   6  13
BRANCH   5  18
ATOM     18  N   LIG d   1      -3.291  81.092 117.512  0.00  0.00     0.381 N 
ATOM     19  H   LIG d   1      -2.566  80.846 118.155  0.00  0.00    -0.090 HD
ATOM     20  H   LIG d   1      -4.175  80.989 117.979  0.00  0.00    -0.090 HD
ATOM     21  H   LIG d   1      -3.174  82.035 117.212  0.00  0.00    -0.090 HD
ENDBRANCH   5  18
BRANCH   3  22
ATOM     22  C   LIG d   1      -2.635  80.792 112.777  0.00  0.00     0.382 C 
ATOM     23  O   LIG d   1      -3.687  81.408 112.485  0.00  0.00    -0.241 OA
ATOM     24  O   LIG d   1      -1.728  80.689 111.929  0.00  0.00    -0.241 OA
ENDBRANCH   3  22
TORSDOF 7
ENDMDL
MODEL 9
REMARK VINA RESULT:      -4.4      1.800      4.679
REMARK  7 active torsions:
REMARK  status: ('A' for Active; 'I' for Inactive)
REMARK    1  A    between atoms: C_2  and  C_3 
REMARK    2  A    between atoms: C_3  and  O_6 
REMARK    3  A    between atoms: C_3  and  C_4 
REMARK    4  A    between atoms: C_7  and  O_6 
REMARK    5  A    between atoms: C_9  and  C_10 
REMARK    6  A    between atoms: N_15  and  C_14 
REMARK    7  A    between atoms: N_20  and  C_19 
REMARK       I    between atoms: C_22  and  N_20 
ROOT
ATOM      1  C   LIG d   1      -2.594  79.175 115.540  0.00  0.00     0.161 C 
ATOM      2  C   LIG d   1      -3.247  77.938 115.409  0.00  0.00     0.016 C 
ATOM      3  C   LIG d   1      -3.139  77.119 114.262  0.00  0.00     0.038 C 
ATOM      4  C   LIG d   1      -2.244  77.413 113.222  0.00  0.00     0.028 C 
ATOM      5  C   LIG d   1      -1.945  78.902 113.084  0.00  0.00    -0.047 C 
ATOM      6  C   LIG d   1      -1.526  79.460 114.463  0.00  0.00     0.091 C 
ENDROOT
BRANCH   1   7
ATOM      7  O   LIG d   1      -2.020  79.288 116.857  0.00  0.00    -0.368 OA
BRANCH   7   8
ATOM      8  C   LIG d   1      -2.623  80.271 117.734  0.00  0.00     0.119 C 
BRANCH   8   9
ATOM      9  C   LIG d   1      -3.897  80.791 117.039  0.00  0.00     0.028 C 
ATOM     10  C   LIG d   1      -5.032  81.081 118.036  0.00  0.00     0.006 C 
ENDBRANCH   8   9
BRANCH   8  11
ATOM     11  C   LIG d   1      -1.722  81.498 117.900  0.00  0.00     0.028 C 
ATOM     12  C   LIG d   1      -1.586  81.944 119.364  0.00  0.00     0.006 C 
ENDBRANCH   8  11
ENDBRANCH   7   8
ENDBRANCH   1   7
BRANCH   6  13
ATOM     13  N   LIG d   1      -1.297  80.929 114.435  0.00  0.00    -0.311 N 
ATOM     14  C   LIG d   1      -2.200  81.803 113.995  0.00  0.00     0.210 C 
ATOM     15  C   LIG d   1      -1.753  83.268 114.033  0.00  0.00     0.109 C 
ATOM     16  O   LIG d   1      -3.340  81.508 113.606  0.00  0.00    -0.276 OA
ATOM     17  H   LIG d   1      -0.410  81.258 114.762  0.00  0.00     0.149 HD
ENDBRANCH   6  13
BRANCH   5  18
ATOM     18  N   LIG d   1      -0.897  79.053 112.057  0.00  0.00     0.381 N 
ATOM     19  H   LIG d   1      -0.275  78.269 112.090  0.00  0.00    -0.090 HD
ATOM     20  H   LIG d   1      -0.366  79.884 112.253  0.00  0.00    -0.090 HD
ATOM     21  H   LIG d   1      -1.311  79.120 111.154  0.00  0.00    -0.090 HD
ENDBRANCH   5  18
BRANCH   3  22
ATOM     22  C   LIG d   1      -3.961  76.011 114.129  0.00  0.00     0.382 C 
ATOM     23  O   LIG d   1      -3.615  74.910 114.621  0.00  0.00    -0.241 OA
ATOM     24  O   LIG d   1      -5.024  76.087 113.484  0.00  0.00    -0.241 OA
ENDBRANCH   3  22
TORSDOF 7
ENDMDL
