MODEL 1
REMARK VINA RESULT:      -5.5      0.000      0.000
REMARK  7 active torsions:
REMARK  status: ('A' for Active; 'I' for Inactive)
REMARK    1  A    between atoms: C_2  and  C_3 
REMARK    2  A    between atoms: C_3  and  O_6 
REMARK    3  A    between atoms: C_3  and  C_4 
REMARK    4  A    between atoms: C_7  and  O_6 
REMARK    5  A    between atoms: C_9  and  C_10 
REMARK    6  A    between atoms: N_15  and  C_14 
REMARK    7  A    between atoms: N_20  and  C_19 
REMARK       I    between atoms: C_22  and  N_20 
ROOT
ATOM      1  C   LIG d   1      -3.597  77.518 114.501  0.00  0.00     0.161 C 
ATOM      2  C   LIG d   1      -3.503  78.593 113.601  0.00  0.00     0.016 C 
ATOM      3  C   LIG d   1      -2.291  79.264 113.314  0.00  0.00     0.038 C 
ATOM      4  C   LIG d   1      -1.057  78.804 113.797  0.00  0.00     0.028 C 
ATOM      5  C   LIG d   1      -1.169  78.032 115.107  0.00  0.00    -0.047 C 
ATOM      6  C   LIG d   1      -2.243  76.932 114.952  0.00  0.00     0.091 C 
ENDROOT
BRANCH   1   7
ATOM      7  O   LIG d   1      -4.429  76.484 113.940  0.00  0.00    -0.368 OA
BRANCH   7   8
ATOM      8  C   LIG d   1      -5.605  76.126 114.707  0.00  0.00     0.119 C 
BRANCH   8   9
ATOM      9  C   LIG d   1      -5.551  74.607 114.957  0.00  0.00     0.028 C 
ATOM     10  C   LIG d   1      -6.398  74.180 116.168  0.00  0.00     0.006 C 
ENDBRANCH   8   9
BRANCH   8  11
ATOM     11  C   LIG d   1      -6.888  76.359 113.903  0.00  0.00     0.028 C 
ATOM     12  C   LIG d   1      -6.612  76.770 112.447  0.00  0.00     0.006 C 
ENDBRANCH   8  11
ENDBRANCH   7   8
ENDBRANCH   1   7
BRANCH   6  13
ATOM     13  N   LIG d   1      -2.475  76.184 116.215  0.00  0.00    -0.311 N 
ATOM     14  C   LIG d   1      -1.823  75.068 116.537  0.00  0.00     0.210 C 
ATOM     15  C   LIG d   1      -2.229  74.445 117.876  0.00  0.00     0.109 C 
ATOM     16  O   LIG d   1      -0.923  74.553 115.856  0.00  0.00    -0.276 OA
ATOM     17  H   LIG d   1      -3.166  76.549 116.841  0.00  0.00     0.149 HD
ENDBRANCH   6  13
BRANCH   5  18
ATOM     18  N   LIG d   1       0.168  77.495 115.423  0.00  0.00     0.381 N 
ATOM     19  H   LIG d   1       0.172  77.120 116.351  0.00  0.00    -0.090 HD
ATOM     20  H   LIG d   1       0.837  78.243 115.382  0.00  0.00    -0.090 HD
ATOM     21  H   LIG d   1       0.413  76.784 114.769  0.00  0.00    -0.090 HD
ENDBRANCH   5  18
BRANCH   3  22
ATOM     22  C   LIG d   1      -2.313  80.432 112.568  0.00  0.00     0.382 C 
ATOM     23  O   LIG d   1      -3.204  81.291 112.773  0.00  0.00    -0.241 OA
ATOM     24  O   LIG d   1      -1.479  80.618 111.662  0.00  0.00    -0.241 OA
ENDBRANCH   3  22
TORSDOF 7
ENDMDL
MODEL 2
REMARK VINA RESULT:      -5.4      1.520      2.278
REMARK  7 active torsions:
REMARK  status: ('A' for Active; 'I' for Inactive)
REMARK    1  A    between atoms: C_2  and  C_3 
REMARK    2  A    between atoms: C_3  and  O_6 
REMARK    3  A    between atoms: C_3  and  C_4 
REMARK    4  A    between atoms: C_7  and  O_6 
REMARK    5  A    between atoms: C_9  and  C_10 
REMARK    6  A    between atoms: N_15  and  C_14 
REMARK    7  A    between atoms: N_20  and  C_19 
REMARK       I    between atoms: C_22  and  N_20 
ROOT
ATOM      1  C   LIG d   1      -3.447  77.472 115.052  0.00  0.00     0.161 C 
ATOM      2  C   LIG d   1      -3.416  77.810 113.689  0.00  0.00     0.016 C 
ATOM      3  C   LIG d   1      -2.287  77.606 112.862  0.00  0.00     0.038 C 
ATOM      4  C   LIG d   1      -1.156  76.907 113.311  0.00  0.00     0.028 C 
ATOM      5  C   LIG d   1      -0.947  76.997 114.819  0.00  0.00    -0.047 C 
ATOM      6  C   LIG d   1      -2.263  76.608 115.532  0.00  0.00     0.091 C 
ENDROOT
BRANCH   1   7
ATOM      7  O   LIG d   1      -4.697  76.829 115.368  0.00  0.00    -0.368 OA
BRANCH   7   8
ATOM      8  C   LIG d   1      -5.223  75.929 114.361  0.00  0.00     0.119 C 
BRANCH   8   9
ATOM      9  C   LIG d   1      -6.710  76.279 114.158  0.00  0.00     0.028 C 
ATOM     10  C   LIG d   1      -7.041  76.605 112.692  0.00  0.00     0.006 C 
ENDBRANCH   8   9
BRANCH   8  11
ATOM     11  C   LIG d   1      -5.211  74.477 114.851  0.00  0.00     0.028 C 
ATOM     12  C   LIG d   1      -6.185  74.233 116.015  0.00  0.00     0.006 C 
ENDBRANCH   8  11
ENDBRANCH   7   8
ENDBRANCH   1   7
BRANCH   6  13
ATOM     13  N   LIG d   1      -2.170  76.750 117.008  0.00  0.00    -0.311 N 
ATOM     14  C   LIG d   1      -2.354  75.738 117.855  0.00  0.00     0.210 C 
ATOM     15  C   LIG d   1      -2.234  76.106 119.337  0.00  0.00     0.109 C 
ATOM     16  O   LIG d   1      -2.573  74.565 117.518  0.00  0.00    -0.276 OA
ATOM     17  H   LIG d   1      -1.966  77.662 117.367  0.00  0.00     0.149 HD
ENDBRANCH   6  13
BRANCH   5  18
ATOM     18  N   LIG d   1       0.182  76.113 115.166  0.00  0.00     0.381 N 
ATOM     19  H   LIG d   1       1.014  76.433 114.712  0.00  0.00    -0.090 HD
ATOM     20  H   LIG d   1      -0.019  75.185 114.838  0.00  0.00    -0.090 HD
ATOM     21  H   LIG d   1       0.316  76.103 116.153  0.00  0.00    -0.090 HD
ENDBRANCH   5  18
BRANCH   3  22
ATOM     22  C   LIG d   1      -2.267  78.139 111.583  0.00  0.00     0.382 C 
ATOM     23  O   LIG d   1      -1.860  79.312 111.399  0.00  0.00    -0.241 OA
ATOM     24  O   LIG d   1      -2.692  77.479 110.616  0.00  0.00    -0.241 OA
ENDBRANCH   3  22
TORSDOF 7
ENDMDL
MODEL 3
REMARK VINA RESULT:      -5.2      2.322      2.767
REMARK  7 active torsions:
REMARK  status: ('A' for Active; 'I' for Inactive)
REMARK    1  A    between atoms: C_2  and  C_3 
REMARK    2  A    between atoms: C_3  and  O_6 
REMARK    3  A    between atoms: C_3  and  C_4 
REMARK    4  A    between atoms: C_7  and  O_6 
REMARK    5  A    between atoms: C_9  and  C_10 
REMARK    6  A    between atoms: N_15  and  C_14 
REMARK    7  A    between atoms: N_20  and  C_19 
REMARK       I    between atoms: C_22  and  N_20 
ROOT
ATOM      1  C   LIG d   1      -3.145  78.475 115.400  0.00  0.00     0.161 C 
ATOM      2  C   LIG d   1      -3.192  79.486 114.426  0.00  0.00     0.016 C 
ATOM      3  C   LIG d   1      -2.415  79.465 113.245  0.00  0.00     0.038 C 
ATOM      4  C   LIG d   1      -1.646  78.349 112.883  0.00  0.00     0.028 C 
ATOM      5  C   LIG d   1      -1.178  77.523 114.077  0.00  0.00    -0.047 C 
ATOM      6  C   LIG d   1      -2.396  77.196 114.970  0.00  0.00     0.091 C 
ENDROOT
BRANCH   1   7
ATOM      7  O   LIG d   1      -4.482  78.151 115.832  0.00  0.00    -0.368 OA
BRANCH   7   8
ATOM      8  C   LIG d   1      -5.107  79.097 116.734  0.00  0.00     0.119 C 
BRANCH   8   9
ATOM      9  C   LIG d   1      -4.418  78.955 118.105  0.00  0.00     0.028 C 
ATOM     10  C   LIG d   1      -4.672  77.582 118.750  0.00  0.00     0.006 C 
ENDBRANCH   8   9
BRANCH   8  11
ATOM     11  C   LIG d   1      -6.577  78.744 116.980  0.00  0.00     0.028 C 
ATOM     12  C   LIG d   1      -7.368  79.898 117.616  0.00  0.00     0.006 C 
ENDBRANCH   8  11
ENDBRANCH   7   8
ENDBRANCH   1   7
BRANCH   6  13
ATOM     13  N   LIG d   1      -2.014  76.462 116.204  0.00  0.00    -0.311 N 
ATOM     14  C   LIG d   1      -2.671  75.396 116.657  0.00  0.00     0.210 C 
ATOM     15  C   LIG d   1      -2.122  74.802 117.958  0.00  0.00     0.109 C 
ATOM     16  O   LIG d   1      -3.637  74.866 116.087  0.00  0.00    -0.276 OA
ATOM     17  H   LIG d   1      -1.222  76.805 116.712  0.00  0.00     0.149 HD
ENDBRANCH   6  13
BRANCH   5  18
ATOM     18  N   LIG d   1      -0.507  76.319 113.550  0.00  0.00     0.381 N 
ATOM     19  H   LIG d   1       0.277  76.088 114.127  0.00  0.00    -0.090 HD
ATOM     20  H   LIG d   1      -0.171  76.513 112.624  0.00  0.00    -0.090 HD
ATOM     21  H   LIG d   1      -1.147  75.556 113.526  0.00  0.00    -0.090 HD
ENDBRANCH   5  18
BRANCH   3  22
ATOM     22  C   LIG d   1      -2.372  80.586 112.431  0.00  0.00     0.382 C 
ATOM     23  O   LIG d   1      -1.401  80.761 111.656  0.00  0.00    -0.241 OA
ATOM     24  O   LIG d   1      -3.270  81.447 112.494  0.00  0.00    -0.241 OA
ENDBRANCH   3  22
TORSDOF 7
ENDMDL
MODEL 4
REMARK VINA RESULT:      -5.2      1.755      2.098
REMARK  7 active torsions:
REMARK  status: ('A' for Active; 'I' for Inactive)
REMARK    1  A    between atoms: C_2  and  C_3 
REMARK    2  A    between atoms: C_3  and  O_6 
REMARK    3  A    between atoms: C_3  and  C_4 
REMARK    4  A    between atoms: C_7  and  O_6 
REMARK    5  A    between atoms: C_9  and  C_10 
REMARK    6  A    between atoms: N_15  and  C_14 
REMARK    7  A    between atoms: N_20  and  C_19 
REMARK       I    between atoms: C_22  and  N_20 
ROOT
ATOM      1  C   LIG d   1      -2.807  77.853 115.982  0.00  0.00     0.161 C 
ATOM      2  C   LIG d   1      -3.041  78.787 114.959  0.00  0.00     0.016 C 
ATOM      3  C   LIG d   1      -2.387  78.748 113.706  0.00  0.00     0.038 C 
ATOM      4  C   LIG d   1      -1.561  77.677 113.333  0.00  0.00     0.028 C 
ATOM      5  C   LIG d   1      -0.904  76.978 114.518  0.00  0.00    -0.047 C 
ATOM      6  C   LIG d   1      -1.993  76.614 115.553  0.00  0.00     0.091 C 
ENDROOT
BRANCH   1   7
ATOM      7  O   LIG d   1      -4.059  77.450 116.571  0.00  0.00    -0.368 OA
BRANCH   7   8
ATOM      8  C   LIG d   1      -5.232  77.589 115.732  0.00  0.00     0.119 C 
BRANCH   8   9
ATOM      9  C   LIG d   1      -6.355  78.188 116.600  0.00  0.00     0.028 C 
ATOM     10  C   LIG d   1      -5.932  79.501 117.281  0.00  0.00     0.006 C 
ENDBRANCH   8   9
BRANCH   8  11
ATOM     11  C   LIG d   1      -5.756  76.223 115.278  0.00  0.00     0.028 C 
ATOM     12  C   LIG d   1      -6.501  76.287 113.935  0.00  0.00     0.006 C 
ENDBRANCH   8  11
ENDBRANCH   7   8
ENDBRANCH   1   7
BRANCH   6  13
ATOM     13  N   LIG d   1      -1.425  76.002 116.783  0.00  0.00    -0.311 N 
ATOM     14  C   LIG d   1      -1.933  74.917 117.363  0.00  0.00     0.210 C 
ATOM     15  C   LIG d   1      -1.207  74.463 118.633  0.00  0.00     0.109 C 
ATOM     16  O   LIG d   1      -2.897  74.268 116.930  0.00  0.00    -0.276 OA
ATOM     17  H   LIG d   1      -0.622  76.446 117.184  0.00  0.00     0.149 HD
ENDBRANCH   6  13
BRANCH   5  18
ATOM     18  N   LIG d   1      -0.184  75.800 113.998  0.00  0.00     0.381 N 
ATOM     19  H   LIG d   1       0.338  75.370 114.735  0.00  0.00    -0.090 HD
ATOM     20  H   LIG d   1       0.461  76.101 113.288  0.00  0.00    -0.090 HD
ATOM     21  H   LIG d   1      -0.831  75.147 113.614  0.00  0.00    -0.090 HD
ENDBRANCH   5  18
BRANCH   3  22
ATOM     22  C   LIG d   1      -2.526  79.810 112.825  0.00  0.00     0.382 C 
ATOM     23  O   LIG d   1      -3.185  80.823 113.163  0.00  0.00    -0.241 OA
ATOM     24  O   LIG d   1      -2.038  79.750 111.680  0.00  0.00    -0.241 OA
ENDBRANCH   3  22
TORSDOF 7
ENDMDL
MODEL 5
REMARK VINA RESULT:      -5.1      1.023      1.825
REMARK  7 active torsions:
REMARK  status: ('A' for Active; 'I' for Inactive)
REMARK    1  A    between atoms: C_2  and  C_3 
REMARK    2  A    between atoms: C_3  and  O_6 
REMARK    3  A    between atoms: C_3  and  C_4 
REMARK    4  A    between atoms: C_7  and  O_6 
REMARK    5  A    between atoms: C_9  and  C_10 
REMARK    6  A    between atoms: N_15  and  C_14 
REMARK    7  A    between atoms: N_20  and  C_19 
REMARK       I    between atoms: C_22  and  N_20 
ROOT
ATOM      1  C   LIG d   1      -3.168  77.071 115.157  0.00  0.00     0.161 C 
ATOM      2  C   LIG d   1      -3.270  78.000 114.108  0.00  0.00     0.016 C 
ATOM      3  C   LIG d   1      -2.205  78.837 113.703  0.00  0.00     0.038 C 
ATOM      4  C   LIG d   1      -0.911  78.694 114.224  0.00  0.00     0.028 C 
ATOM      5  C   LIG d   1      -0.886  78.117 115.636  0.00  0.00    -0.047 C 
ATOM      6  C   LIG d   1      -1.731  76.823 115.663  0.00  0.00     0.091 C 
ENDROOT
BRANCH   1   7
ATOM      7  O   LIG d   1      -3.784  75.826 114.769  0.00  0.00    -0.368 OA
BRANCH   7   8
ATOM      8  C   LIG d   1      -4.873  75.367 115.607  0.00  0.00     0.119 C 
BRANCH   8   9
ATOM      9  C   LIG d   1      -6.070  75.065 114.685  0.00  0.00     0.028 C 
ATOM     10  C   LIG d   1      -6.545  76.309 113.915  0.00  0.00     0.006 C 
ENDBRANCH   8   9
BRANCH   8  11
ATOM     11  C   LIG d   1      -5.355  76.472 116.551  0.00  0.00     0.028 C 
ATOM     12  C   LIG d   1      -6.497  76.014 117.471  0.00  0.00     0.006 C 
ENDBRANCH   8  11
ENDBRANCH   7   8
ENDBRANCH   1   7
BRANCH   6  13
ATOM     13  N   LIG d   1      -1.830  76.239 117.026  0.00  0.00    -0.311 N 
ATOM     14  C   LIG d   1      -1.483  74.986 117.313  0.00  0.00     0.210 C 
ATOM     15  C   LIG d   1      -1.682  74.579 118.777  0.00  0.00     0.109 C 
ATOM     16  O   LIG d   1      -0.999  74.182 116.502  0.00  0.00    -0.276 OA
ATOM     17  H   LIG d   1      -2.183  76.832 117.752  0.00  0.00     0.149 HD
ENDBRANCH   6  13
BRANCH   5  18
ATOM     18  N   LIG d   1       0.525  77.894 116.002  0.00  0.00     0.381 N 
ATOM     19  H   LIG d   1       1.043  77.607 115.195  0.00  0.00    -0.090 HD
ATOM     20  H   LIG d   1       0.572  77.158 116.684  0.00  0.00    -0.090 HD
ATOM     21  H   LIG d   1       0.917  78.730 116.377  0.00  0.00    -0.090 HD
ENDBRANCH   5  18
BRANCH   3  22
ATOM     22  C   LIG d   1      -2.440  79.857 112.794  0.00  0.00     0.382 C 
ATOM     23  O   LIG d   1      -1.865  79.849 111.679  0.00  0.00    -0.241 OA
ATOM     24  O   LIG d   1      -3.186  80.809 113.092  0.00  0.00    -0.241 OA
ENDBRANCH   3  22
TORSDOF 7
ENDMDL
MODEL 6
REMARK VINA RESULT:      -4.9      3.243      3.937
REMARK  7 active torsions:
REMARK  status: ('A' for Active; 'I' for Inactive)
REMARK    1  A    between atoms: C_2  and  C_3 
REMARK    2  A    between atoms: C_3  and  O_6 
REMARK    3  A    between atoms: C_3  and  C_4 
REMARK    4  A    between atoms: C_7  and  O_6 
REMARK    5  A    between atoms: C_9  and  C_10 
REMARK    6  A    between atoms: N_15  and  C_14 
REMARK    7  A    between atoms: N_20  and  C_19 
REMARK       I    between atoms: C_22  and  N_20 
ROOT
ATOM      1  C   LIG d   1      -5.063  77.040 117.507  0.00  0.00     0.161 C 
ATOM      2  C   LIG d   1      -5.930  78.126 117.712  0.00  0.00     0.016 C 
ATOM      3  C   LIG d   1      -5.587  79.464 117.413  0.00  0.00     0.038 C 
ATOM      4  C   LIG d   1      -4.399  79.793 116.743  0.00  0.00     0.028 C 
ATOM      5  C   LIG d   1      -3.276  78.787 116.973  0.00  0.00    -0.047 C 
ATOM      6  C   LIG d   1      -3.805  77.366 116.674  0.00  0.00     0.091 C 
ENDROOT
BRANCH   1   7
ATOM      7  O   LIG d   1      -5.785  75.942 116.916  0.00  0.00    -0.368 OA
BRANCH   7   8
ATOM      8  C   LIG d   1      -6.690  76.282 115.837  0.00  0.00     0.119 C 
BRANCH   8   9
ATOM      9  C   LIG d   1      -8.060  75.658 116.168  0.00  0.00     0.028 C 
ATOM     10  C   LIG d   1      -7.987  74.674 117.348  0.00  0.00     0.006 C 
ENDBRANCH   8   9
BRANCH   8  11
ATOM     11  C   LIG d   1      -6.256  75.633 114.520  0.00  0.00     0.028 C 
ATOM     12  C   LIG d   1      -5.256  74.484 114.723  0.00  0.00     0.006 C 
ENDBRANCH   8  11
ENDBRANCH   7   8
ENDBRANCH   1   7
BRANCH   6  13
ATOM     13  N   LIG d   1      -2.795  76.313 116.955  0.00  0.00    -0.311 N 
ATOM     14  C   LIG d   1      -2.044  75.747 116.012  0.00  0.00     0.210 C 
ATOM     15  C   LIG d   1      -1.078  74.669 116.515  0.00  0.00     0.109 C 
ATOM     16  O   LIG d   1      -2.063  76.058 114.812  0.00  0.00    -0.276 OA
ATOM     17  H   LIG d   1      -2.691  76.023 117.908  0.00  0.00     0.149 HD
ENDBRANCH   6  13
BRANCH   5  18
ATOM     18  N   LIG d   1      -2.145  79.176 116.110  0.00  0.00     0.381 N 
ATOM     19  H   LIG d   1      -2.161  78.637 115.267  0.00  0.00    -0.090 HD
ATOM     20  H   LIG d   1      -1.285  78.981 116.592  0.00  0.00    -0.090 HD
ATOM     21  H   LIG d   1      -2.200  80.147 115.893  0.00  0.00    -0.090 HD
ENDBRANCH   5  18
BRANCH   3  22
ATOM     22  C   LIG d   1      -6.419  80.495 117.822  0.00  0.00     0.382 C 
ATOM     23  O   LIG d   1      -7.514  80.685 117.240  0.00  0.00    -0.241 OA
ATOM     24  O   LIG d   1      -6.068  81.266 118.735  0.00  0.00    -0.241 OA
ENDBRANCH   3  22
TORSDOF 7
ENDMDL
MODEL 7
REMARK VINA RESULT:      -4.8      2.206      4.871
REMARK  7 active torsions:
REMARK  status: ('A' for Active; 'I' for Inactive)
REMARK    1  A    between atoms: C_2  and  C_3 
REMARK    2  A    between atoms: C_3  and  O_6 
REMARK    3  A    between atoms: C_3  and  C_4 
REMARK    4  A    between atoms: C_7  and  O_6 
REMARK    5  A    between atoms: C_9  and  C_10 
REMARK    6  A    between atoms: N_15  and  C_14 
REMARK    7  A    between atoms: N_20  and  C_19 
REMARK       I    between atoms: C_22  and  N_20 
ROOT
ATOM      1  C   LIG d   1      -2.870  78.621 115.385  0.00  0.00     0.161 C 
ATOM      2  C   LIG d   1      -1.553  78.889 115.794  0.00  0.00     0.016 C 
ATOM      3  C   LIG d   1      -0.710  77.920 116.385  0.00  0.00     0.038 C 
ATOM      4  C   LIG d   1      -1.079  76.569 116.471  0.00  0.00     0.028 C 
ATOM      5  C   LIG d   1      -2.588  76.356 116.533  0.00  0.00    -0.047 C 
ATOM      6  C   LIG d   1      -3.251  77.126 115.368  0.00  0.00     0.091 C 
ENDROOT
BRANCH   1   7
ATOM      7  O   LIG d   1      -3.111  79.214 114.093  0.00  0.00    -0.368 OA
BRANCH   7   8
ATOM      8  C   LIG d   1      -2.222  78.800 113.027  0.00  0.00     0.119 C 
BRANCH   8   9
ATOM      9  C   LIG d   1      -1.785  80.070 112.270  0.00  0.00     0.028 C 
ATOM     10  C   LIG d   1      -0.313  80.432 112.534  0.00  0.00     0.006 C 
ENDBRANCH   8   9
BRANCH   8  11
ATOM     11  C   LIG d   1      -2.956  77.944 111.991  0.00  0.00     0.028 C 
ATOM     12  C   LIG d   1      -2.141  77.737 110.704  0.00  0.00     0.006 C 
ENDBRANCH   8  11
ENDBRANCH   7   8
ENDBRANCH   1   7
BRANCH   6  13
ATOM     13  N   LIG d   1      -4.735  77.040 115.404  0.00  0.00    -0.311 N 
ATOM     14  C   LIG d   1      -5.431  76.114 114.747  0.00  0.00     0.210 C 
ATOM     15  C   LIG d   1      -6.952  76.216 114.904  0.00  0.00     0.109 C 
ATOM     16  O   LIG d   1      -4.933  75.198 114.076  0.00  0.00    -0.276 OA
ATOM     17  H   LIG d   1      -5.219  77.725 115.951  0.00  0.00     0.149 HD
ENDBRANCH   6  13
BRANCH   5  18
ATOM     18  N   LIG d   1      -2.835  74.903 116.480  0.00  0.00     0.381 N 
ATOM     19  H   LIG d   1      -3.547  74.656 117.137  0.00  0.00    -0.090 HD
ATOM     20  H   LIG d   1      -1.991  74.420 116.733  0.00  0.00    -0.090 HD
ATOM     21  H   LIG d   1      -3.115  74.638 115.561  0.00  0.00    -0.090 HD
ENDBRANCH   5  18
BRANCH   3  22
ATOM     22  C   LIG d   1       0.502  78.308 116.936  0.00  0.00     0.382 C 
ATOM     23  O   LIG d   1       0.736  79.523 117.142  0.00  0.00    -0.241 OA
ATOM     24  O   LIG d   1       1.381  77.462 117.187  0.00  0.00    -0.241 OA
ENDBRANCH   3  22
TORSDOF 7
ENDMDL
MODEL 8
REMARK VINA RESULT:      -4.7      1.574      1.826
REMARK  7 active torsions:
REMARK  status: ('A' for Active; 'I' for Inactive)
REMARK    1  A    between atoms: C_2  and  C_3 
REMARK    2  A    between atoms: C_3  and  O_6 
REMARK    3  A    between atoms: C_3  and  C_4 
REMARK    4  A    between atoms: C_7  and  O_6 
REMARK    5  A    between atoms: C_9  and  C_10 
REMARK    6  A    between atoms: N_15  and  C_14 
REMARK    7  A    between atoms: N_20  and  C_19 
REMARK       I    between atoms: C_22  and  N_20 
ROOT
ATOM      1  C   LIG d   1      -3.421  76.655 115.555  0.00  0.00     0.161 C 
ATOM      2  C   LIG d   1      -3.459  77.702 114.619  0.00  0.00     0.016 C 
ATOM      3  C   LIG d   1      -2.364  78.049 113.795  0.00  0.00     0.038 C 
ATOM      4  C   LIG d   1      -1.199  77.270 113.744  0.00  0.00     0.028 C 
ATOM      5  C   LIG d   1      -0.924  76.505 115.034  0.00  0.00    -0.047 C 
ATOM      6  C   LIG d   1      -2.196  75.724 115.434  0.00  0.00     0.091 C 
ENDROOT
BRANCH   1   7
ATOM      7  O   LIG d   1      -4.641  75.890 115.482  0.00  0.00    -0.368 OA
BRANCH   7   8
ATOM      8  C   LIG d   1      -5.855  76.591 115.847  0.00  0.00     0.119 C 
BRANCH   8   9
ATOM      9  C   LIG d   1      -6.229  76.156 117.277  0.00  0.00     0.028 C 
ATOM     10  C   LIG d   1      -7.684  75.667 117.380  0.00  0.00     0.006 C 
ENDBRANCH   8   9
BRANCH   8  11
ATOM     11  C   LIG d   1      -7.034  76.157 114.970  0.00  0.00     0.028 C 
ATOM     12  C   LIG d   1      -6.766  76.358 113.470  0.00  0.00     0.006 C 
ENDBRANCH   8  11
ENDBRANCH   7   8
ENDBRANCH   1   7
BRANCH   6  13
ATOM     13  N   LIG d   1      -2.041  75.014 116.731  0.00  0.00    -0.311 N 
ATOM     14  C   LIG d   1      -1.794  75.637 117.882  0.00  0.00     0.210 C 
ATOM     15  C   LIG d   1      -1.650  74.715 119.097  0.00  0.00     0.109 C 
ATOM     16  O   LIG d   1      -1.711  76.867 118.018  0.00  0.00    -0.276 OA
ATOM     17  H   LIG d   1      -2.124  74.017 116.718  0.00  0.00     0.149 HD
ENDBRANCH   6  13
BRANCH   5  18
ATOM     18  N   LIG d   1       0.240  75.631 114.795  0.00  0.00     0.381 N 
ATOM     19  H   LIG d   1       0.560  75.743 113.853  0.00  0.00    -0.090 HD
ATOM     20  H   LIG d   1      -0.041  74.674 114.920  0.00  0.00    -0.090 HD
ATOM     21  H   LIG d   1       0.972  75.856 115.431  0.00  0.00    -0.090 HD
ENDBRANCH   5  18
BRANCH   3  22
ATOM     22  C   LIG d   1      -2.414  79.211 113.039  0.00  0.00     0.382 C 
ATOM     23  O   LIG d   1      -1.886  79.242 111.902  0.00  0.00    -0.241 OA
ATOM     24  O   LIG d   1      -2.941  80.241 113.499  0.00  0.00    -0.241 OA
ENDBRANCH   3  22
TORSDOF 7
ENDMDL
MODEL 9
REMARK VINA RESULT:      -4.5      2.280      5.127
REMARK  7 active torsions:
REMARK  status: ('A' for Active; 'I' for Inactive)
REMARK    1  A    between atoms: C_2  and  C_3 
REMARK    2  A    between atoms: C_3  and  O_6 
REMARK    3  A    between atoms: C_3  and  C_4 
REMARK    4  A    between atoms: C_7  and  O_6 
REMARK    5  A    between atoms: C_9  and  C_10 
REMARK    6  A    between atoms: N_15  and  C_14 
REMARK    7  A    between atoms: N_20  and  C_19 
REMARK       I    between atoms: C_22  and  N_20 
ROOT
ATOM      1  C   LIG d   1      -1.539  77.689 114.250  0.00  0.00     0.161 C 
ATOM      2  C   LIG d   1      -2.791  77.156 113.900  0.00  0.00     0.016 C 
ATOM      3  C   LIG d   1      -3.867  77.035 114.809  0.00  0.00     0.038 C 
ATOM      4  C   LIG d   1      -3.813  77.583 116.100  0.00  0.00     0.028 C 
ATOM      5  C   LIG d   1      -2.396  77.679 116.657  0.00  0.00    -0.047 C 
ATOM      6  C   LIG d   1      -1.497  78.393 115.623  0.00  0.00     0.091 C 
ENDROOT
BRANCH   1   7
ATOM      7  O   LIG d   1      -1.082  78.581 113.215  0.00  0.00    -0.368 OA
BRANCH   7   8
ATOM      8  C   LIG d   1      -2.093  79.066 112.299  0.00  0.00     0.119 C 
BRANCH   8   9
ATOM      9  C   LIG d   1      -1.602  78.772 110.868  0.00  0.00     0.028 C 
ATOM     10  C   LIG d   1      -1.705  77.280 110.508  0.00  0.00     0.006 C 
ENDBRANCH   8   9
BRANCH   8  11
ATOM     11  C   LIG d   1      -2.229  80.590 112.375  0.00  0.00     0.028 C 
ATOM     12  C   LIG d   1      -0.953  81.325 111.937  0.00  0.00     0.006 C 
ENDBRANCH   8  11
ENDBRANCH   7   8
ENDBRANCH   1   7
BRANCH   6  13
ATOM     13  N   LIG d   1      -0.076  78.454 116.053  0.00  0.00    -0.311 N 
ATOM     14  C   LIG d   1       0.452  79.495 116.694  0.00  0.00     0.210 C 
ATOM     15  C   LIG d   1       1.941  79.361 117.028  0.00  0.00     0.109 C 
ATOM     16  O   LIG d   1      -0.179  80.503 117.045  0.00  0.00    -0.276 OA
ATOM     17  H   LIG d   1       0.501  77.664 115.836  0.00  0.00     0.149 HD
ENDBRANCH   6  13
BRANCH   5  18
ATOM     18  N   LIG d   1      -2.472  78.391 117.947  0.00  0.00     0.381 N 
ATOM     19  H   LIG d   1      -2.221  77.772 118.691  0.00  0.00    -0.090 HD
ATOM     20  H   LIG d   1      -3.419  78.695 118.095  0.00  0.00    -0.090 HD
ATOM     21  H   LIG d   1      -1.861  79.178 117.938  0.00  0.00    -0.090 HD
ENDBRANCH   5  18
BRANCH   3  22
ATOM     22  C   LIG d   1      -5.001  76.326 114.443  0.00  0.00     0.382 C 
ATOM     23  O   LIG d   1      -6.115  76.900 114.405  0.00  0.00    -0.241 OA
ATOM     24  O   LIG d   1      -4.930  75.108 114.192  0.00  0.00    -0.241 OA
ENDBRANCH   3  22
TORSDOF 7
ENDMDL
