MODEL 1
REMARK VINA RESULT:      -5.7      0.000      0.000
REMARK  7 active torsions:
REMARK  status: ('A' for Active; 'I' for Inactive)
REMARK    1  A    between atoms: C_2  and  C_3 
REMARK    2  A    between atoms: C_3  and  O_6 
REMARK    3  A    between atoms: C_3  and  C_4 
REMARK    4  A    between atoms: C_7  and  O_6 
REMARK    5  A    between atoms: C_9  and  C_10 
REMARK    6  A    between atoms: N_15  and  C_14 
REMARK    7  A    between atoms: N_20  and  C_19 
REMARK       I    between atoms: C_22  and  N_20 
ROOT
ATOM      1  C   LIG d   1      -2.411  79.729 115.481  0.00  0.00     0.161 C 
ATOM      2  C   LIG d   1      -2.332  80.891 114.695  0.00  0.00     0.016 C 
ATOM      3  C   LIG d   1      -1.951  80.885 113.333  0.00  0.00     0.038 C 
ATOM      4  C   LIG d   1      -1.768  79.691 112.620  0.00  0.00     0.028 C 
ATOM      5  C   LIG d   1      -1.345  78.519 113.499  0.00  0.00    -0.047 C 
ATOM      6  C   LIG d   1      -2.322  78.407 114.691  0.00  0.00     0.091 C 
ENDROOT
BRANCH   1   7
ATOM      7  O   LIG d   1      -3.612  79.758 116.276  0.00  0.00    -0.368 OA
BRANCH   7   8
ATOM      8  C   LIG d   1      -3.517  80.444 117.549  0.00  0.00     0.119 C 
BRANCH   8   9
ATOM      9  C   LIG d   1      -2.178  80.038 118.195  0.00  0.00     0.028 C 
ATOM     10  C   LIG d   1      -2.008  80.620 119.608  0.00  0.00     0.006 C 
ENDBRANCH   8   9
BRANCH   8  11
ATOM     11  C   LIG d   1      -4.599  79.965 118.522  0.00  0.00     0.028 C 
ATOM     12  C   LIG d   1      -6.021  80.143 117.967  0.00  0.00     0.006 C 
ENDBRANCH   8  11
ENDBRANCH   7   8
ENDBRANCH   1   7
BRANCH   6  13
ATOM     13  N   LIG d   1      -1.931  77.338 115.646  0.00  0.00    -0.311 N 
ATOM     14  C   LIG d   1      -2.434  76.105 115.613  0.00  0.00     0.210 C 
ATOM     15  C   LIG d   1      -1.909  75.163 116.701  0.00  0.00     0.109 C 
ATOM     16  O   LIG d   1      -3.240  75.692 114.765  0.00  0.00    -0.276 OA
ATOM     17  H   LIG d   1      -1.258  77.577 116.348  0.00  0.00     0.149 HD
ENDBRANCH   6  13
BRANCH   5  18
ATOM     18  N   LIG d   1      -1.324  77.311 112.652  0.00  0.00     0.381 N 
ATOM     19  H   LIG d   1      -2.101  76.725 112.880  0.00  0.00    -0.090 HD
ATOM     20  H   LIG d   1      -0.478  76.800 112.836  0.00  0.00    -0.090 HD
ATOM     21  H   LIG d   1      -1.363  77.568 111.690  0.00  0.00    -0.090 HD
ENDBRANCH   5  18
BRANCH   3  22
ATOM     22  C   LIG d   1      -1.711  82.085 112.681  0.00  0.00     0.382 C 
ATOM     23  O   LIG d   1      -1.479  82.093 111.448  0.00  0.00    -0.241 OA
ATOM     24  O   LIG d   1      -1.680  83.155 113.318  0.00  0.00    -0.241 OA
ENDBRANCH   3  22
TORSDOF 7
ENDMDL
MODEL 2
REMARK VINA RESULT:      -5.6      1.442      1.984
REMARK  7 active torsions:
REMARK  status: ('A' for Active; 'I' for Inactive)
REMARK    1  A    between atoms: C_2  and  C_3 
REMARK    2  A    between atoms: C_3  and  O_6 
REMARK    3  A    between atoms: C_3  and  C_4 
REMARK    4  A    between atoms: C_7  and  O_6 
REMARK    5  A    between atoms: C_9  and  C_10 
REMARK    6  A    between atoms: N_15  and  C_14 
REMARK    7  A    between atoms: N_20  and  C_19 
REMARK       I    between atoms: C_22  and  N_20 
ROOT
ATOM      1  C   LIG d   1      -1.718  79.267 116.104  0.00  0.00     0.161 C 
ATOM      2  C   LIG d   1      -2.117  80.517 115.602  0.00  0.00     0.016 C 
ATOM      3  C   LIG d   1      -2.323  80.775 114.227  0.00  0.00     0.038 C 
ATOM      4  C   LIG d   1      -2.291  79.751 113.269  0.00  0.00     0.028 C 
ATOM      5  C   LIG d   1      -1.399  78.579 113.664  0.00  0.00    -0.047 C 
ATOM      6  C   LIG d   1      -1.786  78.110 115.085  0.00  0.00     0.091 C 
ENDROOT
BRANCH   1   7
ATOM      7  O   LIG d   1      -2.487  78.945 117.280  0.00  0.00    -0.368 OA
BRANCH   7   8
ATOM      8  C   LIG d   1      -3.830  78.453 117.048  0.00  0.00     0.119 C 
BRANCH   8   9
ATOM      9  C   LIG d   1      -4.807  79.450 117.700  0.00  0.00     0.028 C 
ATOM     10  C   LIG d   1      -4.196  80.159 118.920  0.00  0.00     0.006 C 
ENDBRANCH   8   9
BRANCH   8  11
ATOM     11  C   LIG d   1      -4.068  77.123 117.769  0.00  0.00     0.028 C 
ATOM     12  C   LIG d   1      -2.883  76.705 118.655  0.00  0.00     0.006 C 
ENDBRANCH   8  11
ENDBRANCH   7   8
ENDBRANCH   1   7
BRANCH   6  13
ATOM     13  N   LIG d   1      -0.906  77.021 115.582  0.00  0.00    -0.311 N 
ATOM     14  C   LIG d   1      -1.231  75.730 115.520  0.00  0.00     0.210 C 
ATOM     15  C   LIG d   1      -0.189  74.773 116.107  0.00  0.00     0.109 C 
ATOM     16  O   LIG d   1      -2.267  75.286 115.004  0.00  0.00    -0.276 OA
ATOM     17  H   LIG d   1      -0.032  77.290 115.988  0.00  0.00     0.149 HD
ENDBRANCH   6  13
BRANCH   5  18
ATOM     18  N   LIG d   1      -1.566  77.528 112.643  0.00  0.00     0.381 N 
ATOM     19  H   LIG d   1      -2.537  77.413 112.431  0.00  0.00    -0.090 HD
ATOM     20  H   LIG d   1      -1.219  76.659 113.010  0.00  0.00    -0.090 HD
ATOM     21  H   LIG d   1      -1.065  77.771 111.817  0.00  0.00    -0.090 HD
ENDBRANCH   5  18
BRANCH   3  22
ATOM     22  C   LIG d   1      -2.526  82.076 113.794  0.00  0.00     0.382 C 
ATOM     23  O   LIG d   1      -3.243  82.856 114.466  0.00  0.00    -0.241 OA
ATOM     24  O   LIG d   1      -2.036  82.467 112.718  0.00  0.00    -0.241 OA
ENDBRANCH   3  22
TORSDOF 7
ENDMDL
MODEL 3
REMARK VINA RESULT:      -5.2      1.732      2.067
REMARK  7 active torsions:
REMARK  status: ('A' for Active; 'I' for Inactive)
REMARK    1  A    between atoms: C_2  and  C_3 
REMARK    2  A    between atoms: C_3  and  O_6 
REMARK    3  A    between atoms: C_3  and  C_4 
REMARK    4  A    between atoms: C_7  and  O_6 
REMARK    5  A    between atoms: C_9  and  C_10 
REMARK    6  A    between atoms: N_15  and  C_14 
REMARK    7  A    between atoms: N_20  and  C_19 
REMARK       I    between atoms: C_22  and  N_20 
ROOT
ATOM      1  C   LIG d   1      -0.319  79.677 115.240  0.00  0.00     0.161 C 
ATOM      2  C   LIG d   1      -0.701  80.936 114.748  0.00  0.00     0.016 C 
ATOM      3  C   LIG d   1      -1.532  81.111 113.618  0.00  0.00     0.038 C 
ATOM      4  C   LIG d   1      -2.166  80.029 112.989  0.00  0.00     0.028 C 
ATOM      5  C   LIG d   1      -1.409  78.714 113.139  0.00  0.00    -0.047 C 
ATOM      6  C   LIG d   1      -1.090  78.486 114.635  0.00  0.00     0.091 C 
ENDROOT
BRANCH   1   7
ATOM      7  O   LIG d   1      -0.422  79.662 116.678  0.00  0.00    -0.368 OA
BRANCH   7   8
ATOM      8  C   LIG d   1      -1.046  80.821 117.284  0.00  0.00     0.119 C 
BRANCH   8   9
ATOM      9  C   LIG d   1      -0.084  81.353 118.363  0.00  0.00     0.028 C 
ATOM     10  C   LIG d   1       0.941  82.350 117.796  0.00  0.00     0.006 C 
ENDBRANCH   8   9
BRANCH   8  11
ATOM     11  C   LIG d   1      -2.325  80.437 118.034  0.00  0.00     0.028 C 
ATOM     12  C   LIG d   1      -3.550  80.341 117.112  0.00  0.00     0.006 C 
ENDBRANCH   8  11
ENDBRANCH   7   8
ENDBRANCH   1   7
BRANCH   6  13
ATOM     13  N   LIG d   1      -0.278  77.262 114.861  0.00  0.00    -0.311 N 
ATOM     14  C   LIG d   1      -0.808  76.058 115.067  0.00  0.00     0.210 C 
ATOM     15  C   LIG d   1       0.209  74.935 115.299  0.00  0.00     0.109 C 
ATOM     16  O   LIG d   1      -2.022  75.807 115.048  0.00  0.00    -0.276 OA
ATOM     17  H   LIG d   1       0.718  77.369 114.861  0.00  0.00     0.149 HD
ENDBRANCH   6  13
BRANCH   5  18
ATOM     18  N   LIG d   1      -2.248  77.648 112.558  0.00  0.00     0.381 N 
ATOM     19  H   LIG d   1      -1.764  76.774 112.604  0.00  0.00    -0.090 HD
ATOM     20  H   LIG d   1      -2.421  77.862 111.591  0.00  0.00    -0.090 HD
ATOM     21  H   LIG d   1      -3.110  77.585 113.052  0.00  0.00    -0.090 HD
ENDBRANCH   5  18
BRANCH   3  22
ATOM     22  C   LIG d   1      -1.705  82.378 113.081  0.00  0.00     0.382 C 
ATOM     23  O   LIG d   1      -1.960  83.348 113.834  0.00  0.00    -0.241 OA
ATOM     24  O   LIG d   1      -1.653  82.554 111.849  0.00  0.00    -0.241 OA
ENDBRANCH   3  22
TORSDOF 7
ENDMDL
MODEL 4
REMARK VINA RESULT:      -5.0      1.808      2.444
REMARK  7 active torsions:
REMARK  status: ('A' for Active; 'I' for Inactive)
REMARK    1  A    between atoms: C_2  and  C_3 
REMARK    2  A    between atoms: C_3  and  O_6 
REMARK    3  A    between atoms: C_3  and  C_4 
REMARK    4  A    between atoms: C_7  and  O_6 
REMARK    5  A    between atoms: C_9  and  C_10 
REMARK    6  A    between atoms: N_15  and  C_14 
REMARK    7  A    between atoms: N_20  and  C_19 
REMARK       I    between atoms: C_22  and  N_20 
ROOT
ATOM      1  C   LIG d   1      -3.266  79.611 116.832  0.00  0.00     0.161 C 
ATOM      2  C   LIG d   1      -3.203  80.951 116.414  0.00  0.00     0.016 C 
ATOM      3  C   LIG d   1      -2.358  81.403 115.374  0.00  0.00     0.038 C 
ATOM      4  C   LIG d   1      -1.625  80.513 114.575  0.00  0.00     0.028 C 
ATOM      5  C   LIG d   1      -1.271  79.211 115.286  0.00  0.00    -0.047 C 
ATOM      6  C   LIG d   1      -2.556  78.608 115.898  0.00  0.00     0.091 C 
ENDROOT
BRANCH   1   7
ATOM      7  O   LIG d   1      -4.641  79.225 117.029  0.00  0.00    -0.368 OA
BRANCH   7   8
ATOM      8  C   LIG d   1      -5.057  79.030 118.403  0.00  0.00     0.119 C 
BRANCH   8   9
ATOM      9  C   LIG d   1      -5.973  77.792 118.438  0.00  0.00     0.028 C 
ATOM     10  C   LIG d   1      -5.891  76.964 117.145  0.00  0.00     0.006 C 
ENDBRANCH   8   9
BRANCH   8  11
ATOM     11  C   LIG d   1      -5.927  80.192 118.891  0.00  0.00     0.028 C 
ATOM     12  C   LIG d   1      -7.059  80.542 117.911  0.00  0.00     0.006 C 
ENDBRANCH   8  11
ENDBRANCH   7   8
ENDBRANCH   1   7
BRANCH   6  13
ATOM     13  N   LIG d   1      -2.286  77.376 116.684  0.00  0.00    -0.311 N 
ATOM     14  C   LIG d   1      -2.370  76.148 116.174  0.00  0.00     0.210 C 
ATOM     15  C   LIG d   1      -2.070  75.016 117.161  0.00  0.00     0.109 C 
ATOM     16  O   LIG d   1      -2.634  75.891 114.990  0.00  0.00    -0.276 OA
ATOM     17  H   LIG d   1      -2.035  77.494 117.645  0.00  0.00     0.149 HD
ENDBRANCH   6  13
BRANCH   5  18
ATOM     18  N   LIG d   1      -0.630  78.324 114.297  0.00  0.00     0.381 N 
ATOM     19  H   LIG d   1      -1.235  77.554 114.090  0.00  0.00    -0.090 HD
ATOM     20  H   LIG d   1       0.220  77.960 114.690  0.00  0.00    -0.090 HD
ATOM     21  H   LIG d   1      -0.429  78.831 113.464  0.00  0.00    -0.090 HD
ENDBRANCH   5  18
BRANCH   3  22
ATOM     22  C   LIG d   1      -2.210  82.763 115.151  0.00  0.00     0.382 C 
ATOM     23  O   LIG d   1      -1.098  83.312 115.338  0.00  0.00    -0.241 OA
ATOM     24  O   LIG d   1      -3.187  83.457 114.809  0.00  0.00    -0.241 OA
ENDBRANCH   3  22
TORSDOF 7
ENDMDL
MODEL 5
REMARK VINA RESULT:      -4.8      2.190      2.819
REMARK  7 active torsions:
REMARK  status: ('A' for Active; 'I' for Inactive)
REMARK    1  A    between atoms: C_2  and  C_3 
REMARK    2  A    between atoms: C_3  and  O_6 
REMARK    3  A    between atoms: C_3  and  C_4 
REMARK    4  A    between atoms: C_7  and  O_6 
REMARK    5  A    between atoms: C_9  and  C_10 
REMARK    6  A    between atoms: N_15  and  C_14 
REMARK    7  A    between atoms: N_20  and  C_19 
REMARK       I    between atoms: C_22  and  N_20 
ROOT
ATOM      1  C   LIG d   1      -1.672  78.104 116.714  0.00  0.00     0.161 C 
ATOM      2  C   LIG d   1      -2.011  79.000 115.686  0.00  0.00     0.016 C 
ATOM      3  C   LIG d   1      -1.821  78.718 114.314  0.00  0.00     0.038 C 
ATOM      4  C   LIG d   1      -1.415  77.452 113.866  0.00  0.00     0.028 C 
ATOM      5  C   LIG d   1      -0.582  76.686 114.889  0.00  0.00    -0.047 C 
ATOM      6  C   LIG d   1      -1.332  76.676 116.240  0.00  0.00     0.091 C 
ENDROOT
BRANCH   1   7
ATOM      7  O   LIG d   1      -2.724  78.069 117.698  0.00  0.00    -0.368 OA
BRANCH   7   8
ATOM      8  C   LIG d   1      -4.078  78.160 117.188  0.00  0.00     0.119 C 
BRANCH   8   9
ATOM      9  C   LIG d   1      -4.815  79.227 118.020  0.00  0.00     0.028 C 
ATOM     10  C   LIG d   1      -3.850  80.116 118.822  0.00  0.00     0.006 C 
ENDBRANCH   8   9
BRANCH   8  11
ATOM     11  C   LIG d   1      -4.850  76.858 117.422  0.00  0.00     0.028 C 
ATOM     12  C   LIG d   1      -4.862  75.942 116.188  0.00  0.00     0.006 C 
ENDBRANCH   8  11
ENDBRANCH   7   8
ENDBRANCH   1   7
BRANCH   6  13
ATOM     13  N   LIG d   1      -0.548  76.019 117.318  0.00  0.00    -0.311 N 
ATOM     14  C   LIG d   1      -0.972  74.947 117.985  0.00  0.00     0.210 C 
ATOM     15  C   LIG d   1      -0.018  74.441 119.071  0.00  0.00     0.109 C 
ATOM     16  O   LIG d   1      -2.034  74.347 117.757  0.00  0.00    -0.276 OA
ATOM     17  H   LIG d   1       0.340  76.422 117.546  0.00  0.00     0.149 HD
ENDBRANCH   6  13
BRANCH   5  18
ATOM     18  N   LIG d   1      -0.345  75.334 114.348  0.00  0.00     0.381 N 
ATOM     19  H   LIG d   1       0.507  74.966 114.720  0.00  0.00    -0.090 HD
ATOM     20  H   LIG d   1      -0.254  75.395 113.349  0.00  0.00    -0.090 HD
ATOM     21  H   LIG d   1      -1.105  74.735 114.583  0.00  0.00    -0.090 HD
ENDBRANCH   5  18
BRANCH   3  22
ATOM     22  C   LIG d   1      -1.999  79.722 113.374  0.00  0.00     0.382 C 
ATOM     23  O   LIG d   1      -1.004  80.321 112.901  0.00  0.00    -0.241 OA
ATOM     24  O   LIG d   1      -3.145  80.068 113.028  0.00  0.00    -0.241 OA
ENDBRANCH   3  22
TORSDOF 7
ENDMDL
MODEL 6
REMARK VINA RESULT:      -4.7      2.746      5.515
REMARK  7 active torsions:
REMARK  status: ('A' for Active; 'I' for Inactive)
REMARK    1  A    between atoms: C_2  and  C_3 
REMARK    2  A    between atoms: C_3  and  O_6 
REMARK    3  A    between atoms: C_3  and  C_4 
REMARK    4  A    between atoms: C_7  and  O_6 
REMARK    5  A    between atoms: C_9  and  C_10 
REMARK    6  A    between atoms: N_15  and  C_14 
REMARK    7  A    between atoms: N_20  and  C_19 
REMARK       I    between atoms: C_22  and  N_20 
ROOT
ATOM      1  C   LIG d   1      -2.360  76.747 115.183  0.00  0.00     0.161 C 
ATOM      2  C   LIG d   1      -3.326  77.238 116.078  0.00  0.00     0.016 C 
ATOM      3  C   LIG d   1      -3.445  76.793 117.415  0.00  0.00     0.038 C 
ATOM      4  C   LIG d   1      -2.503  75.932 117.996  0.00  0.00     0.028 C 
ATOM      5  C   LIG d   1      -1.808  75.024 116.987  0.00  0.00    -0.047 C 
ATOM      6  C   LIG d   1      -1.254  75.889 115.832  0.00  0.00     0.091 C 
ENDROOT
BRANCH   1   7
ATOM      7  O   LIG d   1      -1.778  77.840 114.445  0.00  0.00    -0.368 OA
BRANCH   7   8
ATOM      8  C   LIG d   1      -1.967  79.161 115.008  0.00  0.00     0.119 C 
BRANCH   8   9
ATOM      9  C   LIG d   1      -2.328  80.111 113.849  0.00  0.00     0.028 C 
ATOM     10  C   LIG d   1      -2.404  79.383 112.496  0.00  0.00     0.006 C 
ENDBRANCH   8   9
BRANCH   8  11
ATOM     11  C   LIG d   1      -0.662  79.711 115.591  0.00  0.00     0.028 C 
ATOM     12  C   LIG d   1      -0.861  81.022 116.367  0.00  0.00     0.006 C 
ENDBRANCH   8  11
ENDBRANCH   7   8
ENDBRANCH   1   7
BRANCH   6  13
ATOM     13  N   LIG d   1      -0.632  75.070 114.759  0.00  0.00    -0.311 N 
ATOM     14  C   LIG d   1       0.672  75.084 114.489  0.00  0.00     0.210 C 
ATOM     15  C   LIG d   1       1.102  74.180 113.329  0.00  0.00     0.109 C 
ATOM     16  O   LIG d   1       1.518  75.735 115.120  0.00  0.00    -0.276 OA
ATOM     17  H   LIG d   1      -1.242  74.489 114.218  0.00  0.00     0.149 HD
ENDBRANCH   6  13
BRANCH   5  18
ATOM     18  N   LIG d   1      -0.758  74.279 117.707  0.00  0.00     0.381 N 
ATOM     19  H   LIG d   1      -1.062  73.341 117.874  0.00  0.00    -0.090 HD
ATOM     20  H   LIG d   1      -0.597  74.721 118.595  0.00  0.00    -0.090 HD
ATOM     21  H   LIG d   1       0.083  74.273 117.173  0.00  0.00    -0.090 HD
ENDBRANCH   5  18
BRANCH   3  22
ATOM     22  C   LIG d   1      -4.539  77.181 118.173  0.00  0.00     0.382 C 
ATOM     23  O   LIG d   1      -4.371  77.856 119.217  0.00  0.00    -0.241 OA
ATOM     24  O   LIG d   1      -5.689  76.827 117.850  0.00  0.00    -0.241 OA
ENDBRANCH   3  22
TORSDOF 7
ENDMDL
MODEL 7
REMARK VINA RESULT:      -4.6      2.540      3.626
REMARK  7 active torsions:
REMARK  status: ('A' for Active; 'I' for Inactive)
REMARK    1  A    between atoms: C_2  and  C_3 
REMARK    2  A    between atoms: C_3  and  O_6 
REMARK    3  A    between atoms: C_3  and  C_4 
REMARK    4  A    between atoms: C_7  and  O_6 
REMARK    5  A    between atoms: C_9  and  C_10 
REMARK    6  A    between atoms: N_15  and  C_14 
REMARK    7  A    between atoms: N_20  and  C_19 
REMARK       I    between atoms: C_22  and  N_20 
ROOT
ATOM      1  C   LIG d   1      -1.988  78.768 115.200  0.00  0.00     0.161 C 
ATOM      2  C   LIG d   1      -2.406  79.512 114.084  0.00  0.00     0.016 C 
ATOM      3  C   LIG d   1      -1.678  80.605 113.560  0.00  0.00     0.038 C 
ATOM      4  C   LIG d   1      -0.398  80.936 114.029  0.00  0.00     0.028 C 
ATOM      5  C   LIG d   1      -0.161  80.532 115.480  0.00  0.00    -0.047 C 
ATOM      6  C   LIG d   1      -0.539  79.044 115.655  0.00  0.00     0.091 C 
ENDROOT
BRANCH   1   7
ATOM      7  O   LIG d   1      -2.174  77.361 114.947  0.00  0.00    -0.368 OA
BRANCH   7   8
ATOM      8  C   LIG d   1      -3.136  76.684 115.792  0.00  0.00     0.119 C 
BRANCH   8   9
ATOM      9  C   LIG d   1      -3.702  77.726 116.776  0.00  0.00     0.028 C 
ATOM     10  C   LIG d   1      -3.655  77.241 118.235  0.00  0.00     0.006 C 
ENDBRANCH   8   9
BRANCH   8  11
ATOM     11  C   LIG d   1      -2.460  75.624 116.668  0.00  0.00     0.028 C 
ATOM     12  C   LIG d   1      -1.142  75.109 116.068  0.00  0.00     0.006 C 
ENDBRANCH   8  11
ENDBRANCH   7   8
ENDBRANCH   1   7
BRANCH   6  13
ATOM     13  N   LIG d   1      -0.417  78.590 117.065  0.00  0.00    -0.311 N 
ATOM     14  C   LIG d   1       0.655  77.960 117.542  0.00  0.00     0.210 C 
ATOM     15  C   LIG d   1       0.567  77.561 119.018  0.00  0.00     0.109 C 
ATOM     16  O   LIG d   1       1.684  77.723 116.891  0.00  0.00    -0.276 OA
ATOM     17  H   LIG d   1      -1.194  78.769 117.671  0.00  0.00     0.149 HD
ENDBRANCH   6  13
BRANCH   5  18
ATOM     18  N   LIG d   1       1.254  80.810 115.794  0.00  0.00     0.381 N 
ATOM     19  H   LIG d   1       1.700  79.974 116.116  0.00  0.00    -0.090 HD
ATOM     20  H   LIG d   1       1.295  81.492 116.531  0.00  0.00    -0.090 HD
ATOM     21  H   LIG d   1       1.722  81.154 114.985  0.00  0.00    -0.090 HD
ENDBRANCH   5  18
BRANCH   3  22
ATOM     22  C   LIG d   1      -2.249  81.406 112.583  0.00  0.00     0.382 C 
ATOM     23  O   LIG d   1      -1.554  81.812 111.620  0.00  0.00    -0.241 OA
ATOM     24  O   LIG d   1      -3.438  81.764 112.674  0.00  0.00    -0.241 OA
ENDBRANCH   3  22
TORSDOF 7
ENDMDL
MODEL 8
REMARK VINA RESULT:      -4.6      2.676      5.285
REMARK  7 active torsions:
REMARK  status: ('A' for Active; 'I' for Inactive)
REMARK    1  A    between atoms: C_2  and  C_3 
REMARK    2  A    between atoms: C_3  and  O_6 
REMARK    3  A    between atoms: C_3  and  C_4 
REMARK    4  A    between atoms: C_7  and  O_6 
REMARK    5  A    between atoms: C_9  and  C_10 
REMARK    6  A    between atoms: N_15  and  C_14 
REMARK    7  A    between atoms: N_20  and  C_19 
REMARK       I    between atoms: C_22  and  N_20 
ROOT
ATOM      1  C   LIG d   1      -1.929  80.289 115.040  0.00  0.00     0.161 C 
ATOM      2  C   LIG d   1      -2.325  78.953 115.219  0.00  0.00     0.016 C 
ATOM      3  C   LIG d   1      -2.260  77.979 114.197  0.00  0.00     0.038 C 
ATOM      4  C   LIG d   1      -1.649  78.240 112.961  0.00  0.00     0.028 C 
ATOM      5  C   LIG d   1      -1.693  79.711 112.562  0.00  0.00    -0.047 C 
ATOM      6  C   LIG d   1      -1.156  80.565 113.733  0.00  0.00     0.091 C 
ENDROOT
BRANCH   1   7
ATOM      7  O   LIG d   1      -1.161  80.728 116.178  0.00  0.00    -0.368 OA
BRANCH   7   8
ATOM      8  C   LIG d   1       0.244  80.376 116.173  0.00  0.00     0.119 C 
BRANCH   8   9
ATOM      9  C   LIG d   1       0.501  79.480 117.400  0.00  0.00     0.028 C 
ATOM     10  C   LIG d   1       0.767  78.015 117.011  0.00  0.00     0.006 C 
ENDBRANCH   8   9
BRANCH   8  11
ATOM     11  C   LIG d   1       1.128  81.609 116.379  0.00  0.00     0.028 C 
ATOM     12  C   LIG d   1       0.317  82.881 116.674  0.00  0.00     0.006 C 
ENDBRANCH   8  11
ENDBRANCH   7   8
ENDBRANCH   1   7
BRANCH   6  13
ATOM     13  N   LIG d   1      -1.244  82.023 113.458  0.00  0.00    -0.311 N 
ATOM     14  C   LIG d   1      -0.227  82.742 112.986  0.00  0.00     0.210 C 
ATOM     15  C   LIG d   1      -0.524  84.232 112.792  0.00  0.00     0.109 C 
ATOM     16  O   LIG d   1       0.883  82.281 112.678  0.00  0.00    -0.276 OA
ATOM     17  H   LIG d   1      -2.118  82.472 113.650  0.00  0.00     0.149 HD
ENDBRANCH   6  13
BRANCH   5  18
ATOM     18  N   LIG d   1      -0.903  79.861 111.326  0.00  0.00     0.381 N 
ATOM     19  H   LIG d   1      -1.463  79.620 110.534  0.00  0.00    -0.090 HD
ATOM     20  H   LIG d   1      -0.120  79.232 111.362  0.00  0.00    -0.090 HD
ATOM     21  H   LIG d   1      -0.580  80.800 111.240  0.00  0.00    -0.090 HD
ENDBRANCH   5  18
BRANCH   3  22
ATOM     22  C   LIG d   1      -2.847  76.738 114.392  0.00  0.00     0.382 C 
ATOM     23  O   LIG d   1      -2.265  75.872 115.089  0.00  0.00    -0.241 OA
ATOM     24  O   LIG d   1      -3.930  76.458 113.844  0.00  0.00    -0.241 OA
ENDBRANCH   3  22
TORSDOF 7
ENDMDL
MODEL 9
REMARK VINA RESULT:      -4.5      2.836      5.249
REMARK  7 active torsions:
REMARK  status: ('A' for Active; 'I' for Inactive)
REMARK    1  A    between atoms: C_2  and  C_3 
REMARK    2  A    between atoms: C_3  and  O_6 
REMARK    3  A    between atoms: C_3  and  C_4 
REMARK    4  A    between atoms: C_7  and  O_6 
REMARK    5  A    between atoms: C_9  and  C_10 
REMARK    6  A    between atoms: N_15  and  C_14 
REMARK    7  A    between atoms: N_20  and  C_19 
REMARK       I    between atoms: C_22  and  N_20 
ROOT
ATOM      1  C   LIG d   1      -0.833  80.895 114.749  0.00  0.00     0.161 C 
ATOM      2  C   LIG d   1      -1.582  79.748 115.060  0.00  0.00     0.016 C 
ATOM      3  C   LIG d   1      -1.934  78.766 114.105  0.00  0.00     0.038 C 
ATOM      4  C   LIG d   1      -1.428  78.789 112.797  0.00  0.00     0.028 C 
ATOM      5  C   LIG d   1      -1.083  80.191 112.305  0.00  0.00    -0.047 C 
ATOM      6  C   LIG d   1      -0.178  80.881 113.352  0.00  0.00     0.091 C 
ENDROOT
BRANCH   1   7
ATOM      7  O   LIG d   1       0.163  81.119 115.767  0.00  0.00    -0.368 OA
BRANCH   7   8
ATOM      8  C   LIG d   1      -0.240  81.953 116.881  0.00  0.00     0.119 C 
BRANCH   8   9
ATOM      9  C   LIG d   1       0.738  83.141 116.947  0.00  0.00     0.028 C 
ATOM     10  C   LIG d   1       0.330  84.291 116.011  0.00  0.00     0.006 C 
ENDBRANCH   8   9
BRANCH   8  11
ATOM     11  C   LIG d   1      -0.078  81.218 118.215  0.00  0.00     0.028 C 
ATOM     12  C   LIG d   1      -1.404  80.658 118.752  0.00  0.00     0.006 C 
ENDBRANCH   8  11
ENDBRANCH   7   8
ENDBRANCH   1   7
BRANCH   6  13
ATOM     13  N   LIG d   1       0.137  82.287 112.989  0.00  0.00    -0.311 N 
ATOM     14  C   LIG d   1       1.254  82.650 112.361  0.00  0.00     0.210 C 
ATOM     15  C   LIG d   1       1.391  84.153 112.100  0.00  0.00     0.109 C 
ATOM     16  O   LIG d   1       2.130  81.865 111.967  0.00  0.00    -0.276 OA
ATOM     17  H   LIG d   1      -0.534  82.986 113.243  0.00  0.00     0.149 HD
ENDBRANCH   6  13
BRANCH   5  18
ATOM     18  N   LIG d   1      -0.439  80.055 110.985  0.00  0.00     0.381 N 
ATOM     19  H   LIG d   1      -1.138  79.940 110.278  0.00  0.00    -0.090 HD
ATOM     20  H   LIG d   1       0.142  79.235 110.990  0.00  0.00    -0.090 HD
ATOM     21  H   LIG d   1       0.112  80.861 110.790  0.00  0.00    -0.090 HD
ENDBRANCH   5  18
BRANCH   3  22
ATOM     22  C   LIG d   1      -2.833  77.767 114.446  0.00  0.00     0.382 C 
ATOM     23  O   LIG d   1      -3.217  76.947 113.578  0.00  0.00    -0.241 OA
ATOM     24  O   LIG d   1      -3.300  77.704 115.599  0.00  0.00    -0.241 OA
ENDBRANCH   3  22
TORSDOF 7
ENDMDL
