MODEL 1
REMARK VINA RESULT:      -4.9      0.000      0.000
REMARK  7 active torsions:
REMARK  status: ('A' for Active; 'I' for Inactive)
REMARK    1  A    between atoms: C_2  and  C_3 
REMARK    2  A    between atoms: C_3  and  O_6 
REMARK    3  A    between atoms: C_3  and  C_4 
REMARK    4  A    between atoms: C_7  and  O_6 
REMARK    5  A    between atoms: C_9  and  C_10 
REMARK    6  A    between atoms: N_15  and  C_14 
REMARK    7  A    between atoms: N_20  and  C_19 
REMARK       I    between atoms: C_22  and  N_20 
ROOT
ATOM      1  C   LIG d   1      -2.797  78.473 115.053  0.00  0.00     0.161 C 
ATOM      2  C   LIG d   1      -2.899  79.684 114.348  0.00  0.00     0.016 C 
ATOM      3  C   LIG d   1      -2.479  79.841 113.007  0.00  0.00     0.038 C 
ATOM      4  C   LIG d   1      -2.064  78.751 112.227  0.00  0.00     0.028 C 
ATOM      5  C   LIG d   1      -1.469  77.611 113.047  0.00  0.00    -0.047 C 
ATOM      6  C   LIG d   1      -2.450  77.246 114.184  0.00  0.00     0.091 C 
ENDROOT
BRANCH   1   7
ATOM      7  O   LIG d   1      -4.010  78.235 115.794  0.00  0.00    -0.368 OA
BRANCH   7   8
ATOM      8  C   LIG d   1      -3.895  78.288 117.238  0.00  0.00     0.119 C 
BRANCH   8   9
ATOM      9  C   LIG d   1      -4.695  77.101 117.809  0.00  0.00     0.028 C 
ATOM     10  C   LIG d   1      -3.960  76.400 118.964  0.00  0.00     0.006 C 
ENDBRANCH   8   9
BRANCH   8  11
ATOM     11  C   LIG d   1      -4.569  79.541 117.805  0.00  0.00     0.028 C 
ATOM     12  C   LIG d   1      -6.096  79.525 117.635  0.00  0.00     0.006 C 
ENDBRANCH   8  11
ENDBRANCH   7   8
ENDBRANCH   1   7
BRANCH   6  13
ATOM     13  N   LIG d   1      -1.907  76.196 115.086  0.00  0.00    -0.311 N 
ATOM     14  C   LIG d   1      -2.605  75.129 115.472  0.00  0.00     0.210 C 
ATOM     15  C   LIG d   1      -1.864  74.180 116.419  0.00  0.00     0.109 C 
ATOM     16  O   LIG d   1      -3.756  74.863 115.096  0.00  0.00    -0.276 OA
ATOM     17  H   LIG d   1      -0.969  76.317 115.414  0.00  0.00     0.149 HD
ENDBRANCH   6  13
BRANCH   5  18
ATOM     18  N   LIG d   1      -1.207  76.489 112.126  0.00  0.00     0.381 N 
ATOM     19  H   LIG d   1      -0.829  75.715 112.635  0.00  0.00    -0.090 HD
ATOM     20  H   LIG d   1      -0.529  76.780 111.444  0.00  0.00    -0.090 HD
ATOM     21  H   LIG d   1      -2.051  76.217 111.672  0.00  0.00    -0.090 HD
ENDBRANCH   5  18
BRANCH   3  22
ATOM     22  C   LIG d   1      -2.434  81.108 112.445  0.00  0.00     0.382 C 
ATOM     23  O   LIG d   1      -1.526  81.400 111.629  0.00  0.00    -0.241 OA
ATOM     24  O   LIG d   1      -3.263  81.976 112.777  0.00  0.00    -0.241 OA
ENDBRANCH   3  22
TORSDOF 7
ENDMDL
MODEL 2
REMARK VINA RESULT:      -4.8      0.692      1.563
REMARK  7 active torsions:
REMARK  status: ('A' for Active; 'I' for Inactive)
REMARK    1  A    between atoms: C_2  and  C_3 
REMARK    2  A    between atoms: C_3  and  O_6 
REMARK    3  A    between atoms: C_3  and  C_4 
REMARK    4  A    between atoms: C_7  and  O_6 
REMARK    5  A    between atoms: C_9  and  C_10 
REMARK    6  A    between atoms: N_15  and  C_14 
REMARK    7  A    between atoms: N_20  and  C_19 
REMARK       I    between atoms: C_22  and  N_20 
ROOT
ATOM      1  C   LIG d   1      -3.017  78.402 115.318  0.00  0.00     0.161 C 
ATOM      2  C   LIG d   1      -3.072  79.550 114.512  0.00  0.00     0.016 C 
ATOM      3  C   LIG d   1      -2.498  79.624 113.222  0.00  0.00     0.038 C 
ATOM      4  C   LIG d   1      -1.956  78.496 112.586  0.00  0.00     0.028 C 
ATOM      5  C   LIG d   1      -1.429  77.447 113.559  0.00  0.00    -0.047 C 
ATOM      6  C   LIG d   1      -2.528  77.128 114.597  0.00  0.00     0.091 C 
ENDROOT
BRANCH   1   7
ATOM      7  O   LIG d   1      -4.303  78.170 115.927  0.00  0.00    -0.368 OA
BRANCH   7   8
ATOM      8  C   LIG d   1      -4.378  78.383 117.358  0.00  0.00     0.119 C 
BRANCH   8   9
ATOM      9  C   LIG d   1      -5.223  79.650 117.594  0.00  0.00     0.028 C 
ATOM     10  C   LIG d   1      -6.722  79.338 117.738  0.00  0.00     0.006 C 
ENDBRANCH   8   9
BRANCH   8  11
ATOM     11  C   LIG d   1      -3.000  78.699 117.948  0.00  0.00     0.028 C 
ATOM     12  C   LIG d   1      -2.535  77.651 118.971  0.00  0.00     0.006 C 
ENDBRANCH   8  11
ENDBRANCH   7   8
ENDBRANCH   1   7
BRANCH   6  13
ATOM     13  N   LIG d   1      -2.065  76.172 115.637  0.00  0.00    -0.311 N 
ATOM     14  C   LIG d   1      -2.662  75.006 115.879  0.00  0.00     0.210 C 
ATOM     15  C   LIG d   1      -2.036  74.181 117.008  0.00  0.00     0.109 C 
ATOM     16  O   LIG d   1      -3.631  74.563 115.245  0.00  0.00    -0.276 OA
ATOM     17  H   LIG d   1      -1.266  76.439 116.178  0.00  0.00     0.149 HD
ENDBRANCH   6  13
BRANCH   5  18
ATOM     18  N   LIG d   1      -1.021  76.271 112.768  0.00  0.00     0.381 N 
ATOM     19  H   LIG d   1      -0.851  76.542 111.820  0.00  0.00    -0.090 HD
ATOM     20  H   LIG d   1      -1.769  75.600 112.774  0.00  0.00    -0.090 HD
ATOM     21  H   LIG d   1      -0.198  75.866 113.158  0.00  0.00    -0.090 HD
ENDBRANCH   5  18
BRANCH   3  22
ATOM     22  C   LIG d   1      -2.425  80.845 112.570  0.00  0.00     0.382 C 
ATOM     23  O   LIG d   1      -1.496  81.069 111.758  0.00  0.00    -0.241 OA
ATOM     24  O   LIG d   1      -3.252  81.743 112.818  0.00  0.00    -0.241 OA
ENDBRANCH   3  22
TORSDOF 7
ENDMDL
MODEL 3
REMARK VINA RESULT:      -4.7      2.787      5.404
REMARK  7 active torsions:
REMARK  status: ('A' for Active; 'I' for Inactive)
REMARK    1  A    between atoms: C_2  and  C_3 
REMARK    2  A    between atoms: C_3  and  O_6 
REMARK    3  A    between atoms: C_3  and  C_4 
REMARK    4  A    between atoms: C_7  and  O_6 
REMARK    5  A    between atoms: C_9  and  C_10 
REMARK    6  A    between atoms: N_15  and  C_14 
REMARK    7  A    between atoms: N_20  and  C_19 
REMARK       I    between atoms: C_22  and  N_20 
ROOT
ATOM      1  C   LIG d   1      -1.748  75.100 115.387  0.00  0.00     0.161 C 
ATOM      2  C   LIG d   1      -1.334  74.775 116.690  0.00  0.00     0.016 C 
ATOM      3  C   LIG d   1      -0.700  75.695 117.557  0.00  0.00     0.038 C 
ATOM      4  C   LIG d   1      -0.573  77.053 117.231  0.00  0.00     0.028 C 
ATOM      5  C   LIG d   1      -0.521  77.314 115.730  0.00  0.00    -0.047 C 
ATOM      6  C   LIG d   1      -1.718  76.606 115.056  0.00  0.00     0.091 C 
ENDROOT
BRANCH   1   7
ATOM      7  O   LIG d   1      -3.062  74.559 115.144  0.00  0.00    -0.368 OA
BRANCH   7   8
ATOM      8  C   LIG d   1      -4.178  75.388 115.551  0.00  0.00     0.119 C 
BRANCH   8   9
ATOM      9  C   LIG d   1      -4.473  75.073 117.031  0.00  0.00     0.028 C 
ATOM     10  C   LIG d   1      -4.443  76.330 117.916  0.00  0.00     0.006 C 
ENDBRANCH   8   9
BRANCH   8  11
ATOM     11  C   LIG d   1      -5.456  75.014 114.794  0.00  0.00     0.028 C 
ATOM     12  C   LIG d   1      -6.428  74.180 115.643  0.00  0.00     0.006 C 
ENDBRANCH   8  11
ENDBRANCH   7   8
ENDBRANCH   1   7
BRANCH   6  13
ATOM     13  N   LIG d   1      -1.696  76.741 113.576  0.00  0.00    -0.311 N 
ATOM     14  C   LIG d   1      -2.605  77.431 112.889  0.00  0.00     0.210 C 
ATOM     15  C   LIG d   1      -2.408  77.425 111.370  0.00  0.00     0.109 C 
ATOM     16  O   LIG d   1      -3.536  78.074 113.396  0.00  0.00    -0.276 OA
ATOM     17  H   LIG d   1      -0.956  76.276 113.087  0.00  0.00     0.149 HD
ENDBRANCH   6  13
BRANCH   5  18
ATOM     18  N   LIG d   1      -0.527  78.776 115.531  0.00  0.00     0.381 N 
ATOM     19  H   LIG d   1       0.192  79.033 114.884  0.00  0.00    -0.090 HD
ATOM     20  H   LIG d   1      -0.335  79.224 116.410  0.00  0.00    -0.090 HD
ATOM     21  H   LIG d   1      -1.414  79.070 115.187  0.00  0.00    -0.090 HD
ENDBRANCH   5  18
BRANCH   3  22
ATOM     22  C   LIG d   1      -0.150  75.248 118.749  0.00  0.00     0.382 C 
ATOM     23  O   LIG d   1       1.085  75.350 118.946  0.00  0.00    -0.241 OA
ATOM     24  O   LIG d   1      -0.866  74.705 119.611  0.00  0.00    -0.241 OA
ENDBRANCH   3  22
TORSDOF 7
ENDMDL
MODEL 4
REMARK VINA RESULT:      -4.7      0.694      1.382
REMARK  7 active torsions:
REMARK  status: ('A' for Active; 'I' for Inactive)
REMARK    1  A    between atoms: C_2  and  C_3 
REMARK    2  A    between atoms: C_3  and  O_6 
REMARK    3  A    between atoms: C_3  and  C_4 
REMARK    4  A    between atoms: C_7  and  O_6 
REMARK    5  A    between atoms: C_9  and  C_10 
REMARK    6  A    between atoms: N_15  and  C_14 
REMARK    7  A    between atoms: N_20  and  C_19 
REMARK       I    between atoms: C_22  and  N_20 
ROOT
ATOM      1  C   LIG d   1      -2.919  78.503 115.115  0.00  0.00     0.161 C 
ATOM      2  C   LIG d   1      -2.983  79.722 114.419  0.00  0.00     0.016 C 
ATOM      3  C   LIG d   1      -2.497  79.892 113.102  0.00  0.00     0.038 C 
ATOM      4  C   LIG d   1      -2.049  78.809 112.331  0.00  0.00     0.028 C 
ATOM      5  C   LIG d   1      -1.499  77.658 113.166  0.00  0.00    -0.047 C 
ATOM      6  C   LIG d   1      -2.536  77.284 114.250  0.00  0.00     0.091 C 
ENDROOT
BRANCH   1   7
ATOM      7  O   LIG d   1      -4.168  78.262 115.794  0.00  0.00    -0.368 OA
BRANCH   7   8
ATOM      8  C   LIG d   1      -4.327  78.905 117.083  0.00  0.00     0.119 C 
BRANCH   8   9
ATOM      9  C   LIG d   1      -3.092  78.547 117.933  0.00  0.00     0.028 C 
ATOM     10  C   LIG d   1      -2.581  79.741 118.757  0.00  0.00     0.006 C 
ENDBRANCH   8   9
BRANCH   8  11
ATOM     11  C   LIG d   1      -5.524  78.332 117.847  0.00  0.00     0.028 C 
ATOM     12  C   LIG d   1      -5.543  76.796 117.861  0.00  0.00     0.006 C 
ENDBRANCH   8  11
ENDBRANCH   7   8
ENDBRANCH   1   7
BRANCH   6  13
ATOM     13  N   LIG d   1      -2.042  76.222 115.165  0.00  0.00    -0.311 N 
ATOM     14  C   LIG d   1      -2.778  75.177 115.541  0.00  0.00     0.210 C 
ATOM     15  C   LIG d   1      -2.083  74.210 116.504  0.00  0.00     0.109 C 
ATOM     16  O   LIG d   1      -3.929  74.943 115.142  0.00  0.00    -0.276 OA
ATOM     17  H   LIG d   1      -1.107  76.316 115.511  0.00  0.00     0.149 HD
ENDBRANCH   6  13
BRANCH   5  18
ATOM     18  N   LIG d   1      -1.197  76.544 112.246  0.00  0.00     0.381 N 
ATOM     19  H   LIG d   1      -1.550  76.754 111.334  0.00  0.00    -0.090 HD
ATOM     20  H   LIG d   1      -1.655  75.714 112.579  0.00  0.00    -0.090 HD
ATOM     21  H   LIG d   1      -0.213  76.395 112.204  0.00  0.00    -0.090 HD
ENDBRANCH   5  18
BRANCH   3  22
ATOM     22  C   LIG d   1      -2.420  81.165 112.557  0.00  0.00     0.382 C 
ATOM     23  O   LIG d   1      -3.244  82.045 112.902  0.00  0.00    -0.241 OA
ATOM     24  O   LIG d   1      -1.563  81.431 111.693  0.00  0.00    -0.241 OA
ENDBRANCH   3  22
TORSDOF 7
ENDMDL
MODEL 5
REMARK VINA RESULT:      -4.5      1.751      2.444
REMARK  7 active torsions:
REMARK  status: ('A' for Active; 'I' for Inactive)
REMARK    1  A    between atoms: C_2  and  C_3 
REMARK    2  A    between atoms: C_3  and  O_6 
REMARK    3  A    between atoms: C_3  and  C_4 
REMARK    4  A    between atoms: C_7  and  O_6 
REMARK    5  A    between atoms: C_9  and  C_10 
REMARK    6  A    between atoms: N_15  and  C_14 
REMARK    7  A    between atoms: N_20  and  C_19 
REMARK       I    between atoms: C_22  and  N_20 
ROOT
ATOM      1  C   LIG d   1      -2.427  78.045 116.533  0.00  0.00     0.161 C 
ATOM      2  C   LIG d   1      -2.807  78.896 115.482  0.00  0.00     0.016 C 
ATOM      3  C   LIG d   1      -2.469  78.660 114.129  0.00  0.00     0.038 C 
ATOM      4  C   LIG d   1      -1.852  77.470 113.715  0.00  0.00     0.028 C 
ATOM      5  C   LIG d   1      -1.004  76.818 114.801  0.00  0.00    -0.047 C 
ATOM      6  C   LIG d   1      -1.851  76.684 116.088  0.00  0.00     0.091 C 
ENDROOT
BRANCH   1   7
ATOM      7  O   LIG d   1      -3.539  77.848 117.428  0.00  0.00    -0.368 OA
BRANCH   7   8
ATOM      8  C   LIG d   1      -4.782  77.423 116.817  0.00  0.00     0.119 C 
BRANCH   8   9
ATOM      9  C   LIG d   1      -5.906  78.308 117.390  0.00  0.00     0.028 C 
ATOM     10  C   LIG d   1      -5.368  79.422 118.303  0.00  0.00     0.006 C 
ENDBRANCH   8   9
BRANCH   8  11
ATOM     11  C   LIG d   1      -5.144  75.992 117.228  0.00  0.00     0.028 C 
ATOM     12  C   LIG d   1      -5.373  75.066 116.023  0.00  0.00     0.006 C 
ENDBRANCH   8  11
ENDBRANCH   7   8
ENDBRANCH   1   7
BRANCH   6  13
ATOM     13  N   LIG d   1      -1.070  76.133 117.226  0.00  0.00    -0.311 N 
ATOM     14  C   LIG d   1      -1.339  74.961 117.800  0.00  0.00     0.210 C 
ATOM     15  C   LIG d   1      -0.424  74.590 118.971  0.00  0.00     0.109 C 
ATOM     16  O   LIG d   1      -2.228  74.180 117.430  0.00  0.00    -0.276 OA
ATOM     17  H   LIG d   1      -0.310  76.687 117.569  0.00  0.00     0.149 HD
ENDBRANCH   6  13
BRANCH   5  18
ATOM     18  N   LIG d   1      -0.534  75.520 114.281  0.00  0.00     0.381 N 
ATOM     19  H   LIG d   1       0.232  75.664 113.653  0.00  0.00    -0.090 HD
ATOM     20  H   LIG d   1      -1.282  75.084 113.772  0.00  0.00    -0.090 HD
ATOM     21  H   LIG d   1      -0.249  74.934 115.034  0.00  0.00    -0.090 HD
ENDBRANCH   5  18
BRANCH   3  22
ATOM     22  C   LIG d   1      -2.712  79.641 113.179  0.00  0.00     0.382 C 
ATOM     23  O   LIG d   1      -2.267  79.509 112.014  0.00  0.00    -0.241 OA
ATOM     24  O   LIG d   1      -3.333  80.676 113.485  0.00  0.00    -0.241 OA
ENDBRANCH   3  22
TORSDOF 7
ENDMDL
MODEL 6
REMARK VINA RESULT:      -4.5      2.661      5.048
REMARK  7 active torsions:
REMARK  status: ('A' for Active; 'I' for Inactive)
REMARK    1  A    between atoms: C_2  and  C_3 
REMARK    2  A    between atoms: C_3  and  O_6 
REMARK    3  A    between atoms: C_3  and  C_4 
REMARK    4  A    between atoms: C_7  and  O_6 
REMARK    5  A    between atoms: C_9  and  C_10 
REMARK    6  A    between atoms: N_15  and  C_14 
REMARK    7  A    between atoms: N_20  and  C_19 
REMARK       I    between atoms: C_22  and  N_20 
ROOT
ATOM      1  C   LIG d   1      -3.120  78.403 115.646  0.00  0.00     0.161 C 
ATOM      2  C   LIG d   1      -1.911  78.958 116.097  0.00  0.00     0.016 C 
ATOM      3  C   LIG d   1      -0.996  78.265 116.922  0.00  0.00     0.038 C 
ATOM      4  C   LIG d   1      -1.159  76.906 117.231  0.00  0.00     0.028 C 
ATOM      5  C   LIG d   1      -2.614  76.451 117.216  0.00  0.00    -0.047 C 
ATOM      6  C   LIG d   1      -3.262  76.884 115.881  0.00  0.00     0.091 C 
ENDROOT
BRANCH   1   7
ATOM      7  O   LIG d   1      -3.311  78.714 114.252  0.00  0.00    -0.368 OA
BRANCH   7   8
ATOM      8  C   LIG d   1      -2.205  78.398 113.371  0.00  0.00     0.119 C 
BRANCH   8   9
ATOM      9  C   LIG d   1      -1.916  79.651 112.523  0.00  0.00     0.028 C 
ATOM     10  C   LIG d   1      -2.863  80.817 112.855  0.00  0.00     0.006 C 
ENDBRANCH   8   9
BRANCH   8  11
ATOM     11  C   LIG d   1      -2.587  77.308 112.366  0.00  0.00     0.028 C 
ATOM     12  C   LIG d   1      -2.128  77.628 110.935  0.00  0.00     0.006 C 
ENDBRANCH   8  11
ENDBRANCH   7   8
ENDBRANCH   1   7
BRANCH   6  13
ATOM     13  N   LIG d   1      -4.709  76.553 115.819  0.00  0.00    -0.311 N 
ATOM     14  C   LIG d   1      -5.190  75.486 115.183  0.00  0.00     0.210 C 
ATOM     15  C   LIG d   1      -6.715  75.341 115.225  0.00  0.00     0.109 C 
ATOM     16  O   LIG d   1      -4.497  74.629 114.615  0.00  0.00    -0.276 OA
ATOM     17  H   LIG d   1      -5.341  77.178 116.280  0.00  0.00     0.149 HD
ENDBRANCH   6  13
BRANCH   5  18
ATOM     18  N   LIG d   1      -2.627  74.990 117.418  0.00  0.00     0.381 N 
ATOM     19  H   LIG d   1      -3.322  74.573 116.831  0.00  0.00    -0.090 HD
ATOM     20  H   LIG d   1      -2.864  74.796 118.375  0.00  0.00    -0.090 HD
ATOM     21  H   LIG d   1      -1.731  74.609 117.206  0.00  0.00    -0.090 HD
ENDBRANCH   5  18
BRANCH   3  22
ATOM     22  C   LIG d   1       0.076  78.943 117.481  0.00  0.00     0.382 C 
ATOM     23  O   LIG d   1       0.150  80.192 117.380  0.00  0.00    -0.241 OA
ATOM     24  O   LIG d   1       0.993  78.319 118.048  0.00  0.00    -0.241 OA
ENDBRANCH   3  22
TORSDOF 7
ENDMDL
MODEL 7
REMARK VINA RESULT:      -4.4      2.679      5.750
REMARK  7 active torsions:
REMARK  status: ('A' for Active; 'I' for Inactive)
REMARK    1  A    between atoms: C_2  and  C_3 
REMARK    2  A    between atoms: C_3  and  O_6 
REMARK    3  A    between atoms: C_3  and  C_4 
REMARK    4  A    between atoms: C_7  and  O_6 
REMARK    5  A    between atoms: C_9  and  C_10 
REMARK    6  A    between atoms: N_15  and  C_14 
REMARK    7  A    between atoms: N_20  and  C_19 
REMARK       I    between atoms: C_22  and  N_20 
ROOT
ATOM      1  C   LIG d   1      -1.230  78.124 114.799  0.00  0.00     0.161 C 
ATOM      2  C   LIG d   1      -2.320  77.375 114.327  0.00  0.00     0.016 C 
ATOM      3  C   LIG d   1      -3.294  76.799 115.174  0.00  0.00     0.038 C 
ATOM      4  C   LIG d   1      -3.327  77.062 116.552  0.00  0.00     0.028 C 
ATOM      5  C   LIG d   1      -1.960  77.397 117.138  0.00  0.00    -0.047 C 
ATOM      6  C   LIG d   1      -1.311  78.515 116.290  0.00  0.00     0.091 C 
ENDROOT
BRANCH   1   7
ATOM      7  O   LIG d   1      -1.052  79.298 113.983  0.00  0.00    -0.368 OA
BRANCH   7   8
ATOM      8  C   LIG d   1      -1.923  79.410 112.830  0.00  0.00     0.119 C 
BRANCH   8   9
ATOM      9  C   LIG d   1      -1.035  79.342 111.572  0.00  0.00     0.028 C 
ATOM     10  C   LIG d   1      -1.432  78.189 110.635  0.00  0.00     0.006 C 
ENDBRANCH   8   9
BRANCH   8  11
ATOM     11  C   LIG d   1      -2.601  80.782 112.774  0.00  0.00     0.028 C 
ATOM     12  C   LIG d   1      -1.652  81.897 112.304  0.00  0.00     0.006 C 
ENDBRANCH   8  11
ENDBRANCH   7   8
ENDBRANCH   1   7
BRANCH   6  13
ATOM     13  N   LIG d   1       0.066  78.843 116.744  0.00  0.00    -0.311 N 
ATOM     14  C   LIG d   1       0.345  79.853 117.567  0.00  0.00     0.210 C 
ATOM     15  C   LIG d   1       1.831  80.030 117.893  0.00  0.00     0.109 C 
ATOM     16  O   LIG d   1      -0.501  80.599 118.084  0.00  0.00    -0.276 OA
ATOM     17  H   LIG d   1       0.810  78.270 116.398  0.00  0.00     0.149 HD
ENDBRANCH   6  13
BRANCH   5  18
ATOM     18  N   LIG d   1      -2.161  77.783 118.547  0.00  0.00     0.381 N 
ATOM     19  H   LIG d   1      -1.312  78.159 118.919  0.00  0.00    -0.090 HD
ATOM     20  H   LIG d   1      -2.402  76.964 119.077  0.00  0.00    -0.090 HD
ATOM     21  H   LIG d   1      -2.890  78.458 118.615  0.00  0.00    -0.090 HD
ENDBRANCH   5  18
BRANCH   3  22
ATOM     22  C   LIG d   1      -4.227  75.917 114.650  0.00  0.00     0.382 C 
ATOM     23  O   LIG d   1      -5.120  76.337 113.875  0.00  0.00    -0.241 OA
ATOM     24  O   LIG d   1      -4.213  74.715 114.976  0.00  0.00    -0.241 OA
ENDBRANCH   3  22
TORSDOF 7
ENDMDL
MODEL 8
REMARK VINA RESULT:      -4.3      2.670      4.853
REMARK  7 active torsions:
REMARK  status: ('A' for Active; 'I' for Inactive)
REMARK    1  A    between atoms: C_2  and  C_3 
REMARK    2  A    between atoms: C_3  and  O_6 
REMARK    3  A    between atoms: C_3  and  C_4 
REMARK    4  A    between atoms: C_7  and  O_6 
REMARK    5  A    between atoms: C_9  and  C_10 
REMARK    6  A    between atoms: N_15  and  C_14 
REMARK    7  A    between atoms: N_20  and  C_19 
REMARK       I    between atoms: C_22  and  N_20 
ROOT
ATOM      1  C   LIG d   1      -3.340  76.302 115.057  0.00  0.00     0.161 C 
ATOM      2  C   LIG d   1      -2.929  75.756 116.285  0.00  0.00     0.016 C 
ATOM      3  C   LIG d   1      -1.828  76.244 117.024  0.00  0.00     0.038 C 
ATOM      4  C   LIG d   1      -1.149  77.416 116.657  0.00  0.00     0.028 C 
ATOM      5  C   LIG d   1      -1.208  77.706 115.161  0.00  0.00    -0.047 C 
ATOM      6  C   LIG d   1      -2.681  77.650 114.697  0.00  0.00     0.091 C 
ENDROOT
BRANCH   1   7
ATOM      7  O   LIG d   1      -4.776  76.424 115.033  0.00  0.00    -0.368 OA
BRANCH   7   8
ATOM      8  C   LIG d   1      -5.470  76.032 116.243  0.00  0.00     0.119 C 
BRANCH   8   9
ATOM      9  C   LIG d   1      -6.505  74.958 115.856  0.00  0.00     0.028 C 
ATOM     10  C   LIG d   1      -7.752  74.993 116.755  0.00  0.00     0.006 C 
ENDBRANCH   8   9
BRANCH   8  11
ATOM     11  C   LIG d   1      -6.286  77.193 116.818  0.00  0.00     0.028 C 
ATOM     12  C   LIG d   1      -5.405  78.319 117.381  0.00  0.00     0.006 C 
ENDBRANCH   8  11
ENDBRANCH   7   8
ENDBRANCH   1   7
BRANCH   6  13
ATOM     13  N   LIG d   1      -2.820  77.840 113.229  0.00  0.00    -0.311 N 
ATOM     14  C   LIG d   1      -2.207  77.073 112.329  0.00  0.00     0.210 C 
ATOM     15  C   LIG d   1      -2.470  77.453 110.869  0.00  0.00     0.109 C 
ATOM     16  O   LIG d   1      -1.495  76.095 112.601  0.00  0.00    -0.276 OA
ATOM     17  H   LIG d   1      -3.404  78.592 112.920  0.00  0.00     0.149 HD
ENDBRANCH   6  13
BRANCH   5  18
ATOM     18  N   LIG d   1      -0.581  79.023 114.938  0.00  0.00     0.381 N 
ATOM     19  H   LIG d   1      -0.376  79.454 115.818  0.00  0.00    -0.090 HD
ATOM     20  H   LIG d   1      -1.228  79.611 114.442  0.00  0.00    -0.090 HD
ATOM     21  H   LIG d   1       0.256  78.917 114.409  0.00  0.00    -0.090 HD
ENDBRANCH   5  18
BRANCH   3  22
ATOM     22  C   LIG d   1      -1.369  75.534 118.123  0.00  0.00     0.382 C 
ATOM     23  O   LIG d   1      -1.719  75.873 119.279  0.00  0.00    -0.241 OA
ATOM     24  O   LIG d   1      -0.574  74.586 117.976  0.00  0.00    -0.241 OA
ENDBRANCH   3  22
TORSDOF 7
ENDMDL
MODEL 9
REMARK VINA RESULT:      -4.3      3.145      5.654
REMARK  7 active torsions:
REMARK  status: ('A' for Active; 'I' for Inactive)
REMARK    1  A    between atoms: C_2  and  C_3 
REMARK    2  A    between atoms: C_3  and  O_6 
REMARK    3  A    between atoms: C_3  and  C_4 
REMARK    4  A    between atoms: C_7  and  O_6 
REMARK    5  A    between atoms: C_9  and  C_10 
REMARK    6  A    between atoms: N_15  and  C_14 
REMARK    7  A    between atoms: N_20  and  C_19 
REMARK       I    between atoms: C_22  and  N_20 
ROOT
ATOM      1  C   LIG d   1      -2.590  75.225 115.643  0.00  0.00     0.161 C 
ATOM      2  C   LIG d   1      -3.897  75.228 115.129  0.00  0.00     0.016 C 
ATOM      3  C   LIG d   1      -5.037  75.544 115.904  0.00  0.00     0.038 C 
ATOM      4  C   LIG d   1      -4.930  76.029 117.216  0.00  0.00     0.028 C 
ATOM      5  C   LIG d   1      -3.669  75.561 117.934  0.00  0.00    -0.047 C 
ATOM      6  C   LIG d   1      -2.443  75.860 117.042  0.00  0.00     0.091 C 
ENDROOT
BRANCH   1   7
ATOM      7  O   LIG d   1      -1.696  75.862 114.708  0.00  0.00    -0.368 OA
BRANCH   7   8
ATOM      8  C   LIG d   1      -2.275  76.900 113.879  0.00  0.00     0.119 C 
BRANCH   8   9
ATOM      9  C   LIG d   1      -1.711  76.723 112.456  0.00  0.00     0.028 C 
ATOM     10  C   LIG d   1      -2.525  77.494 111.402  0.00  0.00     0.006 C 
ENDBRANCH   8   9
BRANCH   8  11
ATOM     11  C   LIG d   1      -1.817  78.291 114.327  0.00  0.00     0.028 C 
ATOM     12  C   LIG d   1      -2.904  79.056 115.098  0.00  0.00     0.006 C 
ENDBRANCH   8  11
ENDBRANCH   7   8
ENDBRANCH   1   7
BRANCH   6  13
ATOM     13  N   LIG d   1      -1.176  75.357 117.633  0.00  0.00    -0.311 N 
ATOM     14  C   LIG d   1      -0.371  76.105 118.386  0.00  0.00     0.210 C 
ATOM     15  C   LIG d   1       0.895  75.397 118.879  0.00  0.00     0.109 C 
ATOM     16  O   LIG d   1      -0.601  77.277 118.719  0.00  0.00    -0.276 OA
ATOM     17  H   LIG d   1      -0.927  74.407 117.439  0.00  0.00     0.149 HD
ENDBRANCH   6  13
BRANCH   5  18
ATOM     18  N   LIG d   1      -3.617  76.250 119.238  0.00  0.00     0.381 N 
ATOM     19  H   LIG d   1      -3.207  75.648 119.923  0.00  0.00    -0.090 HD
ATOM     20  H   LIG d   1      -4.554  76.467 119.528  0.00  0.00    -0.090 HD
ATOM     21  H   LIG d   1      -3.084  77.088 119.160  0.00  0.00    -0.090 HD
ENDBRANCH   5  18
BRANCH   3  22
ATOM     22  C   LIG d   1      -6.304  75.337 115.379  0.00  0.00     0.382 C 
ATOM     23  O   LIG d   1      -6.986  74.354 115.756  0.00  0.00    -0.241 OA
ATOM     24  O   LIG d   1      -6.755  76.096 114.501  0.00  0.00    -0.241 OA
ENDBRANCH   3  22
TORSDOF 7
ENDMDL
