MODEL 1
REMARK VINA RESULT:      -4.7      0.000      0.000
REMARK  7 active torsions:
REMARK  status: ('A' for Active; 'I' for Inactive)
REMARK    1  A    between atoms: C_2  and  C_3 
REMARK    2  A    between atoms: C_3  and  O_6 
REMARK    3  A    between atoms: C_3  and  C_4 
REMARK    4  A    between atoms: C_7  and  O_6 
REMARK    5  A    between atoms: C_9  and  C_10 
REMARK    6  A    between atoms: N_15  and  C_14 
REMARK    7  A    between atoms: N_20  and  C_19 
REMARK       I    between atoms: C_22  and  N_20 
ROOT
ATOM      1  C   LIG d   1      -2.609  80.493 115.205  0.00  0.00     0.161 C 
ATOM      2  C   LIG d   1      -2.203  81.614 114.463  0.00  0.00     0.016 C 
ATOM      3  C   LIG d   1      -1.478  81.526 113.253  0.00  0.00     0.038 C 
ATOM      4  C   LIG d   1      -1.240  80.297 112.619  0.00  0.00     0.028 C 
ATOM      5  C   LIG d   1      -1.190  79.118 113.585  0.00  0.00    -0.047 C 
ATOM      6  C   LIG d   1      -2.455  79.143 114.473  0.00  0.00     0.091 C 
ENDROOT
BRANCH   1   7
ATOM      7  O   LIG d   1      -3.969  80.668 115.651  0.00  0.00    -0.368 OA
BRANCH   7   8
ATOM      8  C   LIG d   1      -4.157  80.812 117.081  0.00  0.00     0.119 C 
BRANCH   8   9
ATOM      9  C   LIG d   1      -5.536  80.219 117.428  0.00  0.00     0.028 C 
ATOM     10  C   LIG d   1      -6.663  81.261 117.336  0.00  0.00     0.006 C 
ENDBRANCH   8   9
BRANCH   8  11
ATOM     11  C   LIG d   1      -4.235  82.286 117.487  0.00  0.00     0.028 C 
ATOM     12  C   LIG d   1      -2.974  82.771 118.219  0.00  0.00     0.006 C 
ENDBRANCH   8  11
ENDBRANCH   7   8
ENDBRANCH   1   7
BRANCH   6  13
ATOM     13  N   LIG d   1      -2.447  78.071 115.503  0.00  0.00    -0.311 N 
ATOM     14  C   LIG d   1      -2.987  76.869 115.314  0.00  0.00     0.210 C 
ATOM     15  C   LIG d   1      -2.886  75.919 116.512  0.00  0.00     0.109 C 
ATOM     16  O   LIG d   1      -3.512  76.487 114.257  0.00  0.00    -0.276 OA
ATOM     17  H   LIG d   1      -2.013  78.285 116.380  0.00  0.00     0.149 HD
ENDBRANCH   6  13
BRANCH   5  18
ATOM     18  N   LIG d   1      -1.074  77.887 112.780  0.00  0.00     0.381 N 
ATOM     19  H   LIG d   1      -0.285  77.355 113.086  0.00  0.00    -0.090 HD
ATOM     20  H   LIG d   1      -0.929  78.140 111.818  0.00  0.00    -0.090 HD
ATOM     21  H   LIG d   1      -1.904  77.343 112.866  0.00  0.00    -0.090 HD
ENDBRANCH   5  18
BRANCH   3  22
ATOM     22  C   LIG d   1      -0.948  82.674 112.684  0.00  0.00     0.382 C 
ATOM     23  O   LIG d   1      -1.361  83.068 111.566  0.00  0.00    -0.241 OA
ATOM     24  O   LIG d   1      -0.031  83.296 113.252  0.00  0.00    -0.241 OA
ENDBRANCH   3  22
TORSDOF 7
ENDMDL
MODEL 2
REMARK VINA RESULT:      -4.6      0.763      1.159
REMARK  7 active torsions:
REMARK  status: ('A' for Active; 'I' for Inactive)
REMARK    1  A    between atoms: C_2  and  C_3 
REMARK    2  A    between atoms: C_3  and  O_6 
REMARK    3  A    between atoms: C_3  and  C_4 
REMARK    4  A    between atoms: C_7  and  O_6 
REMARK    5  A    between atoms: C_9  and  C_10 
REMARK    6  A    between atoms: N_15  and  C_14 
REMARK    7  A    between atoms: N_20  and  C_19 
REMARK       I    between atoms: C_22  and  N_20 
ROOT
ATOM      1  C   LIG d   1      -2.689  80.177 115.311  0.00  0.00     0.161 C 
ATOM      2  C   LIG d   1      -2.316  81.327 114.595  0.00  0.00     0.016 C 
ATOM      3  C   LIG d   1      -1.600  81.287 113.377  0.00  0.00     0.038 C 
ATOM      4  C   LIG d   1      -1.339  80.081 112.710  0.00  0.00     0.028 C 
ATOM      5  C   LIG d   1      -1.254  78.878 113.643  0.00  0.00    -0.047 C 
ATOM      6  C   LIG d   1      -2.511  78.851 114.543  0.00  0.00     0.091 C 
ENDROOT
BRANCH   1   7
ATOM      7  O   LIG d   1      -4.048  80.309 115.773  0.00  0.00    -0.368 OA
BRANCH   7   8
ATOM      8  C   LIG d   1      -4.215  80.684 117.163  0.00  0.00     0.119 C 
BRANCH   8   9
ATOM      9  C   LIG d   1      -4.661  79.425 117.931  0.00  0.00     0.028 C 
ATOM     10  C   LIG d   1      -5.739  78.628 117.177  0.00  0.00     0.006 C 
ENDBRANCH   8   9
BRANCH   8  11
ATOM     11  C   LIG d   1      -5.356  81.690 117.336  0.00  0.00     0.028 C 
ATOM     12  C   LIG d   1      -5.172  82.596 118.564  0.00  0.00     0.006 C 
ENDBRANCH   8  11
ENDBRANCH   7   8
ENDBRANCH   1   7
BRANCH   6  13
ATOM     13  N   LIG d   1      -2.467  77.754 115.544  0.00  0.00    -0.311 N 
ATOM     14  C   LIG d   1      -3.056  76.573 115.363  0.00  0.00     0.210 C 
ATOM     15  C   LIG d   1      -2.906  75.590 116.529  0.00  0.00     0.109 C 
ATOM     16  O   LIG d   1      -3.660  76.234 114.334  0.00  0.00    -0.276 OA
ATOM     17  H   LIG d   1      -1.971  77.932 116.395  0.00  0.00     0.149 HD
ENDBRANCH   6  13
BRANCH   5  18
ATOM     18  N   LIG d   1      -1.116  77.672 112.805  0.00  0.00     0.381 N 
ATOM     19  H   LIG d   1      -1.634  76.918 113.210  0.00  0.00    -0.090 HD
ATOM     20  H   LIG d   1      -0.147  77.408 112.772  0.00  0.00    -0.090 HD
ATOM     21  H   LIG d   1      -1.449  77.857 111.885  0.00  0.00    -0.090 HD
ENDBRANCH   5  18
BRANCH   3  22
ATOM     22  C   LIG d   1      -1.102  82.462 112.833  0.00  0.00     0.382 C 
ATOM     23  O   LIG d   1      -0.285  83.156 113.484  0.00  0.00    -0.241 OA
ATOM     24  O   LIG d   1      -1.494  82.858 111.719  0.00  0.00    -0.241 OA
ENDBRANCH   3  22
TORSDOF 7
ENDMDL
MODEL 3
REMARK VINA RESULT:      -4.5      1.070      1.685
REMARK  7 active torsions:
REMARK  status: ('A' for Active; 'I' for Inactive)
REMARK    1  A    between atoms: C_2  and  C_3 
REMARK    2  A    between atoms: C_3  and  O_6 
REMARK    3  A    between atoms: C_3  and  C_4 
REMARK    4  A    between atoms: C_7  and  O_6 
REMARK    5  A    between atoms: C_9  and  C_10 
REMARK    6  A    between atoms: N_15  and  C_14 
REMARK    7  A    between atoms: N_20  and  C_19 
REMARK       I    between atoms: C_22  and  N_20 
ROOT
ATOM      1  C   LIG d   1      -2.522  80.959 115.105  0.00  0.00     0.161 C 
ATOM      2  C   LIG d   1      -2.140  82.230 114.643  0.00  0.00     0.016 C 
ATOM      3  C   LIG d   1      -1.371  82.434 113.474  0.00  0.00     0.038 C 
ATOM      4  C   LIG d   1      -1.058  81.383 112.599  0.00  0.00     0.028 C 
ATOM      5  C   LIG d   1      -0.990  80.023 113.287  0.00  0.00    -0.047 C 
ATOM      6  C   LIG d   1      -2.284  79.809 114.104  0.00  0.00     0.091 C 
ENDROOT
BRANCH   1   7
ATOM      7  O   LIG d   1      -3.902  80.985 115.520  0.00  0.00    -0.368 OA
BRANCH   7   8
ATOM      8  C   LIG d   1      -4.139  80.902 116.947  0.00  0.00     0.119 C 
BRANCH   8   9
ATOM      9  C   LIG d   1      -4.330  82.339 117.469  0.00  0.00     0.028 C 
ATOM     10  C   LIG d   1      -3.157  82.805 118.348  0.00  0.00     0.006 C 
ENDBRANCH   8   9
BRANCH   8  11
ATOM     11  C   LIG d   1      -2.912  80.362 117.686  0.00  0.00     0.028 C 
ATOM     12  C   LIG d   1      -3.180  79.020 118.386  0.00  0.00     0.006 C 
ENDBRANCH   8  11
ENDBRANCH   7   8
ENDBRANCH   1   7
BRANCH   6  13
ATOM     13  N   LIG d   1      -2.264  78.539 114.876  0.00  0.00    -0.311 N 
ATOM     14  C   LIG d   1      -2.767  77.394 114.418  0.00  0.00     0.210 C 
ATOM     15  C   LIG d   1      -2.660  76.209 115.382  0.00  0.00     0.109 C 
ATOM     16  O   LIG d   1      -3.263  77.241 113.291  0.00  0.00    -0.276 OA
ATOM     17  H   LIG d   1      -1.852  78.566 115.788  0.00  0.00     0.149 HD
ENDBRANCH   6  13
BRANCH   5  18
ATOM     18  N   LIG d   1      -0.793  79.003 112.239  0.00  0.00     0.381 N 
ATOM     19  H   LIG d   1      -0.350  79.417 111.443  0.00  0.00    -0.090 HD
ATOM     20  H   LIG d   1      -1.690  78.653 111.953  0.00  0.00    -0.090 HD
ATOM     21  H   LIG d   1      -0.233  78.258 112.590  0.00  0.00    -0.090 HD
ENDBRANCH   5  18
BRANCH   3  22
ATOM     22  C   LIG d   1      -0.873  83.697 113.191  0.00  0.00     0.382 C 
ATOM     23  O   LIG d   1      -1.017  84.185 112.044  0.00  0.00    -0.241 OA
ATOM     24  O   LIG d   1      -0.242  84.335 114.055  0.00  0.00    -0.241 OA
ENDBRANCH   3  22
TORSDOF 7
ENDMDL
MODEL 4
REMARK VINA RESULT:      -4.5      2.713      6.026
REMARK  7 active torsions:
REMARK  status: ('A' for Active; 'I' for Inactive)
REMARK    1  A    between atoms: C_2  and  C_3 
REMARK    2  A    between atoms: C_3  and  O_6 
REMARK    3  A    between atoms: C_3  and  C_4 
REMARK    4  A    between atoms: C_7  and  O_6 
REMARK    5  A    between atoms: C_9  and  C_10 
REMARK    6  A    between atoms: N_15  and  C_14 
REMARK    7  A    between atoms: N_20  and  C_19 
REMARK       I    between atoms: C_22  and  N_20 
ROOT
ATOM      1  C   LIG d   1      -1.282  81.269 113.422  0.00  0.00     0.161 C 
ATOM      2  C   LIG d   1      -1.638  79.999 112.939  0.00  0.00     0.016 C 
ATOM      3  C   LIG d   1      -2.184  78.981 113.754  0.00  0.00     0.038 C 
ATOM      4  C   LIG d   1      -2.555  79.218 115.086  0.00  0.00     0.028 C 
ATOM      5  C   LIG d   1      -1.750  80.328 115.752  0.00  0.00    -0.047 C 
ATOM      6  C   LIG d   1      -1.782  81.582 114.848  0.00  0.00     0.091 C 
ENDROOT
BRANCH   1   7
ATOM      7  O   LIG d   1      -1.727  82.285 112.501  0.00  0.00    -0.368 OA
BRANCH   7   8
ATOM      8  C   LIG d   1      -0.688  82.974 111.763  0.00  0.00     0.119 C 
BRANCH   8   9
ATOM      9  C   LIG d   1       0.646  82.268 112.072  0.00  0.00     0.028 C 
ATOM     10  C   LIG d   1       1.280  81.637 110.821  0.00  0.00     0.006 C 
ENDBRANCH   8   9
BRANCH   8  11
ATOM     11  C   LIG d   1      -0.511  84.412 112.261  0.00  0.00     0.028 C 
ATOM     12  C   LIG d   1       0.843  84.641 112.951  0.00  0.00     0.006 C 
ENDBRANCH   8  11
ENDBRANCH   7   8
ENDBRANCH   1   7
BRANCH   6  13
ATOM     13  N   LIG d   1      -0.948  82.689 115.385  0.00  0.00    -0.311 N 
ATOM     14  C   LIG d   1      -1.411  83.616 116.222  0.00  0.00     0.210 C 
ATOM     15  C   LIG d   1      -0.389  84.679 116.638  0.00  0.00     0.109 C 
ATOM     16  O   LIG d   1      -2.561  83.639 116.686  0.00  0.00    -0.276 OA
ATOM     17  H   LIG d   1       0.006  82.728 115.085  0.00  0.00     0.149 HD
ENDBRANCH   6  13
BRANCH   5  18
ATOM     18  N   LIG d   1      -2.331  80.562 117.087  0.00  0.00     0.381 N 
ATOM     19  H   LIG d   1      -3.101  79.940 117.235  0.00  0.00    -0.090 HD
ATOM     20  H   LIG d   1      -2.675  81.505 117.131  0.00  0.00    -0.090 HD
ATOM     21  H   LIG d   1      -1.640  80.420 117.790  0.00  0.00    -0.090 HD
ENDBRANCH   5  18
BRANCH   3  22
ATOM     22  C   LIG d   1      -2.328  77.698 113.248  0.00  0.00     0.382 C 
ATOM     23  O   LIG d   1      -1.332  76.940 113.169  0.00  0.00    -0.241 OA
ATOM     24  O   LIG d   1      -3.433  77.305 112.828  0.00  0.00    -0.241 OA
ENDBRANCH   3  22
TORSDOF 7
ENDMDL
MODEL 5
REMARK VINA RESULT:      -4.5      1.921      5.090
REMARK  7 active torsions:
REMARK  status: ('A' for Active; 'I' for Inactive)
REMARK    1  A    between atoms: C_2  and  C_3 
REMARK    2  A    between atoms: C_3  and  O_6 
REMARK    3  A    between atoms: C_3  and  C_4 
REMARK    4  A    between atoms: C_7  and  O_6 
REMARK    5  A    between atoms: C_9  and  C_10 
REMARK    6  A    between atoms: N_15  and  C_14 
REMARK    7  A    between atoms: N_20  and  C_19 
REMARK       I    between atoms: C_22  and  N_20 
ROOT
ATOM      1  C   LIG d   1      -2.125  81.077 114.632  0.00  0.00     0.161 C 
ATOM      2  C   LIG d   1      -2.509  79.792 115.049  0.00  0.00     0.016 C 
ATOM      3  C   LIG d   1      -2.247  78.620 114.304  0.00  0.00     0.038 C 
ATOM      4  C   LIG d   1      -1.443  78.637 113.154  0.00  0.00     0.028 C 
ATOM      5  C   LIG d   1      -1.459  79.976 112.424  0.00  0.00    -0.047 C 
ATOM      6  C   LIG d   1      -1.150  81.103 113.436  0.00  0.00     0.091 C 
ENDROOT
BRANCH   1   7
ATOM      7  O   LIG d   1      -1.573  81.807 115.744  0.00  0.00    -0.368 OA
BRANCH   7   8
ATOM      8  C   LIG d   1      -2.210  83.071 116.057  0.00  0.00     0.119 C 
BRANCH   8   9
ATOM      9  C   LIG d   1      -1.948  83.366 117.546  0.00  0.00     0.028 C 
ATOM     10  C   LIG d   1      -0.823  84.394 117.752  0.00  0.00     0.006 C 
ENDBRANCH   8   9
BRANCH   8  11
ATOM     11  C   LIG d   1      -3.732  82.975 115.924  0.00  0.00     0.028 C 
ATOM     12  C   LIG d   1      -4.407  82.427 117.192  0.00  0.00     0.006 C 
ENDBRANCH   8  11
ENDBRANCH   7   8
ENDBRANCH   1   7
BRANCH   6  13
ATOM     13  N   LIG d   1      -1.229  82.454 112.821  0.00  0.00    -0.311 N 
ATOM     14  C   LIG d   1      -0.175  83.092 112.316  0.00  0.00     0.210 C 
ATOM     15  C   LIG d   1      -0.473  84.484 111.748  0.00  0.00     0.109 C 
ATOM     16  O   LIG d   1       0.972  82.625 112.255  0.00  0.00    -0.276 OA
ATOM     17  H   LIG d   1      -2.129  82.894 112.800  0.00  0.00     0.149 HD
ENDBRANCH   6  13
BRANCH   5  18
ATOM     18  N   LIG d   1      -0.475  79.898 111.328  0.00  0.00     0.381 N 
ATOM     19  H   LIG d   1       0.388  80.314 111.616  0.00  0.00    -0.090 HD
ATOM     20  H   LIG d   1      -0.825  80.413 110.539  0.00  0.00    -0.090 HD
ATOM     21  H   LIG d   1      -0.324  78.947 111.072  0.00  0.00    -0.090 HD
ENDBRANCH   5  18
BRANCH   3  22
ATOM     22  C   LIG d   1      -2.824  77.418 114.685  0.00  0.00     0.382 C 
ATOM     23  O   LIG d   1      -2.486  76.875 115.764  0.00  0.00    -0.241 OA
ATOM     24  O   LIG d   1      -3.647  76.849 113.943  0.00  0.00    -0.241 OA
ENDBRANCH   3  22
TORSDOF 7
ENDMDL
MODEL 6
REMARK VINA RESULT:      -4.4      1.807      2.635
REMARK  7 active torsions:
REMARK  status: ('A' for Active; 'I' for Inactive)
REMARK    1  A    between atoms: C_2  and  C_3 
REMARK    2  A    between atoms: C_3  and  O_6 
REMARK    3  A    between atoms: C_3  and  C_4 
REMARK    4  A    between atoms: C_7  and  O_6 
REMARK    5  A    between atoms: C_9  and  C_10 
REMARK    6  A    between atoms: N_15  and  C_14 
REMARK    7  A    between atoms: N_20  and  C_19 
REMARK       I    between atoms: C_22  and  N_20 
ROOT
ATOM      1  C   LIG d   1      -2.019  79.205 116.183  0.00  0.00     0.161 C 
ATOM      2  C   LIG d   1      -2.431  80.390 115.551  0.00  0.00     0.016 C 
ATOM      3  C   LIG d   1      -2.393  80.579 114.150  0.00  0.00     0.038 C 
ATOM      4  C   LIG d   1      -2.080  79.533 113.269  0.00  0.00     0.028 C 
ATOM      5  C   LIG d   1      -1.173  78.474 113.885  0.00  0.00    -0.047 C 
ATOM      6  C   LIG d   1      -1.779  78.015 115.231  0.00  0.00     0.091 C 
ENDROOT
BRANCH   1   7
ATOM      7  O   LIG d   1      -2.965  78.844 117.209  0.00  0.00    -0.368 OA
BRANCH   7   8
ATOM      8  C   LIG d   1      -4.349  78.745 116.793  0.00  0.00     0.119 C 
BRANCH   8   9
ATOM      9  C   LIG d   1      -5.205  79.459 117.858  0.00  0.00     0.028 C 
ATOM     10  C   LIG d   1      -5.849  80.750 117.325  0.00  0.00     0.006 C 
ENDBRANCH   8   9
BRANCH   8  11
ATOM     11  C   LIG d   1      -4.829  77.291 116.795  0.00  0.00     0.028 C 
ATOM     12  C   LIG d   1      -4.190  76.454 117.915  0.00  0.00     0.006 C 
ENDBRANCH   8  11
ENDBRANCH   7   8
ENDBRANCH   1   7
BRANCH   6  13
ATOM     13  N   LIG d   1      -0.911  77.039 115.941  0.00  0.00    -0.311 N 
ATOM     14  C   LIG d   1      -1.090  75.721 115.883  0.00  0.00     0.210 C 
ATOM     15  C   LIG d   1      -0.095  74.896 116.706  0.00  0.00     0.109 C 
ATOM     16  O   LIG d   1      -1.959  75.154 115.203  0.00  0.00    -0.276 OA
ATOM     17  H   LIG d   1      -0.162  77.411 116.491  0.00  0.00     0.149 HD
ENDBRANCH   6  13
BRANCH   5  18
ATOM     18  N   LIG d   1      -1.039  77.377 112.907  0.00  0.00     0.381 N 
ATOM     19  H   LIG d   1      -0.105  77.353 112.552  0.00  0.00    -0.090 HD
ATOM     20  H   LIG d   1      -1.664  77.549 112.139  0.00  0.00    -0.090 HD
ATOM     21  H   LIG d   1      -1.262  76.507 113.338  0.00  0.00    -0.090 HD
ENDBRANCH   5  18
BRANCH   3  22
ATOM     22  C   LIG d   1      -2.632  81.838 113.619  0.00  0.00     0.382 C 
ATOM     23  O   LIG d   1      -3.207  82.712 114.313  0.00  0.00    -0.241 OA
ATOM     24  O   LIG d   1      -2.320  82.096 112.442  0.00  0.00    -0.241 OA
ENDBRANCH   3  22
TORSDOF 7
ENDMDL
MODEL 7
REMARK VINA RESULT:      -4.1      2.407      3.960
REMARK  7 active torsions:
REMARK  status: ('A' for Active; 'I' for Inactive)
REMARK    1  A    between atoms: C_2  and  C_3 
REMARK    2  A    between atoms: C_3  and  O_6 
REMARK    3  A    between atoms: C_3  and  C_4 
REMARK    4  A    between atoms: C_7  and  O_6 
REMARK    5  A    between atoms: C_9  and  C_10 
REMARK    6  A    between atoms: N_15  and  C_14 
REMARK    7  A    between atoms: N_20  and  C_19 
REMARK       I    between atoms: C_22  and  N_20 
ROOT
ATOM      1  C   LIG d   1      -3.086  78.756 115.988  0.00  0.00     0.161 C 
ATOM      2  C   LIG d   1      -3.649  80.036 116.128  0.00  0.00     0.016 C 
ATOM      3  C   LIG d   1      -2.981  81.225 115.755  0.00  0.00     0.038 C 
ATOM      4  C   LIG d   1      -1.755  81.204 115.073  0.00  0.00     0.028 C 
ATOM      5  C   LIG d   1      -0.921  79.962 115.365  0.00  0.00    -0.047 C 
ATOM      6  C   LIG d   1      -1.795  78.707 115.144  0.00  0.00     0.091 C 
ENDROOT
BRANCH   1   7
ATOM      7  O   LIG d   1      -4.068  77.846 115.456  0.00  0.00    -0.368 OA
BRANCH   7   8
ATOM      8  C   LIG d   1      -4.546  76.822 116.364  0.00  0.00     0.119 C 
BRANCH   8   9
ATOM      9  C   LIG d   1      -4.141  75.457 115.776  0.00  0.00     0.028 C 
ATOM     10  C   LIG d   1      -3.410  74.571 116.799  0.00  0.00     0.006 C 
ENDBRANCH   8   9
BRANCH   8  11
ATOM     11  C   LIG d   1      -6.076  76.801 116.423  0.00  0.00     0.028 C 
ATOM     12  C   LIG d   1      -6.651  77.870 117.366  0.00  0.00     0.006 C 
ENDBRANCH   8  11
ENDBRANCH   7   8
ENDBRANCH   1   7
BRANCH   6  13
ATOM     13  N   LIG d   1      -1.081  77.450 115.488  0.00  0.00    -0.311 N 
ATOM     14  C   LIG d   1      -0.791  76.504 114.597  0.00  0.00     0.210 C 
ATOM     15  C   LIG d   1      -0.067  75.279 115.166  0.00  0.00     0.109 C 
ATOM     16  O   LIG d   1      -1.035  76.576 113.383  0.00  0.00    -0.276 OA
ATOM     17  H   LIG d   1      -0.817  77.323 116.446  0.00  0.00     0.149 HD
ENDBRANCH   6  13
BRANCH   5  18
ATOM     18  N   LIG d   1       0.263  80.004 114.486  0.00  0.00     0.381 N 
ATOM     19  H   LIG d   1      -0.017  79.878 113.533  0.00  0.00    -0.090 HD
ATOM     20  H   LIG d   1       0.880  79.250 114.735  0.00  0.00    -0.090 HD
ATOM     21  H   LIG d   1       0.734  80.876 114.589  0.00  0.00    -0.090 HD
ENDBRANCH   5  18
BRANCH   3  22
ATOM     22  C   LIG d   1      -3.521  82.454 116.102  0.00  0.00     0.382 C 
ATOM     23  O   LIG d   1      -3.959  83.220 115.209  0.00  0.00    -0.241 OA
ATOM     24  O   LIG d   1      -3.536  82.825 117.290  0.00  0.00    -0.241 OA
ENDBRANCH   3  22
TORSDOF 7
ENDMDL
MODEL 8
REMARK VINA RESULT:      -4.1      3.792      5.838
REMARK  7 active torsions:
REMARK  status: ('A' for Active; 'I' for Inactive)
REMARK    1  A    between atoms: C_2  and  C_3 
REMARK    2  A    between atoms: C_3  and  O_6 
REMARK    3  A    between atoms: C_3  and  C_4 
REMARK    4  A    between atoms: C_7  and  O_6 
REMARK    5  A    between atoms: C_9  and  C_10 
REMARK    6  A    between atoms: N_15  and  C_14 
REMARK    7  A    between atoms: N_20  and  C_19 
REMARK       I    between atoms: C_22  and  N_20 
ROOT
ATOM      1  C   LIG d   1      -5.222  77.562 117.129  0.00  0.00     0.161 C 
ATOM      2  C   LIG d   1      -6.121  78.622 117.333  0.00  0.00     0.016 C 
ATOM      3  C   LIG d   1      -5.749  79.984 117.251  0.00  0.00     0.038 C 
ATOM      4  C   LIG d   1      -4.478  80.380 116.807  0.00  0.00     0.028 C 
ATOM      5  C   LIG d   1      -3.392  79.345 117.077  0.00  0.00    -0.047 C 
ATOM      6  C   LIG d   1      -3.859  77.975 116.534  0.00  0.00     0.091 C 
ENDROOT
BRANCH   1   7
ATOM      7  O   LIG d   1      -5.840  76.549 116.310  0.00  0.00    -0.368 OA
BRANCH   7   8
ATOM      8  C   LIG d   1      -6.035  75.257 116.934  0.00  0.00     0.119 C 
BRANCH   8   9
ATOM      9  C   LIG d   1      -5.759  74.181 115.866  0.00  0.00     0.028 C 
ATOM     10  C   LIG d   1      -5.395  74.788 114.501  0.00  0.00     0.006 C 
ENDBRANCH   8   9
BRANCH   8  11
ATOM     11  C   LIG d   1      -7.495  75.052 117.347  0.00  0.00     0.028 C 
ATOM     12  C   LIG d   1      -7.645  74.631 118.818  0.00  0.00     0.006 C 
ENDBRANCH   8  11
ENDBRANCH   7   8
ENDBRANCH   1   7
BRANCH   6  13
ATOM     13  N   LIG d   1      -2.891  76.887 116.832  0.00  0.00    -0.311 N 
ATOM     14  C   LIG d   1      -2.247  76.200 115.890  0.00  0.00     0.210 C 
ATOM     15  C   LIG d   1      -1.309  75.108 116.413  0.00  0.00     0.109 C 
ATOM     16  O   LIG d   1      -2.340  76.414 114.672  0.00  0.00    -0.276 OA
ATOM     17  H   LIG d   1      -2.732  76.669 117.796  0.00  0.00     0.149 HD
ENDBRANCH   6  13
BRANCH   5  18
ATOM     18  N   LIG d   1      -2.151  79.825 116.442  0.00  0.00     0.381 N 
ATOM     19  H   LIG d   1      -1.363  79.351 116.837  0.00  0.00    -0.090 HD
ATOM     20  H   LIG d   1      -2.051  80.808 116.624  0.00  0.00    -0.090 HD
ATOM     21  H   LIG d   1      -2.186  79.664 115.459  0.00  0.00    -0.090 HD
ENDBRANCH   5  18
BRANCH   3  22
ATOM     22  C   LIG d   1      -6.641  80.966 117.654  0.00  0.00     0.382 C 
ATOM     23  O   LIG d   1      -6.602  81.404 118.829  0.00  0.00    -0.241 OA
ATOM     24  O   LIG d   1      -7.514  81.386 116.871  0.00  0.00    -0.241 OA
ENDBRANCH   3  22
TORSDOF 7
ENDMDL
MODEL 9
REMARK VINA RESULT:      -3.9      2.557      4.572
REMARK  7 active torsions:
REMARK  status: ('A' for Active; 'I' for Inactive)
REMARK    1  A    between atoms: C_2  and  C_3 
REMARK    2  A    between atoms: C_3  and  O_6 
REMARK    3  A    between atoms: C_3  and  C_4 
REMARK    4  A    between atoms: C_7  and  O_6 
REMARK    5  A    between atoms: C_9  and  C_10 
REMARK    6  A    between atoms: N_15  and  C_14 
REMARK    7  A    between atoms: N_20  and  C_19 
REMARK       I    between atoms: C_22  and  N_20 
ROOT
ATOM      1  C   LIG d   1      -2.826  81.848 114.513  0.00  0.00     0.161 C 
ATOM      2  C   LIG d   1      -2.010  82.120 113.403  0.00  0.00     0.016 C 
ATOM      3  C   LIG d   1      -1.002  83.111 113.402  0.00  0.00     0.038 C 
ATOM      4  C   LIG d   1      -0.639  83.800 114.569  0.00  0.00     0.028 C 
ATOM      5  C   LIG d   1      -1.773  83.916 115.582  0.00  0.00    -0.047 C 
ATOM      6  C   LIG d   1      -2.370  82.512 115.829  0.00  0.00     0.091 C 
ENDROOT
BRANCH   1   7
ATOM      7  O   LIG d   1      -2.953  80.423 114.689  0.00  0.00    -0.368 OA
BRANCH   7   8
ATOM      8  C   LIG d   1      -1.858  79.765 115.372  0.00  0.00     0.119 C 
BRANCH   8   9
ATOM      9  C   LIG d   1      -1.327  78.660 114.437  0.00  0.00     0.028 C 
ATOM     10  C   LIG d   1      -2.234  78.439 113.215  0.00  0.00     0.006 C 
ENDBRANCH   8   9
BRANCH   8  11
ATOM     11  C   LIG d   1      -2.342  79.035 116.628  0.00  0.00     0.028 C 
ATOM     12  C   LIG d   1      -3.864  78.821 116.643  0.00  0.00     0.006 C 
ENDBRANCH   8  11
ENDBRANCH   7   8
ENDBRANCH   1   7
BRANCH   6  13
ATOM     13  N   LIG d   1      -3.541  82.547 116.744  0.00  0.00    -0.311 N 
ATOM     14  C   LIG d   1      -3.452  82.335 118.056  0.00  0.00     0.210 C 
ATOM     15  C   LIG d   1      -4.783  82.397 118.813  0.00  0.00     0.109 C 
ATOM     16  O   LIG d   1      -2.394  82.133 118.670  0.00  0.00    -0.276 OA
ATOM     17  H   LIG d   1      -4.435  82.735 116.335  0.00  0.00     0.149 HD
ENDBRANCH   6  13
BRANCH   5  18
ATOM     18  N   LIG d   1      -1.219  84.532 116.803  0.00  0.00     0.381 N 
ATOM     19  H   LIG d   1      -1.877  85.184 117.181  0.00  0.00    -0.090 HD
ATOM     20  H   LIG d   1      -0.381  85.032 116.563  0.00  0.00    -0.090 HD
ATOM     21  H   LIG d   1      -1.013  83.828 117.477  0.00  0.00    -0.090 HD
ENDBRANCH   5  18
BRANCH   3  22
ATOM     22  C   LIG d   1      -0.373  83.451 112.214  0.00  0.00     0.382 C 
ATOM     23  O   LIG d   1       0.856  83.243 112.074  0.00  0.00    -0.241 OA
ATOM     24  O   LIG d   1      -1.010  84.003 111.297  0.00  0.00    -0.241 OA
ENDBRANCH   3  22
TORSDOF 7
ENDMDL
