MODEL 1
REMARK VINA RESULT:      -5.1      0.000      0.000
REMARK  7 active torsions:
REMARK  status: ('A' for Active; 'I' for Inactive)
REMARK    1  A    between atoms: C_2  and  C_3 
REMARK    2  A    between atoms: C_3  and  O_6 
REMARK    3  A    between atoms: C_3  and  C_4 
REMARK    4  A    between atoms: C_7  and  O_6 
REMARK    5  A    between atoms: C_9  and  C_10 
REMARK    6  A    between atoms: N_15  and  C_14 
REMARK    7  A    between atoms: N_20  and  C_19 
REMARK       I    between atoms: C_22  and  N_20 
ROOT
ATOM      1  C   LIG d   1      -1.991  81.477 112.498  0.00  0.00     0.161 C 
ATOM      2  C   LIG d   1      -2.674  80.317 112.900  0.00  0.00     0.016 C 
ATOM      3  C   LIG d   1      -2.400  79.033 112.378  0.00  0.00     0.038 C 
ATOM      4  C   LIG d   1      -1.314  78.796 111.521  0.00  0.00     0.028 C 
ATOM      5  C   LIG d   1      -0.915  80.016 110.698  0.00  0.00    -0.047 C 
ATOM      6  C   LIG d   1      -0.729  81.222 111.647  0.00  0.00     0.091 C 
ENDROOT
BRANCH   1   7
ATOM      7  O   LIG d   1      -1.664  82.277 113.651  0.00  0.00    -0.368 OA
BRANCH   7   8
ATOM      8  C   LIG d   1      -1.015  81.583 114.745  0.00  0.00     0.119 C 
BRANCH   8   9
ATOM      9  C   LIG d   1      -1.621  82.117 116.057  0.00  0.00     0.028 C 
ATOM     10  C   LIG d   1      -3.147  81.932 116.117  0.00  0.00     0.006 C 
ENDBRANCH   8   9
BRANCH   8  11
ATOM     11  C   LIG d   1       0.475  81.927 114.817  0.00  0.00     0.028 C 
ATOM     12  C   LIG d   1       0.772  83.378 114.406  0.00  0.00     0.006 C 
ENDBRANCH   8  11
ENDBRANCH   7   8
ENDBRANCH   1   7
BRANCH   6  13
ATOM     13  N   LIG d   1      -0.420  82.478 110.914  0.00  0.00    -0.311 N 
ATOM     14  C   LIG d   1       0.820  82.915 110.699  0.00  0.00     0.210 C 
ATOM     15  C   LIG d   1       0.915  84.242 109.940  0.00  0.00     0.109 C 
ATOM     16  O   LIG d   1       1.851  82.313 111.037  0.00  0.00    -0.276 OA
ATOM     17  H   LIG d   1      -1.196  83.012 110.577  0.00  0.00     0.149 HD
ENDBRANCH   6  13
BRANCH   5  18
ATOM     18  N   LIG d   1       0.311  79.671 109.955  0.00  0.00     0.381 N 
ATOM     19  H   LIG d   1       0.142  78.874 109.374  0.00  0.00    -0.090 HD
ATOM     20  H   LIG d   1       1.034  79.435 110.612  0.00  0.00    -0.090 HD
ATOM     21  H   LIG d   1       0.600  80.443 109.396  0.00  0.00    -0.090 HD
ENDBRANCH   5  18
BRANCH   3  22
ATOM     22  C   LIG d   1      -3.242  77.974 112.681  0.00  0.00     0.382 C 
ATOM     23  O   LIG d   1      -2.849  77.057 113.442  0.00  0.00    -0.241 OA
ATOM     24  O   LIG d   1      -4.375  77.901 112.167  0.00  0.00    -0.241 OA
ENDBRANCH   3  22
TORSDOF 7
ENDMDL
MODEL 2
REMARK VINA RESULT:      -5.1      2.742      5.494
REMARK  7 active torsions:
REMARK  status: ('A' for Active; 'I' for Inactive)
REMARK    1  A    between atoms: C_2  and  C_3 
REMARK    2  A    between atoms: C_3  and  O_6 
REMARK    3  A    between atoms: C_3  and  C_4 
REMARK    4  A    between atoms: C_7  and  O_6 
REMARK    5  A    between atoms: C_9  and  C_10 
REMARK    6  A    between atoms: N_15  and  C_14 
REMARK    7  A    between atoms: N_20  and  C_19 
REMARK       I    between atoms: C_22  and  N_20 
ROOT
ATOM      1  C   LIG d   1      -2.651  80.387 115.124  0.00  0.00     0.161 C 
ATOM      2  C   LIG d   1      -2.264  81.550 114.437  0.00  0.00     0.016 C 
ATOM      3  C   LIG d   1      -1.627  81.532 113.174  0.00  0.00     0.038 C 
ATOM      4  C   LIG d   1      -1.468  80.347 112.441  0.00  0.00     0.028 C 
ATOM      5  C   LIG d   1      -1.387  79.100 113.315  0.00  0.00    -0.047 C 
ATOM      6  C   LIG d   1      -2.586  79.091 114.290  0.00  0.00     0.091 C 
ENDROOT
BRANCH   1   7
ATOM      7  O   LIG d   1      -3.970  80.562 115.677  0.00  0.00    -0.368 OA
BRANCH   7   8
ATOM      8  C   LIG d   1      -4.039  80.768 117.109  0.00  0.00     0.119 C 
BRANCH   8   9
ATOM      9  C   LIG d   1      -5.374  80.173 117.599  0.00  0.00     0.028 C 
ATOM     10  C   LIG d   1      -5.565  78.715 117.150  0.00  0.00     0.006 C 
ENDBRANCH   8   9
BRANCH   8  11
ATOM     11  C   LIG d   1      -4.109  82.259 117.455  0.00  0.00     0.028 C 
ATOM     12  C   LIG d   1      -2.822  82.778 118.115  0.00  0.00     0.006 C 
ENDBRANCH   8  11
ENDBRANCH   7   8
ENDBRANCH   1   7
BRANCH   6  13
ATOM     13  N   LIG d   1      -2.537  77.948 115.238  0.00  0.00    -0.311 N 
ATOM     14  C   LIG d   1      -3.153  76.787 115.020  0.00  0.00     0.210 C 
ATOM     15  C   LIG d   1      -2.990  75.749 116.135  0.00  0.00     0.109 C 
ATOM     16  O   LIG d   1      -3.792  76.507 113.994  0.00  0.00    -0.276 OA
ATOM     17  H   LIG d   1      -2.014  78.077 116.082  0.00  0.00     0.149 HD
ENDBRANCH   6  13
BRANCH   5  18
ATOM     18  N   LIG d   1      -1.361  77.929 112.418  0.00  0.00     0.381 N 
ATOM     19  H   LIG d   1      -0.423  77.592 112.327  0.00  0.00    -0.090 HD
ATOM     20  H   LIG d   1      -1.686  78.208 111.509  0.00  0.00    -0.090 HD
ATOM     21  H   LIG d   1      -1.946  77.209 112.781  0.00  0.00    -0.090 HD
ENDBRANCH   5  18
BRANCH   3  22
ATOM     22  C   LIG d   1      -1.105  82.705 112.651  0.00  0.00     0.382 C 
ATOM     23  O   LIG d   1      -0.226  83.337 113.285  0.00  0.00    -0.241 OA
ATOM     24  O   LIG d   1      -1.535  83.163 111.576  0.00  0.00    -0.241 OA
ENDBRANCH   3  22
TORSDOF 7
ENDMDL
MODEL 3
REMARK VINA RESULT:      -5.0      1.439      2.342
REMARK  7 active torsions:
REMARK  status: ('A' for Active; 'I' for Inactive)
REMARK    1  A    between atoms: C_2  and  C_3 
REMARK    2  A    between atoms: C_3  and  O_6 
REMARK    3  A    between atoms: C_3  and  C_4 
REMARK    4  A    between atoms: C_7  and  O_6 
REMARK    5  A    between atoms: C_9  and  C_10 
REMARK    6  A    between atoms: N_15  and  C_14 
REMARK    7  A    between atoms: N_20  and  C_19 
REMARK       I    between atoms: C_22  and  N_20 
ROOT
ATOM      1  C   LIG d   1      -2.048  80.456 114.144  0.00  0.00     0.161 C 
ATOM      2  C   LIG d   1      -2.585  79.233 114.580  0.00  0.00     0.016 C 
ATOM      3  C   LIG d   1      -2.679  78.087 113.758  0.00  0.00     0.038 C 
ATOM      4  C   LIG d   1      -2.100  78.041 112.481  0.00  0.00     0.028 C 
ATOM      5  C   LIG d   1      -1.996  79.409 111.814  0.00  0.00    -0.047 C 
ATOM      6  C   LIG d   1      -1.310  80.392 112.790  0.00  0.00     0.091 C 
ENDROOT
BRANCH   1   7
ATOM      7  O   LIG d   1      -1.183  81.000 115.161  0.00  0.00    -0.368 OA
BRANCH   7   8
ATOM      8  C   LIG d   1      -1.629  82.228 115.787  0.00  0.00     0.119 C 
BRANCH   8   9
ATOM      9  C   LIG d   1      -0.374  83.003 116.231  0.00  0.00     0.028 C 
ATOM     10  C   LIG d   1       0.612  83.237 115.075  0.00  0.00     0.006 C 
ENDBRANCH   8   9
BRANCH   8  11
ATOM     11  C   LIG d   1      -2.409  81.946 117.074  0.00  0.00     0.028 C 
ATOM     12  C   LIG d   1      -3.914  82.221 116.931  0.00  0.00     0.006 C 
ENDBRANCH   8  11
ENDBRANCH   7   8
ENDBRANCH   1   7
BRANCH   6  13
ATOM     13  N   LIG d   1      -1.244  81.775 112.249  0.00  0.00    -0.311 N 
ATOM     14  C   LIG d   1      -0.185  82.259 111.603  0.00  0.00     0.210 C 
ATOM     15  C   LIG d   1      -0.316  83.715 111.145  0.00  0.00     0.109 C 
ATOM     16  O   LIG d   1       0.839  81.611 111.337  0.00  0.00    -0.276 OA
ATOM     17  H   LIG d   1      -2.044  82.360 112.392  0.00  0.00     0.149 HD
ENDBRANCH   6  13
BRANCH   5  18
ATOM     18  N   LIG d   1      -1.251  79.234 110.552  0.00  0.00     0.381 N 
ATOM     19  H   LIG d   1      -0.687  78.409 110.604  0.00  0.00    -0.090 HD
ATOM     20  H   LIG d   1      -0.644  80.023 110.421  0.00  0.00    -0.090 HD
ATOM     21  H   LIG d   1      -1.887  79.163 109.788  0.00  0.00    -0.090 HD
ENDBRANCH   5  18
BRANCH   3  22
ATOM     22  C   LIG d   1      -3.394  76.983 114.197  0.00  0.00     0.382 C 
ATOM     23  O   LIG d   1      -2.820  76.092 114.868  0.00  0.00    -0.241 OA
ATOM     24  O   LIG d   1      -4.594  76.845 113.892  0.00  0.00    -0.241 OA
ENDBRANCH   3  22
TORSDOF 7
ENDMDL
MODEL 4
REMARK VINA RESULT:      -4.9      2.516      5.315
REMARK  7 active torsions:
REMARK  status: ('A' for Active; 'I' for Inactive)
REMARK    1  A    between atoms: C_2  and  C_3 
REMARK    2  A    between atoms: C_3  and  O_6 
REMARK    3  A    between atoms: C_3  and  C_4 
REMARK    4  A    between atoms: C_7  and  O_6 
REMARK    5  A    between atoms: C_9  and  C_10 
REMARK    6  A    between atoms: N_15  and  C_14 
REMARK    7  A    between atoms: N_20  and  C_19 
REMARK       I    between atoms: C_22  and  N_20 
ROOT
ATOM      1  C   LIG d   1      -2.501  80.505 114.807  0.00  0.00     0.161 C 
ATOM      2  C   LIG d   1      -2.085  81.693 114.183  0.00  0.00     0.016 C 
ATOM      3  C   LIG d   1      -1.522  81.736 112.887  0.00  0.00     0.038 C 
ATOM      4  C   LIG d   1      -1.476  80.604 112.061  0.00  0.00     0.028 C 
ATOM      5  C   LIG d   1      -1.420  79.291 112.835  0.00  0.00    -0.047 C 
ATOM      6  C   LIG d   1      -2.561  79.274 113.878  0.00  0.00     0.091 C 
ENDROOT
BRANCH   1   7
ATOM      7  O   LIG d   1      -3.775  80.710 115.449  0.00  0.00    -0.368 OA
BRANCH   7   8
ATOM      8  C   LIG d   1      -3.762  80.729 116.898  0.00  0.00     0.119 C 
BRANCH   8   9
ATOM      9  C   LIG d   1      -3.831  82.203 117.342  0.00  0.00     0.028 C 
ATOM     10  C   LIG d   1      -5.263  82.646 117.687  0.00  0.00     0.006 C 
ENDBRANCH   8   9
BRANCH   8  11
ATOM     11  C   LIG d   1      -2.435  80.201 117.451  0.00  0.00     0.028 C 
ATOM     12  C   LIG d   1      -2.607  78.936 118.306  0.00  0.00     0.006 C 
ENDBRANCH   8  11
ENDBRANCH   7   8
ENDBRANCH   1   7
BRANCH   6  13
ATOM     13  N   LIG d   1      -2.527  78.061 114.736  0.00  0.00    -0.311 N 
ATOM     14  C   LIG d   1      -3.309  77.001 114.538  0.00  0.00     0.210 C 
ATOM     15  C   LIG d   1      -3.128  75.866 115.550  0.00  0.00     0.109 C 
ATOM     16  O   LIG d   1      -4.113  76.880 113.601  0.00  0.00    -0.276 OA
ATOM     17  H   LIG d   1      -1.882  78.061 115.501  0.00  0.00     0.149 HD
ENDBRANCH   6  13
BRANCH   5  18
ATOM     18  N   LIG d   1      -1.515  78.192 111.856  0.00  0.00     0.381 N 
ATOM     19  H   LIG d   1      -1.545  77.314 112.334  0.00  0.00    -0.090 HD
ATOM     20  H   LIG d   1      -0.698  78.205 111.272  0.00  0.00    -0.090 HD
ATOM     21  H   LIG d   1      -2.333  78.302 111.298  0.00  0.00    -0.090 HD
ENDBRANCH   5  18
BRANCH   3  22
ATOM     22  C   LIG d   1      -0.961  82.915 112.420  0.00  0.00     0.382 C 
ATOM     23  O   LIG d   1      -0.055  83.482 113.078  0.00  0.00    -0.241 OA
ATOM     24  O   LIG d   1      -1.380  83.443 111.373  0.00  0.00    -0.241 OA
ENDBRANCH   3  22
TORSDOF 7
ENDMDL
MODEL 5
REMARK VINA RESULT:      -4.8      2.947      5.348
REMARK  7 active torsions:
REMARK  status: ('A' for Active; 'I' for Inactive)
REMARK    1  A    between atoms: C_2  and  C_3 
REMARK    2  A    between atoms: C_3  and  O_6 
REMARK    3  A    between atoms: C_3  and  C_4 
REMARK    4  A    between atoms: C_7  and  O_6 
REMARK    5  A    between atoms: C_9  and  C_10 
REMARK    6  A    between atoms: N_15  and  C_14 
REMARK    7  A    between atoms: N_20  and  C_19 
REMARK       I    between atoms: C_22  and  N_20 
ROOT
ATOM      1  C   LIG d   1       0.432  81.611 115.314  0.00  0.00     0.161 C 
ATOM      2  C   LIG d   1       0.132  82.681 114.456  0.00  0.00     0.016 C 
ATOM      3  C   LIG d   1      -0.513  82.521 113.208  0.00  0.00     0.038 C 
ATOM      4  C   LIG d   1      -1.040  81.287 112.799  0.00  0.00     0.028 C 
ATOM      5  C   LIG d   1      -0.315  80.089 113.402  0.00  0.00    -0.047 C 
ATOM      6  C   LIG d   1      -0.234  80.271 114.935  0.00  0.00     0.091 C 
ENDROOT
BRANCH   1   7
ATOM      7  O   LIG d   1       0.106  81.966 116.672  0.00  0.00    -0.368 OA
BRANCH   7   8
ATOM      8  C   LIG d   1      -0.949  82.946 116.838  0.00  0.00     0.119 C 
BRANCH   8   9
ATOM      9  C   LIG d   1      -0.507  83.918 117.949  0.00  0.00     0.028 C 
ATOM     10  C   LIG d   1       0.850  84.577 117.647  0.00  0.00     0.006 C 
ENDBRANCH   8   9
BRANCH   8  11
ATOM     11  C   LIG d   1      -2.236  82.297 117.356  0.00  0.00     0.028 C 
ATOM     12  C   LIG d   1      -3.231  81.967 116.232  0.00  0.00     0.006 C 
ENDBRANCH   8  11
ENDBRANCH   7   8
ENDBRANCH   1   7
BRANCH   6  13
ATOM     13  N   LIG d   1       0.534  79.184 115.596  0.00  0.00    -0.311 N 
ATOM     14  C   LIG d   1       0.051  78.448 116.595  0.00  0.00     0.210 C 
ATOM     15  C   LIG d   1       1.016  77.393 117.146  0.00  0.00     0.109 C 
ATOM     16  O   LIG d   1      -1.096  78.547 117.056  0.00  0.00    -0.276 OA
ATOM     17  H   LIG d   1       1.463  79.015 115.263  0.00  0.00     0.149 HD
ENDBRANCH   6  13
BRANCH   5  18
ATOM     18  N   LIG d   1      -1.052  78.875 113.003  0.00  0.00     0.381 N 
ATOM     19  H   LIG d   1      -0.497  78.335 112.369  0.00  0.00    -0.090 HD
ATOM     20  H   LIG d   1      -1.895  79.147 112.530  0.00  0.00    -0.090 HD
ATOM     21  H   LIG d   1      -1.274  78.331 113.807  0.00  0.00    -0.090 HD
ENDBRANCH   5  18
BRANCH   3  22
ATOM     22  C   LIG d   1      -0.600  83.596 112.336  0.00  0.00     0.382 C 
ATOM     23  O   LIG d   1      -1.367  83.539 111.345  0.00  0.00    -0.241 OA
ATOM     24  O   LIG d   1       0.111  84.605 112.504  0.00  0.00    -0.241 OA
ENDBRANCH   3  22
TORSDOF 7
ENDMDL
MODEL 6
REMARK VINA RESULT:      -4.6      1.961      4.195
REMARK  7 active torsions:
REMARK  status: ('A' for Active; 'I' for Inactive)
REMARK    1  A    between atoms: C_2  and  C_3 
REMARK    2  A    between atoms: C_3  and  O_6 
REMARK    3  A    between atoms: C_3  and  C_4 
REMARK    4  A    between atoms: C_7  and  O_6 
REMARK    5  A    between atoms: C_9  and  C_10 
REMARK    6  A    between atoms: N_15  and  C_14 
REMARK    7  A    between atoms: N_20  and  C_19 
REMARK       I    between atoms: C_22  and  N_20 
ROOT
ATOM      1  C   LIG d   1      -0.591  81.119 112.156  0.00  0.00     0.161 C 
ATOM      2  C   LIG d   1      -1.258  79.941 111.780  0.00  0.00     0.016 C 
ATOM      3  C   LIG d   1      -2.325  79.381 112.519  0.00  0.00     0.038 C 
ATOM      4  C   LIG d   1      -2.902  80.049 113.609  0.00  0.00     0.028 C 
ATOM      5  C   LIG d   1      -1.937  80.988 114.324  0.00  0.00    -0.047 C 
ATOM      6  C   LIG d   1      -1.279  81.920 113.281  0.00  0.00     0.091 C 
ENDROOT
BRANCH   1   7
ATOM      7  O   LIG d   1      -0.386  81.954 110.999  0.00  0.00    -0.368 OA
BRANCH   7   8
ATOM      8  C   LIG d   1       0.989  82.291 110.692  0.00  0.00     0.119 C 
BRANCH   8   9
ATOM      9  C   LIG d   1       1.031  83.792 110.344  0.00  0.00     0.028 C 
ATOM     10  C   LIG d   1       2.396  84.226 109.782  0.00  0.00     0.006 C 
ENDBRANCH   8   9
BRANCH   8  11
ATOM     11  C   LIG d   1       1.472  81.569 109.431  0.00  0.00     0.028 C 
ATOM     12  C   LIG d   1       2.440  80.415 109.739  0.00  0.00     0.006 C 
ENDBRANCH   8  11
ENDBRANCH   7   8
ENDBRANCH   1   7
BRANCH   6  13
ATOM     13  N   LIG d   1      -0.258  82.816 113.884  0.00  0.00    -0.311 N 
ATOM     14  C   LIG d   1       0.906  82.381 114.365  0.00  0.00     0.210 C 
ATOM     15  C   LIG d   1       1.805  83.468 114.962  0.00  0.00     0.109 C 
ATOM     16  O   LIG d   1       1.292  81.203 114.324  0.00  0.00    -0.276 OA
ATOM     17  H   LIG d   1      -0.477  83.792 113.929  0.00  0.00     0.149 HD
ENDBRANCH   6  13
BRANCH   5  18
ATOM     18  N   LIG d   1      -2.704  81.719 115.350  0.00  0.00     0.381 N 
ATOM     19  H   LIG d   1      -2.134  82.435 115.754  0.00  0.00    -0.090 HD
ATOM     20  H   LIG d   1      -2.967  81.078 116.078  0.00  0.00    -0.090 HD
ATOM     21  H   LIG d   1      -3.519  82.124 114.943  0.00  0.00    -0.090 HD
ENDBRANCH   5  18
BRANCH   3  22
ATOM     22  C   LIG d   1      -2.801  78.120 112.192  0.00  0.00     0.382 C 
ATOM     23  O   LIG d   1      -2.787  77.203 113.048  0.00  0.00    -0.241 OA
ATOM     24  O   LIG d   1      -3.202  77.876 111.038  0.00  0.00    -0.241 OA
ENDBRANCH   3  22
TORSDOF 7
ENDMDL
MODEL 7
REMARK VINA RESULT:      -4.5      2.380      5.136
REMARK  7 active torsions:
REMARK  status: ('A' for Active; 'I' for Inactive)
REMARK    1  A    between atoms: C_2  and  C_3 
REMARK    2  A    between atoms: C_3  and  O_6 
REMARK    3  A    between atoms: C_3  and  C_4 
REMARK    4  A    between atoms: C_7  and  O_6 
REMARK    5  A    between atoms: C_9  and  C_10 
REMARK    6  A    between atoms: N_15  and  C_14 
REMARK    7  A    between atoms: N_20  and  C_19 
REMARK       I    between atoms: C_22  and  N_20 
ROOT
ATOM      1  C   LIG d   1      -0.913  80.549 114.962  0.00  0.00     0.161 C 
ATOM      2  C   LIG d   1      -0.865  81.788 114.302  0.00  0.00     0.016 C 
ATOM      3  C   LIG d   1      -1.018  81.931 112.903  0.00  0.00     0.038 C 
ATOM      4  C   LIG d   1      -1.383  80.853 112.083  0.00  0.00     0.028 C 
ATOM      5  C   LIG d   1      -0.946  79.499 112.632  0.00  0.00    -0.047 C 
ATOM      6  C   LIG d   1      -1.420  79.375 114.098  0.00  0.00     0.091 C 
ENDROOT
BRANCH   1   7
ATOM      7  O   LIG d   1      -1.701  80.666 116.163  0.00  0.00    -0.368 OA
BRANCH   7   8
ATOM      8  C   LIG d   1      -2.259  81.975 116.434  0.00  0.00     0.119 C 
BRANCH   8   9
ATOM      9  C   LIG d   1      -1.518  82.549 117.658  0.00  0.00     0.028 C 
ATOM     10  C   LIG d   1      -2.470  83.238 118.650  0.00  0.00     0.006 C 
ENDBRANCH   8   9
BRANCH   8  11
ATOM     11  C   LIG d   1      -3.728  81.878 116.858  0.00  0.00     0.028 C 
ATOM     12  C   LIG d   1      -4.231  80.428 116.935  0.00  0.00     0.006 C 
ENDBRANCH   8  11
ENDBRANCH   7   8
ENDBRANCH   1   7
BRANCH   6  13
ATOM     13  N   LIG d   1      -0.961  78.115 114.738  0.00  0.00    -0.311 N 
ATOM     14  C   LIG d   1      -1.668  76.986 114.725  0.00  0.00     0.210 C 
ATOM     15  C   LIG d   1      -1.021  75.809 115.461  0.00  0.00     0.109 C 
ATOM     16  O   LIG d   1      -2.755  76.840 114.146  0.00  0.00    -0.276 OA
ATOM     17  H   LIG d   1      -0.075  78.136 115.204  0.00  0.00     0.149 HD
ENDBRANCH   6  13
BRANCH   5  18
ATOM     18  N   LIG d   1      -1.509  78.458 111.752  0.00  0.00     0.381 N 
ATOM     19  H   LIG d   1      -1.650  77.615 112.272  0.00  0.00    -0.090 HD
ATOM     20  H   LIG d   1      -0.855  78.268 111.014  0.00  0.00    -0.090 HD
ATOM     21  H   LIG d   1      -2.374  78.769 111.368  0.00  0.00    -0.090 HD
ENDBRANCH   5  18
BRANCH   3  22
ATOM     22  C   LIG d   1      -0.766  83.157 112.306  0.00  0.00     0.382 C 
ATOM     23  O   LIG d   1       0.069  83.943 112.816  0.00  0.00    -0.241 OA
ATOM     24  O   LIG d   1      -1.396  83.506 111.290  0.00  0.00    -0.241 OA
ENDBRANCH   3  22
TORSDOF 7
ENDMDL
MODEL 8
REMARK VINA RESULT:      -4.5      3.304      5.307
REMARK  7 active torsions:
REMARK  status: ('A' for Active; 'I' for Inactive)
REMARK    1  A    between atoms: C_2  and  C_3 
REMARK    2  A    between atoms: C_3  and  O_6 
REMARK    3  A    between atoms: C_3  and  C_4 
REMARK    4  A    between atoms: C_7  and  O_6 
REMARK    5  A    between atoms: C_9  and  C_10 
REMARK    6  A    between atoms: N_15  and  C_14 
REMARK    7  A    between atoms: N_20  and  C_19 
REMARK       I    between atoms: C_22  and  N_20 
ROOT
ATOM      1  C   LIG d   1      -0.548  80.761 115.745  0.00  0.00     0.161 C 
ATOM      2  C   LIG d   1      -1.327  81.534 114.868  0.00  0.00     0.016 C 
ATOM      3  C   LIG d   1      -2.114  80.980 113.832  0.00  0.00     0.038 C 
ATOM      4  C   LIG d   1      -2.293  79.595 113.697  0.00  0.00     0.028 C 
ATOM      5  C   LIG d   1      -1.127  78.777 114.242  0.00  0.00    -0.047 C 
ATOM      6  C   LIG d   1      -0.818  79.243 115.683  0.00  0.00     0.091 C 
ENDROOT
BRANCH   1   7
ATOM      7  O   LIG d   1      -0.706  81.244 117.094  0.00  0.00    -0.368 OA
BRANCH   7   8
ATOM      8  C   LIG d   1      -1.421  82.495 117.243  0.00  0.00     0.119 C 
BRANCH   8   9
ATOM      9  C   LIG d   1      -0.479  83.485 117.956  0.00  0.00     0.028 C 
ATOM     10  C   LIG d   1      -1.173  84.228 119.110  0.00  0.00     0.006 C 
ENDBRANCH   8   9
BRANCH   8  11
ATOM     11  C   LIG d   1      -2.626  82.340 118.176  0.00  0.00     0.028 C 
ATOM     12  C   LIG d   1      -2.793  80.905 118.700  0.00  0.00     0.006 C 
ENDBRANCH   8  11
ENDBRANCH   7   8
ENDBRANCH   1   7
BRANCH   6  13
ATOM     13  N   LIG d   1       0.364  78.552 116.261  0.00  0.00    -0.311 N 
ATOM     14  C   LIG d   1       0.279  77.448 117.001  0.00  0.00     0.210 C 
ATOM     15  C   LIG d   1       1.618  76.909 117.515  0.00  0.00     0.109 C 
ATOM     16  O   LIG d   1      -0.775  76.846 117.253  0.00  0.00    -0.276 OA
ATOM     17  H   LIG d   1       1.262  78.956 116.080  0.00  0.00     0.149 HD
ENDBRANCH   6  13
BRANCH   5  18
ATOM     18  N   LIG d   1      -1.506  77.354 114.164  0.00  0.00     0.381 N 
ATOM     19  H   LIG d   1      -2.188  77.146 114.865  0.00  0.00    -0.090 HD
ATOM     20  H   LIG d   1      -0.692  76.791 114.339  0.00  0.00    -0.090 HD
ATOM     21  H   LIG d   1      -1.873  77.148 113.261  0.00  0.00    -0.090 HD
ENDBRANCH   5  18
BRANCH   3  22
ATOM     22  C   LIG d   1      -2.699  81.815 112.892  0.00  0.00     0.382 C 
ATOM     23  O   LIG d   1      -1.994  82.635 112.257  0.00  0.00    -0.241 OA
ATOM     24  O   LIG d   1      -3.930  81.788 112.703  0.00  0.00    -0.241 OA
ENDBRANCH   3  22
TORSDOF 7
ENDMDL
MODEL 9
REMARK VINA RESULT:      -4.5      3.639      6.425
REMARK  7 active torsions:
REMARK  status: ('A' for Active; 'I' for Inactive)
REMARK    1  A    between atoms: C_2  and  C_3 
REMARK    2  A    between atoms: C_3  and  O_6 
REMARK    3  A    between atoms: C_3  and  C_4 
REMARK    4  A    between atoms: C_7  and  O_6 
REMARK    5  A    between atoms: C_9  and  C_10 
REMARK    6  A    between atoms: N_15  and  C_14 
REMARK    7  A    between atoms: N_20  and  C_19 
REMARK       I    between atoms: C_22  and  N_20 
ROOT
ATOM      1  C   LIG d   1      -2.837  78.376 114.875  0.00  0.00     0.161 C 
ATOM      2  C   LIG d   1      -3.180  79.523 114.140  0.00  0.00     0.016 C 
ATOM      3  C   LIG d   1      -2.254  80.538 113.805  0.00  0.00     0.038 C 
ATOM      4  C   LIG d   1      -0.881  80.401 114.054  0.00  0.00     0.028 C 
ATOM      5  C   LIG d   1      -0.568  79.494 115.240  0.00  0.00    -0.047 C 
ATOM      6  C   LIG d   1      -1.321  78.156 115.060  0.00  0.00     0.091 C 
ENDROOT
BRANCH   1   7
ATOM      7  O   LIG d   1      -3.443  77.214 114.278  0.00  0.00    -0.368 OA
BRANCH   7   8
ATOM      8  C   LIG d   1      -4.286  76.417 115.146  0.00  0.00     0.119 C 
BRANCH   8   9
ATOM      9  C   LIG d   1      -5.539  76.023 114.340  0.00  0.00     0.028 C 
ATOM     10  C   LIG d   1      -6.829  76.129 115.172  0.00  0.00     0.006 C 
ENDBRANCH   8   9
BRANCH   8  11
ATOM     11  C   LIG d   1      -4.806  77.241 116.327  0.00  0.00     0.028 C 
ATOM     12  C   LIG d   1      -4.381  76.666 117.688  0.00  0.00     0.006 C 
ENDBRANCH   8  11
ENDBRANCH   7   8
ENDBRANCH   1   7
BRANCH   6  13
ATOM     13  N   LIG d   1      -1.137  77.242 116.217  0.00  0.00    -0.311 N 
ATOM     14  C   LIG d   1      -0.901  75.937 116.091  0.00  0.00     0.210 C 
ATOM     15  C   LIG d   1      -0.763  75.174 117.412  0.00  0.00     0.109 C 
ATOM     16  O   LIG d   1      -0.762  75.345 115.010  0.00  0.00    -0.276 OA
ATOM     17  H   LIG d   1      -1.203  77.645 117.132  0.00  0.00     0.149 HD
ENDBRANCH   6  13
BRANCH   5  18
ATOM     18  N   LIG d   1       0.897  79.329 115.301  0.00  0.00     0.381 N 
ATOM     19  H   LIG d   1       1.263  79.210 114.378  0.00  0.00    -0.090 HD
ATOM     20  H   LIG d   1       1.109  78.505 115.834  0.00  0.00    -0.090 HD
ATOM     21  H   LIG d   1       1.312  80.127 115.730  0.00  0.00    -0.090 HD
ENDBRANCH   5  18
BRANCH   3  22
ATOM     22  C   LIG d   1      -2.707  81.725 113.249  0.00  0.00     0.382 C 
ATOM     23  O   LIG d   1      -3.837  81.772 112.706  0.00  0.00    -0.241 OA
ATOM     24  O   LIG d   1      -1.982  82.738 113.243  0.00  0.00    -0.241 OA
ENDBRANCH   3  22
TORSDOF 7
ENDMDL
