MODEL 1
REMARK VINA RESULT:      -5.5      0.000      0.000
REMARK  7 active torsions:
REMARK  status: ('A' for Active; 'I' for Inactive)
REMARK    1  A    between atoms: C_2  and  C_3 
REMARK    2  A    between atoms: C_3  and  O_6 
REMARK    3  A    between atoms: C_3  and  C_4 
REMARK    4  A    between atoms: C_7  and  O_6 
REMARK    5  A    between atoms: C_9  and  C_10 
REMARK    6  A    between atoms: N_15  and  C_14 
REMARK    7  A    between atoms: N_20  and  C_19 
REMARK       I    between atoms: C_22  and  N_20 
ROOT
ATOM      1  C   LIG d   1      -3.094  78.431 115.619  0.00  0.00     0.161 C 
ATOM      2  C   LIG d   1      -3.239  79.488 114.705  0.00  0.00     0.016 C 
ATOM      3  C   LIG d   1      -2.514  79.574 113.494  0.00  0.00     0.038 C 
ATOM      4  C   LIG d   1      -1.700  78.525 113.041  0.00  0.00     0.028 C 
ATOM      5  C   LIG d   1      -1.135  77.667 114.167  0.00  0.00    -0.047 C 
ATOM      6  C   LIG d   1      -2.294  77.223 115.089  0.00  0.00     0.091 C 
ENDROOT
BRANCH   1   7
ATOM      7  O   LIG d   1      -4.390  78.008 116.086  0.00  0.00    -0.368 OA
BRANCH   7   8
ATOM      8  C   LIG d   1      -4.741  78.399 117.436  0.00  0.00     0.119 C 
BRANCH   8   9
ATOM      9  C   LIG d   1      -4.794  77.118 118.290  0.00  0.00     0.028 C 
ATOM     10  C   LIG d   1      -3.654  77.052 119.321  0.00  0.00     0.006 C 
ENDBRANCH   8   9
BRANCH   8  11
ATOM     11  C   LIG d   1      -6.154  78.986 117.497  0.00  0.00     0.028 C 
ATOM     12  C   LIG d   1      -6.160  80.497 117.778  0.00  0.00     0.006 C 
ENDBRANCH   8  11
ENDBRANCH   7   8
ENDBRANCH   1   7
BRANCH   6  13
ATOM     13  N   LIG d   1      -1.818  76.448 116.265  0.00  0.00    -0.311 N 
ATOM     14  C   LIG d   1      -1.711  75.121 116.274  0.00  0.00     0.210 C 
ATOM     15  C   LIG d   1      -1.219  74.521 117.595  0.00  0.00     0.109 C 
ATOM     16  O   LIG d   1      -1.947  74.386 115.304  0.00  0.00    -0.276 OA
ATOM     17  H   LIG d   1      -1.575  76.968 117.086  0.00  0.00     0.149 HD
ENDBRANCH   6  13
BRANCH   5  18
ATOM     18  N   LIG d   1      -0.422  76.533 113.549  0.00  0.00     0.381 N 
ATOM     19  H   LIG d   1      -1.074  75.940 113.075  0.00  0.00    -0.090 HD
ATOM     20  H   LIG d   1       0.025  75.997 114.272  0.00  0.00    -0.090 HD
ATOM     21  H   LIG d   1       0.261  76.870 112.906  0.00  0.00    -0.090 HD
ENDBRANCH   5  18
BRANCH   3  22
ATOM     22  C   LIG d   1      -2.568  80.738 112.742  0.00  0.00     0.382 C 
ATOM     23  O   LIG d   1      -1.521  81.206 112.234  0.00  0.00    -0.241 OA
ATOM     24  O   LIG d   1      -3.644  81.349 112.601  0.00  0.00    -0.241 OA
ENDBRANCH   3  22
TORSDOF 7
ENDMDL
MODEL 2
REMARK VINA RESULT:      -5.4      2.389      2.966
REMARK  7 active torsions:
REMARK  status: ('A' for Active; 'I' for Inactive)
REMARK    1  A    between atoms: C_2  and  C_3 
REMARK    2  A    between atoms: C_3  and  O_6 
REMARK    3  A    between atoms: C_3  and  C_4 
REMARK    4  A    between atoms: C_7  and  O_6 
REMARK    5  A    between atoms: C_9  and  C_10 
REMARK    6  A    between atoms: N_15  and  C_14 
REMARK    7  A    between atoms: N_20  and  C_19 
REMARK       I    between atoms: C_22  and  N_20 
ROOT
ATOM      1  C   LIG d   1      -3.622  76.470 115.017  0.00  0.00     0.161 C 
ATOM      2  C   LIG d   1      -3.683  76.848 113.666  0.00  0.00     0.016 C 
ATOM      3  C   LIG d   1      -2.558  77.288 112.930  0.00  0.00     0.038 C 
ATOM      4  C   LIG d   1      -1.259  77.234 113.458  0.00  0.00     0.028 C 
ATOM      5  C   LIG d   1      -1.219  77.337 114.979  0.00  0.00    -0.047 C 
ATOM      6  C   LIG d   1      -2.195  76.299 115.578  0.00  0.00     0.091 C 
ENDROOT
BRANCH   1   7
ATOM      7  O   LIG d   1      -4.389  75.267 115.222  0.00  0.00    -0.368 OA
BRANCH   7   8
ATOM      8  C   LIG d   1      -5.510  75.372 116.134  0.00  0.00     0.119 C 
BRANCH   8   9
ATOM      9  C   LIG d   1      -6.768  74.905 115.377  0.00  0.00     0.028 C 
ATOM     10  C   LIG d   1      -7.238  75.930 114.331  0.00  0.00     0.006 C 
ENDBRANCH   8   9
BRANCH   8  11
ATOM     11  C   LIG d   1      -5.783  76.831 116.514  0.00  0.00     0.028 C 
ATOM     12  C   LIG d   1      -5.780  77.061 118.034  0.00  0.00     0.006 C 
ENDBRANCH   8  11
ENDBRANCH   7   8
ENDBRANCH   1   7
BRANCH   6  13
ATOM     13  N   LIG d   1      -2.280  76.389 117.059  0.00  0.00    -0.311 N 
ATOM     14  C   LIG d   1      -2.149  75.338 117.866  0.00  0.00     0.210 C 
ATOM     15  C   LIG d   1      -2.291  75.649 119.360  0.00  0.00     0.109 C 
ATOM     16  O   LIG d   1      -1.898  74.184 117.489  0.00  0.00    -0.276 OA
ATOM     17  H   LIG d   1      -2.450  77.294 117.451  0.00  0.00     0.149 HD
ENDBRANCH   6  13
BRANCH   5  18
ATOM     18  N   LIG d   1       0.179  77.129 115.402  0.00  0.00     0.381 N 
ATOM     19  H   LIG d   1       0.237  76.324 115.994  0.00  0.00    -0.090 HD
ATOM     20  H   LIG d   1       0.481  77.929 115.929  0.00  0.00    -0.090 HD
ATOM     21  H   LIG d   1       0.762  77.006 114.604  0.00  0.00    -0.090 HD
ENDBRANCH   5  18
BRANCH   3  22
ATOM     22  C   LIG d   1      -2.733  77.825 111.664  0.00  0.00     0.382 C 
ATOM     23  O   LIG d   1      -3.603  77.349 110.895  0.00  0.00    -0.241 OA
ATOM     24  O   LIG d   1      -2.001  78.751 111.264  0.00  0.00    -0.241 OA
ENDBRANCH   3  22
TORSDOF 7
ENDMDL
MODEL 3
REMARK VINA RESULT:      -5.3      1.330      2.087
REMARK  7 active torsions:
REMARK  status: ('A' for Active; 'I' for Inactive)
REMARK    1  A    between atoms: C_2  and  C_3 
REMARK    2  A    between atoms: C_3  and  O_6 
REMARK    3  A    between atoms: C_3  and  C_4 
REMARK    4  A    between atoms: C_7  and  O_6 
REMARK    5  A    between atoms: C_9  and  C_10 
REMARK    6  A    between atoms: N_15  and  C_14 
REMARK    7  A    between atoms: N_20  and  C_19 
REMARK       I    between atoms: C_22  and  N_20 
ROOT
ATOM      1  C   LIG d   1      -2.445  78.263 116.263  0.00  0.00     0.161 C 
ATOM      2  C   LIG d   1      -2.818  79.126 115.219  0.00  0.00     0.016 C 
ATOM      3  C   LIG d   1      -2.330  79.005 113.898  0.00  0.00     0.038 C 
ATOM      4  C   LIG d   1      -1.548  77.913 113.494  0.00  0.00     0.028 C 
ATOM      5  C   LIG d   1      -0.737  77.296 114.628  0.00  0.00    -0.047 C 
ATOM      6  C   LIG d   1      -1.680  77.000 115.816  0.00  0.00     0.091 C 
ENDROOT
BRANCH   1   7
ATOM      7  O   LIG d   1      -3.608  77.899 117.034  0.00  0.00    -0.368 OA
BRANCH   7   8
ATOM      8  C   LIG d   1      -4.729  77.371 116.284  0.00  0.00     0.119 C 
BRANCH   8   9
ATOM      9  C   LIG d   1      -6.016  77.933 116.919  0.00  0.00     0.028 C 
ATOM     10  C   LIG d   1      -5.816  79.342 117.501  0.00  0.00     0.006 C 
ENDBRANCH   8   9
BRANCH   8  11
ATOM     11  C   LIG d   1      -4.834  75.850 116.435  0.00  0.00     0.028 C 
ATOM     12  C   LIG d   1      -4.810  75.114 115.086  0.00  0.00     0.006 C 
ENDBRANCH   8  11
ENDBRANCH   7   8
ENDBRANCH   1   7
BRANCH   6  13
ATOM     13  N   LIG d   1      -0.953  76.472 117.000  0.00  0.00    -0.311 N 
ATOM     14  C   LIG d   1      -0.873  75.175 117.293  0.00  0.00     0.210 C 
ATOM     15  C   LIG d   1      -0.093  74.848 118.570  0.00  0.00     0.109 C 
ATOM     16  O   LIG d   1      -1.348  74.263 116.600  0.00  0.00    -0.276 OA
ATOM     17  H   LIG d   1      -0.512  77.141 117.600  0.00  0.00     0.149 HD
ENDBRANCH   6  13
BRANCH   5  18
ATOM     18  N   LIG d   1      -0.078  76.087 114.099  0.00  0.00     0.381 N 
ATOM     19  H   LIG d   1       0.051  76.176 113.110  0.00  0.00    -0.090 HD
ATOM     20  H   LIG d   1      -0.670  75.293 114.269  0.00  0.00    -0.090 HD
ATOM     21  H   LIG d   1       0.803  75.955 114.545  0.00  0.00    -0.090 HD
ENDBRANCH   5  18
BRANCH   3  22
ATOM     22  C   LIG d   1      -2.591  80.005 112.974  0.00  0.00     0.382 C 
ATOM     23  O   LIG d   1      -2.019  79.993 111.857  0.00  0.00    -0.241 OA
ATOM     24  O   LIG d   1      -3.358  80.945 113.260  0.00  0.00    -0.241 OA
ENDBRANCH   3  22
TORSDOF 7
ENDMDL
MODEL 4
REMARK VINA RESULT:      -5.2      2.508      5.234
REMARK  7 active torsions:
REMARK  status: ('A' for Active; 'I' for Inactive)
REMARK    1  A    between atoms: C_2  and  C_3 
REMARK    2  A    between atoms: C_3  and  O_6 
REMARK    3  A    between atoms: C_3  and  C_4 
REMARK    4  A    between atoms: C_7  and  O_6 
REMARK    5  A    between atoms: C_9  and  C_10 
REMARK    6  A    between atoms: N_15  and  C_14 
REMARK    7  A    between atoms: N_20  and  C_19 
REMARK       I    between atoms: C_22  and  N_20 
ROOT
ATOM      1  C   LIG d   1      -2.392  75.311 115.066  0.00  0.00     0.161 C 
ATOM      2  C   LIG d   1      -2.225  74.831 116.376  0.00  0.00     0.016 C 
ATOM      3  C   LIG d   1      -1.443  75.490 117.352  0.00  0.00     0.038 C 
ATOM      4  C   LIG d   1      -0.894  76.762 117.127  0.00  0.00     0.028 C 
ATOM      5  C   LIG d   1      -0.615  77.050 115.656  0.00  0.00    -0.047 C 
ATOM      6  C   LIG d   1      -1.892  76.753 114.836  0.00  0.00     0.091 C 
ENDROOT
BRANCH   1   7
ATOM      7  O   LIG d   1      -3.774  75.192 114.675  0.00  0.00    -0.368 OA
BRANCH   7   8
ATOM      8  C   LIG d   1      -4.748  75.272 115.744  0.00  0.00     0.119 C 
BRANCH   8   9
ATOM      9  C   LIG d   1      -5.865  74.257 115.429  0.00  0.00     0.028 C 
ATOM     10  C   LIG d   1      -7.165  74.560 116.192  0.00  0.00     0.006 C 
ENDBRANCH   8   9
BRANCH   8  11
ATOM     11  C   LIG d   1      -5.438  76.639 115.769  0.00  0.00     0.028 C 
ATOM     12  C   LIG d   1      -4.910  77.552 116.887  0.00  0.00     0.006 C 
ENDBRANCH   8  11
ENDBRANCH   7   8
ENDBRANCH   1   7
BRANCH   6  13
ATOM     13  N   LIG d   1      -1.681  76.928 113.376  0.00  0.00    -0.311 N 
ATOM     14  C   LIG d   1      -2.532  77.581 112.586  0.00  0.00     0.210 C 
ATOM     15  C   LIG d   1      -2.134  77.629 111.107  0.00  0.00     0.109 C 
ATOM     16  O   LIG d   1      -3.561  78.153 112.974  0.00  0.00    -0.276 OA
ATOM     17  H   LIG d   1      -0.854  76.523 112.982  0.00  0.00     0.149 HD
ENDBRANCH   6  13
BRANCH   5  18
ATOM     18  N   LIG d   1      -0.176  78.455 115.553  0.00  0.00     0.381 N 
ATOM     19  H   LIG d   1      -0.553  78.867 114.723  0.00  0.00    -0.090 HD
ATOM     20  H   LIG d   1       0.827  78.478 115.489  0.00  0.00    -0.090 HD
ATOM     21  H   LIG d   1      -0.477  78.966 116.353  0.00  0.00    -0.090 HD
ENDBRANCH   5  18
BRANCH   3  22
ATOM     22  C   LIG d   1      -1.170  74.858 118.555  0.00  0.00     0.382 C 
ATOM     23  O   LIG d   1      -0.022  74.930 119.055  0.00  0.00    -0.241 OA
ATOM     24  O   LIG d   1      -2.046  74.180 119.125  0.00  0.00    -0.241 OA
ENDBRANCH   3  22
TORSDOF 7
ENDMDL
MODEL 5
REMARK VINA RESULT:      -5.2      2.973      5.283
REMARK  7 active torsions:
REMARK  status: ('A' for Active; 'I' for Inactive)
REMARK    1  A    between atoms: C_2  and  C_3 
REMARK    2  A    between atoms: C_3  and  O_6 
REMARK    3  A    between atoms: C_3  and  C_4 
REMARK    4  A    between atoms: C_7  and  O_6 
REMARK    5  A    between atoms: C_9  and  C_10 
REMARK    6  A    between atoms: N_15  and  C_14 
REMARK    7  A    between atoms: N_20  and  C_19 
REMARK       I    between atoms: C_22  and  N_20 
ROOT
ATOM      1  C   LIG d   1      -3.435  75.796 114.967  0.00  0.00     0.161 C 
ATOM      2  C   LIG d   1      -3.541  75.595 116.354  0.00  0.00     0.016 C 
ATOM      3  C   LIG d   1      -3.194  76.577 117.311  0.00  0.00     0.038 C 
ATOM      4  C   LIG d   1      -2.859  77.888 116.940  0.00  0.00     0.028 C 
ATOM      5  C   LIG d   1      -2.253  77.986 115.544  0.00  0.00    -0.047 C 
ATOM      6  C   LIG d   1      -3.177  77.257 114.543  0.00  0.00     0.091 C 
ENDROOT
BRANCH   1   7
ATOM      7  O   LIG d   1      -4.610  75.283 114.308  0.00  0.00    -0.368 OA
BRANCH   7   8
ATOM      8  C   LIG d   1      -5.873  75.529 114.975  0.00  0.00     0.119 C 
BRANCH   8   9
ATOM      9  C   LIG d   1      -6.375  74.180 115.527  0.00  0.00     0.028 C 
ATOM     10  C   LIG d   1      -7.515  74.351 116.545  0.00  0.00     0.006 C 
ENDBRANCH   8   9
BRANCH   8  11
ATOM     11  C   LIG d   1      -6.946  75.986 113.983  0.00  0.00     0.028 C 
ATOM     12  C   LIG d   1      -6.358  76.464 112.646  0.00  0.00     0.006 C 
ENDBRANCH   8  11
ENDBRANCH   7   8
ENDBRANCH   1   7
BRANCH   6  13
ATOM     13  N   LIG d   1      -2.616  77.233 113.167  0.00  0.00    -0.311 N 
ATOM     14  C   LIG d   1      -2.828  78.196 112.272  0.00  0.00     0.210 C 
ATOM     15  C   LIG d   1      -2.174  77.965 110.906  0.00  0.00     0.109 C 
ATOM     16  O   LIG d   1      -3.469  79.235 112.490  0.00  0.00    -0.276 OA
ATOM     17  H   LIG d   1      -2.057  76.441 112.916  0.00  0.00     0.149 HD
ENDBRANCH   6  13
BRANCH   5  18
ATOM     18  N   LIG d   1      -2.079  79.418 115.234  0.00  0.00     0.381 N 
ATOM     19  H   LIG d   1      -2.834  79.944 115.627  0.00  0.00    -0.090 HD
ATOM     20  H   LIG d   1      -2.097  79.539 114.237  0.00  0.00    -0.090 HD
ATOM     21  H   LIG d   1      -1.212  79.744 115.600  0.00  0.00    -0.090 HD
ENDBRANCH   5  18
BRANCH   3  22
ATOM     22  C   LIG d   1      -3.142  76.238 118.654  0.00  0.00     0.382 C 
ATOM     23  O   LIG d   1      -2.401  75.302 119.037  0.00  0.00    -0.241 OA
ATOM     24  O   LIG d   1      -3.862  76.829 119.483  0.00  0.00    -0.241 OA
ENDBRANCH   3  22
TORSDOF 7
ENDMDL
MODEL 6
REMARK VINA RESULT:      -5.0      2.527      2.903
REMARK  7 active torsions:
REMARK  status: ('A' for Active; 'I' for Inactive)
REMARK    1  A    between atoms: C_2  and  C_3 
REMARK    2  A    between atoms: C_3  and  O_6 
REMARK    3  A    between atoms: C_3  and  C_4 
REMARK    4  A    between atoms: C_7  and  O_6 
REMARK    5  A    between atoms: C_9  and  C_10 
REMARK    6  A    between atoms: N_15  and  C_14 
REMARK    7  A    between atoms: N_20  and  C_19 
REMARK       I    between atoms: C_22  and  N_20 
ROOT
ATOM      1  C   LIG d   1      -3.553  76.887 115.190  0.00  0.00     0.161 C 
ATOM      2  C   LIG d   1      -3.637  77.208 113.825  0.00  0.00     0.016 C 
ATOM      3  C   LIG d   1      -2.507  77.363 112.990  0.00  0.00     0.038 C 
ATOM      4  C   LIG d   1      -1.211  77.057 113.433  0.00  0.00     0.028 C 
ATOM      5  C   LIG d   1      -1.031  77.218 114.938  0.00  0.00    -0.047 C 
ATOM      6  C   LIG d   1      -2.153  76.441 115.664  0.00  0.00     0.091 C 
ENDROOT
BRANCH   1   7
ATOM      7  O   LIG d   1      -4.536  75.886 115.519  0.00  0.00    -0.368 OA
BRANCH   7   8
ATOM      8  C   LIG d   1      -5.918  76.318 115.494  0.00  0.00     0.119 C 
BRANCH   8   9
ATOM      9  C   LIG d   1      -6.512  76.052 116.891  0.00  0.00     0.028 C 
ATOM     10  C   LIG d   1      -6.823  77.351 117.653  0.00  0.00     0.006 C 
ENDBRANCH   8   9
BRANCH   8  11
ATOM     11  C   LIG d   1      -6.751  75.466 114.531  0.00  0.00     0.028 C 
ATOM     12  C   LIG d   1      -7.152  76.227 113.257  0.00  0.00     0.006 C 
ENDBRANCH   8  11
ENDBRANCH   7   8
ENDBRANCH   1   7
BRANCH   6  13
ATOM     13  N   LIG d   1      -2.101  76.615 117.139  0.00  0.00    -0.311 N 
ATOM     14  C   LIG d   1      -1.462  75.777 117.954  0.00  0.00     0.210 C 
ATOM     15  C   LIG d   1      -1.550  76.130 119.442  0.00  0.00     0.109 C 
ATOM     16  O   LIG d   1      -0.804  74.794 117.582  0.00  0.00    -0.276 OA
ATOM     17  H   LIG d   1      -2.583  77.404 117.522  0.00  0.00     0.149 HD
ENDBRANCH   6  13
BRANCH   5  18
ATOM     18  N   LIG d   1       0.320  76.735 115.280  0.00  0.00     0.381 N 
ATOM     19  H   LIG d   1       0.296  76.253 116.156  0.00  0.00    -0.090 HD
ATOM     20  H   LIG d   1       0.934  77.526 115.372  0.00  0.00    -0.090 HD
ATOM     21  H   LIG d   1       0.656  76.127 114.566  0.00  0.00    -0.090 HD
ENDBRANCH   5  18
BRANCH   3  22
ATOM     22  C   LIG d   1      -2.663  77.867 111.708  0.00  0.00     0.382 C 
ATOM     23  O   LIG d   1      -2.113  78.948 111.388  0.00  0.00    -0.241 OA
ATOM     24  O   LIG d   1      -3.383  77.277 110.881  0.00  0.00    -0.241 OA
ENDBRANCH   3  22
TORSDOF 7
ENDMDL
MODEL 7
REMARK VINA RESULT:      -4.9      2.710      5.295
REMARK  7 active torsions:
REMARK  status: ('A' for Active; 'I' for Inactive)
REMARK    1  A    between atoms: C_2  and  C_3 
REMARK    2  A    between atoms: C_3  and  O_6 
REMARK    3  A    between atoms: C_3  and  C_4 
REMARK    4  A    between atoms: C_7  and  O_6 
REMARK    5  A    between atoms: C_9  and  C_10 
REMARK    6  A    between atoms: N_15  and  C_14 
REMARK    7  A    between atoms: N_20  and  C_19 
REMARK       I    between atoms: C_22  and  N_20 
ROOT
ATOM      1  C   LIG d   1      -2.878  77.949 115.455  0.00  0.00     0.161 C 
ATOM      2  C   LIG d   1      -1.589  78.143 115.979  0.00  0.00     0.016 C 
ATOM      3  C   LIG d   1      -0.864  77.135 116.655  0.00  0.00     0.038 C 
ATOM      4  C   LIG d   1      -1.322  75.810 116.722  0.00  0.00     0.028 C 
ATOM      5  C   LIG d   1      -2.840  75.690 116.649  0.00  0.00    -0.047 C 
ATOM      6  C   LIG d   1      -3.348  76.480 115.420  0.00  0.00     0.091 C 
ENDROOT
BRANCH   1   7
ATOM      7  O   LIG d   1      -2.964  78.534 114.140  0.00  0.00    -0.368 OA
BRANCH   7   8
ATOM      8  C   LIG d   1      -1.740  78.543 113.365  0.00  0.00     0.119 C 
BRANCH   8   9
ATOM      9  C   LIG d   1      -1.648  79.912 112.663  0.00  0.00     0.028 C 
ATOM     10  C   LIG d   1      -2.910  80.765 112.872  0.00  0.00     0.006 C 
ENDBRANCH   8   9
BRANCH   8  11
ATOM     11  C   LIG d   1      -1.787  77.510 112.236  0.00  0.00     0.028 C 
ATOM     12  C   LIG d   1      -3.089  77.578 111.420  0.00  0.00     0.006 C 
ENDBRANCH   8  11
ENDBRANCH   7   8
ENDBRANCH   1   7
BRANCH   6  13
ATOM     13  N   LIG d   1      -4.831  76.484 115.322  0.00  0.00    -0.311 N 
ATOM     14  C   LIG d   1      -5.522  75.585 114.624  0.00  0.00     0.210 C 
ATOM     15  C   LIG d   1      -7.041  75.783 114.638  0.00  0.00     0.109 C 
ATOM     16  O   LIG d   1      -5.023  74.623 114.020  0.00  0.00    -0.276 OA
ATOM     17  H   LIG d   1      -5.318  77.211 115.808  0.00  0.00     0.149 HD
ENDBRANCH   6  13
BRANCH   5  18
ATOM     18  N   LIG d   1      -3.171  74.254 116.590  0.00  0.00     0.381 N 
ATOM     19  H   LIG d   1      -2.389  73.740 116.236  0.00  0.00    -0.090 HD
ATOM     20  H   LIG d   1      -3.944  74.124 115.960  0.00  0.00    -0.090 HD
ATOM     21  H   LIG d   1      -3.413  73.922 117.497  0.00  0.00    -0.090 HD
ENDBRANCH   5  18
BRANCH   3  22
ATOM     22  C   LIG d   1       0.315  77.458 117.309  0.00  0.00     0.382 C 
ATOM     23  O   LIG d   1       0.522  77.037 118.473  0.00  0.00    -0.241 OA
ATOM     24  O   LIG d   1       1.155  78.200 116.767  0.00  0.00    -0.241 OA
ENDBRANCH   3  22
TORSDOF 7
ENDMDL
MODEL 8
REMARK VINA RESULT:      -4.8      2.833      5.273
REMARK  7 active torsions:
REMARK  status: ('A' for Active; 'I' for Inactive)
REMARK    1  A    between atoms: C_2  and  C_3 
REMARK    2  A    between atoms: C_3  and  O_6 
REMARK    3  A    between atoms: C_3  and  C_4 
REMARK    4  A    between atoms: C_7  and  O_6 
REMARK    5  A    between atoms: C_9  and  C_10 
REMARK    6  A    between atoms: N_15  and  C_14 
REMARK    7  A    between atoms: N_20  and  C_19 
REMARK       I    between atoms: C_22  and  N_20 
ROOT
ATOM      1  C   LIG d   1      -2.276  79.442 114.464  0.00  0.00     0.161 C 
ATOM      2  C   LIG d   1      -2.878  78.219 114.807  0.00  0.00     0.016 C 
ATOM      3  C   LIG d   1      -3.118  77.182 113.876  0.00  0.00     0.038 C 
ATOM      4  C   LIG d   1      -2.632  77.239 112.561  0.00  0.00     0.028 C 
ATOM      5  C   LIG d   1      -2.464  78.661 112.038  0.00  0.00    -0.047 C 
ATOM      6  C   LIG d   1      -1.639  79.477 113.059  0.00  0.00     0.091 C 
ENDROOT
BRANCH   1   7
ATOM      7  O   LIG d   1      -1.304  79.805 115.464  0.00  0.00    -0.368 OA
BRANCH   7   8
ATOM      8  C   LIG d   1      -1.203  78.919 116.606  0.00  0.00     0.119 C 
BRANCH   8   9
ATOM      9  C   LIG d   1      -1.304  79.787 117.876  0.00  0.00     0.028 C 
ATOM     10  C   LIG d   1      -2.643  79.601 118.609  0.00  0.00     0.006 C 
ENDBRANCH   8   9
BRANCH   8  11
ATOM     11  C   LIG d   1       0.175  78.256 116.677  0.00  0.00     0.028 C 
ATOM     12  C   LIG d   1       0.131  76.856 117.311  0.00  0.00     0.006 C 
ENDBRANCH   8  11
ENDBRANCH   7   8
ENDBRANCH   1   7
BRANCH   6  13
ATOM     13  N   LIG d   1      -1.499  80.903 112.665  0.00  0.00    -0.311 N 
ATOM     14  C   LIG d   1      -0.482  81.368 111.941  0.00  0.00     0.210 C 
ATOM     15  C   LIG d   1      -0.521  82.874 111.663  0.00  0.00     0.109 C 
ATOM     16  O   LIG d   1       0.431  80.670 111.475  0.00  0.00    -0.276 OA
ATOM     17  H   LIG d   1      -2.213  81.534 112.974  0.00  0.00     0.149 HD
ENDBRANCH   6  13
BRANCH   5  18
ATOM     18  N   LIG d   1      -1.823  78.576 110.713  0.00  0.00     0.381 N 
ATOM     19  H   LIG d   1      -1.204  77.790 110.686  0.00  0.00    -0.090 HD
ATOM     20  H   LIG d   1      -1.282  79.408 110.559  0.00  0.00    -0.090 HD
ATOM     21  H   LIG d   1      -2.516  78.486 110.003  0.00  0.00    -0.090 HD
ENDBRANCH   5  18
BRANCH   3  22
ATOM     22  C   LIG d   1      -3.887  76.090 114.247  0.00  0.00     0.382 C 
ATOM     23  O   LIG d   1      -3.396  75.198 114.981  0.00  0.00    -0.241 OA
ATOM     24  O   LIG d   1      -5.051  75.963 113.823  0.00  0.00    -0.241 OA
ENDBRANCH   3  22
TORSDOF 7
ENDMDL
MODEL 9
REMARK VINA RESULT:      -4.6      2.600      3.903
REMARK  7 active torsions:
REMARK  status: ('A' for Active; 'I' for Inactive)
REMARK    1  A    between atoms: C_2  and  C_3 
REMARK    2  A    between atoms: C_3  and  O_6 
REMARK    3  A    between atoms: C_3  and  C_4 
REMARK    4  A    between atoms: C_7  and  O_6 
REMARK    5  A    between atoms: C_9  and  C_10 
REMARK    6  A    between atoms: N_15  and  C_14 
REMARK    7  A    between atoms: N_20  and  C_19 
REMARK       I    between atoms: C_22  and  N_20 
ROOT
ATOM      1  C   LIG d   1      -3.597  77.956 114.879  0.00  0.00     0.161 C 
ATOM      2  C   LIG d   1      -3.340  77.509 113.573  0.00  0.00     0.016 C 
ATOM      3  C   LIG d   1      -2.037  77.346 113.048  0.00  0.00     0.038 C 
ATOM      4  C   LIG d   1      -0.893  77.476 113.850  0.00  0.00     0.028 C 
ATOM      5  C   LIG d   1      -1.088  78.416 115.035  0.00  0.00    -0.047 C 
ATOM      6  C   LIG d   1      -2.362  77.996 115.804  0.00  0.00     0.091 C 
ENDROOT
BRANCH   1   7
ATOM      7  O   LIG d   1      -4.641  77.159 115.472  0.00  0.00    -0.368 OA
BRANCH   7   8
ATOM      8  C   LIG d   1      -4.643  75.752 115.126  0.00  0.00     0.119 C 
BRANCH   8   9
ATOM      9  C   LIG d   1      -6.113  75.312 114.985  0.00  0.00     0.028 C 
ATOM     10  C   LIG d   1      -6.814  75.981 113.790  0.00  0.00     0.006 C 
ENDBRANCH   8   9
BRANCH   8  11
ATOM     11  C   LIG d   1      -4.071  74.898 116.261  0.00  0.00     0.028 C 
ATOM     12  C   LIG d   1      -2.575  74.594 116.083  0.00  0.00     0.006 C 
ENDBRANCH   8  11
ENDBRANCH   7   8
ENDBRANCH   1   7
BRANCH   6  13
ATOM     13  N   LIG d   1      -2.673  78.915 116.930  0.00  0.00    -0.311 N 
ATOM     14  C   LIG d   1      -2.786  78.513 118.194  0.00  0.00     0.210 C 
ATOM     15  C   LIG d   1      -3.131  79.619 119.196  0.00  0.00     0.109 C 
ATOM     16  O   LIG d   1      -2.603  77.351 118.586  0.00  0.00    -0.276 OA
ATOM     17  H   LIG d   1      -2.806  79.882 116.706  0.00  0.00     0.149 HD
ENDBRANCH   6  13
BRANCH   5  18
ATOM     18  N   LIG d   1       0.133  78.351 115.860  0.00  0.00     0.381 N 
ATOM     19  H   LIG d   1       0.183  77.465 116.323  0.00  0.00    -0.090 HD
ATOM     20  H   LIG d   1       0.090  79.070 116.561  0.00  0.00    -0.090 HD
ATOM     21  H   LIG d   1       0.938  78.481 115.289  0.00  0.00    -0.090 HD
ENDBRANCH   5  18
BRANCH   3  22
ATOM     22  C   LIG d   1      -1.868  77.088 111.696  0.00  0.00     0.382 C 
ATOM     23  O   LIG d   1      -1.247  76.062 111.327  0.00  0.00    -0.241 OA
ATOM     24  O   LIG d   1      -2.289  77.891 110.842  0.00  0.00    -0.241 OA
ENDBRANCH   3  22
TORSDOF 7
ENDMDL
