MODEL 1
REMARK VINA RESULT:      -4.8      0.000      0.000
REMARK  7 active torsions:
REMARK  status: ('A' for Active; 'I' for Inactive)
REMARK    1  A    between atoms: C_2  and  C_3 
REMARK    2  A    between atoms: C_3  and  O_6 
REMARK    3  A    between atoms: C_3  and  C_4 
REMARK    4  A    between atoms: C_7  and  O_6 
REMARK    5  A    between atoms: C_9  and  C_10 
REMARK    6  A    between atoms: N_15  and  C_14 
REMARK    7  A    between atoms: N_20  and  C_19 
REMARK       I    between atoms: C_22  and  N_20 
ROOT
ATOM      1  C   LIG d   1      -2.990  77.023 115.249  0.00  0.00     0.161 C 
ATOM      2  C   LIG d   1      -3.153  77.691 114.024  0.00  0.00     0.016 C 
ATOM      3  C   LIG d   1      -2.217  78.620 113.514  0.00  0.00     0.038 C 
ATOM      4  C   LIG d   1      -0.973  78.832 114.128  0.00  0.00     0.028 C 
ATOM      5  C   LIG d   1      -0.983  78.558 115.628  0.00  0.00    -0.047 C 
ATOM      6  C   LIG d   1      -1.587  77.158 115.878  0.00  0.00     0.091 C 
ENDROOT
BRANCH   1   7
ATOM      7  O   LIG d   1      -3.339  75.632 115.097  0.00  0.00    -0.368 OA
BRANCH   7   8
ATOM      8  C   LIG d   1      -4.563  75.208 115.745  0.00  0.00     0.119 C 
BRANCH   8   9
ATOM      9  C   LIG d   1      -4.182  74.181 116.828  0.00  0.00     0.028 C 
ATOM     10  C   LIG d   1      -4.815  74.503 118.192  0.00  0.00     0.006 C 
ENDBRANCH   8   9
BRANCH   8  11
ATOM     11  C   LIG d   1      -5.476  74.454 114.774  0.00  0.00     0.028 C 
ATOM     12  C   LIG d   1      -6.718  75.265 114.371  0.00  0.00     0.006 C 
ENDBRANCH   8  11
ENDBRANCH   7   8
ENDBRANCH   1   7
BRANCH   6  13
ATOM     13  N   LIG d   1      -1.711  76.844 117.325  0.00  0.00    -0.311 N 
ATOM     14  C   LIG d   1      -1.099  75.814 117.907  0.00  0.00     0.210 C 
ATOM     15  C   LIG d   1      -1.377  75.659 119.406  0.00  0.00     0.109 C 
ATOM     16  O   LIG d   1      -0.326  75.033 117.332  0.00  0.00    -0.276 OA
ATOM     17  H   LIG d   1      -2.294  77.445 117.874  0.00  0.00     0.149 HD
ENDBRANCH   6  13
BRANCH   5  18
ATOM     18  N   LIG d   1       0.405  78.684 116.113  0.00  0.00     0.381 N 
ATOM     19  H   LIG d   1       0.696  79.640 116.060  0.00  0.00    -0.090 HD
ATOM     20  H   LIG d   1       1.006  78.137 115.522  0.00  0.00    -0.090 HD
ATOM     21  H   LIG d   1       0.468  78.362 117.053  0.00  0.00    -0.090 HD
ENDBRANCH   5  18
BRANCH   3  22
ATOM     22  C   LIG d   1      -2.540  79.379 112.400  0.00  0.00     0.382 C 
ATOM     23  O   LIG d   1      -2.069  79.075 111.277  0.00  0.00    -0.241 OA
ATOM     24  O   LIG d   1      -3.260  80.390 112.510  0.00  0.00    -0.241 OA
ENDBRANCH   3  22
TORSDOF 7
ENDMDL
MODEL 2
REMARK VINA RESULT:      -4.7      0.671      1.609
REMARK  7 active torsions:
REMARK  status: ('A' for Active; 'I' for Inactive)
REMARK    1  A    between atoms: C_2  and  C_3 
REMARK    2  A    between atoms: C_3  and  O_6 
REMARK    3  A    between atoms: C_3  and  C_4 
REMARK    4  A    between atoms: C_7  and  O_6 
REMARK    5  A    between atoms: C_9  and  C_10 
REMARK    6  A    between atoms: N_15  and  C_14 
REMARK    7  A    between atoms: N_20  and  C_19 
REMARK       I    between atoms: C_22  and  N_20 
ROOT
ATOM      1  C   LIG d   1      -3.007  76.599 115.391  0.00  0.00     0.161 C 
ATOM      2  C   LIG d   1      -3.186  77.438 114.279  0.00  0.00     0.016 C 
ATOM      3  C   LIG d   1      -2.261  78.439 113.901  0.00  0.00     0.038 C 
ATOM      4  C   LIG d   1      -1.012  78.568 114.527  0.00  0.00     0.028 C 
ATOM      5  C   LIG d   1      -1.005  78.077 115.971  0.00  0.00    -0.047 C 
ATOM      6  C   LIG d   1      -1.598  76.651 116.020  0.00  0.00     0.091 C 
ENDROOT
BRANCH   1   7
ATOM      7  O   LIG d   1      -3.350  75.244 115.042  0.00  0.00    -0.368 OA
BRANCH   7   8
ATOM      8  C   LIG d   1      -4.497  74.680 115.724  0.00  0.00     0.119 C 
BRANCH   8   9
ATOM      9  C   LIG d   1      -5.561  74.362 114.655  0.00  0.00     0.028 C 
ATOM     10  C   LIG d   1      -6.706  75.388 114.644  0.00  0.00     0.006 C 
ENDBRANCH   8   9
BRANCH   8  11
ATOM     11  C   LIG d   1      -5.151  75.705 116.655  0.00  0.00     0.028 C 
ATOM     12  C   LIG d   1      -5.194  75.239 118.118  0.00  0.00     0.006 C 
ENDBRANCH   8  11
ENDBRANCH   7   8
ENDBRANCH   1   7
BRANCH   6  13
ATOM     13  N   LIG d   1      -1.705  76.129 117.407  0.00  0.00    -0.311 N 
ATOM     14  C   LIG d   1      -1.214  74.950 117.787  0.00  0.00     0.210 C 
ATOM     15  C   LIG d   1      -1.451  74.595 119.258  0.00  0.00     0.109 C 
ATOM     16  O   LIG d   1      -0.577  74.180 117.053  0.00  0.00    -0.276 OA
ATOM     17  H   LIG d   1      -2.180  76.704 118.076  0.00  0.00     0.149 HD
ENDBRANCH   6  13
BRANCH   5  18
ATOM     18  N   LIG d   1       0.387  78.141 116.456  0.00  0.00     0.381 N 
ATOM     19  H   LIG d   1       0.669  79.097 116.551  0.00  0.00    -0.090 HD
ATOM     20  H   LIG d   1       0.987  77.701 115.781  0.00  0.00    -0.090 HD
ATOM     21  H   LIG d   1       0.464  77.676 117.334  0.00  0.00    -0.090 HD
ENDBRANCH   5  18
BRANCH   3  22
ATOM     22  C   LIG d   1      -2.600  79.349 112.912  0.00  0.00     0.382 C 
ATOM     23  O   LIG d   1      -2.370  79.081 111.708  0.00  0.00    -0.241 OA
ATOM     24  O   LIG d   1      -3.091  80.454 113.212  0.00  0.00    -0.241 OA
ENDBRANCH   3  22
TORSDOF 7
ENDMDL
MODEL 3
REMARK VINA RESULT:      -4.4      1.836      4.784
REMARK  7 active torsions:
REMARK  status: ('A' for Active; 'I' for Inactive)
REMARK    1  A    between atoms: C_2  and  C_3 
REMARK    2  A    between atoms: C_3  and  O_6 
REMARK    3  A    between atoms: C_3  and  C_4 
REMARK    4  A    between atoms: C_7  and  O_6 
REMARK    5  A    between atoms: C_9  and  C_10 
REMARK    6  A    between atoms: N_15  and  C_14 
REMARK    7  A    between atoms: N_20  and  C_19 
REMARK       I    between atoms: C_22  and  N_20 
ROOT
ATOM      1  C   LIG d   1      -2.755  76.604 115.311  0.00  0.00     0.161 C 
ATOM      2  C   LIG d   1      -2.526  76.378 116.678  0.00  0.00     0.016 C 
ATOM      3  C   LIG d   1      -1.537  77.060 117.424  0.00  0.00     0.038 C 
ATOM      4  C   LIG d   1      -0.806  78.129 116.884  0.00  0.00     0.028 C 
ATOM      5  C   LIG d   1      -0.651  78.052 115.369  0.00  0.00    -0.047 C 
ATOM      6  C   LIG d   1      -2.044  77.844 114.732  0.00  0.00     0.091 C 
ENDROOT
BRANCH   1   7
ATOM      7  O   LIG d   1      -4.172  76.675 115.058  0.00  0.00    -0.368 OA
BRANCH   7   8
ATOM      8  C   LIG d   1      -5.008  75.804 115.859  0.00  0.00     0.119 C 
BRANCH   8   9
ATOM      9  C   LIG d   1      -5.545  74.697 114.932  0.00  0.00     0.028 C 
ATOM     10  C   LIG d   1      -6.928  74.184 115.369  0.00  0.00     0.006 C 
ENDBRANCH   8   9
BRANCH   8  11
ATOM     11  C   LIG d   1      -6.249  76.539 116.374  0.00  0.00     0.028 C 
ATOM     12  C   LIG d   1      -5.903  77.819 117.151  0.00  0.00     0.006 C 
ENDBRANCH   8  11
ENDBRANCH   7   8
ENDBRANCH   1   7
BRANCH   6  13
ATOM     13  N   LIG d   1      -1.972  77.674 113.257  0.00  0.00    -0.311 N 
ATOM     14  C   LIG d   1      -2.609  78.466 112.396  0.00  0.00     0.210 C 
ATOM     15  C   LIG d   1      -2.417  78.104 110.920  0.00  0.00     0.109 C 
ATOM     16  O   LIG d   1      -3.290  79.453 112.713  0.00  0.00    -0.276 OA
ATOM     17  H   LIG d   1      -1.417  76.916 112.911  0.00  0.00     0.149 HD
ENDBRANCH   6  13
BRANCH   5  18
ATOM     18  N   LIG d   1       0.009  79.294 114.926  0.00  0.00     0.381 N 
ATOM     19  H   LIG d   1       0.972  79.281 115.194  0.00  0.00    -0.090 HD
ATOM     20  H   LIG d   1      -0.433  80.076 115.376  0.00  0.00    -0.090 HD
ATOM     21  H   LIG d   1      -0.066  79.385 113.936  0.00  0.00    -0.090 HD
ENDBRANCH   5  18
BRANCH   3  22
ATOM     22  C   LIG d   1      -1.243  76.646 118.715  0.00  0.00     0.382 C 
ATOM     23  O   LIG d   1      -0.161  76.986 119.251  0.00  0.00    -0.241 OA
ATOM     24  O   LIG d   1      -2.026  75.901 119.333  0.00  0.00    -0.241 OA
ENDBRANCH   3  22
TORSDOF 7
ENDMDL
MODEL 4
REMARK VINA RESULT:      -4.3      1.219      1.341
REMARK  7 active torsions:
REMARK  status: ('A' for Active; 'I' for Inactive)
REMARK    1  A    between atoms: C_2  and  C_3 
REMARK    2  A    between atoms: C_3  and  O_6 
REMARK    3  A    between atoms: C_3  and  C_4 
REMARK    4  A    between atoms: C_7  and  O_6 
REMARK    5  A    between atoms: C_9  and  C_10 
REMARK    6  A    between atoms: N_15  and  C_14 
REMARK    7  A    between atoms: N_20  and  C_19 
REMARK       I    between atoms: C_22  and  N_20 
ROOT
ATOM      1  C   LIG d   1      -2.931  76.983 115.269  0.00  0.00     0.161 C 
ATOM      2  C   LIG d   1      -3.182  77.109 113.892  0.00  0.00     0.016 C 
ATOM      3  C   LIG d   1      -2.386  77.892 113.025  0.00  0.00     0.038 C 
ATOM      4  C   LIG d   1      -1.188  78.485 113.451  0.00  0.00     0.028 C 
ATOM      5  C   LIG d   1      -1.167  78.802 114.943  0.00  0.00    -0.047 C 
ATOM      6  C   LIG d   1      -1.566  77.533 115.731  0.00  0.00     0.091 C 
ENDROOT
BRANCH   1   7
ATOM      7  O   LIG d   1      -3.078  75.606 115.668  0.00  0.00    -0.368 OA
BRANCH   7   8
ATOM      8  C   LIG d   1      -4.390  75.215 116.141  0.00  0.00     0.119 C 
BRANCH   8   9
ATOM      9  C   LIG d   1      -4.189  74.181 117.266  0.00  0.00     0.028 C 
ATOM     10  C   LIG d   1      -3.154  74.640 118.307  0.00  0.00     0.006 C 
ENDBRANCH   8   9
BRANCH   8  11
ATOM     11  C   LIG d   1      -5.179  74.482 115.052  0.00  0.00     0.028 C 
ATOM     12  C   LIG d   1      -6.622  74.993 114.915  0.00  0.00     0.006 C 
ENDBRANCH   8  11
ENDBRANCH   7   8
ENDBRANCH   1   7
BRANCH   6  13
ATOM     13  N   LIG d   1      -1.652  77.778 117.194  0.00  0.00    -0.311 N 
ATOM     14  C   LIG d   1      -0.649  77.540 118.038  0.00  0.00     0.210 C 
ATOM     15  C   LIG d   1      -0.954  77.844 119.508  0.00  0.00     0.109 C 
ATOM     16  O   LIG d   1       0.476  77.137 117.703  0.00  0.00    -0.276 OA
ATOM     17  H   LIG d   1      -2.518  78.135 117.547  0.00  0.00     0.149 HD
ENDBRANCH   6  13
BRANCH   5  18
ATOM     18  N   LIG d   1       0.186  79.287 115.276  0.00  0.00     0.381 N 
ATOM     19  H   LIG d   1       0.195  80.288 115.279  0.00  0.00    -0.090 HD
ATOM     20  H   LIG d   1       0.828  78.968 114.572  0.00  0.00    -0.090 HD
ATOM     21  H   LIG d   1       0.462  78.942 116.169  0.00  0.00    -0.090 HD
ENDBRANCH   5  18
BRANCH   3  22
ATOM     22  C   LIG d   1      -2.807  78.120 111.724  0.00  0.00     0.382 C 
ATOM     23  O   LIG d   1      -3.893  77.636 111.323  0.00  0.00    -0.241 OA
ATOM     24  O   LIG d   1      -2.094  78.766 110.933  0.00  0.00    -0.241 OA
ENDBRANCH   3  22
TORSDOF 7
ENDMDL
MODEL 5
REMARK VINA RESULT:      -4.3      2.262      2.737
REMARK  7 active torsions:
REMARK  status: ('A' for Active; 'I' for Inactive)
REMARK    1  A    between atoms: C_2  and  C_3 
REMARK    2  A    between atoms: C_3  and  O_6 
REMARK    3  A    between atoms: C_3  and  C_4 
REMARK    4  A    between atoms: C_7  and  O_6 
REMARK    5  A    between atoms: C_9  and  C_10 
REMARK    6  A    between atoms: N_15  and  C_14 
REMARK    7  A    between atoms: N_20  and  C_19 
REMARK       I    between atoms: C_22  and  N_20 
ROOT
ATOM      1  C   LIG d   1      -2.414  78.081 116.438  0.00  0.00     0.161 C 
ATOM      2  C   LIG d   1      -2.817  78.809 115.306  0.00  0.00     0.016 C 
ATOM      3  C   LIG d   1      -2.319  78.564 114.006  0.00  0.00     0.038 C 
ATOM      4  C   LIG d   1      -1.491  77.467 113.723  0.00  0.00     0.028 C 
ATOM      5  C   LIG d   1      -0.660  77.012 114.918  0.00  0.00    -0.047 C 
ATOM      6  C   LIG d   1      -1.596  76.809 116.132  0.00  0.00     0.091 C 
ENDROOT
BRANCH   1   7
ATOM      7  O   LIG d   1      -3.564  77.755 117.244  0.00  0.00    -0.368 OA
BRANCH   7   8
ATOM      8  C   LIG d   1      -4.778  78.486 116.947  0.00  0.00     0.119 C 
BRANCH   8   9
ATOM      9  C   LIG d   1      -5.004  79.494 118.090  0.00  0.00     0.028 C 
ATOM     10  C   LIG d   1      -6.010  80.595 117.712  0.00  0.00     0.006 C 
ENDBRANCH   8   9
BRANCH   8  11
ATOM     11  C   LIG d   1      -6.002  77.566 116.970  0.00  0.00     0.028 C 
ATOM     12  C   LIG d   1      -5.725  76.190 116.344  0.00  0.00     0.006 C 
ENDBRANCH   8  11
ENDBRANCH   7   8
ENDBRANCH   1   7
BRANCH   6  13
ATOM     13  N   LIG d   1      -0.853  76.444 117.366  0.00  0.00    -0.311 N 
ATOM     14  C   LIG d   1      -0.606  75.186 117.728  0.00  0.00     0.210 C 
ATOM     15  C   LIG d   1       0.159  75.031 119.046  0.00  0.00     0.109 C 
ATOM     16  O   LIG d   1      -0.919  74.185 117.066  0.00  0.00    -0.276 OA
ATOM     17  H   LIG d   1      -0.535  77.195 117.946  0.00  0.00     0.149 HD
ENDBRANCH   6  13
BRANCH   5  18
ATOM     18  N   LIG d   1       0.050  75.780 114.524  0.00  0.00     0.381 N 
ATOM     19  H   LIG d   1       0.040  75.688 113.527  0.00  0.00    -0.090 HD
ATOM     20  H   LIG d   1      -0.427  74.989 114.919  0.00  0.00    -0.090 HD
ATOM     21  H   LIG d   1       0.990  75.809 114.852  0.00  0.00    -0.090 HD
ENDBRANCH   5  18
BRANCH   3  22
ATOM     22  C   LIG d   1      -2.617  79.446 112.978  0.00  0.00     0.382 C 
ATOM     23  O   LIG d   1      -3.136  80.559 113.238  0.00  0.00    -0.241 OA
ATOM     24  O   LIG d   1      -2.415  79.126 111.792  0.00  0.00    -0.241 OA
ENDBRANCH   3  22
TORSDOF 7
ENDMDL
MODEL 6
REMARK VINA RESULT:      -4.2      2.402      3.450
REMARK  7 active torsions:
REMARK  status: ('A' for Active; 'I' for Inactive)
REMARK    1  A    between atoms: C_2  and  C_3 
REMARK    2  A    between atoms: C_3  and  O_6 
REMARK    3  A    between atoms: C_3  and  C_4 
REMARK    4  A    between atoms: C_7  and  O_6 
REMARK    5  A    between atoms: C_9  and  C_10 
REMARK    6  A    between atoms: N_15  and  C_14 
REMARK    7  A    between atoms: N_20  and  C_19 
REMARK       I    between atoms: C_22  and  N_20 
ROOT
ATOM      1  C   LIG d   1      -2.888  78.350 115.310  0.00  0.00     0.161 C 
ATOM      2  C   LIG d   1      -2.997  79.490 114.495  0.00  0.00     0.016 C 
ATOM      3  C   LIG d   1      -2.381  79.602 113.228  0.00  0.00     0.038 C 
ATOM      4  C   LIG d   1      -1.735  78.516 112.618  0.00  0.00     0.028 C 
ATOM      5  C   LIG d   1      -1.168  77.511 113.616  0.00  0.00    -0.047 C 
ATOM      6  C   LIG d   1      -2.280  77.114 114.614  0.00  0.00     0.091 C 
ENDROOT
BRANCH   1   7
ATOM      7  O   LIG d   1      -4.175  78.026 115.871  0.00  0.00    -0.368 OA
BRANCH   7   8
ATOM      8  C   LIG d   1      -4.246  77.981 117.318  0.00  0.00     0.119 C 
BRANCH   8   9
ATOM      9  C   LIG d   1      -5.537  78.708 117.741  0.00  0.00     0.028 C 
ATOM     10  C   LIG d   1      -5.467  80.224 117.488  0.00  0.00     0.006 C 
ENDBRANCH   8   9
BRANCH   8  11
ATOM     11  C   LIG d   1      -3.104  78.777 117.957  0.00  0.00     0.028 C 
ATOM     12  C   LIG d   1      -2.774  78.306 119.382  0.00  0.00     0.006 C 
ENDBRANCH   8  11
ENDBRANCH   7   8
ENDBRANCH   1   7
BRANCH   6  13
ATOM     13  N   LIG d   1      -1.787  76.198 115.675  0.00  0.00    -0.311 N 
ATOM     14  C   LIG d   1      -2.390  75.053 115.993  0.00  0.00     0.210 C 
ATOM     15  C   LIG d   1      -1.728  74.268 117.130  0.00  0.00     0.109 C 
ATOM     16  O   LIG d   1      -3.390  74.597 115.418  0.00  0.00    -0.276 OA
ATOM     17  H   LIG d   1      -0.963  76.475 116.171  0.00  0.00     0.149 HD
ENDBRANCH   6  13
BRANCH   5  18
ATOM     18  N   LIG d   1      -0.646  76.366 112.846  0.00  0.00     0.381 N 
ATOM     19  H   LIG d   1      -0.432  76.655 111.913  0.00  0.00    -0.090 HD
ATOM     20  H   LIG d   1      -1.354  75.654 112.802  0.00  0.00    -0.090 HD
ATOM     21  H   LIG d   1       0.171  76.004 113.286  0.00  0.00    -0.090 HD
ENDBRANCH   5  18
BRANCH   3  22
ATOM     22  C   LIG d   1      -2.374  80.824 112.573  0.00  0.00     0.382 C 
ATOM     23  O   LIG d   1      -3.394  81.555 112.598  0.00  0.00    -0.241 OA
ATOM     24  O   LIG d   1      -1.377  81.186 111.921  0.00  0.00    -0.241 OA
ENDBRANCH   3  22
TORSDOF 7
ENDMDL
MODEL 7
REMARK VINA RESULT:      -4.1      1.634      4.865
REMARK  7 active torsions:
REMARK  status: ('A' for Active; 'I' for Inactive)
REMARK    1  A    between atoms: C_2  and  C_3 
REMARK    2  A    between atoms: C_3  and  O_6 
REMARK    3  A    between atoms: C_3  and  C_4 
REMARK    4  A    between atoms: C_7  and  O_6 
REMARK    5  A    between atoms: C_9  and  C_10 
REMARK    6  A    between atoms: N_15  and  C_14 
REMARK    7  A    between atoms: N_20  and  C_19 
REMARK       I    between atoms: C_22  and  N_20 
ROOT
ATOM      1  C   LIG d   1      -1.646  75.019 115.723  0.00  0.00     0.161 C 
ATOM      2  C   LIG d   1      -1.068  74.564 116.920  0.00  0.00     0.016 C 
ATOM      3  C   LIG d   1      -0.317  75.392 117.785  0.00  0.00     0.038 C 
ATOM      4  C   LIG d   1      -0.219  76.777 117.586  0.00  0.00     0.028 C 
ATOM      5  C   LIG d   1      -0.361  77.191 116.125  0.00  0.00    -0.047 C 
ATOM      6  C   LIG d   1      -1.644  76.552 115.545  0.00  0.00     0.091 C 
ENDROOT
BRANCH   1   7
ATOM      7  O   LIG d   1      -2.985  74.502 115.599  0.00  0.00    -0.368 OA
BRANCH   7   8
ATOM      8  C   LIG d   1      -4.031  75.284 116.228  0.00  0.00     0.119 C 
BRANCH   8   9
ATOM      9  C   LIG d   1      -4.615  74.438 117.375  0.00  0.00     0.028 C 
ATOM     10  C   LIG d   1      -5.605  75.232 118.244  0.00  0.00     0.006 C 
ENDBRANCH   8   9
BRANCH   8  11
ATOM     11  C   LIG d   1      -5.199  75.527 115.267  0.00  0.00     0.028 C 
ATOM     12  C   LIG d   1      -5.772  74.226 114.685  0.00  0.00     0.006 C 
ENDBRANCH   8  11
ENDBRANCH   7   8
ENDBRANCH   1   7
BRANCH   6  13
ATOM     13  N   LIG d   1      -1.814  76.837 114.097  0.00  0.00    -0.311 N 
ATOM     14  C   LIG d   1      -2.565  77.832 113.629  0.00  0.00     0.210 C 
ATOM     15  C   LIG d   1      -2.620  77.938 112.102  0.00  0.00     0.109 C 
ATOM     16  O   LIG d   1      -3.165  78.657 114.334  0.00  0.00    -0.276 OA
ATOM     17  H   LIG d   1      -1.337  76.235 113.454  0.00  0.00     0.149 HD
ENDBRANCH   6  13
BRANCH   5  18
ATOM     18  N   LIG d   1      -0.378  78.665 116.079  0.00  0.00     0.381 N 
ATOM     19  H   LIG d   1      -0.222  79.034 116.996  0.00  0.00    -0.090 HD
ATOM     20  H   LIG d   1      -1.283  78.970 115.766  0.00  0.00    -0.090 HD
ATOM     21  H   LIG d   1       0.326  78.995 115.456  0.00  0.00    -0.090 HD
ENDBRANCH   5  18
BRANCH   3  22
ATOM     22  C   LIG d   1       0.380  74.828 118.843  0.00  0.00     0.382 C 
ATOM     23  O   LIG d   1       1.629  74.930 118.896  0.00  0.00    -0.241 OA
ATOM     24  O   LIG d   1      -0.220  74.180 119.721  0.00  0.00    -0.241 OA
ENDBRANCH   3  22
TORSDOF 7
ENDMDL
MODEL 8
REMARK VINA RESULT:      -3.9      3.286      4.575
REMARK  7 active torsions:
REMARK  status: ('A' for Active; 'I' for Inactive)
REMARK    1  A    between atoms: C_2  and  C_3 
REMARK    2  A    between atoms: C_3  and  O_6 
REMARK    3  A    between atoms: C_3  and  C_4 
REMARK    4  A    between atoms: C_7  and  O_6 
REMARK    5  A    between atoms: C_9  and  C_10 
REMARK    6  A    between atoms: N_15  and  C_14 
REMARK    7  A    between atoms: N_20  and  C_19 
REMARK       I    between atoms: C_22  and  N_20 
ROOT
ATOM      1  C   LIG d   1      -3.088  78.374 116.845  0.00  0.00     0.161 C 
ATOM      2  C   LIG d   1      -2.146  79.358 117.188  0.00  0.00     0.016 C 
ATOM      3  C   LIG d   1      -0.816  79.363 116.707  0.00  0.00     0.038 C 
ATOM      4  C   LIG d   1      -0.380  78.462 115.724  0.00  0.00     0.028 C 
ATOM      5  C   LIG d   1      -1.147  77.145 115.726  0.00  0.00    -0.047 C 
ATOM      6  C   LIG d   1      -2.663  77.447 115.687  0.00  0.00     0.091 C 
ENDROOT
BRANCH   1   7
ATOM      7  O   LIG d   1      -4.356  78.993 116.551  0.00  0.00    -0.368 OA
BRANCH   7   8
ATOM      8  C   LIG d   1      -5.330  78.993 117.624  0.00  0.00     0.119 C 
BRANCH   8   9
ATOM      9  C   LIG d   1      -6.363  77.894 117.310  0.00  0.00     0.028 C 
ATOM     10  C   LIG d   1      -6.209  76.665 118.223  0.00  0.00     0.006 C 
ENDBRANCH   8   9
BRANCH   8  11
ATOM     11  C   LIG d   1      -6.126  80.301 117.655  0.00  0.00     0.028 C 
ATOM     12  C   LIG d   1      -5.782  81.178 118.869  0.00  0.00     0.006 C 
ENDBRANCH   8  11
ENDBRANCH   7   8
ENDBRANCH   1   7
BRANCH   6  13
ATOM     13  N   LIG d   1      -3.489  76.214 115.772  0.00  0.00    -0.311 N 
ATOM     14  C   LIG d   1      -4.356  75.846 114.830  0.00  0.00     0.210 C 
ATOM     15  C   LIG d   1      -5.120  74.552 115.124  0.00  0.00     0.109 C 
ATOM     16  O   LIG d   1      -4.541  76.452 113.763  0.00  0.00    -0.276 OA
ATOM     17  H   LIG d   1      -3.379  75.647 116.589  0.00  0.00     0.149 HD
ENDBRANCH   6  13
BRANCH   5  18
ATOM     18  N   LIG d   1      -0.685  76.357 114.568  0.00  0.00     0.381 N 
ATOM     19  H   LIG d   1      -1.237  76.581 113.764  0.00  0.00    -0.090 HD
ATOM     20  H   LIG d   1      -0.805  75.380 114.770  0.00  0.00    -0.090 HD
ATOM     21  H   LIG d   1       0.275  76.551 114.385  0.00  0.00    -0.090 HD
ENDBRANCH   5  18
BRANCH   3  22
ATOM     22  C   LIG d   1       0.104  80.253 117.240  0.00  0.00     0.382 C 
ATOM     23  O   LIG d   1       0.153  80.436 118.480  0.00  0.00    -0.241 OA
ATOM     24  O   LIG d   1       0.855  80.908 116.493  0.00  0.00    -0.241 OA
ENDBRANCH   3  22
TORSDOF 7
ENDMDL
MODEL 9
REMARK VINA RESULT:      -3.8      1.697      2.207
REMARK  7 active torsions:
REMARK  status: ('A' for Active; 'I' for Inactive)
REMARK    1  A    between atoms: C_2  and  C_3 
REMARK    2  A    between atoms: C_3  and  O_6 
REMARK    3  A    between atoms: C_3  and  C_4 
REMARK    4  A    between atoms: C_7  and  O_6 
REMARK    5  A    between atoms: C_9  and  C_10 
REMARK    6  A    between atoms: N_15  and  C_14 
REMARK    7  A    between atoms: N_20  and  C_19 
REMARK       I    between atoms: C_22  and  N_20 
ROOT
ATOM      1  C   LIG d   1      -3.166  77.026 114.784  0.00  0.00     0.161 C 
ATOM      2  C   LIG d   1      -2.692  77.241 113.479  0.00  0.00     0.016 C 
ATOM      3  C   LIG d   1      -1.671  78.167 113.165  0.00  0.00     0.038 C 
ATOM      4  C   LIG d   1      -0.945  78.836 114.162  0.00  0.00     0.028 C 
ATOM      5  C   LIG d   1      -1.728  79.028 115.456  0.00  0.00    -0.047 C 
ATOM      6  C   LIG d   1      -2.310  77.665 115.897  0.00  0.00     0.091 C 
ENDROOT
BRANCH   1   7
ATOM      7  O   LIG d   1      -3.321  75.612 115.021  0.00  0.00    -0.368 OA
BRANCH   7   8
ATOM      8  C   LIG d   1      -4.527  75.211 115.716  0.00  0.00     0.119 C 
BRANCH   8   9
ATOM      9  C   LIG d   1      -4.119  74.199 116.804  0.00  0.00     0.028 C 
ATOM     10  C   LIG d   1      -5.102  74.180 117.987  0.00  0.00     0.006 C 
ENDBRANCH   8   9
BRANCH   8  11
ATOM     11  C   LIG d   1      -5.478  74.449 114.788  0.00  0.00     0.028 C 
ATOM     12  C   LIG d   1      -6.532  75.358 114.138  0.00  0.00     0.006 C 
ENDBRANCH   8  11
ENDBRANCH   7   8
ENDBRANCH   1   7
BRANCH   6  13
ATOM     13  N   LIG d   1      -3.162  77.778 117.110  0.00  0.00    -0.311 N 
ATOM     14  C   LIG d   1      -4.175  78.636 117.217  0.00  0.00     0.210 C 
ATOM     15  C   LIG d   1      -4.910  78.603 118.561  0.00  0.00     0.109 C 
ATOM     16  O   LIG d   1      -4.556  79.397 116.315  0.00  0.00    -0.276 OA
ATOM     17  H   LIG d   1      -2.942  77.175 117.879  0.00  0.00     0.149 HD
ENDBRANCH   6  13
BRANCH   5  18
ATOM     18  N   LIG d   1      -0.809  79.613 116.451  0.00  0.00     0.381 N 
ATOM     19  H   LIG d   1      -1.310  80.243 117.046  0.00  0.00    -0.090 HD
ATOM     20  H   LIG d   1      -0.097  80.133 115.969  0.00  0.00    -0.090 HD
ATOM     21  H   LIG d   1      -0.392  78.891 116.996  0.00  0.00    -0.090 HD
ENDBRANCH   5  18
BRANCH   3  22
ATOM     22  C   LIG d   1      -1.394  78.461 111.839  0.00  0.00     0.382 C 
ATOM     23  O   LIG d   1      -0.870  77.593 111.100  0.00  0.00    -0.241 OA
ATOM     24  O   LIG d   1      -1.620  79.598 111.383  0.00  0.00    -0.241 OA
ENDBRANCH   3  22
TORSDOF 7
ENDMDL
