MODEL 1
REMARK VINA RESULT:      -5.4      0.000      0.000
REMARK  7 active torsions:
REMARK  status: ('A' for Active; 'I' for Inactive)
REMARK    1  A    between atoms: C_2  and  C_3 
REMARK    2  A    between atoms: C_3  and  O_6 
REMARK    3  A    between atoms: C_3  and  C_4 
REMARK    4  A    between atoms: C_7  and  O_6 
REMARK    5  A    between atoms: C_9  and  C_10 
REMARK    6  A    between atoms: N_15  and  C_14 
REMARK    7  A    between atoms: N_20  and  C_19 
REMARK       I    between atoms: C_22  and  N_20 
ROOT
ATOM      1  C   LIG d   1      -2.953  77.848 115.827  0.00  0.00     0.161 C 
ATOM      2  C   LIG d   1      -3.188  78.555 114.637  0.00  0.00     0.016 C 
ATOM      3  C   LIG d   1      -2.357  78.457 113.496  0.00  0.00     0.038 C 
ATOM      4  C   LIG d   1      -1.314  77.522 113.417  0.00  0.00     0.028 C 
ATOM      5  C   LIG d   1      -0.732  77.148 114.776  0.00  0.00    -0.047 C 
ATOM      6  C   LIG d   1      -1.884  76.740 115.721  0.00  0.00     0.091 C 
ENDROOT
BRANCH   1   7
ATOM      7  O   LIG d   1      -4.192  77.303 116.324  0.00  0.00    -0.368 OA
BRANCH   7   8
ATOM      8  C   LIG d   1      -4.573  76.007 115.802  0.00  0.00     0.119 C 
BRANCH   8   9
ATOM      9  C   LIG d   1      -5.914  76.181 115.064  0.00  0.00     0.028 C 
ATOM     10  C   LIG d   1      -5.791  75.923 113.553  0.00  0.00     0.006 C 
ENDBRANCH   8   9
BRANCH   8  11
ATOM     11  C   LIG d   1      -4.858  75.013 116.932  0.00  0.00     0.028 C 
ATOM     12  C   LIG d   1      -6.302  74.489 116.914  0.00  0.00     0.006 C 
ENDBRANCH   8  11
ENDBRANCH   7   8
ENDBRANCH   1   7
BRANCH   6  13
ATOM     13  N   LIG d   1      -1.410  76.439 117.097  0.00  0.00    -0.311 N 
ATOM     14  C   LIG d   1      -1.160  75.206 117.533  0.00  0.00     0.210 C 
ATOM     15  C   LIG d   1      -0.699  75.117 118.992  0.00  0.00     0.109 C 
ATOM     16  O   LIG d   1      -1.245  74.180 116.842  0.00  0.00    -0.276 OA
ATOM     17  H   LIG d   1      -1.284  77.216 117.716  0.00  0.00     0.149 HD
ENDBRANCH   6  13
BRANCH   5  18
ATOM     18  N   LIG d   1       0.249  76.067 114.559  0.00  0.00     0.381 N 
ATOM     19  H   LIG d   1       0.129  75.681 113.643  0.00  0.00    -0.090 HD
ATOM     20  H   LIG d   1       0.085  75.340 115.232  0.00  0.00    -0.090 HD
ATOM     21  H   LIG d   1       1.174  76.421 114.660  0.00  0.00    -0.090 HD
ENDBRANCH   5  18
BRANCH   3  22
ATOM     22  C   LIG d   1      -2.543  79.328 112.434  0.00  0.00     0.382 C 
ATOM     23  O   LIG d   1      -2.045  79.065 111.313  0.00  0.00    -0.241 OA
ATOM     24  O   LIG d   1      -3.163  80.396 112.594  0.00  0.00    -0.241 OA
ENDBRANCH   3  22
TORSDOF 7
ENDMDL
MODEL 2
REMARK VINA RESULT:      -5.3      1.643      4.989
REMARK  7 active torsions:
REMARK  status: ('A' for Active; 'I' for Inactive)
REMARK    1  A    between atoms: C_2  and  C_3 
REMARK    2  A    between atoms: C_3  and  O_6 
REMARK    3  A    between atoms: C_3  and  C_4 
REMARK    4  A    between atoms: C_7  and  O_6 
REMARK    5  A    between atoms: C_9  and  C_10 
REMARK    6  A    between atoms: N_15  and  C_14 
REMARK    7  A    between atoms: N_20  and  C_19 
REMARK       I    between atoms: C_22  and  N_20 
ROOT
ATOM      1  C   LIG d   1      -2.274  75.140 115.408  0.00  0.00     0.161 C 
ATOM      2  C   LIG d   1      -1.664  74.654 116.576  0.00  0.00     0.016 C 
ATOM      3  C   LIG d   1      -0.635  75.341 117.259  0.00  0.00     0.038 C 
ATOM      4  C   LIG d   1      -0.248  76.642 116.903  0.00  0.00     0.028 C 
ATOM      5  C   LIG d   1      -0.483  76.962 115.431  0.00  0.00    -0.047 C 
ATOM      6  C   LIG d   1      -1.943  76.608 115.067  0.00  0.00     0.091 C 
ENDROOT
BRANCH   1   7
ATOM      7  O   LIG d   1      -3.702  74.954 115.489  0.00  0.00    -0.368 OA
BRANCH   7   8
ATOM      8  C   LIG d   1      -4.460  76.066 116.025  0.00  0.00     0.119 C 
BRANCH   8   9
ATOM      9  C   LIG d   1      -5.041  75.619 117.381  0.00  0.00     0.028 C 
ATOM     10  C   LIG d   1      -6.089  74.503 117.231  0.00  0.00     0.006 C 
ENDBRANCH   8   9
BRANCH   8  11
ATOM     11  C   LIG d   1      -5.674  76.386 115.149  0.00  0.00     0.028 C 
ATOM     12  C   LIG d   1      -5.646  75.652 113.799  0.00  0.00     0.006 C 
ENDBRANCH   8  11
ENDBRANCH   7   8
ENDBRANCH   1   7
BRANCH   6  13
ATOM     13  N   LIG d   1      -2.233  76.811 113.624  0.00  0.00    -0.311 N 
ATOM     14  C   LIG d   1      -2.779  77.923 113.135  0.00  0.00     0.210 C 
ATOM     15  C   LIG d   1      -3.013  77.918 111.621  0.00  0.00     0.109 C 
ATOM     16  O   LIG d   1      -3.063  78.926 113.808  0.00  0.00    -0.276 OA
ATOM     17  H   LIG d   1      -2.006  76.060 113.003  0.00  0.00     0.149 HD
ENDBRANCH   6  13
BRANCH   5  18
ATOM     18  N   LIG d   1      -0.166  78.388 115.228  0.00  0.00     0.381 N 
ATOM     19  H   LIG d   1       0.603  78.477 114.594  0.00  0.00    -0.090 HD
ATOM     20  H   LIG d   1       0.103  78.789 116.109  0.00  0.00    -0.090 HD
ATOM     21  H   LIG d   1      -0.962  78.866 114.866  0.00  0.00    -0.090 HD
ENDBRANCH   5  18
BRANCH   3  22
ATOM     22  C   LIG d   1       0.048  74.710 118.289  0.00  0.00     0.382 C 
ATOM     23  O   LIG d   1       1.270  74.456 118.167  0.00  0.00    -0.241 OA
ATOM     24  O   LIG d   1      -0.554  74.352 119.319  0.00  0.00    -0.241 OA
ENDBRANCH   3  22
TORSDOF 7
ENDMDL
MODEL 3
REMARK VINA RESULT:      -5.1      1.398      1.913
REMARK  7 active torsions:
REMARK  status: ('A' for Active; 'I' for Inactive)
REMARK    1  A    between atoms: C_2  and  C_3 
REMARK    2  A    between atoms: C_3  and  O_6 
REMARK    3  A    between atoms: C_3  and  C_4 
REMARK    4  A    between atoms: C_7  and  O_6 
REMARK    5  A    between atoms: C_9  and  C_10 
REMARK    6  A    between atoms: N_15  and  C_14 
REMARK    7  A    between atoms: N_20  and  C_19 
REMARK       I    between atoms: C_22  and  N_20 
ROOT
ATOM      1  C   LIG d   1      -2.854  76.595 116.432  0.00  0.00     0.161 C 
ATOM      2  C   LIG d   1      -3.260  77.054 115.168  0.00  0.00     0.016 C 
ATOM      3  C   LIG d   1      -2.377  77.207 114.075  0.00  0.00     0.038 C 
ATOM      4  C   LIG d   1      -1.046  76.766 114.129  0.00  0.00     0.028 C 
ATOM      5  C   LIG d   1      -0.466  76.765 115.540  0.00  0.00    -0.047 C 
ATOM      6  C   LIG d   1      -1.430  76.004 116.478  0.00  0.00     0.091 C 
ENDROOT
BRANCH   1   7
ATOM      7  O   LIG d   1      -3.809  75.640 116.935  0.00  0.00    -0.368 OA
BRANCH   7   8
ATOM      8  C   LIG d   1      -5.171  75.792 116.464  0.00  0.00     0.119 C 
BRANCH   8   9
ATOM      9  C   LIG d   1      -6.068  76.000 117.700  0.00  0.00     0.028 C 
ATOM     10  C   LIG d   1      -7.505  76.396 117.322  0.00  0.00     0.006 C 
ENDBRANCH   8   9
BRANCH   8  11
ATOM     11  C   LIG d   1      -5.680  74.506 115.806  0.00  0.00     0.028 C 
ATOM     12  C   LIG d   1      -5.767  74.615 114.275  0.00  0.00     0.006 C 
ENDBRANCH   8  11
ENDBRANCH   7   8
ENDBRANCH   1   7
BRANCH   6  13
ATOM     13  N   LIG d   1      -0.979  76.028 117.894  0.00  0.00    -0.311 N 
ATOM     14  C   LIG d   1      -0.161  75.116 118.419  0.00  0.00     0.210 C 
ATOM     15  C   LIG d   1       0.162  75.316 119.903  0.00  0.00     0.109 C 
ATOM     16  O   LIG d   1       0.352  74.180 117.788  0.00  0.00    -0.276 OA
ATOM     17  H   LIG d   1      -1.323  76.771 118.470  0.00  0.00     0.149 HD
ENDBRANCH   6  13
BRANCH   5  18
ATOM     18  N   LIG d   1       0.875  76.155 115.469  0.00  0.00     0.381 N 
ATOM     19  H   LIG d   1       1.553  76.780 115.857  0.00  0.00    -0.090 HD
ATOM     20  H   LIG d   1       1.109  75.994 114.505  0.00  0.00    -0.090 HD
ATOM     21  H   LIG d   1       0.884  75.292 115.968  0.00  0.00    -0.090 HD
ENDBRANCH   5  18
BRANCH   3  22
ATOM     22  C   LIG d   1      -2.812  77.845 112.923  0.00  0.00     0.382 C 
ATOM     23  O   LIG d   1      -2.899  79.097 112.894  0.00  0.00    -0.241 OA
ATOM     24  O   LIG d   1      -3.162  77.183 111.928  0.00  0.00    -0.241 OA
ENDBRANCH   3  22
TORSDOF 7
ENDMDL
MODEL 4
REMARK VINA RESULT:      -4.9      1.386      1.769
REMARK  7 active torsions:
REMARK  status: ('A' for Active; 'I' for Inactive)
REMARK    1  A    between atoms: C_2  and  C_3 
REMARK    2  A    between atoms: C_3  and  O_6 
REMARK    3  A    between atoms: C_3  and  C_4 
REMARK    4  A    between atoms: C_7  and  O_6 
REMARK    5  A    between atoms: C_9  and  C_10 
REMARK    6  A    between atoms: N_15  and  C_14 
REMARK    7  A    between atoms: N_20  and  C_19 
REMARK       I    between atoms: C_22  and  N_20 
ROOT
ATOM      1  C   LIG d   1      -3.153  76.116 115.219  0.00  0.00     0.161 C 
ATOM      2  C   LIG d   1      -3.342  77.196 114.341  0.00  0.00     0.016 C 
ATOM      3  C   LIG d   1      -2.335  77.680 113.474  0.00  0.00     0.038 C 
ATOM      4  C   LIG d   1      -1.110  77.015 113.317  0.00  0.00     0.028 C 
ATOM      5  C   LIG d   1      -0.689  76.222 114.549  0.00  0.00    -0.047 C 
ATOM      6  C   LIG d   1      -1.859  75.309 114.982  0.00  0.00     0.091 C 
ENDROOT
BRANCH   1   7
ATOM      7  O   LIG d   1      -4.301  75.246 115.178  0.00  0.00    -0.368 OA
BRANCH   7   8
ATOM      8  C   LIG d   1      -5.335  75.509 116.158  0.00  0.00     0.119 C 
BRANCH   8   9
ATOM      9  C   LIG d   1      -4.639  75.959 117.457  0.00  0.00     0.028 C 
ATOM     10  C   LIG d   1      -5.306  77.195 118.082  0.00  0.00     0.006 C 
ENDBRANCH   8   9
BRANCH   8  11
ATOM     11  C   LIG d   1      -6.092  74.229 116.526  0.00  0.00     0.028 C 
ATOM     12  C   LIG d   1      -7.582  74.479 116.810  0.00  0.00     0.006 C 
ENDBRANCH   8  11
ENDBRANCH   7   8
ENDBRANCH   1   7
BRANCH   6  13
ATOM     13  N   LIG d   1      -1.562  74.560 116.230  0.00  0.00    -0.311 N 
ATOM     14  C   LIG d   1      -1.118  75.138 117.345  0.00  0.00     0.210 C 
ATOM     15  C   LIG d   1      -0.856  74.180 118.511  0.00  0.00     0.109 C 
ATOM     16  O   LIG d   1      -0.948  76.358 117.489  0.00  0.00    -0.276 OA
ATOM     17  H   LIG d   1      -1.702  73.568 116.212  0.00  0.00     0.149 HD
ENDBRANCH   6  13
BRANCH   5  18
ATOM     18  N   LIG d   1       0.532  75.471 114.200  0.00  0.00     0.381 N 
ATOM     19  H   LIG d   1       1.325  76.079 114.234  0.00  0.00    -0.090 HD
ATOM     20  H   LIG d   1       0.441  75.121 113.263  0.00  0.00    -0.090 HD
ATOM     21  H   LIG d   1       0.658  74.713 114.834  0.00  0.00    -0.090 HD
ENDBRANCH   5  18
BRANCH   3  22
ATOM     22  C   LIG d   1      -2.536  78.864 112.781  0.00  0.00     0.382 C 
ATOM     23  O   LIG d   1      -2.087  78.993 111.617  0.00  0.00    -0.241 OA
ATOM     24  O   LIG d   1      -3.120  79.822 113.323  0.00  0.00    -0.241 OA
ENDBRANCH   3  22
TORSDOF 7
ENDMDL
MODEL 5
REMARK VINA RESULT:      -4.7      1.373      2.076
REMARK  7 active torsions:
REMARK  status: ('A' for Active; 'I' for Inactive)
REMARK    1  A    between atoms: C_2  and  C_3 
REMARK    2  A    between atoms: C_3  and  O_6 
REMARK    3  A    between atoms: C_3  and  C_4 
REMARK    4  A    between atoms: C_7  and  O_6 
REMARK    5  A    between atoms: C_9  and  C_10 
REMARK    6  A    between atoms: N_15  and  C_14 
REMARK    7  A    between atoms: N_20  and  C_19 
REMARK       I    between atoms: C_22  and  N_20 
ROOT
ATOM      1  C   LIG d   1      -2.961  77.923 115.791  0.00  0.00     0.161 C 
ATOM      2  C   LIG d   1      -3.150  78.699 114.635  0.00  0.00     0.016 C 
ATOM      3  C   LIG d   1      -2.283  78.659 113.520  0.00  0.00     0.038 C 
ATOM      4  C   LIG d   1      -1.243  77.722 113.422  0.00  0.00     0.028 C 
ATOM      5  C   LIG d   1      -0.709  77.267 114.776  0.00  0.00    -0.047 C 
ATOM      6  C   LIG d   1      -1.896  76.814 115.657  0.00  0.00     0.091 C 
ENDROOT
BRANCH   1   7
ATOM      7  O   LIG d   1      -4.219  77.360 116.214  0.00  0.00    -0.368 OA
BRANCH   7   8
ATOM      8  C   LIG d   1      -4.554  77.530 117.613  0.00  0.00     0.119 C 
BRANCH   8   9
ATOM      9  C   LIG d   1      -5.324  76.272 118.060  0.00  0.00     0.028 C 
ATOM     10  C   LIG d   1      -5.165  75.104 117.072  0.00  0.00     0.006 C 
ENDBRANCH   8   9
BRANCH   8  11
ATOM     11  C   LIG d   1      -5.527  78.695 117.816  0.00  0.00     0.028 C 
ATOM     12  C   LIG d   1      -4.994  79.752 118.796  0.00  0.00     0.006 C 
ENDBRANCH   8  11
ENDBRANCH   7   8
ENDBRANCH   1   7
BRANCH   6  13
ATOM     13  N   LIG d   1      -1.470  76.432 117.029  0.00  0.00    -0.311 N 
ATOM     14  C   LIG d   1      -1.441  75.174 117.464  0.00  0.00     0.210 C 
ATOM     15  C   LIG d   1      -0.989  75.003 118.918  0.00  0.00     0.109 C 
ATOM     16  O   LIG d   1      -1.715  74.180 116.774  0.00  0.00    -0.276 OA
ATOM     17  H   LIG d   1      -1.200  77.174 117.646  0.00  0.00     0.149 HD
ENDBRANCH   6  13
BRANCH   5  18
ATOM     18  N   LIG d   1       0.272  76.192 114.531  0.00  0.00     0.381 N 
ATOM     19  H   LIG d   1       1.095  76.575 114.110  0.00  0.00    -0.090 HD
ATOM     20  H   LIG d   1      -0.128  75.527 113.892  0.00  0.00    -0.090 HD
ATOM     21  H   LIG d   1       0.506  75.742 115.388  0.00  0.00    -0.090 HD
ENDBRANCH   5  18
BRANCH   3  22
ATOM     22  C   LIG d   1      -2.427  79.590 112.503  0.00  0.00     0.382 C 
ATOM     23  O   LIG d   1      -3.256  80.524 112.622  0.00  0.00    -0.241 OA
ATOM     24  O   LIG d   1      -1.770  79.483 111.450  0.00  0.00    -0.241 OA
ENDBRANCH   3  22
TORSDOF 7
ENDMDL
MODEL 6
REMARK VINA RESULT:      -4.6      2.415      5.609
REMARK  7 active torsions:
REMARK  status: ('A' for Active; 'I' for Inactive)
REMARK    1  A    between atoms: C_2  and  C_3 
REMARK    2  A    between atoms: C_3  and  O_6 
REMARK    3  A    between atoms: C_3  and  C_4 
REMARK    4  A    between atoms: C_7  and  O_6 
REMARK    5  A    between atoms: C_9  and  C_10 
REMARK    6  A    between atoms: N_15  and  C_14 
REMARK    7  A    between atoms: N_20  and  C_19 
REMARK       I    between atoms: C_22  and  N_20 
ROOT
ATOM      1  C   LIG d   1      -1.743  76.900 114.473  0.00  0.00     0.161 C 
ATOM      2  C   LIG d   1      -0.523  76.766 115.156  0.00  0.00     0.016 C 
ATOM      3  C   LIG d   1      -0.338  75.894 116.254  0.00  0.00     0.038 C 
ATOM      4  C   LIG d   1      -1.326  74.980 116.651  0.00  0.00     0.028 C 
ATOM      5  C   LIG d   1      -2.742  75.435 116.314  0.00  0.00    -0.047 C 
ATOM      6  C   LIG d   1      -2.800  75.830 114.820  0.00  0.00     0.091 C 
ENDROOT
BRANCH   1   7
ATOM      7  O   LIG d   1      -1.507  76.928 113.052  0.00  0.00    -0.368 OA
BRANCH   7   8
ATOM      8  C   LIG d   1      -1.494  78.238 112.433  0.00  0.00     0.119 C 
BRANCH   8   9
ATOM      9  C   LIG d   1      -2.643  79.054 113.055  0.00  0.00     0.028 C 
ATOM     10  C   LIG d   1      -2.711  80.488 112.502  0.00  0.00     0.006 C 
ENDBRANCH   8   9
BRANCH   8  11
ATOM     11  C   LIG d   1      -1.820  78.152 110.939  0.00  0.00     0.028 C 
ATOM     12  C   LIG d   1      -0.704  78.726 110.052  0.00  0.00     0.006 C 
ENDBRANCH   8  11
ENDBRANCH   7   8
ENDBRANCH   1   7
BRANCH   6  13
ATOM     13  N   LIG d   1      -4.129  76.367 114.427  0.00  0.00    -0.311 N 
ATOM     14  C   LIG d   1      -5.108  75.611 113.933  0.00  0.00     0.210 C 
ATOM     15  C   LIG d   1      -6.390  76.367 113.574  0.00  0.00     0.109 C 
ATOM     16  O   LIG d   1      -5.047  74.381 113.788  0.00  0.00    -0.276 OA
ATOM     17  H   LIG d   1      -4.275  77.351 114.541  0.00  0.00     0.149 HD
ENDBRANCH   6  13
BRANCH   5  18
ATOM     18  N   LIG d   1      -3.658  74.331 116.656  0.00  0.00     0.381 N 
ATOM     19  H   LIG d   1      -4.592  74.573 116.393  0.00  0.00    -0.090 HD
ATOM     20  H   LIG d   1      -3.636  74.187 117.650  0.00  0.00    -0.090 HD
ATOM     21  H   LIG d   1      -3.378  73.498 116.186  0.00  0.00    -0.090 HD
ENDBRANCH   5  18
BRANCH   3  22
ATOM     22  C   LIG d   1       0.833  75.960 116.994  0.00  0.00     0.382 C 
ATOM     23  O   LIG d   1       1.126  75.034 117.788  0.00  0.00    -0.241 OA
ATOM     24  O   LIG d   1       1.578  76.955 116.910  0.00  0.00    -0.241 OA
ENDBRANCH   3  22
TORSDOF 7
ENDMDL
MODEL 7
REMARK VINA RESULT:      -4.3      2.801      4.727
REMARK  7 active torsions:
REMARK  status: ('A' for Active; 'I' for Inactive)
REMARK    1  A    between atoms: C_2  and  C_3 
REMARK    2  A    between atoms: C_3  and  O_6 
REMARK    3  A    between atoms: C_3  and  C_4 
REMARK    4  A    between atoms: C_7  and  O_6 
REMARK    5  A    between atoms: C_9  and  C_10 
REMARK    6  A    between atoms: N_15  and  C_14 
REMARK    7  A    between atoms: N_20  and  C_19 
REMARK       I    between atoms: C_22  and  N_20 
ROOT
ATOM      1  C   LIG d   1      -4.092  77.822 116.316  0.00  0.00     0.161 C 
ATOM      2  C   LIG d   1      -5.343  78.328 116.705  0.00  0.00     0.016 C 
ATOM      3  C   LIG d   1      -5.555  79.040 117.908  0.00  0.00     0.038 C 
ATOM      4  C   LIG d   1      -4.492  79.427 118.737  0.00  0.00     0.028 C 
ATOM      5  C   LIG d   1      -3.282  78.505 118.641  0.00  0.00    -0.047 C 
ATOM      6  C   LIG d   1      -2.900  78.330 117.153  0.00  0.00     0.091 C 
ENDROOT
BRANCH   1   7
ATOM      7  O   LIG d   1      -3.871  78.087 114.917  0.00  0.00    -0.368 OA
BRANCH   7   8
ATOM      8  C   LIG d   1      -3.636  76.930 114.078  0.00  0.00     0.119 C 
BRANCH   8   9
ATOM      9  C   LIG d   1      -3.041  77.435 112.748  0.00  0.00     0.028 C 
ATOM     10  C   LIG d   1      -1.505  77.372 112.732  0.00  0.00     0.006 C 
ENDBRANCH   8   9
BRANCH   8  11
ATOM     11  C   LIG d   1      -4.950  76.241 113.698  0.00  0.00     0.028 C 
ATOM     12  C   LIG d   1      -5.116  74.866 114.365  0.00  0.00     0.006 C 
ENDBRANCH   8  11
ENDBRANCH   7   8
ENDBRANCH   1   7
BRANCH   6  13
ATOM     13  N   LIG d   1      -1.777  77.375 116.964  0.00  0.00    -0.311 N 
ATOM     14  C   LIG d   1      -0.656  77.681 116.314  0.00  0.00     0.210 C 
ATOM     15  C   LIG d   1       0.366  76.544 116.216  0.00  0.00     0.109 C 
ATOM     16  O   LIG d   1      -0.397  78.796 115.837  0.00  0.00    -0.276 OA
ATOM     17  H   LIG d   1      -1.891  76.457 117.347  0.00  0.00     0.149 HD
ENDBRANCH   6  13
BRANCH   5  18
ATOM     18  N   LIG d   1      -2.201  79.101 119.449  0.00  0.00     0.381 N 
ATOM     19  H   LIG d   1      -1.334  78.646 119.243  0.00  0.00    -0.090 HD
ATOM     20  H   LIG d   1      -2.408  78.960 120.422  0.00  0.00    -0.090 HD
ATOM     21  H   LIG d   1      -2.128  80.075 119.255  0.00  0.00    -0.090 HD
ENDBRANCH   5  18
BRANCH   3  22
ATOM     22  C   LIG d   1      -6.848  79.338 118.312  0.00  0.00     0.382 C 
ATOM     23  O   LIG d   1      -7.395  78.657 119.212  0.00  0.00    -0.241 OA
ATOM     24  O   LIG d   1      -7.489  80.250 117.757  0.00  0.00    -0.241 OA
ENDBRANCH   3  22
TORSDOF 7
ENDMDL
MODEL 8
REMARK VINA RESULT:      -4.3      2.932      3.732
REMARK  7 active torsions:
REMARK  status: ('A' for Active; 'I' for Inactive)
REMARK    1  A    between atoms: C_2  and  C_3 
REMARK    2  A    between atoms: C_3  and  O_6 
REMARK    3  A    between atoms: C_3  and  C_4 
REMARK    4  A    between atoms: C_7  and  O_6 
REMARK    5  A    between atoms: C_9  and  C_10 
REMARK    6  A    between atoms: N_15  and  C_14 
REMARK    7  A    between atoms: N_20  and  C_19 
REMARK       I    between atoms: C_22  and  N_20 
ROOT
ATOM      1  C   LIG d   1      -3.277  77.685 116.677  0.00  0.00     0.161 C 
ATOM      2  C   LIG d   1      -4.058  76.966 115.757  0.00  0.00     0.016 C 
ATOM      3  C   LIG d   1      -3.667  76.734 114.418  0.00  0.00     0.038 C 
ATOM      4  C   LIG d   1      -2.391  77.079 113.948  0.00  0.00     0.028 C 
ATOM      5  C   LIG d   1      -1.767  78.253 114.695  0.00  0.00    -0.047 C 
ATOM      6  C   LIG d   1      -1.833  77.973 116.214  0.00  0.00     0.091 C 
ENDROOT
BRANCH   1   7
ATOM      7  O   LIG d   1      -3.269  77.006 117.948  0.00  0.00    -0.368 OA
BRANCH   7   8
ATOM      8  C   LIG d   1      -4.086  77.594 118.990  0.00  0.00     0.119 C 
BRANCH   8   9
ATOM      9  C   LIG d   1      -5.426  76.832 119.014  0.00  0.00     0.028 C 
ATOM     10  C   LIG d   1      -6.601  77.696 118.527  0.00  0.00     0.006 C 
ENDBRANCH   8   9
BRANCH   8  11
ATOM     11  C   LIG d   1      -4.451  79.045 118.661  0.00  0.00     0.028 C 
ATOM     12  C   LIG d   1      -3.712  80.060 119.547  0.00  0.00     0.006 C 
ENDBRANCH   8  11
ENDBRANCH   7   8
ENDBRANCH   1   7
BRANCH   6  13
ATOM     13  N   LIG d   1      -1.320  79.110 117.023  0.00  0.00    -0.311 N 
ATOM     14  C   LIG d   1      -0.414  78.972 117.989  0.00  0.00     0.210 C 
ATOM     15  C   LIG d   1      -0.037  80.268 118.712  0.00  0.00     0.109 C 
ATOM     16  O   LIG d   1       0.137  77.903 118.294  0.00  0.00    -0.276 OA
ATOM     17  H   LIG d   1      -1.691  80.018 116.820  0.00  0.00     0.149 HD
ENDBRANCH   6  13
BRANCH   5  18
ATOM     18  N   LIG d   1      -0.388  78.416 114.197  0.00  0.00     0.381 N 
ATOM     19  H   LIG d   1      -0.273  77.905 113.345  0.00  0.00    -0.090 HD
ATOM     20  H   LIG d   1       0.250  78.042 114.878  0.00  0.00    -0.090 HD
ATOM     21  H   LIG d   1      -0.193  79.381 114.043  0.00  0.00    -0.090 HD
ENDBRANCH   5  18
BRANCH   3  22
ATOM     22  C   LIG d   1      -4.573  76.186 113.523  0.00  0.00     0.382 C 
ATOM     23  O   LIG d   1      -4.955  76.852 112.531  0.00  0.00    -0.241 OA
ATOM     24  O   LIG d   1      -5.047  75.051 113.719  0.00  0.00    -0.241 OA
ENDBRANCH   3  22
TORSDOF 7
ENDMDL
MODEL 9
REMARK VINA RESULT:      -4.3      2.216      2.600
REMARK  7 active torsions:
REMARK  status: ('A' for Active; 'I' for Inactive)
REMARK    1  A    between atoms: C_2  and  C_3 
REMARK    2  A    between atoms: C_3  and  O_6 
REMARK    3  A    between atoms: C_3  and  C_4 
REMARK    4  A    between atoms: C_7  and  O_6 
REMARK    5  A    between atoms: C_9  and  C_10 
REMARK    6  A    between atoms: N_15  and  C_14 
REMARK    7  A    between atoms: N_20  and  C_19 
REMARK       I    between atoms: C_22  and  N_20 
ROOT
ATOM      1  C   LIG d   1      -2.352  78.281 116.110  0.00  0.00     0.161 C 
ATOM      2  C   LIG d   1      -2.839  78.206 114.795  0.00  0.00     0.016 C 
ATOM      3  C   LIG d   1      -2.202  77.470 113.770  0.00  0.00     0.038 C 
ATOM      4  C   LIG d   1      -1.108  76.631 114.029  0.00  0.00     0.028 C 
ATOM      5  C   LIG d   1      -0.280  77.070 115.232  0.00  0.00    -0.047 C 
ATOM      6  C   LIG d   1      -1.222  77.283 116.439  0.00  0.00     0.091 C 
ENDROOT
BRANCH   1   7
ATOM      7  O   LIG d   1      -3.440  78.132 117.044  0.00  0.00    -0.368 OA
BRANCH   7   8
ATOM      8  C   LIG d   1      -4.584  77.378 116.574  0.00  0.00     0.119 C 
BRANCH   8   9
ATOM      9  C   LIG d   1      -5.850  78.080 117.102  0.00  0.00     0.028 C 
ATOM     10  C   LIG d   1      -6.913  77.083 117.592  0.00  0.00     0.006 C 
ENDBRANCH   8   9
BRANCH   8  11
ATOM     11  C   LIG d   1      -4.615  75.974 117.185  0.00  0.00     0.028 C 
ATOM     12  C   LIG d   1      -4.127  74.889 116.210  0.00  0.00     0.006 C 
ENDBRANCH   8  11
ENDBRANCH   7   8
ENDBRANCH   1   7
BRANCH   6  13
ATOM     13  N   LIG d   1      -0.504  77.795 117.636  0.00  0.00    -0.311 N 
ATOM     14  C   LIG d   1       0.210  78.919 117.637  0.00  0.00     0.210 C 
ATOM     15  C   LIG d   1       0.886  79.254 118.970  0.00  0.00     0.109 C 
ATOM     16  O   LIG d   1       0.321  79.687 116.669  0.00  0.00    -0.276 OA
ATOM     17  H   LIG d   1      -0.566  77.249 118.473  0.00  0.00     0.149 HD
ENDBRANCH   6  13
BRANCH   5  18
ATOM     18  N   LIG d   1       0.742  76.034 115.472  0.00  0.00     0.381 N 
ATOM     19  H   LIG d   1       1.632  76.353 115.145  0.00  0.00    -0.090 HD
ATOM     20  H   LIG d   1       0.495  75.208 114.956  0.00  0.00    -0.090 HD
ATOM     21  H   LIG d   1       0.793  75.824 116.445  0.00  0.00    -0.090 HD
ENDBRANCH   5  18
BRANCH   3  22
ATOM     22  C   LIG d   1      -2.634  77.601 112.459  0.00  0.00     0.382 C 
ATOM     23  O   LIG d   1      -3.599  78.356 112.190  0.00  0.00    -0.241 OA
ATOM     24  O   LIG d   1      -2.101  76.940 111.548  0.00  0.00    -0.241 OA
ENDBRANCH   3  22
TORSDOF 7
ENDMDL
