MODEL 1
REMARK VINA RESULT:      -4.9      0.000      0.000
REMARK  7 active torsions:
REMARK  status: ('A' for Active; 'I' for Inactive)
REMARK    1  A    between atoms: C_2  and  C_3 
REMARK    2  A    between atoms: C_3  and  O_6 
REMARK    3  A    between atoms: C_3  and  C_4 
REMARK    4  A    between atoms: C_7  and  O_6 
REMARK    5  A    between atoms: C_9  and  C_10 
REMARK    6  A    between atoms: N_15  and  C_14 
REMARK    7  A    between atoms: N_20  and  C_19 
REMARK       I    between atoms: C_22  and  N_20 
ROOT
ATOM      1  C   LIG d   1      -2.791  78.350 115.356  0.00  0.00     0.161 C 
ATOM      2  C   LIG d   1      -2.980  79.469 114.527  0.00  0.00     0.016 C 
ATOM      3  C   LIG d   1      -2.273  79.670 113.319  0.00  0.00     0.038 C 
ATOM      4  C   LIG d   1      -1.434  78.685 112.778  0.00  0.00     0.028 C 
ATOM      5  C   LIG d   1      -0.829  77.761 113.829  0.00  0.00    -0.047 C 
ATOM      6  C   LIG d   1      -1.961  77.212 114.726  0.00  0.00     0.091 C 
ENDROOT
BRANCH   1   7
ATOM      7  O   LIG d   1      -4.068  77.851 115.802  0.00  0.00    -0.368 OA
BRANCH   7   8
ATOM      8  C   LIG d   1      -4.411  78.122 117.183  0.00  0.00     0.119 C 
BRANCH   8   9
ATOM      9  C   LIG d   1      -4.322  76.790 117.952  0.00  0.00     0.028 C 
ATOM     10  C   LIG d   1      -3.176  76.780 118.978  0.00  0.00     0.006 C 
ENDBRANCH   8   9
BRANCH   8  11
ATOM     11  C   LIG d   1      -5.869  78.571 117.318  0.00  0.00     0.028 C 
ATOM     12  C   LIG d   1      -6.004  80.069 117.636  0.00  0.00     0.006 C 
ENDBRANCH   8  11
ENDBRANCH   7   8
ENDBRANCH   1   7
BRANCH   6  13
ATOM     13  N   LIG d   1      -1.447  76.365 115.834  0.00  0.00    -0.311 N 
ATOM     14  C   LIG d   1      -1.411  75.034 115.783  0.00  0.00     0.210 C 
ATOM     15  C   LIG d   1      -0.861  74.354 117.041  0.00  0.00     0.109 C 
ATOM     16  O   LIG d   1      -1.753  74.354 114.804  0.00  0.00    -0.276 OA
ATOM     17  H   LIG d   1      -1.120  76.836 116.655  0.00  0.00     0.149 HD
ENDBRANCH   6  13
BRANCH   5  18
ATOM     18  N   LIG d   1      -0.089  76.701 113.118  0.00  0.00     0.381 N 
ATOM     19  H   LIG d   1      -0.304  76.735 112.142  0.00  0.00    -0.090 HD
ATOM     20  H   LIG d   1      -0.378  75.808 113.474  0.00  0.00    -0.090 HD
ATOM     21  H   LIG d   1       0.891  76.820 113.253  0.00  0.00    -0.090 HD
ENDBRANCH   5  18
BRANCH   3  22
ATOM     22  C   LIG d   1      -2.373  80.886 112.659  0.00  0.00     0.382 C 
ATOM     23  O   LIG d   1      -3.405  81.587 112.791  0.00  0.00    -0.241 OA
ATOM     24  O   LIG d   1      -1.464  81.269 111.900  0.00  0.00    -0.241 OA
ENDBRANCH   3  22
TORSDOF 7
ENDMDL
MODEL 2
REMARK VINA RESULT:      -4.9      0.613      1.606
REMARK  7 active torsions:
REMARK  status: ('A' for Active; 'I' for Inactive)
REMARK    1  A    between atoms: C_2  and  C_3 
REMARK    2  A    between atoms: C_3  and  O_6 
REMARK    3  A    between atoms: C_3  and  C_4 
REMARK    4  A    between atoms: C_7  and  O_6 
REMARK    5  A    between atoms: C_9  and  C_10 
REMARK    6  A    between atoms: N_15  and  C_14 
REMARK    7  A    between atoms: N_20  and  C_19 
REMARK       I    between atoms: C_22  and  N_20 
ROOT
ATOM      1  C   LIG d   1      -2.760  78.253 115.083  0.00  0.00     0.161 C 
ATOM      2  C   LIG d   1      -2.945  79.452 114.375  0.00  0.00     0.016 C 
ATOM      3  C   LIG d   1      -2.257  79.764 113.180  0.00  0.00     0.038 C 
ATOM      4  C   LIG d   1      -1.444  78.827 112.526  0.00  0.00     0.028 C 
ATOM      5  C   LIG d   1      -0.835  77.792 113.467  0.00  0.00    -0.047 C 
ATOM      6  C   LIG d   1      -1.960  77.172 114.326  0.00  0.00     0.091 C 
ENDROOT
BRANCH   1   7
ATOM      7  O   LIG d   1      -4.036  77.730 115.502  0.00  0.00    -0.368 OA
BRANCH   7   8
ATOM      8  C   LIG d   1      -4.239  77.612 116.931  0.00  0.00     0.119 C 
BRANCH   8   9
ATOM      9  C   LIG d   1      -5.567  78.317 117.271  0.00  0.00     0.028 C 
ATOM     10  C   LIG d   1      -5.357  79.760 117.758  0.00  0.00     0.006 C 
ENDBRANCH   8   9
BRANCH   8  11
ATOM     11  C   LIG d   1      -3.164  78.375 117.711  0.00  0.00     0.028 C 
ATOM     12  C   LIG d   1      -2.396  77.481 118.698  0.00  0.00     0.006 C 
ENDBRANCH   8  11
ENDBRANCH   7   8
ENDBRANCH   1   7
BRANCH   6  13
ATOM     13  N   LIG d   1      -1.440  76.210 115.332  0.00  0.00    -0.311 N 
ATOM     14  C   LIG d   1      -1.971  75.006 115.539  0.00  0.00     0.210 C 
ATOM     15  C   LIG d   1      -1.294  74.181 116.638  0.00  0.00     0.109 C 
ATOM     16  O   LIG d   1      -2.918  74.531 114.895  0.00  0.00    -0.276 OA
ATOM     17  H   LIG d   1      -0.653  76.502 115.878  0.00  0.00     0.149 HD
ENDBRANCH   6  13
BRANCH   5  18
ATOM     18  N   LIG d   1      -0.126  76.799 112.638  0.00  0.00     0.381 N 
ATOM     19  H   LIG d   1      -0.000  77.158 111.713  0.00  0.00    -0.090 HD
ATOM     20  H   LIG d   1      -0.684  75.966 112.580  0.00  0.00    -0.090 HD
ATOM     21  H   LIG d   1       0.759  76.587 113.043  0.00  0.00    -0.090 HD
ENDBRANCH   5  18
BRANCH   3  22
ATOM     22  C   LIG d   1      -2.349  81.041 112.648  0.00  0.00     0.382 C 
ATOM     23  O   LIG d   1      -3.371  81.737 112.861  0.00  0.00    -0.241 OA
ATOM     24  O   LIG d   1      -1.443  81.489 111.920  0.00  0.00    -0.241 OA
ENDBRANCH   3  22
TORSDOF 7
ENDMDL
MODEL 3
REMARK VINA RESULT:      -4.7      2.411      2.768
REMARK  7 active torsions:
REMARK  status: ('A' for Active; 'I' for Inactive)
REMARK    1  A    between atoms: C_2  and  C_3 
REMARK    2  A    between atoms: C_3  and  O_6 
REMARK    3  A    between atoms: C_3  and  C_4 
REMARK    4  A    between atoms: C_7  and  O_6 
REMARK    5  A    between atoms: C_9  and  C_10 
REMARK    6  A    between atoms: N_15  and  C_14 
REMARK    7  A    between atoms: N_20  and  C_19 
REMARK       I    between atoms: C_22  and  N_20 
ROOT
ATOM      1  C   LIG d   1      -3.254  77.476 114.236  0.00  0.00     0.161 C 
ATOM      2  C   LIG d   1      -3.253  78.616 113.416  0.00  0.00     0.016 C 
ATOM      3  C   LIG d   1      -2.149  79.492 113.301  0.00  0.00     0.038 C 
ATOM      4  C   LIG d   1      -0.908  79.200 113.886  0.00  0.00     0.028 C 
ATOM      5  C   LIG d   1      -1.015  78.324 115.130  0.00  0.00    -0.047 C 
ATOM      6  C   LIG d   1      -1.871  77.081 114.795  0.00  0.00     0.091 C 
ENDROOT
BRANCH   1   7
ATOM      7  O   LIG d   1      -3.844  76.367 113.529  0.00  0.00    -0.368 OA
BRANCH   7   8
ATOM      8  C   LIG d   1      -5.244  76.111 113.799  0.00  0.00     0.119 C 
BRANCH   8   9
ATOM      9  C   LIG d   1      -5.328  74.809 114.617  0.00  0.00     0.028 C 
ATOM     10  C   LIG d   1      -6.274  74.934 115.824  0.00  0.00     0.006 C 
ENDBRANCH   8   9
BRANCH   8  11
ATOM     11  C   LIG d   1      -6.018  75.829 112.507  0.00  0.00     0.028 C 
ATOM     12  C   LIG d   1      -6.963  76.976 112.116  0.00  0.00     0.006 C 
ENDBRANCH   8  11
ENDBRANCH   7   8
ENDBRANCH   1   7
BRANCH   6  13
ATOM     13  N   LIG d   1      -2.096  76.212 115.980  0.00  0.00    -0.311 N 
ATOM     14  C   LIG d   1      -1.970  74.886 115.951  0.00  0.00     0.210 C 
ATOM     15  C   LIG d   1      -2.267  74.180 117.278  0.00  0.00     0.109 C 
ATOM     16  O   LIG d   1      -1.608  74.231 114.962  0.00  0.00    -0.276 OA
ATOM     17  H   LIG d   1      -2.363  76.664 116.832  0.00  0.00     0.149 HD
ENDBRANCH   6  13
BRANCH   5  18
ATOM     18  N   LIG d   1       0.356  77.985 115.556  0.00  0.00     0.381 N 
ATOM     19  H   LIG d   1       0.891  77.682 114.766  0.00  0.00    -0.090 HD
ATOM     20  H   LIG d   1       0.313  77.228 116.216  0.00  0.00    -0.090 HD
ATOM     21  H   LIG d   1       0.788  78.778 115.976  0.00  0.00    -0.090 HD
ENDBRANCH   5  18
BRANCH   3  22
ATOM     22  C   LIG d   1      -2.293  80.695 112.627  0.00  0.00     0.382 C 
ATOM     23  O   LIG d   1      -3.319  81.394 112.803  0.00  0.00    -0.241 OA
ATOM     24  O   LIG d   1      -1.429  81.068 111.810  0.00  0.00    -0.241 OA
ENDBRANCH   3  22
TORSDOF 7
ENDMDL
MODEL 4
REMARK VINA RESULT:      -4.6      2.107      2.854
REMARK  7 active torsions:
REMARK  status: ('A' for Active; 'I' for Inactive)
REMARK    1  A    between atoms: C_2  and  C_3 
REMARK    2  A    between atoms: C_3  and  O_6 
REMARK    3  A    between atoms: C_3  and  C_4 
REMARK    4  A    between atoms: C_7  and  O_6 
REMARK    5  A    between atoms: C_9  and  C_10 
REMARK    6  A    between atoms: N_15  and  C_14 
REMARK    7  A    between atoms: N_20  and  C_19 
REMARK       I    between atoms: C_22  and  N_20 
ROOT
ATOM      1  C   LIG d   1      -2.591  76.857 115.098  0.00  0.00     0.161 C 
ATOM      2  C   LIG d   1      -2.866  77.787 114.081  0.00  0.00     0.016 C 
ATOM      3  C   LIG d   1      -2.001  78.855 113.747  0.00  0.00     0.038 C 
ATOM      4  C   LIG d   1      -0.723  78.977 114.312  0.00  0.00     0.028 C 
ATOM      5  C   LIG d   1      -0.612  78.357 115.700  0.00  0.00    -0.047 C 
ATOM      6  C   LIG d   1      -1.150  76.909 115.648  0.00  0.00     0.091 C 
ENDROOT
BRANCH   1   7
ATOM      7  O   LIG d   1      -2.905  75.527 114.642  0.00  0.00    -0.368 OA
BRANCH   7   8
ATOM      8  C   LIG d   1      -4.009  74.868 115.310  0.00  0.00     0.119 C 
BRANCH   8   9
ATOM      9  C   LIG d   1      -5.127  74.668 114.268  0.00  0.00     0.028 C 
ATOM     10  C   LIG d   1      -6.156  75.811 114.284  0.00  0.00     0.006 C 
ENDBRANCH   8   9
BRANCH   8  11
ATOM     11  C   LIG d   1      -4.619  75.764 116.392  0.00  0.00     0.028 C 
ATOM     12  C   LIG d   1      -4.703  75.071 117.762  0.00  0.00     0.006 C 
ENDBRANCH   8  11
ENDBRANCH   7   8
ENDBRANCH   1   7
BRANCH   6  13
ATOM     13  N   LIG d   1      -1.156  76.258 116.984  0.00  0.00    -0.311 N 
ATOM     14  C   LIG d   1      -0.580  75.082 117.229  0.00  0.00     0.210 C 
ATOM     15  C   LIG d   1      -0.720  74.581 118.670  0.00  0.00     0.109 C 
ATOM     16  O   LIG d   1       0.062  74.422 116.398  0.00  0.00    -0.276 OA
ATOM     17  H   LIG d   1      -1.627  76.740 117.724  0.00  0.00     0.149 HD
ENDBRANCH   6  13
BRANCH   5  18
ATOM     18  N   LIG d   1       0.803  78.433 116.111  0.00  0.00     0.381 N 
ATOM     19  H   LIG d   1       1.379  77.988 115.425  0.00  0.00    -0.090 HD
ATOM     20  H   LIG d   1       0.916  77.946 116.982  0.00  0.00    -0.090 HD
ATOM     21  H   LIG d   1       1.077  79.386 116.217  0.00  0.00    -0.090 HD
ENDBRANCH   5  18
BRANCH   3  22
ATOM     22  C   LIG d   1      -2.430  79.838 112.869  0.00  0.00     0.382 C 
ATOM     23  O   LIG d   1      -1.886  79.955 111.745  0.00  0.00    -0.241 OA
ATOM     24  O   LIG d   1      -3.325  80.637 113.203  0.00  0.00    -0.241 OA
ENDBRANCH   3  22
TORSDOF 7
ENDMDL
MODEL 5
REMARK VINA RESULT:      -4.5      2.645      4.964
REMARK  7 active torsions:
REMARK  status: ('A' for Active; 'I' for Inactive)
REMARK    1  A    between atoms: C_2  and  C_3 
REMARK    2  A    between atoms: C_3  and  O_6 
REMARK    3  A    between atoms: C_3  and  C_4 
REMARK    4  A    between atoms: C_7  and  O_6 
REMARK    5  A    between atoms: C_9  and  C_10 
REMARK    6  A    between atoms: N_15  and  C_14 
REMARK    7  A    between atoms: N_20  and  C_19 
REMARK       I    between atoms: C_22  and  N_20 
ROOT
ATOM      1  C   LIG d   1      -2.750  78.342 115.501  0.00  0.00     0.161 C 
ATOM      2  C   LIG d   1      -1.497  78.882 115.838  0.00  0.00     0.016 C 
ATOM      3  C   LIG d   1      -0.372  78.091 116.167  0.00  0.00     0.038 C 
ATOM      4  C   LIG d   1      -0.383  76.695 116.032  0.00  0.00     0.028 C 
ATOM      5  C   LIG d   1      -1.771  76.082 116.182  0.00  0.00    -0.047 C 
ATOM      6  C   LIG d   1      -2.750  76.821 115.241  0.00  0.00     0.091 C 
ENDROOT
BRANCH   1   7
ATOM      7  O   LIG d   1      -3.295  79.044 114.366  0.00  0.00    -0.368 OA
BRANCH   7   8
ATOM      8  C   LIG d   1      -2.333  79.555 113.410  0.00  0.00     0.119 C 
BRANCH   8   9
ATOM      9  C   LIG d   1      -2.827  80.940 112.951  0.00  0.00     0.028 C 
ATOM     10  C   LIG d   1      -1.685  81.827 112.429  0.00  0.00     0.006 C 
ENDBRANCH   8   9
BRANCH   8  11
ATOM     11  C   LIG d   1      -2.297  78.696 112.143  0.00  0.00     0.028 C 
ATOM     12  C   LIG d   1      -1.078  77.762 112.089  0.00  0.00     0.006 C 
ENDBRANCH   8  11
ENDBRANCH   7   8
ENDBRANCH   1   7
BRANCH   6  13
ATOM     13  N   LIG d   1      -4.148  76.340 115.386  0.00  0.00    -0.311 N 
ATOM     14  C   LIG d   1      -4.972  76.157 114.355  0.00  0.00     0.210 C 
ATOM     15  C   LIG d   1      -6.377  75.674 114.728  0.00  0.00     0.109 C 
ATOM     16  O   LIG d   1      -4.661  76.317 113.165  0.00  0.00    -0.276 OA
ATOM     17  H   LIG d   1      -4.473  76.155 116.315  0.00  0.00     0.149 HD
ENDBRANCH   6  13
BRANCH   5  18
ATOM     18  N   LIG d   1      -1.658  74.642 115.883  0.00  0.00     0.381 N 
ATOM     19  H   LIG d   1      -0.759  74.448 115.488  0.00  0.00    -0.090 HD
ATOM     20  H   LIG d   1      -2.359  74.394 115.207  0.00  0.00    -0.090 HD
ATOM     21  H   LIG d   1      -1.785  74.110 116.715  0.00  0.00    -0.090 HD
ENDBRANCH   5  18
BRANCH   3  22
ATOM     22  C   LIG d   1       0.768  78.695 116.674  0.00  0.00     0.382 C 
ATOM     23  O   LIG d   1       1.633  78.005 117.266  0.00  0.00    -0.241 OA
ATOM     24  O   LIG d   1       0.922  79.928 116.586  0.00  0.00    -0.241 OA
ENDBRANCH   3  22
TORSDOF 7
ENDMDL
MODEL 6
REMARK VINA RESULT:      -4.4      2.541      5.264
REMARK  7 active torsions:
REMARK  status: ('A' for Active; 'I' for Inactive)
REMARK    1  A    between atoms: C_2  and  C_3 
REMARK    2  A    between atoms: C_3  and  O_6 
REMARK    3  A    between atoms: C_3  and  C_4 
REMARK    4  A    between atoms: C_7  and  O_6 
REMARK    5  A    between atoms: C_9  and  C_10 
REMARK    6  A    between atoms: N_15  and  C_14 
REMARK    7  A    between atoms: N_20  and  C_19 
REMARK       I    between atoms: C_22  and  N_20 
ROOT
ATOM      1  C   LIG d   1      -1.902  77.661 114.554  0.00  0.00     0.161 C 
ATOM      2  C   LIG d   1      -3.109  77.159 114.040  0.00  0.00     0.016 C 
ATOM      3  C   LIG d   1      -4.064  76.473 114.826  0.00  0.00     0.038 C 
ATOM      4  C   LIG d   1      -3.945  76.376 116.220  0.00  0.00     0.028 C 
ATOM      5  C   LIG d   1      -2.502  76.426 116.709  0.00  0.00    -0.047 C 
ATOM      6  C   LIG d   1      -1.806  77.662 116.094  0.00  0.00     0.091 C 
ENDROOT
BRANCH   1   7
ATOM      7  O   LIG d   1      -1.664  78.985 114.037  0.00  0.00    -0.368 OA
BRANCH   7   8
ATOM      8  C   LIG d   1      -2.378  79.333 112.824  0.00  0.00     0.119 C 
BRANCH   8   9
ATOM      9  C   LIG d   1      -1.379  79.232 111.655  0.00  0.00     0.028 C 
ATOM     10  C   LIG d   1      -1.733  78.098 110.678  0.00  0.00     0.006 C 
ENDBRANCH   8   9
BRANCH   8  11
ATOM     11  C   LIG d   1      -2.831  80.796 112.845  0.00  0.00     0.028 C 
ATOM     12  C   LIG d   1      -1.722  81.770 112.417  0.00  0.00     0.006 C 
ENDBRANCH   8  11
ENDBRANCH   7   8
ENDBRANCH   1   7
BRANCH   6  13
ATOM     13  N   LIG d   1      -0.366  77.740 116.454  0.00  0.00    -0.311 N 
ATOM     14  C   LIG d   1       0.181  78.789 117.065  0.00  0.00     0.210 C 
ATOM     15  C   LIG d   1       1.686  78.673 117.327  0.00  0.00     0.109 C 
ATOM     16  O   LIG d   1      -0.443  79.792 117.444  0.00  0.00    -0.276 OA
ATOM     17  H   LIG d   1       0.208  76.956 116.212  0.00  0.00     0.149 HD
ENDBRANCH   6  13
BRANCH   5  18
ATOM     18  N   LIG d   1      -2.531  76.454 118.184  0.00  0.00     0.381 N 
ATOM     19  H   LIG d   1      -1.710  76.013 118.548  0.00  0.00    -0.090 HD
ATOM     20  H   LIG d   1      -3.333  75.938 118.502  0.00  0.00    -0.090 HD
ATOM     21  H   LIG d   1      -2.583  77.395 118.506  0.00  0.00    -0.090 HD
ENDBRANCH   5  18
BRANCH   3  22
ATOM     22  C   LIG d   1      -5.135  75.842 114.211  0.00  0.00     0.382 C 
ATOM     23  O   LIG d   1      -6.276  76.362 114.249  0.00  0.00    -0.241 OA
ATOM     24  O   LIG d   1      -4.982  74.737 113.656  0.00  0.00    -0.241 OA
ENDBRANCH   3  22
TORSDOF 7
ENDMDL
MODEL 7
REMARK VINA RESULT:      -4.3      2.128      2.752
REMARK  7 active torsions:
REMARK  status: ('A' for Active; 'I' for Inactive)
REMARK    1  A    between atoms: C_2  and  C_3 
REMARK    2  A    between atoms: C_3  and  O_6 
REMARK    3  A    between atoms: C_3  and  C_4 
REMARK    4  A    between atoms: C_7  and  O_6 
REMARK    5  A    between atoms: C_9  and  C_10 
REMARK    6  A    between atoms: N_15  and  C_14 
REMARK    7  A    between atoms: N_20  and  C_19 
REMARK       I    between atoms: C_22  and  N_20 
ROOT
ATOM      1  C   LIG d   1      -2.788  76.123 114.945  0.00  0.00     0.161 C 
ATOM      2  C   LIG d   1      -3.038  77.166 114.038  0.00  0.00     0.016 C 
ATOM      3  C   LIG d   1      -2.039  77.745 113.223  0.00  0.00     0.038 C 
ATOM      4  C   LIG d   1      -0.742  77.215 113.150  0.00  0.00     0.028 C 
ATOM      5  C   LIG d   1      -0.314  76.485 114.419  0.00  0.00    -0.047 C 
ATOM      6  C   LIG d   1      -1.403  75.457 114.798  0.00  0.00     0.091 C 
ENDROOT
BRANCH   1   7
ATOM      7  O   LIG d   1      -3.832  75.133 114.852  0.00  0.00    -0.368 OA
BRANCH   7   8
ATOM      8  C   LIG d   1      -4.975  75.330 115.720  0.00  0.00     0.119 C 
BRANCH   8   9
ATOM      9  C   LIG d   1      -4.592  74.804 117.116  0.00  0.00     0.028 C 
ATOM     10  C   LIG d   1      -4.475  75.931 118.157  0.00  0.00     0.006 C 
ENDBRANCH   8   9
BRANCH   8  11
ATOM     11  C   LIG d   1      -6.165  74.474 115.276  0.00  0.00     0.028 C 
ATOM     12  C   LIG d   1      -7.147  74.180 116.421  0.00  0.00     0.006 C 
ENDBRANCH   8  11
ENDBRANCH   7   8
ENDBRANCH   1   7
BRANCH   6  13
ATOM     13  N   LIG d   1      -1.103  74.758 116.075  0.00  0.00    -0.311 N 
ATOM     14  C   LIG d   1      -0.920  75.392 117.232  0.00  0.00     0.210 C 
ATOM     15  C   LIG d   1      -0.601  74.484 118.424  0.00  0.00     0.109 C 
ATOM     16  O   LIG d   1      -1.023  76.618 117.391  0.00  0.00    -0.276 OA
ATOM     17  H   LIG d   1      -1.032  73.760 116.043  0.00  0.00     0.149 HD
ENDBRANCH   6  13
BRANCH   5  18
ATOM     18  N   LIG d   1       0.999  75.866 114.155  0.00  0.00     0.381 N 
ATOM     19  H   LIG d   1       0.871  74.958 113.755  0.00  0.00    -0.090 HD
ATOM     20  H   LIG d   1       1.490  75.761 115.026  0.00  0.00    -0.090 HD
ATOM     21  H   LIG d   1       1.528  76.439 113.535  0.00  0.00    -0.090 HD
ENDBRANCH   5  18
BRANCH   3  22
ATOM     22  C   LIG d   1      -2.322  78.893 112.499  0.00  0.00     0.382 C 
ATOM     23  O   LIG d   1      -1.650  79.172 111.477  0.00  0.00    -0.241 OA
ATOM     24  O   LIG d   1      -3.213  79.677 112.880  0.00  0.00    -0.241 OA
ENDBRANCH   3  22
TORSDOF 7
ENDMDL
MODEL 8
REMARK VINA RESULT:      -4.3      2.938      5.432
REMARK  7 active torsions:
REMARK  status: ('A' for Active; 'I' for Inactive)
REMARK    1  A    between atoms: C_2  and  C_3 
REMARK    2  A    between atoms: C_3  and  O_6 
REMARK    3  A    between atoms: C_3  and  C_4 
REMARK    4  A    between atoms: C_7  and  O_6 
REMARK    5  A    between atoms: C_9  and  C_10 
REMARK    6  A    between atoms: N_15  and  C_14 
REMARK    7  A    between atoms: N_20  and  C_19 
REMARK       I    between atoms: C_22  and  N_20 
ROOT
ATOM      1  C   LIG d   1      -2.062  77.208 114.690  0.00  0.00     0.161 C 
ATOM      2  C   LIG d   1      -0.766  77.302 115.223  0.00  0.00     0.016 C 
ATOM      3  C   LIG d   1      -0.323  76.544 116.331  0.00  0.00     0.038 C 
ATOM      4  C   LIG d   1      -1.105  75.522 116.891  0.00  0.00     0.028 C 
ATOM      5  C   LIG d   1      -2.603  75.739 116.710  0.00  0.00    -0.047 C 
ATOM      6  C   LIG d   1      -2.893  76.019 115.217  0.00  0.00     0.091 C 
ENDROOT
BRANCH   1   7
ATOM      7  O   LIG d   1      -1.997  77.174 113.250  0.00  0.00    -0.368 OA
BRANCH   7   8
ATOM      8  C   LIG d   1      -2.569  78.312 112.560  0.00  0.00     0.119 C 
BRANCH   8   9
ATOM      9  C   LIG d   1      -2.292  78.128 111.056  0.00  0.00     0.028 C 
ATOM     10  C   LIG d   1      -0.926  77.476 110.786  0.00  0.00     0.006 C 
ENDBRANCH   8   9
BRANCH   8  11
ATOM     11  C   LIG d   1      -1.859  79.613 112.947  0.00  0.00     0.028 C 
ATOM     12  C   LIG d   1      -2.768  80.847 112.828  0.00  0.00     0.006 C 
ENDBRANCH   8  11
ENDBRANCH   7   8
ENDBRANCH   1   7
BRANCH   6  13
ATOM     13  N   LIG d   1      -4.325  76.325 114.966  0.00  0.00    -0.311 N 
ATOM     14  C   LIG d   1      -5.133  75.531 114.265  0.00  0.00     0.210 C 
ATOM     15  C   LIG d   1      -6.568  76.044 114.108  0.00  0.00     0.109 C 
ATOM     16  O   LIG d   1      -4.805  74.435 113.786  0.00  0.00    -0.276 OA
ATOM     17  H   LIG d   1      -4.683  77.180 115.345  0.00  0.00     0.149 HD
ENDBRANCH   6  13
BRANCH   5  18
ATOM     18  N   LIG d   1      -3.292  74.537 117.216  0.00  0.00     0.381 N 
ATOM     19  H   LIG d   1      -3.632  73.993 116.449  0.00  0.00    -0.090 HD
ATOM     20  H   LIG d   1      -4.077  74.822 117.773  0.00  0.00    -0.090 HD
ATOM     21  H   LIG d   1      -2.665  73.992 117.767  0.00  0.00    -0.090 HD
ENDBRANCH   5  18
BRANCH   3  22
ATOM     22  C   LIG d   1       0.901  76.832 116.916  0.00  0.00     0.382 C 
ATOM     23  O   LIG d   1       1.342  78.006 116.902  0.00  0.00    -0.241 OA
ATOM     24  O   LIG d   1       1.591  75.924 117.418  0.00  0.00    -0.241 OA
ENDBRANCH   3  22
TORSDOF 7
ENDMDL
MODEL 9
REMARK VINA RESULT:      -4.3      2.581      5.289
REMARK  7 active torsions:
REMARK  status: ('A' for Active; 'I' for Inactive)
REMARK    1  A    between atoms: C_2  and  C_3 
REMARK    2  A    between atoms: C_3  and  O_6 
REMARK    3  A    between atoms: C_3  and  C_4 
REMARK    4  A    between atoms: C_7  and  O_6 
REMARK    5  A    between atoms: C_9  and  C_10 
REMARK    6  A    between atoms: N_15  and  C_14 
REMARK    7  A    between atoms: N_20  and  C_19 
REMARK       I    between atoms: C_22  and  N_20 
ROOT
ATOM      1  C   LIG d   1      -1.580  75.333 115.249  0.00  0.00     0.161 C 
ATOM      2  C   LIG d   1      -1.115  74.909 116.505  0.00  0.00     0.016 C 
ATOM      3  C   LIG d   1      -0.548  75.783 117.461  0.00  0.00     0.038 C 
ATOM      4  C   LIG d   1      -0.546  77.175 117.283  0.00  0.00     0.028 C 
ATOM      5  C   LIG d   1      -0.544  77.599 115.818  0.00  0.00    -0.047 C 
ATOM      6  C   LIG d   1      -1.687  76.864 115.082  0.00  0.00     0.091 C 
ENDROOT
BRANCH   1   7
ATOM      7  O   LIG d   1      -2.846  74.708 114.959  0.00  0.00    -0.368 OA
BRANCH   7   8
ATOM      8  C   LIG d   1      -4.028  75.464 115.320  0.00  0.00     0.119 C 
BRANCH   8   9
ATOM      9  C   LIG d   1      -4.679  74.758 116.526  0.00  0.00     0.028 C 
ATOM     10  C   LIG d   1      -4.489  75.540 117.836  0.00  0.00     0.006 C 
ENDBRANCH   8   9
BRANCH   8  11
ATOM     11  C   LIG d   1      -5.079  75.420 114.208  0.00  0.00     0.028 C 
ATOM     12  C   LIG d   1      -6.483  75.808 114.699  0.00  0.00     0.006 C 
ENDBRANCH   8  11
ENDBRANCH   7   8
ENDBRANCH   1   7
BRANCH   6  13
ATOM     13  N   LIG d   1      -1.704  77.157 113.625  0.00  0.00    -0.311 N 
ATOM     14  C   LIG d   1      -2.465  78.102 113.076  0.00  0.00     0.210 C 
ATOM     15  C   LIG d   1      -2.345  78.226 111.554  0.00  0.00     0.109 C 
ATOM     16  O   LIG d   1      -3.205  78.871 113.709  0.00  0.00    -0.276 OA
ATOM     17  H   LIG d   1      -1.110  76.601 113.041  0.00  0.00     0.149 HD
ENDBRANCH   6  13
BRANCH   5  18
ATOM     18  N   LIG d   1      -0.681  79.067 115.779  0.00  0.00     0.381 N 
ATOM     19  H   LIG d   1       0.122  79.470 115.339  0.00  0.00    -0.090 HD
ATOM     20  H   LIG d   1      -0.732  79.414 116.720  0.00  0.00    -0.090 HD
ATOM     21  H   LIG d   1      -1.505  79.319 115.279  0.00  0.00    -0.090 HD
ENDBRANCH   5  18
BRANCH   3  22
ATOM     22  C   LIG d   1       0.061  75.263 118.592  0.00  0.00     0.382 C 
ATOM     23  O   LIG d   1       1.208  75.650 118.921  0.00  0.00    -0.241 OA
ATOM     24  O   LIG d   1      -0.504  74.378 119.263  0.00  0.00    -0.241 OA
ENDBRANCH   3  22
TORSDOF 7
ENDMDL
