MODEL 1
REMARK VINA RESULT:      -5.4      0.000      0.000
REMARK  7 active torsions:
REMARK  status: ('A' for Active; 'I' for Inactive)
REMARK    1  A    between atoms: C_2  and  C_3 
REMARK    2  A    between atoms: C_3  and  O_6 
REMARK    3  A    between atoms: C_3  and  C_4 
REMARK    4  A    between atoms: C_7  and  O_6 
REMARK    5  A    between atoms: C_9  and  C_10 
REMARK    6  A    between atoms: N_15  and  C_14 
REMARK    7  A    between atoms: N_20  and  C_19 
REMARK       I    between atoms: C_22  and  N_20 
ROOT
ATOM      1  C   LIG d   1      -2.616  78.348 115.766  0.00  0.00     0.161 C 
ATOM      2  C   LIG d   1      -2.884  79.434 114.916  0.00  0.00     0.016 C 
ATOM      3  C   LIG d   1      -2.385  79.531 113.597  0.00  0.00     0.038 C 
ATOM      4  C   LIG d   1      -1.704  78.470 112.981  0.00  0.00     0.028 C 
ATOM      5  C   LIG d   1      -0.978  77.563 113.969  0.00  0.00    -0.047 C 
ATOM      6  C   LIG d   1      -1.967  77.130 115.074  0.00  0.00     0.091 C 
ENDROOT
BRANCH   1   7
ATOM      7  O   LIG d   1      -3.822  77.953 116.449  0.00  0.00    -0.368 OA
BRANCH   7   8
ATOM      8  C   LIG d   1      -4.076  78.601 117.720  0.00  0.00     0.119 C 
BRANCH   8   9
ATOM      9  C   LIG d   1      -4.285  77.494 118.771  0.00  0.00     0.028 C 
ATOM     10  C   LIG d   1      -2.957  76.889 119.257  0.00  0.00     0.006 C 
ENDBRANCH   8   9
BRANCH   8  11
ATOM     11  C   LIG d   1      -5.391  79.386 117.691  0.00  0.00     0.028 C 
ATOM     12  C   LIG d   1      -5.181  80.905 117.790  0.00  0.00     0.006 C 
ENDBRANCH   8  11
ENDBRANCH   7   8
ENDBRANCH   1   7
BRANCH   6  13
ATOM     13  N   LIG d   1      -1.316  76.309 116.128  0.00  0.00    -0.311 N 
ATOM     14  C   LIG d   1      -1.322  74.977 116.127  0.00  0.00     0.210 C 
ATOM     15  C   LIG d   1      -0.609  74.327 117.317  0.00  0.00     0.109 C 
ATOM     16  O   LIG d   1      -1.822  74.273 115.238  0.00  0.00    -0.276 OA
ATOM     17  H   LIG d   1      -0.859  76.800 116.872  0.00  0.00     0.149 HD
ENDBRANCH   6  13
BRANCH   5  18
ATOM     18  N   LIG d   1      -0.428  76.426 113.207  0.00  0.00     0.381 N 
ATOM     19  H   LIG d   1      -1.048  75.644 113.271  0.00  0.00    -0.090 HD
ATOM     20  H   LIG d   1       0.455  76.162 113.609  0.00  0.00    -0.090 HD
ATOM     21  H   LIG d   1      -0.303  76.683 112.253  0.00  0.00    -0.090 HD
ENDBRANCH   5  18
BRANCH   3  22
ATOM     22  C   LIG d   1      -2.533  80.716 112.892  0.00  0.00     0.382 C 
ATOM     23  O   LIG d   1      -3.669  81.233 112.764  0.00  0.00    -0.241 OA
ATOM     24  O   LIG d   1      -1.550  81.252 112.345  0.00  0.00    -0.241 OA
ENDBRANCH   3  22
TORSDOF 7
ENDMDL
MODEL 2
REMARK VINA RESULT:      -5.3      0.955      1.305
REMARK  7 active torsions:
REMARK  status: ('A' for Active; 'I' for Inactive)
REMARK    1  A    between atoms: C_2  and  C_3 
REMARK    2  A    between atoms: C_3  and  O_6 
REMARK    3  A    between atoms: C_3  and  C_4 
REMARK    4  A    between atoms: C_7  and  O_6 
REMARK    5  A    between atoms: C_9  and  C_10 
REMARK    6  A    between atoms: N_15  and  C_14 
REMARK    7  A    between atoms: N_20  and  C_19 
REMARK       I    between atoms: C_22  and  N_20 
ROOT
ATOM      1  C   LIG d   1      -3.110  78.269 115.652  0.00  0.00     0.161 C 
ATOM      2  C   LIG d   1      -3.210  79.350 114.761  0.00  0.00     0.016 C 
ATOM      3  C   LIG d   1      -2.406  79.484 113.605  0.00  0.00     0.038 C 
ATOM      4  C   LIG d   1      -1.546  78.461 113.178  0.00  0.00     0.028 C 
ATOM      5  C   LIG d   1      -1.045  77.577 114.315  0.00  0.00    -0.047 C 
ATOM      6  C   LIG d   1      -2.255  77.089 115.143  0.00  0.00     0.091 C 
ENDROOT
BRANCH   1   7
ATOM      7  O   LIG d   1      -4.427  77.812 116.016  0.00  0.00    -0.368 OA
BRANCH   7   8
ATOM      8  C   LIG d   1      -5.002  78.409 117.205  0.00  0.00     0.119 C 
BRANCH   8   9
ATOM      9  C   LIG d   1      -3.868  78.573 118.235  0.00  0.00     0.028 C 
ATOM     10  C   LIG d   1      -3.915  77.500 119.336  0.00  0.00     0.006 C 
ENDBRANCH   8   9
BRANCH   8  11
ATOM     11  C   LIG d   1      -6.017  77.470 117.865  0.00  0.00     0.028 C 
ATOM     12  C   LIG d   1      -6.522  76.375 116.913  0.00  0.00     0.006 C 
ENDBRANCH   8  11
ENDBRANCH   7   8
ENDBRANCH   1   7
BRANCH   6  13
ATOM     13  N   LIG d   1      -1.847  76.286 116.325  0.00  0.00    -0.311 N 
ATOM     14  C   LIG d   1      -1.742  74.958 116.309  0.00  0.00     0.210 C 
ATOM     15  C   LIG d   1      -1.326  74.327 117.641  0.00  0.00     0.109 C 
ATOM     16  O   LIG d   1      -1.923  74.247 115.310  0.00  0.00    -0.276 OA
ATOM     17  H   LIG d   1      -1.650  76.786 117.170  0.00  0.00     0.149 HD
ENDBRANCH   6  13
BRANCH   5  18
ATOM     18  N   LIG d   1      -0.272  76.474 113.714  0.00  0.00     0.381 N 
ATOM     19  H   LIG d   1      -0.074  76.682 112.755  0.00  0.00    -0.090 HD
ATOM     20  H   LIG d   1      -0.824  75.635 113.746  0.00  0.00    -0.090 HD
ATOM     21  H   LIG d   1       0.578  76.340 114.215  0.00  0.00    -0.090 HD
ENDBRANCH   5  18
BRANCH   3  22
ATOM     22  C   LIG d   1      -2.430  80.669 112.885  0.00  0.00     0.382 C 
ATOM     23  O   LIG d   1      -3.510  81.286 112.730  0.00  0.00    -0.241 OA
ATOM     24  O   LIG d   1      -1.392  81.104 112.352  0.00  0.00    -0.241 OA
ENDBRANCH   3  22
TORSDOF 7
ENDMDL
MODEL 3
REMARK VINA RESULT:      -5.0      3.379      5.588
REMARK  7 active torsions:
REMARK  status: ('A' for Active; 'I' for Inactive)
REMARK    1  A    between atoms: C_2  and  C_3 
REMARK    2  A    between atoms: C_3  and  O_6 
REMARK    3  A    between atoms: C_3  and  C_4 
REMARK    4  A    between atoms: C_7  and  O_6 
REMARK    5  A    between atoms: C_9  and  C_10 
REMARK    6  A    between atoms: N_15  and  C_14 
REMARK    7  A    between atoms: N_20  and  C_19 
REMARK       I    between atoms: C_22  and  N_20 
ROOT
ATOM      1  C   LIG d   1      -1.126  79.959 112.901  0.00  0.00     0.161 C 
ATOM      2  C   LIG d   1      -2.206  79.072 112.755  0.00  0.00     0.016 C 
ATOM      3  C   LIG d   1      -2.391  78.253 111.618  0.00  0.00     0.038 C 
ATOM      4  C   LIG d   1      -1.422  78.155 110.609  0.00  0.00     0.028 C 
ATOM      5  C   LIG d   1      -0.562  79.406 110.471  0.00  0.00    -0.047 C 
ATOM      6  C   LIG d   1      -0.000  79.784 111.861  0.00  0.00     0.091 C 
ENDROOT
BRANCH   1   7
ATOM      7  O   LIG d   1      -0.594  79.865 114.237  0.00  0.00    -0.368 OA
BRANCH   7   8
ATOM      8  C   LIG d   1      -1.114  78.789 115.056  0.00  0.00     0.119 C 
BRANCH   8   9
ATOM      9  C   LIG d   1      -1.361  79.358 116.466  0.00  0.00     0.028 C 
ATOM     10  C   LIG d   1      -0.463  78.705 117.530  0.00  0.00     0.006 C 
ENDBRANCH   8   9
BRANCH   8  11
ATOM     11  C   LIG d   1      -0.075  77.679 115.244  0.00  0.00     0.028 C 
ATOM     12  C   LIG d   1      -0.531  76.331 114.664  0.00  0.00     0.006 C 
ENDBRANCH   8  11
ENDBRANCH   7   8
ENDBRANCH   1   7
BRANCH   6  13
ATOM     13  N   LIG d   1       0.784  81.046 111.831  0.00  0.00    -0.311 N 
ATOM     14  C   LIG d   1       0.251  82.235 111.556  0.00  0.00     0.210 C 
ATOM     15  C   LIG d   1       1.240  83.404 111.559  0.00  0.00     0.109 C 
ATOM     16  O   LIG d   1      -0.954  82.437 111.342  0.00  0.00    -0.276 OA
ATOM     17  H   LIG d   1       1.764  80.979 112.025  0.00  0.00     0.149 HD
ENDBRANCH   6  13
BRANCH   5  18
ATOM     18  N   LIG d   1       0.493  79.116 109.481  0.00  0.00     0.381 N 
ATOM     19  H   LIG d   1       0.196  79.414 108.573  0.00  0.00    -0.090 HD
ATOM     20  H   LIG d   1       0.647  78.124 109.452  0.00  0.00    -0.090 HD
ATOM     21  H   LIG d   1       1.335  79.584 109.733  0.00  0.00    -0.090 HD
ENDBRANCH   5  18
BRANCH   3  22
ATOM     22  C   LIG d   1      -3.577  77.550 111.463  0.00  0.00     0.382 C 
ATOM     23  O   LIG d   1      -3.927  77.155 110.325  0.00  0.00    -0.241 OA
ATOM     24  O   LIG d   1      -4.323  77.346 112.439  0.00  0.00    -0.241 OA
ENDBRANCH   3  22
TORSDOF 7
ENDMDL
MODEL 4
REMARK VINA RESULT:      -4.8      2.684      5.048
REMARK  7 active torsions:
REMARK  status: ('A' for Active; 'I' for Inactive)
REMARK    1  A    between atoms: C_2  and  C_3 
REMARK    2  A    between atoms: C_3  and  O_6 
REMARK    3  A    between atoms: C_3  and  C_4 
REMARK    4  A    between atoms: C_7  and  O_6 
REMARK    5  A    between atoms: C_9  and  C_10 
REMARK    6  A    between atoms: N_15  and  C_14 
REMARK    7  A    between atoms: N_20  and  C_19 
REMARK       I    between atoms: C_22  and  N_20 
ROOT
ATOM      1  C   LIG d   1      -1.376  75.741 114.987  0.00  0.00     0.161 C 
ATOM      2  C   LIG d   1      -0.755  75.584 116.237  0.00  0.00     0.016 C 
ATOM      3  C   LIG d   1      -0.058  76.622 116.895  0.00  0.00     0.038 C 
ATOM      4  C   LIG d   1      -0.063  77.940 116.414  0.00  0.00     0.028 C 
ATOM      5  C   LIG d   1      -0.250  78.033 114.903  0.00  0.00    -0.047 C 
ATOM      6  C   LIG d   1      -1.488  77.200 114.499  0.00  0.00     0.091 C 
ENDROOT
BRANCH   1   7
ATOM      7  O   LIG d   1      -2.676  75.118 115.005  0.00  0.00    -0.368 OA
BRANCH   7   8
ATOM      8  C   LIG d   1      -3.800  75.996 115.258  0.00  0.00     0.119 C 
BRANCH   8   9
ATOM      9  C   LIG d   1      -4.322  75.685 116.674  0.00  0.00     0.028 C 
ATOM     10  C   LIG d   1      -3.932  76.768 117.694  0.00  0.00     0.006 C 
ENDBRANCH   8   9
BRANCH   8  11
ATOM     11  C   LIG d   1      -4.970  75.689 114.318  0.00  0.00     0.028 C 
ATOM     12  C   LIG d   1      -6.331  75.714 115.032  0.00  0.00     0.006 C 
ENDBRANCH   8  11
ENDBRANCH   7   8
ENDBRANCH   1   7
BRANCH   6  13
ATOM     13  N   LIG d   1      -1.693  77.168 113.027  0.00  0.00    -0.311 N 
ATOM     14  C   LIG d   1      -2.535  77.977 112.386  0.00  0.00     0.210 C 
ATOM     15  C   LIG d   1      -2.609  77.764 110.871  0.00  0.00     0.109 C 
ATOM     16  O   LIG d   1      -3.203  78.873 112.925  0.00  0.00    -0.276 OA
ATOM     17  H   LIG d   1      -1.167  76.492 112.508  0.00  0.00     0.149 HD
ENDBRANCH   6  13
BRANCH   5  18
ATOM     18  N   LIG d   1      -0.375  79.461 114.556  0.00  0.00     0.381 N 
ATOM     19  H   LIG d   1      -1.310  79.657 114.259  0.00  0.00    -0.090 HD
ATOM     20  H   LIG d   1       0.248  79.666 113.794  0.00  0.00    -0.090 HD
ATOM     21  H   LIG d   1      -0.144  80.025 115.344  0.00  0.00    -0.090 HD
ENDBRANCH   5  18
BRANCH   3  22
ATOM     22  C   LIG d   1       0.689  76.338 118.029  0.00  0.00     0.382 C 
ATOM     23  O   LIG d   1       1.130  77.273 118.739  0.00  0.00    -0.241 OA
ATOM     24  O   LIG d   1       0.964  75.160 118.325  0.00  0.00    -0.241 OA
ENDBRANCH   3  22
TORSDOF 7
ENDMDL
MODEL 5
REMARK VINA RESULT:      -4.8      2.867      4.412
REMARK  7 active torsions:
REMARK  status: ('A' for Active; 'I' for Inactive)
REMARK    1  A    between atoms: C_2  and  C_3 
REMARK    2  A    between atoms: C_3  and  O_6 
REMARK    3  A    between atoms: C_3  and  C_4 
REMARK    4  A    between atoms: C_7  and  O_6 
REMARK    5  A    between atoms: C_9  and  C_10 
REMARK    6  A    between atoms: N_15  and  C_14 
REMARK    7  A    between atoms: N_20  and  C_19 
REMARK       I    between atoms: C_22  and  N_20 
ROOT
ATOM      1  C   LIG d   1      -4.593  76.883 117.477  0.00  0.00     0.161 C 
ATOM      2  C   LIG d   1      -5.376  77.990 117.844  0.00  0.00     0.016 C 
ATOM      3  C   LIG d   1      -5.020  79.326 117.550  0.00  0.00     0.038 C 
ATOM      4  C   LIG d   1      -3.926  79.639 116.730  0.00  0.00     0.028 C 
ATOM      5  C   LIG d   1      -2.826  78.583 116.759  0.00  0.00    -0.047 C 
ATOM      6  C   LIG d   1      -3.453  77.197 116.486  0.00  0.00     0.091 C 
ENDROOT
BRANCH   1   7
ATOM      7  O   LIG d   1      -5.438  75.839 116.954  0.00  0.00    -0.368 OA
BRANCH   7   8
ATOM      8  C   LIG d   1      -6.518  76.267 116.088  0.00  0.00     0.119 C 
BRANCH   8   9
ATOM      9  C   LIG d   1      -7.807  75.583 116.584  0.00  0.00     0.028 C 
ATOM     10  C   LIG d   1      -7.522  74.285 117.359  0.00  0.00     0.006 C 
ENDBRANCH   8   9
BRANCH   8  11
ATOM     11  C   LIG d   1      -6.316  75.763 114.656  0.00  0.00     0.028 C 
ATOM     12  C   LIG d   1      -5.268  74.643 114.560  0.00  0.00     0.006 C 
ENDBRANCH   8  11
ENDBRANCH   7   8
ENDBRANCH   1   7
BRANCH   6  13
ATOM     13  N   LIG d   1      -2.458  76.096 116.580  0.00  0.00    -0.311 N 
ATOM     14  C   LIG d   1      -1.818  75.595 115.526  0.00  0.00     0.210 C 
ATOM     15  C   LIG d   1      -0.849  74.451 115.842  0.00  0.00     0.109 C 
ATOM     16  O   LIG d   1      -1.936  76.010 114.363  0.00  0.00    -0.276 OA
ATOM     17  H   LIG d   1      -2.279  75.721 117.491  0.00  0.00     0.149 HD
ENDBRANCH   6  13
BRANCH   5  18
ATOM     18  N   LIG d   1      -1.813  78.967 115.759  0.00  0.00     0.381 N 
ATOM     19  H   LIG d   1      -2.032  78.548 114.877  0.00  0.00    -0.090 HD
ATOM     20  H   LIG d   1      -0.916  78.625 116.056  0.00  0.00    -0.090 HD
ATOM     21  H   LIG d   1      -1.784  79.959 115.665  0.00  0.00    -0.090 HD
ENDBRANCH   5  18
BRANCH   3  22
ATOM     22  C   LIG d   1      -5.742  80.369 118.111  0.00  0.00     0.382 C 
ATOM     23  O   LIG d   1      -5.931  80.404 119.351  0.00  0.00    -0.241 OA
ATOM     24  O   LIG d   1      -6.243  81.251 117.389  0.00  0.00    -0.241 OA
ENDBRANCH   3  22
TORSDOF 7
ENDMDL
MODEL 6
REMARK VINA RESULT:      -4.7      2.618      3.228
REMARK  7 active torsions:
REMARK  status: ('A' for Active; 'I' for Inactive)
REMARK    1  A    between atoms: C_2  and  C_3 
REMARK    2  A    between atoms: C_3  and  O_6 
REMARK    3  A    between atoms: C_3  and  C_4 
REMARK    4  A    between atoms: C_7  and  O_6 
REMARK    5  A    between atoms: C_9  and  C_10 
REMARK    6  A    between atoms: N_15  and  C_14 
REMARK    7  A    between atoms: N_20  and  C_19 
REMARK       I    between atoms: C_22  and  N_20 
ROOT
ATOM      1  C   LIG d   1      -2.728  77.165 114.675  0.00  0.00     0.161 C 
ATOM      2  C   LIG d   1      -2.933  77.136 113.286  0.00  0.00     0.016 C 
ATOM      3  C   LIG d   1      -2.089  77.792 112.361  0.00  0.00     0.038 C 
ATOM      4  C   LIG d   1      -0.888  78.401 112.756  0.00  0.00     0.028 C 
ATOM      5  C   LIG d   1      -0.902  78.887 114.201  0.00  0.00    -0.047 C 
ATOM      6  C   LIG d   1      -1.361  77.730 115.116  0.00  0.00     0.091 C 
ENDROOT
BRANCH   1   7
ATOM      7  O   LIG d   1      -2.926  75.847 115.226  0.00  0.00    -0.368 OA
BRANCH   7   8
ATOM      8  C   LIG d   1      -4.109  75.670 116.044  0.00  0.00     0.119 C 
BRANCH   8   9
ATOM      9  C   LIG d   1      -5.130  74.868 115.213  0.00  0.00     0.028 C 
ATOM     10  C   LIG d   1      -6.190  74.181 116.090  0.00  0.00     0.006 C 
ENDBRANCH   8   9
BRANCH   8  11
ATOM     11  C   LIG d   1      -4.789  77.010 116.338  0.00  0.00     0.028 C 
ATOM     12  C   LIG d   1      -4.869  77.320 117.842  0.00  0.00     0.006 C 
ENDBRANCH   8  11
ENDBRANCH   7   8
ENDBRANCH   1   7
BRANCH   6  13
ATOM     13  N   LIG d   1      -1.484  78.145 116.538  0.00  0.00    -0.311 N 
ATOM     14  C   LIG d   1      -0.950  77.463 117.549  0.00  0.00     0.210 C 
ATOM     15  C   LIG d   1      -1.211  78.055 118.938  0.00  0.00     0.109 C 
ATOM     16  O   LIG d   1      -0.257  76.441 117.426  0.00  0.00    -0.276 OA
ATOM     17  H   LIG d   1      -2.003  78.980 116.726  0.00  0.00     0.149 HD
ENDBRANCH   6  13
BRANCH   5  18
ATOM     18  N   LIG d   1       0.454  79.374 114.520  0.00  0.00     0.381 N 
ATOM     19  H   LIG d   1       0.538  79.518 115.506  0.00  0.00    -0.090 HD
ATOM     20  H   LIG d   1       0.601  80.254 114.058  0.00  0.00    -0.090 HD
ATOM     21  H   LIG d   1       1.134  78.713 114.215  0.00  0.00    -0.090 HD
ENDBRANCH   5  18
BRANCH   3  22
ATOM     22  C   LIG d   1      -2.465  77.879 111.029  0.00  0.00     0.382 C 
ATOM     23  O   LIG d   1      -1.746  78.506 110.214  0.00  0.00    -0.241 OA
ATOM     24  O   LIG d   1      -3.536  77.376 110.641  0.00  0.00    -0.241 OA
ENDBRANCH   3  22
TORSDOF 7
ENDMDL
MODEL 7
REMARK VINA RESULT:      -4.7      2.719      5.159
REMARK  7 active torsions:
REMARK  status: ('A' for Active; 'I' for Inactive)
REMARK    1  A    between atoms: C_2  and  C_3 
REMARK    2  A    between atoms: C_3  and  O_6 
REMARK    3  A    between atoms: C_3  and  C_4 
REMARK    4  A    between atoms: C_7  and  O_6 
REMARK    5  A    between atoms: C_9  and  C_10 
REMARK    6  A    between atoms: N_15  and  C_14 
REMARK    7  A    between atoms: N_20  and  C_19 
REMARK       I    between atoms: C_22  and  N_20 
ROOT
ATOM      1  C   LIG d   1      -2.613  78.060 115.383  0.00  0.00     0.161 C 
ATOM      2  C   LIG d   1      -1.282  78.305 115.761  0.00  0.00     0.016 C 
ATOM      3  C   LIG d   1      -0.443  77.322 116.334  0.00  0.00     0.038 C 
ATOM      4  C   LIG d   1      -0.833  75.978 116.430  0.00  0.00     0.028 C 
ATOM      5  C   LIG d   1      -2.343  75.791 116.526  0.00  0.00    -0.047 C 
ATOM      6  C   LIG d   1      -3.020  76.572 115.376  0.00  0.00     0.091 C 
ENDROOT
BRANCH   1   7
ATOM      7  O   LIG d   1      -2.873  78.656 114.096  0.00  0.00    -0.368 OA
BRANCH   7   8
ATOM      8  C   LIG d   1      -1.775  78.636 113.151  0.00  0.00     0.119 C 
BRANCH   8   9
ATOM      9  C   LIG d   1      -1.631  80.059 112.578  0.00  0.00     0.028 C 
ATOM     10  C   LIG d   1      -2.846  80.946 112.899  0.00  0.00     0.006 C 
ENDBRANCH   8   9
BRANCH   8  11
ATOM     11  C   LIG d   1      -2.092  77.744 111.947  0.00  0.00     0.028 C 
ATOM     12  C   LIG d   1      -3.601  77.612 111.685  0.00  0.00     0.006 C 
ENDBRANCH   8  11
ENDBRANCH   7   8
ENDBRANCH   1   7
BRANCH   6  13
ATOM     13  N   LIG d   1      -4.503  76.511 115.446  0.00  0.00    -0.311 N 
ATOM     14  C   LIG d   1      -5.232  75.615 114.783  0.00  0.00     0.210 C 
ATOM     15  C   LIG d   1      -6.747  75.741 114.979  0.00  0.00     0.109 C 
ATOM     16  O   LIG d   1      -4.767  74.708 114.077  0.00  0.00    -0.276 OA
ATOM     17  H   LIG d   1      -4.961  77.191 116.022  0.00  0.00     0.149 HD
ENDBRANCH   6  13
BRANCH   5  18
ATOM     18  N   LIG d   1      -2.617  74.342 116.481  0.00  0.00     0.381 N 
ATOM     19  H   LIG d   1      -2.810  74.005 117.402  0.00  0.00    -0.090 HD
ATOM     20  H   LIG d   1      -1.800  73.868 116.136  0.00  0.00    -0.090 HD
ATOM     21  H   LIG d   1      -3.393  74.160 115.883  0.00  0.00    -0.090 HD
ENDBRANCH   5  18
BRANCH   3  22
ATOM     22  C   LIG d   1       0.788  77.690 116.856  0.00  0.00     0.382 C 
ATOM     23  O   LIG d   1       1.549  76.818 117.341  0.00  0.00    -0.241 OA
ATOM     24  O   LIG d   1       1.128  78.888 116.889  0.00  0.00    -0.241 OA
ENDBRANCH   3  22
TORSDOF 7
ENDMDL
MODEL 8
REMARK VINA RESULT:      -4.7      2.201      2.856
REMARK  7 active torsions:
REMARK  status: ('A' for Active; 'I' for Inactive)
REMARK    1  A    between atoms: C_2  and  C_3 
REMARK    2  A    between atoms: C_3  and  O_6 
REMARK    3  A    between atoms: C_3  and  C_4 
REMARK    4  A    between atoms: C_7  and  O_6 
REMARK    5  A    between atoms: C_9  and  C_10 
REMARK    6  A    between atoms: N_15  and  C_14 
REMARK    7  A    between atoms: N_20  and  C_19 
REMARK       I    between atoms: C_22  and  N_20 
ROOT
ATOM      1  C   LIG d   1      -2.807  77.209 115.123  0.00  0.00     0.161 C 
ATOM      2  C   LIG d   1      -2.980  78.243 114.188  0.00  0.00     0.016 C 
ATOM      3  C   LIG d   1      -1.963  79.166 113.851  0.00  0.00     0.038 C 
ATOM      4  C   LIG d   1      -0.648  79.024 114.318  0.00  0.00     0.028 C 
ATOM      5  C   LIG d   1      -0.556  78.295 115.655  0.00  0.00    -0.047 C 
ATOM      6  C   LIG d   1      -1.347  76.970 115.560  0.00  0.00     0.091 C 
ENDROOT
BRANCH   1   7
ATOM      7  O   LIG d   1      -3.384  75.989 114.616  0.00  0.00    -0.368 OA
BRANCH   7   8
ATOM      8  C   LIG d   1      -4.378  75.356 115.457  0.00  0.00     0.119 C 
BRANCH   8   9
ATOM      9  C   LIG d   1      -5.524  74.881 114.543  0.00  0.00     0.028 C 
ATOM     10  C   LIG d   1      -6.103  76.021 113.688  0.00  0.00     0.006 C 
ENDBRANCH   8   9
BRANCH   8  11
ATOM     11  C   LIG d   1      -5.017  76.363 116.418  0.00  0.00     0.028 C 
ATOM     12  C   LIG d   1      -6.259  75.803 117.130  0.00  0.00     0.006 C 
ENDBRANCH   8  11
ENDBRANCH   7   8
ENDBRANCH   1   7
BRANCH   6  13
ATOM     13  N   LIG d   1      -1.378  76.235 116.852  0.00  0.00    -0.311 N 
ATOM     14  C   LIG d   1      -0.618  75.172 117.109  0.00  0.00     0.210 C 
ATOM     15  C   LIG d   1      -0.822  74.552 118.495  0.00  0.00     0.109 C 
ATOM     16  O   LIG d   1       0.228  74.703 116.333  0.00  0.00    -0.276 OA
ATOM     17  H   LIG d   1      -2.014  76.567 117.550  0.00  0.00     0.149 HD
ENDBRANCH   6  13
BRANCH   5  18
ATOM     18  N   LIG d   1       0.874  78.095 115.956  0.00  0.00     0.381 N 
ATOM     19  H   LIG d   1       0.981  77.345 116.609  0.00  0.00    -0.090 HD
ATOM     20  H   LIG d   1       1.238  78.933 116.376  0.00  0.00    -0.090 HD
ATOM     21  H   LIG d   1       1.373  77.891 115.119  0.00  0.00    -0.090 HD
ENDBRANCH   5  18
BRANCH   3  22
ATOM     22  C   LIG d   1      -2.268  80.269 113.068  0.00  0.00     0.382 C 
ATOM     23  O   LIG d   1      -3.456  80.663 112.976  0.00  0.00    -0.241 OA
ATOM     24  O   LIG d   1      -1.378  80.848 112.418  0.00  0.00    -0.241 OA
ENDBRANCH   3  22
TORSDOF 7
ENDMDL
MODEL 9
REMARK VINA RESULT:      -4.5      2.739      5.396
REMARK  7 active torsions:
REMARK  status: ('A' for Active; 'I' for Inactive)
REMARK    1  A    between atoms: C_2  and  C_3 
REMARK    2  A    between atoms: C_3  and  O_6 
REMARK    3  A    between atoms: C_3  and  C_4 
REMARK    4  A    between atoms: C_7  and  O_6 
REMARK    5  A    between atoms: C_9  and  C_10 
REMARK    6  A    between atoms: N_15  and  C_14 
REMARK    7  A    between atoms: N_20  and  C_19 
REMARK       I    between atoms: C_22  and  N_20 
ROOT
ATOM      1  C   LIG d   1      -1.641  76.905 114.751  0.00  0.00     0.161 C 
ATOM      2  C   LIG d   1      -2.834  76.362 114.244  0.00  0.00     0.016 C 
ATOM      3  C   LIG d   1      -4.081  76.477 114.900  0.00  0.00     0.038 C 
ATOM      4  C   LIG d   1      -4.249  77.278 116.039  0.00  0.00     0.028 C 
ATOM      5  C   LIG d   1      -2.976  77.431 116.865  0.00  0.00    -0.047 C 
ATOM      6  C   LIG d   1      -1.825  77.877 115.935  0.00  0.00     0.091 C 
ENDROOT
BRANCH   1   7
ATOM      7  O   LIG d   1      -0.905  77.543 113.688  0.00  0.00    -0.368 OA
BRANCH   7   8
ATOM      8  C   LIG d   1      -1.698  78.164 112.647  0.00  0.00     0.119 C 
BRANCH   8   9
ATOM      9  C   LIG d   1      -1.153  77.670 111.293  0.00  0.00     0.028 C 
ATOM     10  C   LIG d   1      -0.697  78.825 110.386  0.00  0.00     0.006 C 
ENDBRANCH   8   9
BRANCH   8  11
ATOM     11  C   LIG d   1      -1.505  79.683 112.631  0.00  0.00     0.028 C 
ATOM     12  C   LIG d   1      -2.780  80.450 113.015  0.00  0.00     0.006 C 
ENDBRANCH   8  11
ENDBRANCH   7   8
ENDBRANCH   1   7
BRANCH   6  13
ATOM     13  N   LIG d   1      -0.524  77.968 116.647  0.00  0.00    -0.311 N 
ATOM     14  C   LIG d   1       0.311  78.999 116.521  0.00  0.00     0.210 C 
ATOM     15  C   LIG d   1       1.607  78.884 117.328  0.00  0.00     0.109 C 
ATOM     16  O   LIG d   1       0.085  80.012 115.842  0.00  0.00    -0.276 OA
ATOM     17  H   LIG d   1      -0.275  77.203 117.244  0.00  0.00     0.149 HD
ENDBRANCH   6  13
BRANCH   5  18
ATOM     18  N   LIG d   1      -3.257  78.399 117.942  0.00  0.00     0.381 N 
ATOM     19  H   LIG d   1      -3.658  79.229 117.555  0.00  0.00    -0.090 HD
ATOM     20  H   LIG d   1      -2.393  78.645 118.391  0.00  0.00    -0.090 HD
ATOM     21  H   LIG d   1      -3.883  77.998 118.606  0.00  0.00    -0.090 HD
ENDBRANCH   5  18
BRANCH   3  22
ATOM     22  C   LIG d   1      -5.169  75.753 114.437  0.00  0.00     0.382 C 
ATOM     23  O   LIG d   1      -5.013  74.575 114.034  0.00  0.00    -0.241 OA
ATOM     24  O   LIG d   1      -6.298  76.277 114.378  0.00  0.00    -0.241 OA
ENDBRANCH   3  22
TORSDOF 7
ENDMDL
