MODEL 1
REMARK VINA RESULT:      -5.3      0.000      0.000
REMARK  7 active torsions:
REMARK  status: ('A' for Active; 'I' for Inactive)
REMARK    1  A    between atoms: C_2  and  C_3 
REMARK    2  A    between atoms: C_3  and  O_6 
REMARK    3  A    between atoms: C_3  and  C_4 
REMARK    4  A    between atoms: C_7  and  O_6 
REMARK    5  A    between atoms: C_9  and  C_10 
REMARK    6  A    between atoms: N_15  and  C_14 
REMARK    7  A    between atoms: N_20  and  C_19 
REMARK       I    between atoms: C_22  and  N_20 
ROOT
ATOM      1  C   LIG d   1      -3.182  76.708 115.316  0.00  0.00     0.161 C 
ATOM      2  C   LIG d   1      -3.350  77.640 114.278  0.00  0.00     0.016 C 
ATOM      3  C   LIG d   1      -2.405  78.647 113.976  0.00  0.00     0.038 C 
ATOM      4  C   LIG d   1      -1.149  78.697 114.600  0.00  0.00     0.028 C 
ATOM      5  C   LIG d   1      -1.143  78.089 115.998  0.00  0.00    -0.047 C 
ATOM      6  C   LIG d   1      -1.769  76.677 115.935  0.00  0.00     0.091 C 
ENDROOT
BRANCH   1   7
ATOM      7  O   LIG d   1      -3.559  75.394 114.859  0.00  0.00    -0.368 OA
BRANCH   7   8
ATOM      8  C   LIG d   1      -4.682  74.781 115.538  0.00  0.00     0.119 C 
BRANCH   8   9
ATOM      9  C   LIG d   1      -5.727  74.415 114.466  0.00  0.00     0.028 C 
ATOM     10  C   LIG d   1      -6.516  75.639 113.973  0.00  0.00     0.006 C 
ENDBRANCH   8   9
BRANCH   8  11
ATOM     11  C   LIG d   1      -5.385  75.777 116.465  0.00  0.00     0.028 C 
ATOM     12  C   LIG d   1      -6.091  75.095 117.647  0.00  0.00     0.006 C 
ENDBRANCH   8  11
ENDBRANCH   7   8
ENDBRANCH   1   7
BRANCH   6  13
ATOM     13  N   LIG d   1      -1.879  76.044 117.275  0.00  0.00    -0.311 N 
ATOM     14  C   LIG d   1      -0.972  75.200 117.764  0.00  0.00     0.210 C 
ATOM     15  C   LIG d   1      -1.287  74.647 119.157  0.00  0.00     0.109 C 
ATOM     16  O   LIG d   1       0.080  74.882 117.189  0.00  0.00    -0.276 OA
ATOM     17  H   LIG d   1      -2.686  76.272 117.822  0.00  0.00     0.149 HD
ENDBRANCH   6  13
BRANCH   5  18
ATOM     18  N   LIG d   1       0.253  78.081 116.475  0.00  0.00     0.381 N 
ATOM     19  H   LIG d   1       0.450  78.935 116.959  0.00  0.00    -0.090 HD
ATOM     20  H   LIG d   1       0.867  78.020 115.682  0.00  0.00    -0.090 HD
ATOM     21  H   LIG d   1       0.402  77.305 117.081  0.00  0.00    -0.090 HD
ENDBRANCH   5  18
BRANCH   3  22
ATOM     22  C   LIG d   1      -2.729  79.644 113.068  0.00  0.00     0.382 C 
ATOM     23  O   LIG d   1      -2.227  79.632 111.919  0.00  0.00    -0.241 OA
ATOM     24  O   LIG d   1      -3.483  80.579 113.399  0.00  0.00    -0.241 OA
ENDBRANCH   3  22
TORSDOF 7
ENDMDL
MODEL 2
REMARK VINA RESULT:      -5.3      1.799      4.647
REMARK  7 active torsions:
REMARK  status: ('A' for Active; 'I' for Inactive)
REMARK    1  A    between atoms: C_2  and  C_3 
REMARK    2  A    between atoms: C_3  and  O_6 
REMARK    3  A    between atoms: C_3  and  C_4 
REMARK    4  A    between atoms: C_7  and  O_6 
REMARK    5  A    between atoms: C_9  and  C_10 
REMARK    6  A    between atoms: N_15  and  C_14 
REMARK    7  A    between atoms: N_20  and  C_19 
REMARK       I    between atoms: C_22  and  N_20 
ROOT
ATOM      1  C   LIG d   1      -2.286  75.614 114.929  0.00  0.00     0.161 C 
ATOM      2  C   LIG d   1      -2.079  75.219 116.261  0.00  0.00     0.016 C 
ATOM      3  C   LIG d   1      -1.349  75.988 117.196  0.00  0.00     0.038 C 
ATOM      4  C   LIG d   1      -0.903  77.285 116.902  0.00  0.00     0.028 C 
ATOM      5  C   LIG d   1      -0.652  77.517 115.415  0.00  0.00    -0.047 C 
ATOM      6  C   LIG d   1      -1.903  77.076 114.621  0.00  0.00     0.091 C 
ENDROOT
BRANCH   1   7
ATOM      7  O   LIG d   1      -3.656  75.365 114.553  0.00  0.00    -0.368 OA
BRANCH   7   8
ATOM      8  C   LIG d   1      -4.613  75.306 115.639  0.00  0.00     0.119 C 
BRANCH   8   9
ATOM      9  C   LIG d   1      -5.614  74.180 115.312  0.00  0.00     0.028 C 
ATOM     10  C   LIG d   1      -6.827  74.180 116.258  0.00  0.00     0.006 C 
ENDBRANCH   8   9
BRANCH   8  11
ATOM     11  C   LIG d   1      -5.452  76.585 115.713  0.00  0.00     0.028 C 
ATOM     12  C   LIG d   1      -4.954  77.563 116.788  0.00  0.00     0.006 C 
ENDBRANCH   8  11
ENDBRANCH   7   8
ENDBRANCH   1   7
BRANCH   6  13
ATOM     13  N   LIG d   1      -1.710  77.191 113.152  0.00  0.00    -0.311 N 
ATOM     14  C   LIG d   1      -2.575  77.804 112.344  0.00  0.00     0.210 C 
ATOM     15  C   LIG d   1      -2.194  77.791 110.860  0.00  0.00     0.109 C 
ATOM     16  O   LIG d   1      -3.604  78.385 112.720  0.00  0.00    -0.276 OA
ATOM     17  H   LIG d   1      -0.885  76.774 112.766  0.00  0.00     0.149 HD
ENDBRANCH   6  13
BRANCH   5  18
ATOM     18  N   LIG d   1      -0.326  78.944 115.236  0.00  0.00     0.381 N 
ATOM     19  H   LIG d   1      -1.093  79.508 115.546  0.00  0.00    -0.090 HD
ATOM     20  H   LIG d   1      -0.178  79.123 114.258  0.00  0.00    -0.090 HD
ATOM     21  H   LIG d   1       0.494  79.174 115.751  0.00  0.00    -0.090 HD
ENDBRANCH   5  18
BRANCH   3  22
ATOM     22  C   LIG d   1      -1.024  75.444 118.429  0.00  0.00     0.382 C 
ATOM     23  O   LIG d   1       0.153  75.080 118.663  0.00  0.00    -0.241 OA
ATOM     24  O   LIG d   1      -1.903  75.271 119.295  0.00  0.00    -0.241 OA
ENDBRANCH   3  22
TORSDOF 7
ENDMDL
MODEL 3
REMARK VINA RESULT:      -5.0      2.093      5.244
REMARK  7 active torsions:
REMARK  status: ('A' for Active; 'I' for Inactive)
REMARK    1  A    between atoms: C_2  and  C_3 
REMARK    2  A    between atoms: C_3  and  O_6 
REMARK    3  A    between atoms: C_3  and  C_4 
REMARK    4  A    between atoms: C_7  and  O_6 
REMARK    5  A    between atoms: C_9  and  C_10 
REMARK    6  A    between atoms: N_15  and  C_14 
REMARK    7  A    between atoms: N_20  and  C_19 
REMARK       I    between atoms: C_22  and  N_20 
ROOT
ATOM      1  C   LIG d   1      -3.221  78.122 115.480  0.00  0.00     0.161 C 
ATOM      2  C   LIG d   1      -1.907  78.367 115.913  0.00  0.00     0.016 C 
ATOM      3  C   LIG d   1      -1.086  77.379 116.503  0.00  0.00     0.038 C 
ATOM      4  C   LIG d   1      -1.473  76.032 116.563  0.00  0.00     0.028 C 
ATOM      5  C   LIG d   1      -2.985  75.837 116.598  0.00  0.00    -0.047 C 
ATOM      6  C   LIG d   1      -3.620  76.633 115.435  0.00  0.00     0.091 C 
ENDROOT
BRANCH   1   7
ATOM      7  O   LIG d   1      -3.434  78.737 114.194  0.00  0.00    -0.368 OA
BRANCH   7   8
ATOM      8  C   LIG d   1      -2.391  78.533 113.209  0.00  0.00     0.119 C 
BRANCH   8   9
ATOM      9  C   LIG d   1      -1.982  79.919 112.674  0.00  0.00     0.028 C 
ATOM     10  C   LIG d   1      -2.959  81.026 113.104  0.00  0.00     0.006 C 
ENDBRANCH   8   9
BRANCH   8  11
ATOM     11  C   LIG d   1      -2.916  77.766 111.992  0.00  0.00     0.028 C 
ATOM     12  C   LIG d   1      -2.062  77.989 110.734  0.00  0.00     0.006 C 
ENDBRANCH   8  11
ENDBRANCH   7   8
ENDBRANCH   1   7
BRANCH   6  13
ATOM     13  N   LIG d   1      -5.105  76.564 115.447  0.00  0.00    -0.311 N 
ATOM     14  C   LIG d   1      -5.805  75.697 114.718  0.00  0.00     0.210 C 
ATOM     15  C   LIG d   1      -7.326  75.809 114.863  0.00  0.00     0.109 C 
ATOM     16  O   LIG d   1      -5.310  74.823 113.991  0.00  0.00    -0.276 OA
ATOM     17  H   LIG d   1      -5.587  77.217 116.034  0.00  0.00     0.149 HD
ENDBRANCH   6  13
BRANCH   5  18
ATOM     18  N   LIG d   1      -3.249  74.388 116.520  0.00  0.00     0.381 N 
ATOM     19  H   LIG d   1      -2.604  73.959 115.886  0.00  0.00    -0.090 HD
ATOM     20  H   LIG d   1      -4.179  74.246 116.167  0.00  0.00    -0.090 HD
ATOM     21  H   LIG d   1      -3.162  73.976 117.423  0.00  0.00    -0.090 HD
ENDBRANCH   5  18
BRANCH   3  22
ATOM     22  C   LIG d   1       0.122  77.743 117.078  0.00  0.00     0.382 C 
ATOM     23  O   LIG d   1       0.482  78.945 117.074  0.00  0.00    -0.241 OA
ATOM     24  O   LIG d   1       0.878  76.879 117.561  0.00  0.00    -0.241 OA
ENDBRANCH   3  22
TORSDOF 7
ENDMDL
MODEL 4
REMARK VINA RESULT:      -4.8      2.459      4.415
REMARK  7 active torsions:
REMARK  status: ('A' for Active; 'I' for Inactive)
REMARK    1  A    between atoms: C_2  and  C_3 
REMARK    2  A    between atoms: C_3  and  O_6 
REMARK    3  A    between atoms: C_3  and  C_4 
REMARK    4  A    between atoms: C_7  and  O_6 
REMARK    5  A    between atoms: C_9  and  C_10 
REMARK    6  A    between atoms: N_15  and  C_14 
REMARK    7  A    between atoms: N_20  and  C_19 
REMARK       I    between atoms: C_22  and  N_20 
ROOT
ATOM      1  C   LIG d   1      -3.511  74.907 115.797  0.00  0.00     0.161 C 
ATOM      2  C   LIG d   1      -4.666  75.190 115.048  0.00  0.00     0.016 C 
ATOM      3  C   LIG d   1      -5.779  75.888 115.569  0.00  0.00     0.038 C 
ATOM      4  C   LIG d   1      -5.752  76.488 116.837  0.00  0.00     0.028 C 
ATOM      5  C   LIG d   1      -4.805  75.797 117.813  0.00  0.00    -0.047 C 
ATOM      6  C   LIG d   1      -3.418  75.650 117.147  0.00  0.00     0.091 C 
ENDROOT
BRANCH   1   7
ATOM      7  O   LIG d   1      -2.338  75.166 115.001  0.00  0.00    -0.368 OA
BRANCH   7   8
ATOM      8  C   LIG d   1      -1.941  76.554 114.882  0.00  0.00     0.119 C 
BRANCH   8   9
ATOM      9  C   LIG d   1      -1.845  76.881 113.380  0.00  0.00     0.028 C 
ATOM     10  C   LIG d   1      -3.047  77.698 112.879  0.00  0.00     0.006 C 
ENDBRANCH   8   9
BRANCH   8  11
ATOM     11  C   LIG d   1      -0.531  76.780 115.438  0.00  0.00     0.028 C 
ATOM     12  C   LIG d   1       0.299  75.489 115.499  0.00  0.00     0.006 C 
ENDBRANCH   8  11
ENDBRANCH   7   8
ENDBRANCH   1   7
BRANCH   6  13
ATOM     13  N   LIG d   1      -2.455  74.909 118.002  0.00  0.00    -0.311 N 
ATOM     14  C   LIG d   1      -1.587  75.507 118.816  0.00  0.00     0.210 C 
ATOM     15  C   LIG d   1      -0.670  74.557 119.594  0.00  0.00     0.109 C 
ATOM     16  O   LIG d   1      -1.511  76.732 118.993  0.00  0.00    -0.276 OA
ATOM     17  H   LIG d   1      -2.469  73.909 117.945  0.00  0.00     0.149 HD
ENDBRANCH   6  13
BRANCH   5  18
ATOM     18  N   LIG d   1      -4.771  76.604 119.047  0.00  0.00     0.381 N 
ATOM     19  H   LIG d   1      -4.074  76.244 119.668  0.00  0.00    -0.090 HD
ATOM     20  H   LIG d   1      -5.664  76.539 119.503  0.00  0.00    -0.090 HD
ATOM     21  H   LIG d   1      -4.570  77.555 118.827  0.00  0.00    -0.090 HD
ENDBRANCH   5  18
BRANCH   3  22
ATOM     22  C   LIG d   1      -6.952  75.958 114.833  0.00  0.00     0.382 C 
ATOM     23  O   LIG d   1      -8.060  75.806 115.402  0.00  0.00    -0.241 OA
ATOM     24  O   LIG d   1      -6.915  76.128 113.599  0.00  0.00    -0.241 OA
ENDBRANCH   3  22
TORSDOF 7
ENDMDL
MODEL 5
REMARK VINA RESULT:      -4.8      2.148      4.674
REMARK  7 active torsions:
REMARK  status: ('A' for Active; 'I' for Inactive)
REMARK    1  A    between atoms: C_2  and  C_3 
REMARK    2  A    between atoms: C_3  and  O_6 
REMARK    3  A    between atoms: C_3  and  C_4 
REMARK    4  A    between atoms: C_7  and  O_6 
REMARK    5  A    between atoms: C_9  and  C_10 
REMARK    6  A    between atoms: N_15  and  C_14 
REMARK    7  A    between atoms: N_20  and  C_19 
REMARK       I    between atoms: C_22  and  N_20 
ROOT
ATOM      1  C   LIG d   1      -2.208  76.841 114.769  0.00  0.00     0.161 C 
ATOM      2  C   LIG d   1      -3.415  76.411 114.194  0.00  0.00     0.016 C 
ATOM      3  C   LIG d   1      -4.585  76.148 114.945  0.00  0.00     0.038 C 
ATOM      4  C   LIG d   1      -4.670  76.445 116.313  0.00  0.00     0.028 C 
ATOM      5  C   LIG d   1      -3.323  76.404 117.027  0.00  0.00    -0.047 C 
ATOM      6  C   LIG d   1      -2.314  77.277 116.246  0.00  0.00     0.091 C 
ENDROOT
BRANCH   1   7
ATOM      7  O   LIG d   1      -1.638  77.900 113.974  0.00  0.00    -0.368 OA
BRANCH   7   8
ATOM      8  C   LIG d   1      -2.567  78.652 113.154  0.00  0.00     0.119 C 
BRANCH   8   9
ATOM      9  C   LIG d   1      -1.871  78.935 111.809  0.00  0.00     0.028 C 
ATOM     10  C   LIG d   1      -2.107  77.817 110.779  0.00  0.00     0.006 C 
ENDBRANCH   8   9
BRANCH   8  11
ATOM     11  C   LIG d   1      -2.855  80.029 113.760  0.00  0.00     0.028 C 
ATOM     12  C   LIG d   1      -2.436  81.185 112.838  0.00  0.00     0.006 C 
ENDBRANCH   8  11
ENDBRANCH   7   8
ENDBRANCH   1   7
BRANCH   6  13
ATOM     13  N   LIG d   1      -0.948  77.225 116.829  0.00  0.00    -0.311 N 
ATOM     14  C   LIG d   1      -0.247  78.310 117.151  0.00  0.00     0.210 C 
ATOM     15  C   LIG d   1       1.148  78.033 117.720  0.00  0.00     0.109 C 
ATOM     16  O   LIG d   1      -0.660  79.475 117.049  0.00  0.00    -0.276 OA
ATOM     17  H   LIG d   1      -0.549  76.318 116.974  0.00  0.00     0.149 HD
ENDBRANCH   6  13
BRANCH   5  18
ATOM     18  N   LIG d   1      -3.537  76.866 118.411  0.00  0.00     0.381 N 
ATOM     19  H   LIG d   1      -2.681  76.805 118.925  0.00  0.00    -0.090 HD
ATOM     20  H   LIG d   1      -4.214  76.269 118.852  0.00  0.00    -0.090 HD
ATOM     21  H   LIG d   1      -3.865  77.807 118.409  0.00  0.00    -0.090 HD
ENDBRANCH   5  18
BRANCH   3  22
ATOM     22  C   LIG d   1      -5.673  75.544 114.333  0.00  0.00     0.382 C 
ATOM     23  O   LIG d   1      -5.596  74.351 113.954  0.00  0.00    -0.241 OA
ATOM     24  O   LIG d   1      -6.714  76.192 114.115  0.00  0.00    -0.241 OA
ENDBRANCH   3  22
TORSDOF 7
ENDMDL
MODEL 6
REMARK VINA RESULT:      -4.5      3.055      5.909
REMARK  7 active torsions:
REMARK  status: ('A' for Active; 'I' for Inactive)
REMARK    1  A    between atoms: C_2  and  C_3 
REMARK    2  A    between atoms: C_3  and  O_6 
REMARK    3  A    between atoms: C_3  and  C_4 
REMARK    4  A    between atoms: C_7  and  O_6 
REMARK    5  A    between atoms: C_9  and  C_10 
REMARK    6  A    between atoms: N_15  and  C_14 
REMARK    7  A    between atoms: N_20  and  C_19 
REMARK       I    between atoms: C_22  and  N_20 
ROOT
ATOM      1  C   LIG d   1      -1.010  79.242 113.471  0.00  0.00     0.161 C 
ATOM      2  C   LIG d   1      -1.941  78.908 112.474  0.00  0.00     0.016 C 
ATOM      3  C   LIG d   1      -3.016  78.014 112.682  0.00  0.00     0.038 C 
ATOM      4  C   LIG d   1      -3.323  77.505 113.952  0.00  0.00     0.028 C 
ATOM      5  C   LIG d   1      -2.114  77.416 114.877  0.00  0.00    -0.047 C 
ATOM      6  C   LIG d   1      -1.393  78.784 114.894  0.00  0.00     0.091 C 
ENDROOT
BRANCH   1   7
ATOM      7  O   LIG d   1      -0.761  80.661 113.452  0.00  0.00    -0.368 OA
BRANCH   7   8
ATOM      8  C   LIG d   1      -0.488  81.243 112.154  0.00  0.00     0.119 C 
BRANCH   8   9
ATOM      9  C   LIG d   1       1.040  81.242 111.957  0.00  0.00     0.028 C 
ATOM     10  C   LIG d   1       1.455  80.681 110.587  0.00  0.00     0.006 C 
ENDBRANCH   8   9
BRANCH   8  11
ATOM     11  C   LIG d   1      -0.902  82.717 112.106  0.00  0.00     0.028 C 
ATOM     12  C   LIG d   1       0.133  83.648 112.756  0.00  0.00     0.006 C 
ENDBRANCH   8  11
ENDBRANCH   7   8
ENDBRANCH   1   7
BRANCH   6  13
ATOM     13  N   LIG d   1      -0.151  78.759 115.709  0.00  0.00    -0.311 N 
ATOM     14  C   LIG d   1      -0.105  79.132 116.987  0.00  0.00     0.210 C 
ATOM     15  C   LIG d   1       1.280  79.049 117.636  0.00  0.00     0.109 C 
ATOM     16  O   LIG d   1      -1.086  79.492 117.654  0.00  0.00    -0.276 OA
ATOM     17  H   LIG d   1       0.687  78.451 115.255  0.00  0.00     0.149 HD
ENDBRANCH   6  13
BRANCH   5  18
ATOM     18  N   LIG d   1      -2.600  77.003 116.207  0.00  0.00     0.381 N 
ATOM     19  H   LIG d   1      -1.899  77.189 116.897  0.00  0.00    -0.090 HD
ATOM     20  H   LIG d   1      -2.776  76.013 116.196  0.00  0.00    -0.090 HD
ATOM     21  H   LIG d   1      -3.437  77.494 116.433  0.00  0.00    -0.090 HD
ENDBRANCH   5  18
BRANCH   3  22
ATOM     22  C   LIG d   1      -3.774  77.588 111.601  0.00  0.00     0.382 C 
ATOM     23  O   LIG d   1      -4.995  77.342 111.750  0.00  0.00    -0.241 OA
ATOM     24  O   LIG d   1      -3.242  77.404 110.490  0.00  0.00    -0.241 OA
ENDBRANCH   3  22
TORSDOF 7
ENDMDL
MODEL 7
REMARK VINA RESULT:      -4.3      1.682      2.115
REMARK  7 active torsions:
REMARK  status: ('A' for Active; 'I' for Inactive)
REMARK    1  A    between atoms: C_2  and  C_3 
REMARK    2  A    between atoms: C_3  and  O_6 
REMARK    3  A    between atoms: C_3  and  C_4 
REMARK    4  A    between atoms: C_7  and  O_6 
REMARK    5  A    between atoms: C_9  and  C_10 
REMARK    6  A    between atoms: N_15  and  C_14 
REMARK    7  A    between atoms: N_20  and  C_19 
REMARK       I    between atoms: C_22  and  N_20 
ROOT
ATOM      1  C   LIG d   1      -3.033  77.354 116.445  0.00  0.00     0.161 C 
ATOM      2  C   LIG d   1      -3.585  77.761 115.219  0.00  0.00     0.016 C 
ATOM      3  C   LIG d   1      -2.912  77.630 113.982  0.00  0.00     0.038 C 
ATOM      4  C   LIG d   1      -1.696  76.939 113.868  0.00  0.00     0.028 C 
ATOM      5  C   LIG d   1      -0.868  76.957 115.148  0.00  0.00    -0.047 C 
ATOM      6  C   LIG d   1      -1.755  76.497 116.327  0.00  0.00     0.091 C 
ENDROOT
BRANCH   1   7
ATOM      7  O   LIG d   1      -4.030  76.662 117.223  0.00  0.00    -0.368 OA
BRANCH   7   8
ATOM      8  C   LIG d   1      -5.378  76.678 116.692  0.00  0.00     0.119 C 
BRANCH   8   9
ATOM      9  C   LIG d   1      -6.332  76.991 117.860  0.00  0.00     0.028 C 
ATOM     10  C   LIG d   1      -7.367  78.070 117.501  0.00  0.00     0.006 C 
ENDBRANCH   8   9
BRANCH   8  11
ATOM     11  C   LIG d   1      -5.795  75.294 116.186  0.00  0.00     0.028 C 
ATOM     12  C   LIG d   1      -4.830  74.183 116.628  0.00  0.00     0.006 C 
ENDBRANCH   8  11
ENDBRANCH   7   8
ENDBRANCH   1   7
BRANCH   6  13
ATOM     13  N   LIG d   1      -1.046  76.567 117.631  0.00  0.00    -0.311 N 
ATOM     14  C   LIG d   1      -0.393  75.536 118.166  0.00  0.00     0.210 C 
ATOM     15  C   LIG d   1       0.252  75.816 119.527  0.00  0.00     0.109 C 
ATOM     16  O   LIG d   1      -0.259  74.427 117.627  0.00  0.00    -0.276 OA
ATOM     17  H   LIG d   1      -1.077  77.439 118.122  0.00  0.00     0.149 HD
ENDBRANCH   6  13
BRANCH   5  18
ATOM     18  N   LIG d   1       0.304  76.088 114.933  0.00  0.00     0.381 N 
ATOM     19  H   LIG d   1       1.100  76.645 114.694  0.00  0.00    -0.090 HD
ATOM     20  H   LIG d   1       0.112  75.467 114.166  0.00  0.00    -0.090 HD
ATOM     21  H   LIG d   1       0.494  75.561 115.757  0.00  0.00    -0.090 HD
ENDBRANCH   5  18
BRANCH   3  22
ATOM     22  C   LIG d   1      -3.438  78.228 112.847  0.00  0.00     0.382 C 
ATOM     23  O   LIG d   1      -4.116  77.550 112.038  0.00  0.00    -0.241 OA
ATOM     24  O   LIG d   1      -3.206  79.426 112.599  0.00  0.00    -0.241 OA
ENDBRANCH   3  22
TORSDOF 7
ENDMDL
MODEL 8
REMARK VINA RESULT:      -4.1      2.290      5.077
REMARK  7 active torsions:
REMARK  status: ('A' for Active; 'I' for Inactive)
REMARK    1  A    between atoms: C_2  and  C_3 
REMARK    2  A    between atoms: C_3  and  O_6 
REMARK    3  A    between atoms: C_3  and  C_4 
REMARK    4  A    between atoms: C_7  and  O_6 
REMARK    5  A    between atoms: C_9  and  C_10 
REMARK    6  A    between atoms: N_15  and  C_14 
REMARK    7  A    between atoms: N_20  and  C_19 
REMARK       I    between atoms: C_22  and  N_20 
ROOT
ATOM      1  C   LIG d   1      -2.495  77.489 114.809  0.00  0.00     0.161 C 
ATOM      2  C   LIG d   1      -1.575  78.196 115.600  0.00  0.00     0.016 C 
ATOM      3  C   LIG d   1      -1.115  77.738 116.856  0.00  0.00     0.038 C 
ATOM      4  C   LIG d   1      -1.432  76.460 117.340  0.00  0.00     0.028 C 
ATOM      5  C   LIG d   1      -2.757  75.922 116.810  0.00  0.00    -0.047 C 
ATOM      6  C   LIG d   1      -2.767  76.042 115.269  0.00  0.00     0.091 C 
ENDROOT
BRANCH   1   7
ATOM      7  O   LIG d   1      -2.070  77.505 113.432  0.00  0.00    -0.368 OA
BRANCH   7   8
ATOM      8  C   LIG d   1      -2.941  78.196 112.503  0.00  0.00     0.119 C 
BRANCH   8   9
ATOM      9  C   LIG d   1      -2.426  77.905 111.081  0.00  0.00     0.028 C 
ATOM     10  C   LIG d   1      -1.380  76.777 111.054  0.00  0.00     0.006 C 
ENDBRANCH   8   9
BRANCH   8  11
ATOM     11  C   LIG d   1      -2.840  79.715 112.668  0.00  0.00     0.028 C 
ATOM     12  C   LIG d   1      -1.405  80.239 112.495  0.00  0.00     0.006 C 
ENDBRANCH   8  11
ENDBRANCH   7   8
ENDBRANCH   1   7
BRANCH   6  13
ATOM     13  N   LIG d   1      -4.061  75.616 114.676  0.00  0.00    -0.311 N 
ATOM     14  C   LIG d   1      -5.218  76.225 114.927  0.00  0.00     0.210 C 
ATOM     15  C   LIG d   1      -6.436  75.613 114.228  0.00  0.00     0.109 C 
ATOM     16  O   LIG d   1      -5.347  77.233 115.638  0.00  0.00    -0.276 OA
ATOM     17  H   LIG d   1      -4.043  74.825 114.062  0.00  0.00     0.149 HD
ENDBRANCH   6  13
BRANCH   5  18
ATOM     18  N   LIG d   1      -2.896  74.532 117.284  0.00  0.00     0.381 N 
ATOM     19  H   LIG d   1      -2.527  73.903 116.599  0.00  0.00    -0.090 HD
ATOM     20  H   LIG d   1      -3.872  74.327 117.408  0.00  0.00    -0.090 HD
ATOM     21  H   LIG d   1      -2.412  74.416 118.147  0.00  0.00    -0.090 HD
ENDBRANCH   5  18
BRANCH   3  22
ATOM     22  C   LIG d   1      -0.361  78.578 117.661  0.00  0.00     0.382 C 
ATOM     23  O   LIG d   1      -0.077  78.235 118.834  0.00  0.00    -0.241 OA
ATOM     24  O   LIG d   1       0.002  79.694 117.243  0.00  0.00    -0.241 OA
ENDBRANCH   3  22
TORSDOF 7
ENDMDL
MODEL 9
REMARK VINA RESULT:      -4.1      2.109      4.980
REMARK  7 active torsions:
REMARK  status: ('A' for Active; 'I' for Inactive)
REMARK    1  A    between atoms: C_2  and  C_3 
REMARK    2  A    between atoms: C_3  and  O_6 
REMARK    3  A    between atoms: C_3  and  C_4 
REMARK    4  A    between atoms: C_7  and  O_6 
REMARK    5  A    between atoms: C_9  and  C_10 
REMARK    6  A    between atoms: N_15  and  C_14 
REMARK    7  A    between atoms: N_20  and  C_19 
REMARK       I    between atoms: C_22  and  N_20 
ROOT
ATOM      1  C   LIG d   1      -3.635  76.998 115.132  0.00  0.00     0.161 C 
ATOM      2  C   LIG d   1      -5.013  76.735 115.199  0.00  0.00     0.016 C 
ATOM      3  C   LIG d   1      -5.630  76.087 116.293  0.00  0.00     0.038 C 
ATOM      4  C   LIG d   1      -4.928  75.790 117.471  0.00  0.00     0.028 C 
ATOM      5  C   LIG d   1      -3.434  75.581 117.248  0.00  0.00    -0.047 C 
ATOM      6  C   LIG d   1      -2.871  76.782 116.455  0.00  0.00     0.091 C 
ENDROOT
BRANCH   1   7
ATOM      7  O   LIG d   1      -3.416  78.335 114.639  0.00  0.00    -0.368 OA
BRANCH   7   8
ATOM      8  C   LIG d   1      -2.424  78.474 113.592  0.00  0.00     0.119 C 
BRANCH   8   9
ATOM      9  C   LIG d   1      -2.789  79.727 112.773  0.00  0.00     0.028 C 
ATOM     10  C   LIG d   1      -1.652  80.763 112.748  0.00  0.00     0.006 C 
ENDBRANCH   8   9
BRANCH   8  11
ATOM     11  C   LIG d   1      -2.493  77.307 112.602  0.00  0.00     0.028 C 
ATOM     12  C   LIG d   1      -2.914  77.748 111.191  0.00  0.00     0.006 C 
ENDBRANCH   8  11
ENDBRANCH   7   8
ENDBRANCH   1   7
BRANCH   6  13
ATOM     13  N   LIG d   1      -1.432  76.617 116.121  0.00  0.00    -0.311 N 
ATOM     14  C   LIG d   1      -0.946  75.559 115.475  0.00  0.00     0.210 C 
ATOM     15  C   LIG d   1       0.569  75.578 115.250  0.00  0.00     0.109 C 
ATOM     16  O   LIG d   1      -1.630  74.621 115.039  0.00  0.00    -0.276 OA
ATOM     17  H   LIG d   1      -0.810  77.346 116.411  0.00  0.00     0.149 HD
ENDBRANCH   6  13
BRANCH   5  18
ATOM     18  N   LIG d   1      -2.805  75.417 118.573  0.00  0.00     0.381 N 
ATOM     19  H   LIG d   1      -2.846  74.457 118.851  0.00  0.00    -0.090 HD
ATOM     20  H   LIG d   1      -3.315  75.962 119.245  0.00  0.00    -0.090 HD
ATOM     21  H   LIG d   1      -1.856  75.719 118.539  0.00  0.00    -0.090 HD
ENDBRANCH   5  18
BRANCH   3  22
ATOM     22  C   LIG d   1      -6.956  75.692 116.200  0.00  0.00     0.382 C 
ATOM     23  O   LIG d   1      -7.516  75.140 117.178  0.00  0.00    -0.241 OA
ATOM     24  O   LIG d   1      -7.586  75.842 115.136  0.00  0.00    -0.241 OA
ENDBRANCH   3  22
TORSDOF 7
ENDMDL
