MODEL 1
REMARK VINA RESULT:      -5.7      0.000      0.000
REMARK  7 active torsions:
REMARK  status: ('A' for Active; 'I' for Inactive)
REMARK    1  A    between atoms: C_2  and  C_3 
REMARK    2  A    between atoms: C_3  and  O_6 
REMARK    3  A    between atoms: C_3  and  C_4 
REMARK    4  A    between atoms: C_7  and  O_6 
REMARK    5  A    between atoms: C_9  and  C_10 
REMARK    6  A    between atoms: N_15  and  C_14 
REMARK    7  A    between atoms: N_20  and  C_19 
REMARK       I    between atoms: C_22  and  N_20 
ROOT
ATOM      1  C   LIG d   1      -3.064  77.664 114.110  0.00  0.00     0.161 C 
ATOM      2  C   LIG d   1      -3.304  78.852 113.399  0.00  0.00     0.016 C 
ATOM      3  C   LIG d   1      -2.328  79.859 113.214  0.00  0.00     0.038 C 
ATOM      4  C   LIG d   1      -0.992  79.677 113.601  0.00  0.00     0.028 C 
ATOM      5  C   LIG d   1      -0.827  78.709 114.768  0.00  0.00    -0.047 C 
ATOM      6  C   LIG d   1      -1.581  77.399 114.444  0.00  0.00     0.091 C 
ENDROOT
BRANCH   1   7
ATOM      7  O   LIG d   1      -3.625  76.545 113.395  0.00  0.00    -0.368 OA
BRANCH   7   8
ATOM      8  C   LIG d   1      -4.726  75.863 114.043  0.00  0.00     0.119 C 
BRANCH   8   9
ATOM      9  C   LIG d   1      -6.032  76.409 113.434  0.00  0.00     0.028 C 
ATOM     10  C   LIG d   1      -5.861  76.837 111.966  0.00  0.00     0.006 C 
ENDBRANCH   8   9
BRANCH   8  11
ATOM     11  C   LIG d   1      -4.798  76.209 115.533  0.00  0.00     0.028 C 
ATOM     12  C   LIG d   1      -6.213  76.601 115.986  0.00  0.00     0.006 C 
ENDBRANCH   8  11
ENDBRANCH   7   8
ENDBRANCH   1   7
BRANCH   6  13
ATOM     13  N   LIG d   1      -1.540  76.428 115.569  0.00  0.00    -0.311 N 
ATOM     14  C   LIG d   1      -1.081  75.184 115.448  0.00  0.00     0.210 C 
ATOM     15  C   LIG d   1      -1.147  74.343 116.726  0.00  0.00     0.109 C 
ATOM     16  O   LIG d   1      -0.595  74.708 114.411  0.00  0.00    -0.276 OA
ATOM     17  H   LIG d   1      -1.887  76.742 116.455  0.00  0.00     0.149 HD
ENDBRANCH   6  13
BRANCH   5  18
ATOM     18  N   LIG d   1       0.620  78.506 114.977  0.00  0.00     0.381 N 
ATOM     19  H   LIG d   1       0.923  77.694 114.478  0.00  0.00    -0.090 HD
ATOM     20  H   LIG d   1       0.789  78.357 115.956  0.00  0.00    -0.090 HD
ATOM     21  H   LIG d   1       1.125  79.305 114.663  0.00  0.00    -0.090 HD
ENDBRANCH   5  18
BRANCH   3  22
ATOM     22  C   LIG d   1      -2.696  81.080 112.670  0.00  0.00     0.382 C 
ATOM     23  O   LIG d   1      -3.906  81.331 112.454  0.00  0.00    -0.241 OA
ATOM     24  O   LIG d   1      -1.829  81.916 112.352  0.00  0.00    -0.241 OA
ENDBRANCH   3  22
TORSDOF 7
ENDMDL
MODEL 2
REMARK VINA RESULT:      -5.5      0.954      1.849
REMARK  7 active torsions:
REMARK  status: ('A' for Active; 'I' for Inactive)
REMARK    1  A    between atoms: C_2  and  C_3 
REMARK    2  A    between atoms: C_3  and  O_6 
REMARK    3  A    between atoms: C_3  and  C_4 
REMARK    4  A    between atoms: C_7  and  O_6 
REMARK    5  A    between atoms: C_9  and  C_10 
REMARK    6  A    between atoms: N_15  and  C_14 
REMARK    7  A    between atoms: N_20  and  C_19 
REMARK       I    between atoms: C_22  and  N_20 
ROOT
ATOM      1  C   LIG d   1      -3.257  77.754 114.006  0.00  0.00     0.161 C 
ATOM      2  C   LIG d   1      -3.096  78.880 113.181  0.00  0.00     0.016 C 
ATOM      3  C   LIG d   1      -1.865  79.558 113.022  0.00  0.00     0.038 C 
ATOM      4  C   LIG d   1      -0.670  79.062 113.564  0.00  0.00     0.028 C 
ATOM      5  C   LIG d   1      -0.877  78.215 114.815  0.00  0.00    -0.047 C 
ATOM      6  C   LIG d   1      -1.941  77.133 114.518  0.00  0.00     0.091 C 
ENDROOT
BRANCH   1   7
ATOM      7  O   LIG d   1      -4.050  76.760 113.327  0.00  0.00    -0.368 OA
BRANCH   7   8
ATOM      8  C   LIG d   1      -5.300  76.398 113.963  0.00  0.00     0.119 C 
BRANCH   8   9
ATOM      9  C   LIG d   1      -5.279  74.874 114.192  0.00  0.00     0.028 C 
ATOM     10  C   LIG d   1      -6.115  74.452 115.412  0.00  0.00     0.006 C 
ENDBRANCH   8   9
BRANCH   8  11
ATOM     11  C   LIG d   1      -6.492  76.653 113.035  0.00  0.00     0.028 C 
ATOM     12  C   LIG d   1      -6.068  77.150 111.644  0.00  0.00     0.006 C 
ENDBRANCH   8  11
ENDBRANCH   7   8
ENDBRANCH   1   7
BRANCH   6  13
ATOM     13  N   LIG d   1      -2.265  76.313 115.714  0.00  0.00    -0.311 N 
ATOM     14  C   LIG d   1      -1.678  75.149 115.987  0.00  0.00     0.210 C 
ATOM     15  C   LIG d   1      -2.174  74.457 117.260  0.00  0.00     0.109 C 
ATOM     16  O   LIG d   1      -0.771  74.640 115.312  0.00  0.00    -0.276 OA
ATOM     17  H   LIG d   1      -2.969  76.667 116.333  0.00  0.00     0.149 HD
ENDBRANCH   6  13
BRANCH   5  18
ATOM     18  N   LIG d   1       0.432  77.650 115.193  0.00  0.00     0.381 N 
ATOM     19  H   LIG d   1       0.335  76.675 115.396  0.00  0.00    -0.090 HD
ATOM     20  H   LIG d   1       0.758  78.114 116.023  0.00  0.00    -0.090 HD
ATOM     21  H   LIG d   1       1.086  77.780 114.453  0.00  0.00    -0.090 HD
ENDBRANCH   5  18
BRANCH   3  22
ATOM     22  C   LIG d   1      -1.830  80.768 112.347  0.00  0.00     0.382 C 
ATOM     23  O   LIG d   1      -0.800  81.103 111.714  0.00  0.00    -0.241 OA
ATOM     24  O   LIG d   1      -2.798  81.549 112.399  0.00  0.00    -0.241 OA
ENDBRANCH   3  22
TORSDOF 7
ENDMDL
MODEL 3
REMARK VINA RESULT:      -5.2      2.408      4.853
REMARK  7 active torsions:
REMARK  status: ('A' for Active; 'I' for Inactive)
REMARK    1  A    between atoms: C_2  and  C_3 
REMARK    2  A    between atoms: C_3  and  O_6 
REMARK    3  A    between atoms: C_3  and  C_4 
REMARK    4  A    between atoms: C_7  and  O_6 
REMARK    5  A    between atoms: C_9  and  C_10 
REMARK    6  A    between atoms: N_15  and  C_14 
REMARK    7  A    between atoms: N_20  and  C_19 
REMARK       I    between atoms: C_22  and  N_20 
ROOT
ATOM      1  C   LIG d   1      -2.973  75.743 114.764  0.00  0.00     0.161 C 
ATOM      2  C   LIG d   1      -3.044  75.386 116.121  0.00  0.00     0.016 C 
ATOM      3  C   LIG d   1      -2.651  76.244 117.173  0.00  0.00     0.038 C 
ATOM      4  C   LIG d   1      -2.298  77.583 116.946  0.00  0.00     0.028 C 
ATOM      5  C   LIG d   1      -1.729  77.831 115.553  0.00  0.00    -0.047 C 
ATOM      6  C   LIG d   1      -2.696  77.238 114.503  0.00  0.00     0.091 C 
ENDROOT
BRANCH   1   7
ATOM      7  O   LIG d   1      -4.176  75.330 114.086  0.00  0.00    -0.368 OA
BRANCH   7   8
ATOM      8  C   LIG d   1      -5.314  76.217 114.213  0.00  0.00     0.119 C 
BRANCH   8   9
ATOM      9  C   LIG d   1      -6.141  75.740 115.423  0.00  0.00     0.028 C 
ATOM     10  C   LIG d   1      -6.499  76.890 116.379  0.00  0.00     0.006 C 
ENDBRANCH   8   9
BRANCH   8  11
ATOM     11  C   LIG d   1      -6.252  76.095 113.008  0.00  0.00     0.028 C 
ATOM     12  C   LIG d   1      -6.086  77.246 112.004  0.00  0.00     0.006 C 
ENDBRANCH   8  11
ENDBRANCH   7   8
ENDBRANCH   1   7
BRANCH   6  13
ATOM     13  N   LIG d   1      -2.173  77.364 113.117  0.00  0.00    -0.311 N 
ATOM     14  C   LIG d   1      -2.503  78.359 112.296  0.00  0.00     0.210 C 
ATOM     15  C   LIG d   1      -1.867  78.287 110.904  0.00  0.00     0.109 C 
ATOM     16  O   LIG d   1      -3.237  79.312 112.599  0.00  0.00    -0.276 OA
ATOM     17  H   LIG d   1      -1.546  76.650 112.800  0.00  0.00     0.149 HD
ENDBRANCH   6  13
BRANCH   5  18
ATOM     18  N   LIG d   1      -1.534  79.286 115.404  0.00  0.00     0.381 N 
ATOM     19  H   LIG d   1      -0.778  79.588 115.987  0.00  0.00    -0.090 HD
ATOM     20  H   LIG d   1      -2.370  79.758 115.702  0.00  0.00    -0.090 HD
ATOM     21  H   LIG d   1      -1.339  79.508 114.453  0.00  0.00    -0.090 HD
ENDBRANCH   5  18
BRANCH   3  22
ATOM     22  C   LIG d   1      -2.569  75.752 118.467  0.00  0.00     0.382 C 
ATOM     23  O   LIG d   1      -2.323  74.538 118.662  0.00  0.00    -0.241 OA
ATOM     24  O   LIG d   1      -2.783  76.499 119.442  0.00  0.00    -0.241 OA
ENDBRANCH   3  22
TORSDOF 7
ENDMDL
MODEL 4
REMARK VINA RESULT:      -5.1      2.170      2.522
REMARK  7 active torsions:
REMARK  status: ('A' for Active; 'I' for Inactive)
REMARK    1  A    between atoms: C_2  and  C_3 
REMARK    2  A    between atoms: C_3  and  O_6 
REMARK    3  A    between atoms: C_3  and  C_4 
REMARK    4  A    between atoms: C_7  and  O_6 
REMARK    5  A    between atoms: C_9  and  C_10 
REMARK    6  A    between atoms: N_15  and  C_14 
REMARK    7  A    between atoms: N_20  and  C_19 
REMARK       I    between atoms: C_22  and  N_20 
ROOT
ATOM      1  C   LIG d   1      -3.390  77.316 113.725  0.00  0.00     0.161 C 
ATOM      2  C   LIG d   1      -2.774  77.595 112.493  0.00  0.00     0.016 C 
ATOM      3  C   LIG d   1      -1.656  78.450 112.358  0.00  0.00     0.038 C 
ATOM      4  C   LIG d   1      -0.981  78.969 113.472  0.00  0.00     0.028 C 
ATOM      5  C   LIG d   1      -1.869  79.123 114.702  0.00  0.00    -0.047 C 
ATOM      6  C   LIG d   1      -2.599  77.785 114.964  0.00  0.00     0.091 C 
ENDROOT
BRANCH   1   7
ATOM      7  O   LIG d   1      -3.679  75.908 113.819  0.00  0.00    -0.368 OA
BRANCH   7   8
ATOM      8  C   LIG d   1      -5.080  75.540 113.768  0.00  0.00     0.119 C 
BRANCH   8   9
ATOM      9  C   LIG d   1      -5.884  76.821 113.475  0.00  0.00     0.028 C 
ATOM     10  C   LIG d   1      -6.536  76.799 112.082  0.00  0.00     0.006 C 
ENDBRANCH   8   9
BRANCH   8  11
ATOM     11  C   LIG d   1      -5.577  75.052 115.132  0.00  0.00     0.028 C 
ATOM     12  C   LIG d   1      -6.538  76.044 115.806  0.00  0.00     0.006 C 
ENDBRANCH   8  11
ENDBRANCH   7   8
ENDBRANCH   1   7
BRANCH   6  13
ATOM     13  N   LIG d   1      -3.553  77.873 116.100  0.00  0.00    -0.311 N 
ATOM     14  C   LIG d   1      -3.233  77.555 117.353  0.00  0.00     0.210 C 
ATOM     15  C   LIG d   1      -4.371  77.699 118.368  0.00  0.00     0.109 C 
ATOM     16  O   LIG d   1      -2.105  77.199 117.726  0.00  0.00    -0.276 OA
ATOM     17  H   LIG d   1      -4.482  78.184 115.892  0.00  0.00     0.149 HD
ENDBRANCH   6  13
BRANCH   5  18
ATOM     18  N   LIG d   1      -1.009  79.542 115.824  0.00  0.00     0.381 N 
ATOM     19  H   LIG d   1      -0.967  78.814 116.509  0.00  0.00    -0.090 HD
ATOM     20  H   LIG d   1      -1.409  80.357 116.254  0.00  0.00    -0.090 HD
ATOM     21  H   LIG d   1      -0.092  79.748 115.493  0.00  0.00    -0.090 HD
ENDBRANCH   5  18
BRANCH   3  22
ATOM     22  C   LIG d   1      -1.228  78.826 111.094  0.00  0.00     0.382 C 
ATOM     23  O   LIG d   1      -0.433  79.788 110.961  0.00  0.00    -0.241 OA
ATOM     24  O   LIG d   1      -1.660  78.244 110.081  0.00  0.00    -0.241 OA
ENDBRANCH   3  22
TORSDOF 7
ENDMDL
MODEL 5
REMARK VINA RESULT:      -5.1      1.796      2.490
REMARK  7 active torsions:
REMARK  status: ('A' for Active; 'I' for Inactive)
REMARK    1  A    between atoms: C_2  and  C_3 
REMARK    2  A    between atoms: C_3  and  O_6 
REMARK    3  A    between atoms: C_3  and  C_4 
REMARK    4  A    between atoms: C_7  and  O_6 
REMARK    5  A    between atoms: C_9  and  C_10 
REMARK    6  A    between atoms: N_15  and  C_14 
REMARK    7  A    between atoms: N_20  and  C_19 
REMARK       I    between atoms: C_22  and  N_20 
ROOT
ATOM      1  C   LIG d   1      -1.580  78.343 114.767  0.00  0.00     0.161 C 
ATOM      2  C   LIG d   1      -2.160  79.549 114.339  0.00  0.00     0.016 C 
ATOM      3  C   LIG d   1      -2.322  79.894 112.977  0.00  0.00     0.038 C 
ATOM      4  C   LIG d   1      -2.050  78.985 111.944  0.00  0.00     0.028 C 
ATOM      5  C   LIG d   1      -0.992  77.950 112.312  0.00  0.00    -0.047 C 
ATOM      6  C   LIG d   1      -1.379  77.292 113.656  0.00  0.00     0.091 C 
ENDROOT
BRANCH   1   7
ATOM      7  O   LIG d   1      -2.352  77.787 115.850  0.00  0.00    -0.368 OA
BRANCH   7   8
ATOM      8  C   LIG d   1      -3.785  77.984 115.777  0.00  0.00     0.119 C 
BRANCH   8   9
ATOM      9  C   LIG d   1      -4.254  78.488 117.156  0.00  0.00     0.028 C 
ATOM     10  C   LIG d   1      -5.765  78.299 117.368  0.00  0.00     0.006 C 
ENDBRANCH   8   9
BRANCH   8  11
ATOM     11  C   LIG d   1      -4.520  76.658 115.559  0.00  0.00     0.028 C 
ATOM     12  C   LIG d   1      -4.792  76.364 114.076  0.00  0.00     0.006 C 
ENDBRANCH   8  11
ENDBRANCH   7   8
ENDBRANCH   1   7
BRANCH   6  13
ATOM     13  N   LIG d   1      -0.354  76.326 114.130  0.00  0.00    -0.311 N 
ATOM     14  C   LIG d   1      -0.653  75.164 114.710  0.00  0.00     0.210 C 
ATOM     15  C   LIG d   1       0.555  74.327 115.142  0.00  0.00     0.109 C 
ATOM     16  O   LIG d   1      -1.804  74.733 114.877  0.00  0.00    -0.276 OA
ATOM     17  H   LIG d   1       0.606  76.582 114.006  0.00  0.00     0.149 HD
ENDBRANCH   6  13
BRANCH   5  18
ATOM     18  N   LIG d   1      -0.907  76.985 111.199  0.00  0.00     0.381 N 
ATOM     19  H   LIG d   1      -0.912  77.473 110.326  0.00  0.00    -0.090 HD
ATOM     20  H   LIG d   1      -1.711  76.383 111.228  0.00  0.00    -0.090 HD
ATOM     21  H   LIG d   1      -0.075  76.443 111.280  0.00  0.00    -0.090 HD
ENDBRANCH   5  18
BRANCH   3  22
ATOM     22  C   LIG d   1      -2.723  81.177 112.637  0.00  0.00     0.382 C 
ATOM     23  O   LIG d   1      -3.943  81.439 112.507  0.00  0.00    -0.241 OA
ATOM     24  O   LIG d   1      -1.878  82.065 112.414  0.00  0.00    -0.241 OA
ENDBRANCH   3  22
TORSDOF 7
ENDMDL
MODEL 6
REMARK VINA RESULT:      -5.1      2.629      4.063
REMARK  7 active torsions:
REMARK  status: ('A' for Active; 'I' for Inactive)
REMARK    1  A    between atoms: C_2  and  C_3 
REMARK    2  A    between atoms: C_3  and  O_6 
REMARK    3  A    between atoms: C_3  and  C_4 
REMARK    4  A    between atoms: C_7  and  O_6 
REMARK    5  A    between atoms: C_9  and  C_10 
REMARK    6  A    between atoms: N_15  and  C_14 
REMARK    7  A    between atoms: N_20  and  C_19 
REMARK       I    between atoms: C_22  and  N_20 
ROOT
ATOM      1  C   LIG d   1      -3.200  76.838 114.267  0.00  0.00     0.161 C 
ATOM      2  C   LIG d   1      -3.711  77.145 115.539  0.00  0.00     0.016 C 
ATOM      3  C   LIG d   1      -3.286  78.257 116.301  0.00  0.00     0.038 C 
ATOM      4  C   LIG d   1      -2.424  79.230 115.775  0.00  0.00     0.028 C 
ATOM      5  C   LIG d   1      -1.496  78.695 114.690  0.00  0.00    -0.047 C 
ATOM      6  C   LIG d   1      -2.340  77.951 113.630  0.00  0.00     0.091 C 
ENDROOT
BRANCH   1   7
ATOM      7  O   LIG d   1      -4.277  76.470 113.383  0.00  0.00    -0.368 OA
BRANCH   7   8
ATOM      8  C   LIG d   1      -5.553  76.198 114.013  0.00  0.00     0.119 C 
BRANCH   8   9
ATOM      9  C   LIG d   1      -5.692  74.668 114.136  0.00  0.00     0.028 C 
ATOM     10  C   LIG d   1      -6.321  74.241 115.472  0.00  0.00     0.006 C 
ENDBRANCH   8   9
BRANCH   8  11
ATOM     11  C   LIG d   1      -6.719  76.641 113.124  0.00  0.00     0.028 C 
ATOM     12  C   LIG d   1      -6.261  77.135 111.743  0.00  0.00     0.006 C 
ENDBRANCH   8  11
ENDBRANCH   7   8
ENDBRANCH   1   7
BRANCH   6  13
ATOM     13  N   LIG d   1      -1.502  77.323 112.576  0.00  0.00    -0.311 N 
ATOM     14  C   LIG d   1      -1.191  77.927 111.430  0.00  0.00     0.210 C 
ATOM     15  C   LIG d   1      -0.332  77.095 110.473  0.00  0.00     0.109 C 
ATOM     16  O   LIG d   1      -1.519  79.085 111.130  0.00  0.00    -0.276 OA
ATOM     17  H   LIG d   1      -1.167  76.396 112.751  0.00  0.00     0.149 HD
ENDBRANCH   6  13
BRANCH   5  18
ATOM     18  N   LIG d   1      -0.752  79.841 114.135  0.00  0.00     0.381 N 
ATOM     19  H   LIG d   1      -0.829  80.626 114.751  0.00  0.00    -0.090 HD
ATOM     20  H   LIG d   1      -1.156  80.094 113.250  0.00  0.00    -0.090 HD
ATOM     21  H   LIG d   1       0.207  79.598 114.013  0.00  0.00    -0.090 HD
ENDBRANCH   5  18
BRANCH   3  22
ATOM     22  C   LIG d   1      -3.693  78.382 117.621  0.00  0.00     0.382 C 
ATOM     23  O   LIG d   1      -3.065  79.136 118.402  0.00  0.00    -0.241 OA
ATOM     24  O   LIG d   1      -4.655  77.717 118.051  0.00  0.00    -0.241 OA
ENDBRANCH   3  22
TORSDOF 7
ENDMDL
MODEL 7
REMARK VINA RESULT:      -5.0      2.445      5.685
REMARK  7 active torsions:
REMARK  status: ('A' for Active; 'I' for Inactive)
REMARK    1  A    between atoms: C_2  and  C_3 
REMARK    2  A    between atoms: C_3  and  O_6 
REMARK    3  A    between atoms: C_3  and  C_4 
REMARK    4  A    between atoms: C_7  and  O_6 
REMARK    5  A    between atoms: C_9  and  C_10 
REMARK    6  A    between atoms: N_15  and  C_14 
REMARK    7  A    between atoms: N_20  and  C_19 
REMARK       I    between atoms: C_22  and  N_20 
ROOT
ATOM      1  C   LIG d   1      -1.495  79.664 113.896  0.00  0.00     0.161 C 
ATOM      2  C   LIG d   1      -2.389  78.603 114.119  0.00  0.00     0.016 C 
ATOM      3  C   LIG d   1      -2.755  77.672 113.120  0.00  0.00     0.038 C 
ATOM      4  C   LIG d   1      -2.132  77.649 111.863  0.00  0.00     0.028 C 
ATOM      5  C   LIG d   1      -1.594  79.008 111.429  0.00  0.00    -0.047 C 
ATOM      6  C   LIG d   1      -0.720  79.588 112.564  0.00  0.00     0.091 C 
ENDROOT
BRANCH   1   7
ATOM      7  O   LIG d   1      -0.578  79.770 115.004  0.00  0.00    -0.368 OA
BRANCH   7   8
ATOM      8  C   LIG d   1      -0.771  78.825 116.084  0.00  0.00     0.119 C 
BRANCH   8   9
ATOM      9  C   LIG d   1      -0.983  79.636 117.377  0.00  0.00     0.028 C 
ATOM     10  C   LIG d   1      -2.374  79.409 117.992  0.00  0.00     0.006 C 
ENDBRANCH   8   9
BRANCH   8  11
ATOM     11  C   LIG d   1       0.491  77.993 116.330  0.00  0.00     0.028 C 
ATOM     12  C   LIG d   1       0.452  76.629 115.623  0.00  0.00     0.006 C 
ENDBRANCH   8  11
ENDBRANCH   7   8
ENDBRANCH   1   7
BRANCH   6  13
ATOM     13  N   LIG d   1      -0.222  80.954 112.255  0.00  0.00    -0.311 N 
ATOM     14  C   LIG d   1      -1.017  82.018 112.152  0.00  0.00     0.210 C 
ATOM     15  C   LIG d   1      -0.302  83.328 111.807  0.00  0.00     0.109 C 
ATOM     16  O   LIG d   1      -2.242  82.007 112.346  0.00  0.00    -0.276 OA
ATOM     17  H   LIG d   1       0.763  81.059 112.113  0.00  0.00     0.149 HD
ENDBRANCH   6  13
BRANCH   5  18
ATOM     18  N   LIG d   1      -0.850  78.811 110.170  0.00  0.00     0.381 N 
ATOM     19  H   LIG d   1      -1.223  78.025 109.676  0.00  0.00    -0.090 HD
ATOM     20  H   LIG d   1       0.112  78.619 110.387  0.00  0.00    -0.090 HD
ATOM     21  H   LIG d   1      -0.914  79.629 109.605  0.00  0.00    -0.090 HD
ENDBRANCH   5  18
BRANCH   3  22
ATOM     22  C   LIG d   1      -3.785  76.775 113.361  0.00  0.00     0.382 C 
ATOM     23  O   LIG d   1      -3.546  75.687 113.937  0.00  0.00    -0.241 OA
ATOM     24  O   LIG d   1      -4.942  77.021 112.969  0.00  0.00    -0.241 OA
ENDBRANCH   3  22
TORSDOF 7
ENDMDL
MODEL 8
REMARK VINA RESULT:      -5.0      2.526      5.516
REMARK  7 active torsions:
REMARK  status: ('A' for Active; 'I' for Inactive)
REMARK    1  A    between atoms: C_2  and  C_3 
REMARK    2  A    between atoms: C_3  and  O_6 
REMARK    3  A    between atoms: C_3  and  C_4 
REMARK    4  A    between atoms: C_7  and  O_6 
REMARK    5  A    between atoms: C_9  and  C_10 
REMARK    6  A    between atoms: N_15  and  C_14 
REMARK    7  A    between atoms: N_20  and  C_19 
REMARK       I    between atoms: C_22  and  N_20 
ROOT
ATOM      1  C   LIG d   1      -1.875  77.043 114.099  0.00  0.00     0.161 C 
ATOM      2  C   LIG d   1      -0.666  76.895 114.800  0.00  0.00     0.016 C 
ATOM      3  C   LIG d   1      -0.532  76.099 115.960  0.00  0.00     0.038 C 
ATOM      4  C   LIG d   1      -1.570  75.271 116.415  0.00  0.00     0.028 C 
ATOM      5  C   LIG d   1      -2.958  75.774 116.034  0.00  0.00    -0.047 C 
ATOM      6  C   LIG d   1      -2.989  76.061 114.516  0.00  0.00     0.091 C 
ENDROOT
BRANCH   1   7
ATOM      7  O   LIG d   1      -1.632  76.953 112.681  0.00  0.00    -0.368 OA
BRANCH   7   8
ATOM      8  C   LIG d   1      -1.420  78.209 111.990  0.00  0.00     0.119 C 
BRANCH   8   9
ATOM      9  C   LIG d   1      -2.603  79.133 112.337  0.00  0.00     0.028 C 
ATOM     10  C   LIG d   1      -2.145  80.541 112.753  0.00  0.00     0.006 C 
ENDBRANCH   8   9
BRANCH   8  11
ATOM     11  C   LIG d   1      -1.482  78.025 110.470  0.00  0.00     0.028 C 
ATOM     12  C   LIG d   1      -0.322  78.719 109.739  0.00  0.00     0.006 C 
ENDBRANCH   8  11
ENDBRANCH   7   8
ENDBRANCH   1   7
BRANCH   6  13
ATOM     13  N   LIG d   1      -4.285  76.637 114.074  0.00  0.00    -0.311 N 
ATOM     14  C   LIG d   1      -5.321  75.897 113.682  0.00  0.00     0.210 C 
ATOM     15  C   LIG d   1      -6.557  76.692 113.248  0.00  0.00     0.109 C 
ATOM     16  O   LIG d   1      -5.346  74.657 113.685  0.00  0.00    -0.276 OA
ATOM     17  H   LIG d   1      -4.364  77.635 114.071  0.00  0.00     0.149 HD
ENDBRANCH   6  13
BRANCH   5  18
ATOM     18  N   LIG d   1      -3.933  74.749 116.450  0.00  0.00     0.381 N 
ATOM     19  H   LIG d   1      -3.875  73.959 115.839  0.00  0.00    -0.090 HD
ATOM     20  H   LIG d   1      -4.859  75.134 116.380  0.00  0.00    -0.090 HD
ATOM     21  H   LIG d   1      -3.753  74.467 117.388  0.00  0.00    -0.090 HD
ENDBRANCH   5  18
BRANCH   3  22
ATOM     22  C   LIG d   1       0.638  76.156 116.702  0.00  0.00     0.382 C 
ATOM     23  O   LIG d   1       1.264  77.239 116.802  0.00  0.00    -0.241 OA
ATOM     24  O   LIG d   1       1.098  75.130 117.236  0.00  0.00    -0.241 OA
ENDBRANCH   3  22
TORSDOF 7
ENDMDL
MODEL 9
REMARK VINA RESULT:      -5.0      3.192      5.820
REMARK  7 active torsions:
REMARK  status: ('A' for Active; 'I' for Inactive)
REMARK    1  A    between atoms: C_2  and  C_3 
REMARK    2  A    between atoms: C_3  and  O_6 
REMARK    3  A    between atoms: C_3  and  C_4 
REMARK    4  A    between atoms: C_7  and  O_6 
REMARK    5  A    between atoms: C_9  and  C_10 
REMARK    6  A    between atoms: N_15  and  C_14 
REMARK    7  A    between atoms: N_20  and  C_19 
REMARK       I    between atoms: C_22  and  N_20 
ROOT
ATOM      1  C   LIG d   1      -0.879  80.235 112.931  0.00  0.00     0.161 C 
ATOM      2  C   LIG d   1      -1.361  79.031 112.391  0.00  0.00     0.016 C 
ATOM      3  C   LIG d   1      -0.882  78.474 111.183  0.00  0.00     0.038 C 
ATOM      4  C   LIG d   1       0.224  79.009 110.506  0.00  0.00     0.028 C 
ATOM      5  C   LIG d   1       0.413  80.504 110.743  0.00  0.00    -0.047 C 
ATOM      6  C   LIG d   1       0.403  80.775 112.265  0.00  0.00     0.091 C 
ENDROOT
BRANCH   1   7
ATOM      7  O   LIG d   1      -0.683  80.090 114.351  0.00  0.00    -0.368 OA
BRANCH   7   8
ATOM      8  C   LIG d   1      -0.959  78.778 114.902  0.00  0.00     0.119 C 
BRANCH   8   9
ATOM      9  C   LIG d   1      -2.000  78.956 116.024  0.00  0.00     0.028 C 
ATOM     10  C   LIG d   1      -3.180  77.978 115.891  0.00  0.00     0.006 C 
ENDBRANCH   8   9
BRANCH   8  11
ATOM     11  C   LIG d   1       0.278  78.190 115.587  0.00  0.00     0.028 C 
ATOM     12  C   LIG d   1       0.325  76.655 115.516  0.00  0.00     0.006 C 
ENDBRANCH   8  11
ENDBRANCH   7   8
ENDBRANCH   1   7
BRANCH   6  13
ATOM     13  N   LIG d   1       0.499  82.224 112.583  0.00  0.00    -0.311 N 
ATOM     14  C   LIG d   1      -0.353  83.135 112.114  0.00  0.00     0.210 C 
ATOM     15  C   LIG d   1      -0.062  84.575 112.548  0.00  0.00     0.109 C 
ATOM     16  O   LIG d   1      -1.340  82.883 111.407  0.00  0.00    -0.276 OA
ATOM     17  H   LIG d   1       1.252  82.512 113.176  0.00  0.00     0.149 HD
ENDBRANCH   6  13
BRANCH   5  18
ATOM     18  N   LIG d   1       1.676  80.901 110.093  0.00  0.00     0.381 N 
ATOM     19  H   LIG d   1       1.971  81.792 110.442  0.00  0.00    -0.090 HD
ATOM     20  H   LIG d   1       1.520  80.986 109.104  0.00  0.00    -0.090 HD
ATOM     21  H   LIG d   1       2.380  80.218 110.269  0.00  0.00    -0.090 HD
ENDBRANCH   5  18
BRANCH   3  22
ATOM     22  C   LIG d   1      -1.538  77.390 110.618  0.00  0.00     0.382 C 
ATOM     23  O   LIG d   1      -2.781  77.426 110.453  0.00  0.00    -0.241 OA
ATOM     24  O   LIG d   1      -0.908  76.359 110.314  0.00  0.00    -0.241 OA
ENDBRANCH   3  22
TORSDOF 7
ENDMDL
