MODEL 1
REMARK VINA RESULT:      -5.2      0.000      0.000
REMARK  7 active torsions:
REMARK  status: ('A' for Active; 'I' for Inactive)
REMARK    1  A    between atoms: C_2  and  C_3 
REMARK    2  A    between atoms: C_3  and  O_6 
REMARK    3  A    between atoms: C_3  and  C_4 
REMARK    4  A    between atoms: C_7  and  O_6 
REMARK    5  A    between atoms: C_9  and  C_10 
REMARK    6  A    between atoms: N_15  and  C_14 
REMARK    7  A    between atoms: N_20  and  C_19 
REMARK       I    between atoms: C_22  and  N_20 
ROOT
ATOM      1  C   LIG d   1      -2.529  78.292 116.094  0.00  0.00     0.161 C 
ATOM      2  C   LIG d   1      -2.928  78.925 114.905  0.00  0.00     0.016 C 
ATOM      3  C   LIG d   1      -2.356  78.644 113.643  0.00  0.00     0.038 C 
ATOM      4  C   LIG d   1      -1.444  77.593 113.460  0.00  0.00     0.028 C 
ATOM      5  C   LIG d   1      -0.640  77.264 114.714  0.00  0.00    -0.047 C 
ATOM      6  C   LIG d   1      -1.614  77.065 115.897  0.00  0.00     0.091 C 
ENDROOT
BRANCH   1   7
ATOM      7  O   LIG d   1      -3.689  77.932 116.869  0.00  0.00    -0.368 OA
BRANCH   7   8
ATOM      8  C   LIG d   1      -4.931  77.803 116.135  0.00  0.00     0.119 C 
BRANCH   8   9
ATOM      9  C   LIG d   1      -6.039  78.465 116.978  0.00  0.00     0.028 C 
ATOM     10  C   LIG d   1      -5.814  79.975 117.160  0.00  0.00     0.006 C 
ENDBRANCH   8   9
BRANCH   8  11
ATOM     11  C   LIG d   1      -5.348  76.336 115.998  0.00  0.00     0.028 C 
ATOM     12  C   LIG d   1      -4.964  75.732 114.638  0.00  0.00     0.006 C 
ENDBRANCH   8  11
ENDBRANCH   7   8
ENDBRANCH   1   7
BRANCH   6  13
ATOM     13  N   LIG d   1      -0.905  76.822 117.180  0.00  0.00    -0.311 N 
ATOM     14  C   LIG d   1      -0.503  75.617 117.579  0.00  0.00     0.210 C 
ATOM     15  C   LIG d   1       0.192  75.586 118.944  0.00  0.00     0.109 C 
ATOM     16  O   LIG d   1      -0.627  74.575 116.918  0.00  0.00    -0.276 OA
ATOM     17  H   LIG d   1      -0.734  77.617 117.765  0.00  0.00     0.149 HD
ENDBRANCH   6  13
BRANCH   5  18
ATOM     18  N   LIG d   1       0.169  76.066 114.422  0.00  0.00     0.381 N 
ATOM     19  H   LIG d   1       0.610  75.743 115.260  0.00  0.00    -0.090 HD
ATOM     20  H   LIG d   1       0.886  76.310 113.762  0.00  0.00    -0.090 HD
ATOM     21  H   LIG d   1      -0.409  75.348 114.045  0.00  0.00    -0.090 HD
ENDBRANCH   5  18
BRANCH   3  22
ATOM     22  C   LIG d   1      -2.666  79.444 112.554  0.00  0.00     0.382 C 
ATOM     23  O   LIG d   1      -3.453  80.411 112.691  0.00  0.00    -0.241 OA
ATOM     24  O   LIG d   1      -2.202  79.185 111.427  0.00  0.00    -0.241 OA
ENDBRANCH   3  22
TORSDOF 7
ENDMDL
MODEL 2
REMARK VINA RESULT:      -5.2      1.301      1.460
REMARK  7 active torsions:
REMARK  status: ('A' for Active; 'I' for Inactive)
REMARK    1  A    between atoms: C_2  and  C_3 
REMARK    2  A    between atoms: C_3  and  O_6 
REMARK    3  A    between atoms: C_3  and  C_4 
REMARK    4  A    between atoms: C_7  and  O_6 
REMARK    5  A    between atoms: C_9  and  C_10 
REMARK    6  A    between atoms: N_15  and  C_14 
REMARK    7  A    between atoms: N_20  and  C_19 
REMARK       I    between atoms: C_22  and  N_20 
ROOT
ATOM      1  C   LIG d   1      -2.969  77.680 116.212  0.00  0.00     0.161 C 
ATOM      2  C   LIG d   1      -3.421  78.007 114.923  0.00  0.00     0.016 C 
ATOM      3  C   LIG d   1      -2.631  77.854 113.760  0.00  0.00     0.038 C 
ATOM      4  C   LIG d   1      -1.382  77.218 113.790  0.00  0.00     0.028 C 
ATOM      5  C   LIG d   1      -0.677  77.331 115.138  0.00  0.00    -0.047 C 
ATOM      6  C   LIG d   1      -1.650  76.881 116.252  0.00  0.00     0.091 C 
ENDROOT
BRANCH   1   7
ATOM      7  O   LIG d   1      -4.003  76.976 116.928  0.00  0.00    -0.368 OA
BRANCH   7   8
ATOM      8  C   LIG d   1      -5.000  76.309 116.116  0.00  0.00     0.119 C 
BRANCH   8   9
ATOM      9  C   LIG d   1      -6.368  76.529 116.789  0.00  0.00     0.028 C 
ATOM     10  C   LIG d   1      -7.541  76.315 115.817  0.00  0.00     0.006 C 
ENDBRANCH   8   9
BRANCH   8  11
ATOM     11  C   LIG d   1      -4.789  74.792 116.111  0.00  0.00     0.028 C 
ATOM     12  C   LIG d   1      -4.629  74.217 114.694  0.00  0.00     0.006 C 
ENDBRANCH   8  11
ENDBRANCH   7   8
ENDBRANCH   1   7
BRANCH   6  13
ATOM     13  N   LIG d   1      -1.068  77.041 117.611  0.00  0.00    -0.311 N 
ATOM     14  C   LIG d   1      -0.400  76.076 118.240  0.00  0.00     0.210 C 
ATOM     15  C   LIG d   1       0.098  76.442 119.641  0.00  0.00     0.109 C 
ATOM     16  O   LIG d   1      -0.145  74.962 117.758  0.00  0.00    -0.276 OA
ATOM     17  H   LIG d   1      -1.201  77.924 118.063  0.00  0.00     0.149 HD
ENDBRANCH   6  13
BRANCH   5  18
ATOM     18  N   LIG d   1       0.546  76.510 115.072  0.00  0.00     0.381 N 
ATOM     19  H   LIG d   1       0.315  75.581 114.781  0.00  0.00    -0.090 HD
ATOM     20  H   LIG d   1       0.955  76.460 115.989  0.00  0.00    -0.090 HD
ATOM     21  H   LIG d   1       1.195  76.914 114.433  0.00  0.00    -0.090 HD
ENDBRANCH   5  18
BRANCH   3  22
ATOM     22  C   LIG d   1      -3.075  78.377 112.555  0.00  0.00     0.382 C 
ATOM     23  O   LIG d   1      -3.483  79.562 112.497  0.00  0.00    -0.241 OA
ATOM     24  O   LIG d   1      -3.115  77.665 111.533  0.00  0.00    -0.241 OA
ENDBRANCH   3  22
TORSDOF 7
ENDMDL
MODEL 3
REMARK VINA RESULT:      -4.9      1.985      5.063
REMARK  7 active torsions:
REMARK  status: ('A' for Active; 'I' for Inactive)
REMARK    1  A    between atoms: C_2  and  C_3 
REMARK    2  A    between atoms: C_3  and  O_6 
REMARK    3  A    between atoms: C_3  and  C_4 
REMARK    4  A    between atoms: C_7  and  O_6 
REMARK    5  A    between atoms: C_9  and  C_10 
REMARK    6  A    between atoms: N_15  and  C_14 
REMARK    7  A    between atoms: N_20  and  C_19 
REMARK       I    between atoms: C_22  and  N_20 
ROOT
ATOM      1  C   LIG d   1      -1.698  75.887 115.038  0.00  0.00     0.161 C 
ATOM      2  C   LIG d   1      -1.456  75.623 116.396  0.00  0.00     0.016 C 
ATOM      3  C   LIG d   1      -0.845  76.549 117.273  0.00  0.00     0.038 C 
ATOM      4  C   LIG d   1      -0.570  77.868 116.882  0.00  0.00     0.028 C 
ATOM      5  C   LIG d   1      -0.333  78.020 115.383  0.00  0.00    -0.047 C 
ATOM      6  C   LIG d   1      -1.505  77.360 114.621  0.00  0.00     0.091 C 
ENDROOT
BRANCH   1   7
ATOM      7  O   LIG d   1      -3.018  75.434 114.679  0.00  0.00    -0.368 OA
BRANCH   7   8
ATOM      8  C   LIG d   1      -4.021  75.500 115.723  0.00  0.00     0.119 C 
BRANCH   8   9
ATOM      9  C   LIG d   1      -4.815  74.180 115.687  0.00  0.00     0.028 C 
ATOM     10  C   LIG d   1      -6.074  74.229 116.568  0.00  0.00     0.006 C 
ENDBRANCH   8   9
BRANCH   8  11
ATOM     11  C   LIG d   1      -5.048  76.600 115.440  0.00  0.00     0.028 C 
ATOM     12  C   LIG d   1      -4.771  77.892 116.224  0.00  0.00     0.006 C 
ENDBRANCH   8  11
ENDBRANCH   7   8
ENDBRANCH   1   7
BRANCH   6  13
ATOM     13  N   LIG d   1      -1.311  77.390 113.148  0.00  0.00    -0.311 N 
ATOM     14  C   LIG d   1      -2.179  77.947 112.305  0.00  0.00     0.210 C 
ATOM     15  C   LIG d   1      -1.797  77.849 110.825  0.00  0.00     0.109 C 
ATOM     16  O   LIG d   1      -3.213  78.541 112.645  0.00  0.00    -0.276 OA
ATOM     17  H   LIG d   1      -0.483  76.957 112.788  0.00  0.00     0.149 HD
ENDBRANCH   6  13
BRANCH   5  18
ATOM     18  N   LIG d   1      -0.195  79.460 115.097  0.00  0.00     0.381 N 
ATOM     19  H   LIG d   1      -0.610  79.671 114.212  0.00  0.00    -0.090 HD
ATOM     20  H   LIG d   1       0.782  79.690 115.050  0.00  0.00    -0.090 HD
ATOM     21  H   LIG d   1      -0.635  79.994 115.814  0.00  0.00    -0.090 HD
ENDBRANCH   5  18
BRANCH   3  22
ATOM     22  C   LIG d   1      -0.467  76.146 118.544  0.00  0.00     0.382 C 
ATOM     23  O   LIG d   1      -1.008  76.661 119.552  0.00  0.00    -0.241 OA
ATOM     24  O   LIG d   1       0.439  75.306 118.697  0.00  0.00    -0.241 OA
ENDBRANCH   3  22
TORSDOF 7
ENDMDL
MODEL 4
REMARK VINA RESULT:      -4.7      2.817      4.037
REMARK  7 active torsions:
REMARK  status: ('A' for Active; 'I' for Inactive)
REMARK    1  A    between atoms: C_2  and  C_3 
REMARK    2  A    between atoms: C_3  and  O_6 
REMARK    3  A    between atoms: C_3  and  C_4 
REMARK    4  A    between atoms: C_7  and  O_6 
REMARK    5  A    between atoms: C_9  and  C_10 
REMARK    6  A    between atoms: N_15  and  C_14 
REMARK    7  A    between atoms: N_20  and  C_19 
REMARK       I    between atoms: C_22  and  N_20 
ROOT
ATOM      1  C   LIG d   1      -4.462  77.079 118.197  0.00  0.00     0.161 C 
ATOM      2  C   LIG d   1      -5.624  77.855 118.052  0.00  0.00     0.016 C 
ATOM      3  C   LIG d   1      -5.696  79.002 117.229  0.00  0.00     0.038 C 
ATOM      4  C   LIG d   1      -4.648  79.367 116.372  0.00  0.00     0.028 C 
ATOM      5  C   LIG d   1      -3.278  78.907 116.860  0.00  0.00    -0.047 C 
ATOM      6  C   LIG d   1      -3.342  77.397 117.184  0.00  0.00     0.091 C 
ENDROOT
BRANCH   1   7
ATOM      7  O   LIG d   1      -4.800  75.679 118.147  0.00  0.00    -0.368 OA
BRANCH   7   8
ATOM      8  C   LIG d   1      -5.389  75.209 116.910  0.00  0.00     0.119 C 
BRANCH   8   9
ATOM      9  C   LIG d   1      -6.678  74.446 117.272  0.00  0.00     0.028 C 
ATOM     10  C   LIG d   1      -7.948  75.217 116.875  0.00  0.00     0.006 C 
ENDBRANCH   8   9
BRANCH   8  11
ATOM     11  C   LIG d   1      -4.489  74.180 116.219  0.00  0.00     0.028 C 
ATOM     12  C   LIG d   1      -4.648  74.180 114.691  0.00  0.00     0.006 C 
ENDBRANCH   8  11
ENDBRANCH   7   8
ENDBRANCH   1   7
BRANCH   6  13
ATOM     13  N   LIG d   1      -2.066  76.884 117.749  0.00  0.00    -0.311 N 
ATOM     14  C   LIG d   1      -1.160  76.223 117.030  0.00  0.00     0.210 C 
ATOM     15  C   LIG d   1       0.075  75.765 117.812  0.00  0.00     0.109 C 
ATOM     16  O   LIG d   1      -1.248  76.000 115.814  0.00  0.00    -0.276 OA
ATOM     17  H   LIG d   1      -1.900  77.048 118.722  0.00  0.00     0.149 HD
ENDBRANCH   6  13
BRANCH   5  18
ATOM     18  N   LIG d   1      -2.297  79.232 115.808  0.00  0.00     0.381 N 
ATOM     19  H   LIG d   1      -1.382  78.955 116.101  0.00  0.00    -0.090 HD
ATOM     20  H   LIG d   1      -2.294  80.226 115.661  0.00  0.00    -0.090 HD
ATOM     21  H   LIG d   1      -2.539  78.765 114.961  0.00  0.00    -0.090 HD
ENDBRANCH   5  18
BRANCH   3  22
ATOM     22  C   LIG d   1      -6.814  79.821 117.289  0.00  0.00     0.382 C 
ATOM     23  O   LIG d   1      -7.917  79.351 117.658  0.00  0.00    -0.241 OA
ATOM     24  O   LIG d   1      -6.742  81.013 116.935  0.00  0.00    -0.241 OA
ENDBRANCH   3  22
TORSDOF 7
ENDMDL
MODEL 5
REMARK VINA RESULT:      -4.5      2.680      4.446
REMARK  7 active torsions:
REMARK  status: ('A' for Active; 'I' for Inactive)
REMARK    1  A    between atoms: C_2  and  C_3 
REMARK    2  A    between atoms: C_3  and  O_6 
REMARK    3  A    between atoms: C_3  and  C_4 
REMARK    4  A    between atoms: C_7  and  O_6 
REMARK    5  A    between atoms: C_9  and  C_10 
REMARK    6  A    between atoms: N_15  and  C_14 
REMARK    7  A    between atoms: N_20  and  C_19 
REMARK       I    between atoms: C_22  and  N_20 
ROOT
ATOM      1  C   LIG d   1      -4.214  78.223 117.084  0.00  0.00     0.161 C 
ATOM      2  C   LIG d   1      -3.597  79.293 117.753  0.00  0.00     0.016 C 
ATOM      3  C   LIG d   1      -2.226  79.611 117.613  0.00  0.00     0.038 C 
ATOM      4  C   LIG d   1      -1.408  78.970 116.672  0.00  0.00     0.028 C 
ATOM      5  C   LIG d   1      -1.863  77.552 116.340  0.00  0.00    -0.047 C 
ATOM      6  C   LIG d   1      -3.363  77.581 115.968  0.00  0.00     0.091 C 
ENDROOT
BRANCH   1   7
ATOM      7  O   LIG d   1      -5.490  78.644 116.562  0.00  0.00    -0.368 OA
BRANCH   7   8
ATOM      8  C   LIG d   1      -6.656  78.222 117.311  0.00  0.00     0.119 C 
BRANCH   8   9
ATOM      9  C   LIG d   1      -7.392  77.165 116.465  0.00  0.00     0.028 C 
ATOM     10  C   LIG d   1      -7.315  75.760 117.084  0.00  0.00     0.006 C 
ENDBRANCH   8   9
BRANCH   8  11
ATOM     11  C   LIG d   1      -7.654  79.371 117.483  0.00  0.00     0.028 C 
ATOM     12  C   LIG d   1      -6.989  80.754 117.398  0.00  0.00     0.006 C 
ENDBRANCH   8  11
ENDBRANCH   7   8
ENDBRANCH   1   7
BRANCH   6  13
ATOM     13  N   LIG d   1      -3.909  76.223 115.710  0.00  0.00    -0.311 N 
ATOM     14  C   LIG d   1      -4.403  75.842 114.534  0.00  0.00     0.210 C 
ATOM     15  C   LIG d   1      -4.933  74.406 114.489  0.00  0.00     0.109 C 
ATOM     16  O   LIG d   1      -4.423  76.547 113.514  0.00  0.00    -0.276 OA
ATOM     17  H   LIG d   1      -3.903  75.576 116.475  0.00  0.00     0.149 HD
ENDBRANCH   6  13
BRANCH   5  18
ATOM     18  N   LIG d   1      -1.006  77.053 115.248  0.00  0.00     0.381 N 
ATOM     19  H   LIG d   1      -0.276  77.712 115.063  0.00  0.00    -0.090 HD
ATOM     20  H   LIG d   1      -1.562  76.957 114.416  0.00  0.00    -0.090 HD
ATOM     21  H   LIG d   1      -0.614  76.172 115.498  0.00  0.00    -0.090 HD
ENDBRANCH   5  18
BRANCH   3  22
ATOM     22  C   LIG d   1      -1.652  80.556 118.450  0.00  0.00     0.382 C 
ATOM     23  O   LIG d   1      -0.571  81.106 118.127  0.00  0.00    -0.241 OA
ATOM     24  O   LIG d   1      -2.177  80.832 119.545  0.00  0.00    -0.241 OA
ENDBRANCH   3  22
TORSDOF 7
ENDMDL
MODEL 6
REMARK VINA RESULT:      -4.5      2.420      5.273
REMARK  7 active torsions:
REMARK  status: ('A' for Active; 'I' for Inactive)
REMARK    1  A    between atoms: C_2  and  C_3 
REMARK    2  A    between atoms: C_3  and  O_6 
REMARK    3  A    between atoms: C_3  and  C_4 
REMARK    4  A    between atoms: C_7  and  O_6 
REMARK    5  A    between atoms: C_9  and  C_10 
REMARK    6  A    between atoms: N_15  and  C_14 
REMARK    7  A    between atoms: N_20  and  C_19 
REMARK       I    between atoms: C_22  and  N_20 
ROOT
ATOM      1  C   LIG d   1      -2.505  78.521 115.467  0.00  0.00     0.161 C 
ATOM      2  C   LIG d   1      -1.639  77.480 115.093  0.00  0.00     0.016 C 
ATOM      3  C   LIG d   1      -1.882  76.120 115.395  0.00  0.00     0.038 C 
ATOM      4  C   LIG d   1      -3.091  75.691 115.963  0.00  0.00     0.028 C 
ATOM      5  C   LIG d   1      -3.773  76.758 116.813  0.00  0.00    -0.047 C 
ATOM      6  C   LIG d   1      -3.882  78.061 115.989  0.00  0.00     0.091 C 
ENDROOT
BRANCH   1   7
ATOM      7  O   LIG d   1      -2.667  79.440 114.368  0.00  0.00    -0.368 OA
BRANCH   7   8
ATOM      8  C   LIG d   1      -1.993  79.084 113.136  0.00  0.00     0.119 C 
BRANCH   8   9
ATOM      9  C   LIG d   1      -1.598  80.395 112.430  0.00  0.00     0.028 C 
ATOM     10  C   LIG d   1      -0.074  80.593 112.370  0.00  0.00     0.006 C 
ENDBRANCH   8   9
BRANCH   8  11
ATOM     11  C   LIG d   1      -2.943  78.373 112.167  0.00  0.00     0.028 C 
ATOM     12  C   LIG d   1      -2.252  77.942 110.864  0.00  0.00     0.006 C 
ENDBRANCH   8  11
ENDBRANCH   7   8
ENDBRANCH   1   7
BRANCH   6  13
ATOM     13  N   LIG d   1      -4.461  79.181 116.775  0.00  0.00    -0.311 N 
ATOM     14  C   LIG d   1      -5.770  79.406 116.876  0.00  0.00     0.210 C 
ATOM     15  C   LIG d   1      -6.154  80.627 117.718  0.00  0.00     0.109 C 
ATOM     16  O   LIG d   1      -6.651  78.693 116.373  0.00  0.00    -0.276 OA
ATOM     17  H   LIG d   1      -3.819  79.792 117.242  0.00  0.00     0.149 HD
ENDBRANCH   6  13
BRANCH   5  18
ATOM     18  N   LIG d   1      -5.084  76.225 117.229  0.00  0.00     0.381 N 
ATOM     19  H   LIG d   1      -5.647  76.043 116.422  0.00  0.00    -0.090 HD
ATOM     20  H   LIG d   1      -5.551  76.914 117.791  0.00  0.00    -0.090 HD
ATOM     21  H   LIG d   1      -4.961  75.387 117.753  0.00  0.00    -0.090 HD
ENDBRANCH   5  18
BRANCH   3  22
ATOM     22  C   LIG d   1      -0.891  75.177 115.164  0.00  0.00     0.382 C 
ATOM     23  O   LIG d   1      -0.562  74.379 116.073  0.00  0.00    -0.241 OA
ATOM     24  O   LIG d   1      -0.293  75.144 114.072  0.00  0.00    -0.241 OA
ENDBRANCH   3  22
TORSDOF 7
ENDMDL
MODEL 7
REMARK VINA RESULT:      -4.4      3.115      5.497
REMARK  7 active torsions:
REMARK  status: ('A' for Active; 'I' for Inactive)
REMARK    1  A    between atoms: C_2  and  C_3 
REMARK    2  A    between atoms: C_3  and  O_6 
REMARK    3  A    between atoms: C_3  and  C_4 
REMARK    4  A    between atoms: C_7  and  O_6 
REMARK    5  A    between atoms: C_9  and  C_10 
REMARK    6  A    between atoms: N_15  and  C_14 
REMARK    7  A    between atoms: N_20  and  C_19 
REMARK       I    between atoms: C_22  and  N_20 
ROOT
ATOM      1  C   LIG d   1      -0.585  79.488 113.323  0.00  0.00     0.161 C 
ATOM      2  C   LIG d   1      -1.505  79.130 112.324  0.00  0.00     0.016 C 
ATOM      3  C   LIG d   1      -2.642  78.325 112.565  0.00  0.00     0.038 C 
ATOM      4  C   LIG d   1      -3.020  77.945 113.861  0.00  0.00     0.028 C 
ATOM      5  C   LIG d   1      -1.848  77.859 114.833  0.00  0.00    -0.047 C 
ATOM      6  C   LIG d   1      -1.040  79.175 114.764  0.00  0.00     0.091 C 
ENDROOT
BRANCH   1   7
ATOM      7  O   LIG d   1      -0.244  80.882 113.196  0.00  0.00    -0.368 OA
BRANCH   7   8
ATOM      8  C   LIG d   1      -0.129  81.391 111.844  0.00  0.00     0.119 C 
BRANCH   8   9
ATOM      9  C   LIG d   1       1.368  81.406 111.481  0.00  0.00     0.028 C 
ATOM     10  C   LIG d   1       1.665  80.633 110.185  0.00  0.00     0.006 C 
ENDBRANCH   8   9
BRANCH   8  11
ATOM     11  C   LIG d   1      -0.582  82.851 111.758  0.00  0.00     0.028 C 
ATOM     12  C   LIG d   1       0.190  83.772 112.715  0.00  0.00     0.006 C 
ENDBRANCH   8  11
ENDBRANCH   7   8
ENDBRANCH   1   7
BRANCH   6  13
ATOM     13  N   LIG d   1       0.172  79.143 115.622  0.00  0.00    -0.311 N 
ATOM     14  C   LIG d   1       0.197  79.597 116.873  0.00  0.00     0.210 C 
ATOM     15  C   LIG d   1       1.555  79.487 117.574  0.00  0.00     0.109 C 
ATOM     16  O   LIG d   1      -0.784  80.051 117.481  0.00  0.00    -0.276 OA
ATOM     17  H   LIG d   1       1.006  78.762 115.219  0.00  0.00     0.149 HD
ENDBRANCH   6  13
BRANCH   5  18
ATOM     18  N   LIG d   1      -2.400  77.590 116.174  0.00  0.00     0.381 N 
ATOM     19  H   LIG d   1      -3.399  77.557 116.129  0.00  0.00    -0.090 HD
ATOM     20  H   LIG d   1      -2.136  78.338 116.791  0.00  0.00    -0.090 HD
ATOM     21  H   LIG d   1      -2.047  76.724 116.521  0.00  0.00    -0.090 HD
ENDBRANCH   5  18
BRANCH   3  22
ATOM     22  C   LIG d   1      -3.392  77.857 111.497  0.00  0.00     0.382 C 
ATOM     23  O   LIG d   1      -4.611  77.602 111.651  0.00  0.00    -0.241 OA
ATOM     24  O   LIG d   1      -2.856  77.646 110.393  0.00  0.00    -0.241 OA
ENDBRANCH   3  22
TORSDOF 7
ENDMDL
MODEL 8
REMARK VINA RESULT:      -4.4      2.341      4.802
REMARK  7 active torsions:
REMARK  status: ('A' for Active; 'I' for Inactive)
REMARK    1  A    between atoms: C_2  and  C_3 
REMARK    2  A    between atoms: C_3  and  O_6 
REMARK    3  A    between atoms: C_3  and  C_4 
REMARK    4  A    between atoms: C_7  and  O_6 
REMARK    5  A    between atoms: C_9  and  C_10 
REMARK    6  A    between atoms: N_15  and  C_14 
REMARK    7  A    between atoms: N_20  and  C_19 
REMARK       I    between atoms: C_22  and  N_20 
ROOT
ATOM      1  C   LIG d   1      -2.628  76.666 114.607  0.00  0.00     0.161 C 
ATOM      2  C   LIG d   1      -3.973  76.342 114.366  0.00  0.00     0.016 C 
ATOM      3  C   LIG d   1      -5.023  76.665 115.256  0.00  0.00     0.038 C 
ATOM      4  C   LIG d   1      -4.817  77.472 116.384  0.00  0.00     0.028 C 
ATOM      5  C   LIG d   1      -3.396  77.395 116.933  0.00  0.00    -0.047 C 
ATOM      6  C   LIG d   1      -2.399  77.644 115.779  0.00  0.00     0.091 C 
ENDROOT
BRANCH   1   7
ATOM      7  O   LIG d   1      -2.025  77.178 113.402  0.00  0.00    -0.368 OA
BRANCH   7   8
ATOM      8  C   LIG d   1      -2.724  78.267 112.752  0.00  0.00     0.119 C 
BRANCH   8   9
ATOM      9  C   LIG d   1      -2.813  77.930 111.251  0.00  0.00     0.028 C 
ATOM     10  C   LIG d   1      -1.437  77.943 110.564  0.00  0.00     0.006 C 
ENDBRANCH   8   9
BRANCH   8  11
ATOM     11  C   LIG d   1      -1.921  79.569 112.828  0.00  0.00     0.028 C 
ATOM     12  C   LIG d   1      -2.811  80.821 112.804  0.00  0.00     0.006 C 
ENDBRANCH   8  11
ENDBRANCH   7   8
ENDBRANCH   1   7
BRANCH   6  13
ATOM     13  N   LIG d   1      -0.984  77.503 116.212  0.00  0.00    -0.311 N 
ATOM     14  C   LIG d   1      -0.224  78.533 116.579  0.00  0.00     0.210 C 
ATOM     15  C   LIG d   1       1.212  78.170 116.971  0.00  0.00     0.109 C 
ATOM     16  O   LIG d   1      -0.611  79.709 116.649  0.00  0.00    -0.276 OA
ATOM     17  H   LIG d   1      -0.598  76.579 116.216  0.00  0.00     0.149 HD
ENDBRANCH   6  13
BRANCH   5  18
ATOM     18  N   LIG d   1      -3.284  78.387 118.019  0.00  0.00     0.381 N 
ATOM     19  H   LIG d   1      -2.319  78.569 118.212  0.00  0.00    -0.090 HD
ATOM     20  H   LIG d   1      -3.705  78.009 118.849  0.00  0.00    -0.090 HD
ATOM     21  H   LIG d   1      -3.743  79.231 117.759  0.00  0.00    -0.090 HD
ENDBRANCH   5  18
BRANCH   3  22
ATOM     22  C   LIG d   1      -6.290  76.144 115.041  0.00  0.00     0.382 C 
ATOM     23  O   LIG d   1      -6.788  75.343 115.870  0.00  0.00    -0.241 OA
ATOM     24  O   LIG d   1      -6.925  76.430 114.008  0.00  0.00    -0.241 OA
ENDBRANCH   3  22
TORSDOF 7
ENDMDL
MODEL 9
REMARK VINA RESULT:      -4.2      2.617      4.241
REMARK  7 active torsions:
REMARK  status: ('A' for Active; 'I' for Inactive)
REMARK    1  A    between atoms: C_2  and  C_3 
REMARK    2  A    between atoms: C_3  and  O_6 
REMARK    3  A    between atoms: C_3  and  C_4 
REMARK    4  A    between atoms: C_7  and  O_6 
REMARK    5  A    between atoms: C_9  and  C_10 
REMARK    6  A    between atoms: N_15  and  C_14 
REMARK    7  A    between atoms: N_20  and  C_19 
REMARK       I    between atoms: C_22  and  N_20 
ROOT
ATOM      1  C   LIG d   1      -1.604  78.032 114.694  0.00  0.00     0.161 C 
ATOM      2  C   LIG d   1      -0.782  79.072 114.229  0.00  0.00     0.016 C 
ATOM      3  C   LIG d   1      -0.938  79.680 112.962  0.00  0.00     0.038 C 
ATOM      4  C   LIG d   1      -2.029  79.390 112.130  0.00  0.00     0.028 C 
ATOM      5  C   LIG d   1      -2.595  77.989 112.339  0.00  0.00    -0.047 C 
ATOM      6  C   LIG d   1      -2.868  77.778 113.846  0.00  0.00     0.091 C 
ENDROOT
BRANCH   1   7
ATOM      7  O   LIG d   1      -1.963  78.271 116.069  0.00  0.00    -0.368 OA
BRANCH   7   8
ATOM      8  C   LIG d   1      -1.398  77.359 117.043  0.00  0.00     0.119 C 
BRANCH   8   9
ATOM      9  C   LIG d   1      -0.535  76.338 116.276  0.00  0.00     0.028 C 
ATOM     10  C   LIG d   1      -0.909  74.885 116.611  0.00  0.00     0.006 C 
ENDBRANCH   8   9
BRANCH   8  11
ATOM     11  C   LIG d   1      -2.488  76.533 117.731  0.00  0.00     0.028 C 
ATOM     12  C   LIG d   1      -2.781  77.007 119.164  0.00  0.00     0.006 C 
ENDBRANCH   8  11
ENDBRANCH   7   8
ENDBRANCH   1   7
BRANCH   6  13
ATOM     13  N   LIG d   1      -3.344  76.404 114.149  0.00  0.00    -0.311 N 
ATOM     14  C   LIG d   1      -4.560  76.137 114.623  0.00  0.00     0.210 C 
ATOM     15  C   LIG d   1      -4.841  74.654 114.886  0.00  0.00     0.109 C 
ATOM     16  O   LIG d   1      -5.444  76.984 114.821  0.00  0.00    -0.276 OA
ATOM     17  H   LIG d   1      -2.702  75.653 113.988  0.00  0.00     0.149 HD
ENDBRANCH   6  13
BRANCH   5  18
ATOM     18  N   LIG d   1      -3.809  77.870 111.510  0.00  0.00     0.381 N 
ATOM     19  H   LIG d   1      -3.766  78.521 110.751  0.00  0.00    -0.090 HD
ATOM     20  H   LIG d   1      -4.611  78.094 112.072  0.00  0.00    -0.090 HD
ATOM     21  H   LIG d   1      -3.891  76.942 111.156  0.00  0.00    -0.090 HD
ENDBRANCH   5  18
BRANCH   3  22
ATOM     22  C   LIG d   1       0.027  80.561 112.499  0.00  0.00     0.382 C 
ATOM     23  O   LIG d   1       0.417  80.495 111.308  0.00  0.00    -0.241 OA
ATOM     24  O   LIG d   1       0.545  81.392 113.269  0.00  0.00    -0.241 OA
ENDBRANCH   3  22
TORSDOF 7
ENDMDL
