MODEL 1
REMARK VINA RESULT:      -5.1      0.000      0.000
REMARK  7 active torsions:
REMARK  status: ('A' for Active; 'I' for Inactive)
REMARK    1  A    between atoms: C_2  and  C_3 
REMARK    2  A    between atoms: C_3  and  O_6 
REMARK    3  A    between atoms: C_3  and  C_4 
REMARK    4  A    between atoms: C_7  and  O_6 
REMARK    5  A    between atoms: C_9  and  C_10 
REMARK    6  A    between atoms: N_15  and  C_14 
REMARK    7  A    between atoms: N_20  and  C_19 
REMARK       I    between atoms: C_22  and  N_20 
ROOT
ATOM      1  C   LIG d   1      -2.252  78.498 114.828  0.00  0.00     0.161 C 
ATOM      2  C   LIG d   1      -2.611  79.337 113.760  0.00  0.00     0.016 C 
ATOM      3  C   LIG d   1      -1.866  80.478 113.384  0.00  0.00     0.038 C 
ATOM      4  C   LIG d   1      -0.622  80.775 113.959  0.00  0.00     0.028 C 
ATOM      5  C   LIG d   1      -0.469  80.243 115.380  0.00  0.00    -0.047 C 
ATOM      6  C   LIG d   1      -0.839  78.742 115.397  0.00  0.00     0.091 C 
ENDROOT
BRANCH   1   7
ATOM      7  O   LIG d   1      -2.404  77.118 114.439  0.00  0.00    -0.368 OA
BRANCH   7   8
ATOM      8  C   LIG d   1      -3.411  76.361 115.154  0.00  0.00     0.119 C 
BRANCH   8   9
ATOM      9  C   LIG d   1      -2.682  75.277 115.971  0.00  0.00     0.028 C 
ATOM     10  C   LIG d   1      -1.376  74.817 115.301  0.00  0.00     0.006 C 
ENDBRANCH   8   9
BRANCH   8  11
ATOM     11  C   LIG d   1      -4.324  75.598 114.190  0.00  0.00     0.028 C 
ATOM     12  C   LIG d   1      -5.593  75.060 114.871  0.00  0.00     0.006 C 
ENDBRANCH   8  11
ENDBRANCH   7   8
ENDBRANCH   1   7
BRANCH   6  13
ATOM     13  N   LIG d   1      -0.798  78.163 116.765  0.00  0.00    -0.311 N 
ATOM     14  C   LIG d   1       0.259  77.520 117.257  0.00  0.00     0.210 C 
ATOM     15  C   LIG d   1       0.085  76.984 118.682  0.00  0.00     0.109 C 
ATOM     16  O   LIG d   1       1.337  77.370 116.662  0.00  0.00    -0.276 OA
ATOM     17  H   LIG d   1      -1.619  78.266 117.329  0.00  0.00     0.149 HD
ENDBRANCH   6  13
BRANCH   5  18
ATOM     18  N   LIG d   1       0.919  80.501 115.806  0.00  0.00     0.381 N 
ATOM     19  H   LIG d   1       1.130  81.474 115.702  0.00  0.00    -0.090 HD
ATOM     20  H   LIG d   1       1.543  79.978 115.217  0.00  0.00    -0.090 HD
ATOM     21  H   LIG d   1       1.041  80.228 116.757  0.00  0.00    -0.090 HD
ENDBRANCH   5  18
BRANCH   3  22
ATOM     22  C   LIG d   1      -2.386  81.360 112.448  0.00  0.00     0.382 C 
ATOM     23  O   LIG d   1      -1.634  82.190 111.883  0.00  0.00    -0.241 OA
ATOM     24  O   LIG d   1      -3.606  81.365 112.195  0.00  0.00    -0.241 OA
ENDBRANCH   3  22
TORSDOF 7
ENDMDL
MODEL 2
REMARK VINA RESULT:      -5.1      3.112      6.126
REMARK  7 active torsions:
REMARK  status: ('A' for Active; 'I' for Inactive)
REMARK    1  A    between atoms: C_2  and  C_3 
REMARK    2  A    between atoms: C_3  and  O_6 
REMARK    3  A    between atoms: C_3  and  C_4 
REMARK    4  A    between atoms: C_7  and  O_6 
REMARK    5  A    between atoms: C_9  and  C_10 
REMARK    6  A    between atoms: N_15  and  C_14 
REMARK    7  A    between atoms: N_20  and  C_19 
REMARK       I    between atoms: C_22  and  N_20 
ROOT
ATOM      1  C   LIG d   1      -2.471  80.968 113.679  0.00  0.00     0.161 C 
ATOM      2  C   LIG d   1      -2.989  79.784 114.230  0.00  0.00     0.016 C 
ATOM      3  C   LIG d   1      -2.713  78.498 113.712  0.00  0.00     0.038 C 
ATOM      4  C   LIG d   1      -1.772  78.297 112.691  0.00  0.00     0.028 C 
ATOM      5  C   LIG d   1      -1.608  79.503 111.772  0.00  0.00    -0.047 C 
ATOM      6  C   LIG d   1      -1.355  80.760 112.634  0.00  0.00     0.091 C 
ENDROOT
BRANCH   1   7
ATOM      7  O   LIG d   1      -2.015  81.839 114.733  0.00  0.00    -0.368 OA
BRANCH   7   8
ATOM      8  C   LIG d   1      -0.691  81.568 115.256  0.00  0.00     0.119 C 
BRANCH   8   9
ATOM      9  C   LIG d   1      -0.839  81.273 116.761  0.00  0.00     0.028 C 
ATOM     10  C   LIG d   1      -2.130  81.866 117.351  0.00  0.00     0.006 C 
ENDBRANCH   8   9
BRANCH   8  11
ATOM     11  C   LIG d   1       0.206  82.807 115.172  0.00  0.00     0.028 C 
ATOM     12  C   LIG d   1      -0.566  84.075 114.776  0.00  0.00     0.006 C 
ENDBRANCH   8  11
ENDBRANCH   7   8
ENDBRANCH   1   7
BRANCH   6  13
ATOM     13  N   LIG d   1      -1.266  81.999 111.818  0.00  0.00    -0.311 N 
ATOM     14  C   LIG d   1      -0.115  82.519 111.396  0.00  0.00     0.210 C 
ATOM     15  C   LIG d   1      -0.247  83.811 110.585  0.00  0.00     0.109 C 
ATOM     16  O   LIG d   1       1.002  82.014 111.590  0.00  0.00    -0.276 OA
ATOM     17  H   LIG d   1      -2.127  82.456 111.588  0.00  0.00     0.149 HD
ENDBRANCH   6  13
BRANCH   5  18
ATOM     18  N   LIG d   1      -0.502  79.207 110.841  0.00  0.00     0.381 N 
ATOM     19  H   LIG d   1       0.134  79.978 110.816  0.00  0.00    -0.090 HD
ATOM     20  H   LIG d   1      -0.879  79.078 109.919  0.00  0.00    -0.090 HD
ATOM     21  H   LIG d   1      -0.025  78.382 111.131  0.00  0.00    -0.090 HD
ENDBRANCH   5  18
BRANCH   3  22
ATOM     22  C   LIG d   1      -3.412  77.400 114.189  0.00  0.00     0.382 C 
ATOM     23  O   LIG d   1      -2.960  76.244 114.012  0.00  0.00    -0.241 OA
ATOM     24  O   LIG d   1      -4.512  77.549 114.755  0.00  0.00    -0.241 OA
ENDBRANCH   3  22
TORSDOF 7
ENDMDL
MODEL 3
REMARK VINA RESULT:      -4.9      3.001      4.648
REMARK  7 active torsions:
REMARK  status: ('A' for Active; 'I' for Inactive)
REMARK    1  A    between atoms: C_2  and  C_3 
REMARK    2  A    between atoms: C_3  and  O_6 
REMARK    3  A    between atoms: C_3  and  C_4 
REMARK    4  A    between atoms: C_7  and  O_6 
REMARK    5  A    between atoms: C_9  and  C_10 
REMARK    6  A    between atoms: N_15  and  C_14 
REMARK    7  A    between atoms: N_20  and  C_19 
REMARK       I    between atoms: C_22  and  N_20 
ROOT
ATOM      1  C   LIG d   1      -2.588  80.480 114.938  0.00  0.00     0.161 C 
ATOM      2  C   LIG d   1      -2.043  81.735 114.617  0.00  0.00     0.016 C 
ATOM      3  C   LIG d   1      -1.341  81.994 113.417  0.00  0.00     0.038 C 
ATOM      4  C   LIG d   1      -1.268  81.050 112.382  0.00  0.00     0.028 C 
ATOM      5  C   LIG d   1      -1.368  79.609 112.868  0.00  0.00    -0.047 C 
ATOM      6  C   LIG d   1      -2.615  79.469 113.772  0.00  0.00     0.091 C 
ENDROOT
BRANCH   1   7
ATOM      7  O   LIG d   1      -3.911  80.648 115.485  0.00  0.00    -0.368 OA
BRANCH   7   8
ATOM      8  C   LIG d   1      -4.116  80.132 116.823  0.00  0.00     0.119 C 
BRANCH   8   9
ATOM      9  C   LIG d   1      -5.490  79.433 116.844  0.00  0.00     0.028 C 
ATOM     10  C   LIG d   1      -6.610  80.356 117.354  0.00  0.00     0.006 C 
ENDBRANCH   8   9
BRANCH   8  11
ATOM     11  C   LIG d   1      -4.223  81.266 117.848  0.00  0.00     0.028 C 
ATOM     12  C   LIG d   1      -2.872  81.619 118.489  0.00  0.00     0.006 C 
ENDBRANCH   8  11
ENDBRANCH   7   8
ENDBRANCH   1   7
BRANCH   6  13
ATOM     13  N   LIG d   1      -2.740  78.110 114.359  0.00  0.00    -0.311 N 
ATOM     14  C   LIG d   1      -3.455  77.134 113.802  0.00  0.00     0.210 C 
ATOM     15  C   LIG d   1      -3.468  75.815 114.581  0.00  0.00     0.109 C 
ATOM     16  O   LIG d   1      -4.053  77.225 112.719  0.00  0.00    -0.276 OA
ATOM     17  H   LIG d   1      -2.261  77.939 115.221  0.00  0.00     0.149 HD
ENDBRANCH   6  13
BRANCH   5  18
ATOM     18  N   LIG d   1      -1.417  78.739 111.678  0.00  0.00     0.381 N 
ATOM     19  H   LIG d   1      -0.571  78.836 111.153  0.00  0.00    -0.090 HD
ATOM     20  H   LIG d   1      -2.185  79.026 111.097  0.00  0.00    -0.090 HD
ATOM     21  H   LIG d   1      -1.538  77.789 111.954  0.00  0.00    -0.090 HD
ENDBRANCH   5  18
BRANCH   3  22
ATOM     22  C   LIG d   1      -0.669  83.197 113.260  0.00  0.00     0.382 C 
ATOM     23  O   LIG d   1      -1.245  84.277 113.535  0.00  0.00    -0.241 OA
ATOM     24  O   LIG d   1       0.490  83.218 112.805  0.00  0.00    -0.241 OA
ENDBRANCH   3  22
TORSDOF 7
ENDMDL
MODEL 4
REMARK VINA RESULT:      -4.8      3.115      5.934
REMARK  7 active torsions:
REMARK  status: ('A' for Active; 'I' for Inactive)
REMARK    1  A    between atoms: C_2  and  C_3 
REMARK    2  A    between atoms: C_3  and  O_6 
REMARK    3  A    between atoms: C_3  and  C_4 
REMARK    4  A    between atoms: C_7  and  O_6 
REMARK    5  A    between atoms: C_9  and  C_10 
REMARK    6  A    between atoms: N_15  and  C_14 
REMARK    7  A    between atoms: N_20  and  C_19 
REMARK       I    between atoms: C_22  and  N_20 
ROOT
ATOM      1  C   LIG d   1      -2.077  80.413 114.123  0.00  0.00     0.161 C 
ATOM      2  C   LIG d   1      -2.731  79.214 114.452  0.00  0.00     0.016 C 
ATOM      3  C   LIG d   1      -2.728  78.071 113.619  0.00  0.00     0.038 C 
ATOM      4  C   LIG d   1      -1.938  78.000 112.462  0.00  0.00     0.028 C 
ATOM      5  C   LIG d   1      -1.663  79.361 111.831  0.00  0.00    -0.047 C 
ATOM      6  C   LIG d   1      -1.118  80.316 112.918  0.00  0.00     0.091 C 
ENDROOT
BRANCH   1   7
ATOM      7  O   LIG d   1      -1.381  80.922 115.278  0.00  0.00    -0.368 OA
BRANCH   7   8
ATOM      8  C   LIG d   1      -1.918  82.135 115.862  0.00  0.00     0.119 C 
BRANCH   8   9
ATOM      9  C   LIG d   1      -0.857  83.239 115.693  0.00  0.00     0.028 C 
ATOM     10  C   LIG d   1      -1.309  84.344 114.724  0.00  0.00     0.006 C 
ENDBRANCH   8   9
BRANCH   8  11
ATOM     11  C   LIG d   1      -2.111  81.986 117.374  0.00  0.00     0.028 C 
ATOM     12  C   LIG d   1      -3.462  81.353 117.742  0.00  0.00     0.006 C 
ENDBRANCH   8  11
ENDBRANCH   7   8
ENDBRANCH   1   7
BRANCH   6  13
ATOM     13  N   LIG d   1      -0.902  81.694 112.404  0.00  0.00    -0.311 N 
ATOM     14  C   LIG d   1       0.262  82.120 111.916  0.00  0.00     0.210 C 
ATOM     15  C   LIG d   1       0.274  83.582 111.458  0.00  0.00     0.109 C 
ATOM     16  O   LIG d   1       1.275  81.417 111.789  0.00  0.00    -0.276 OA
ATOM     17  H   LIG d   1      -1.681  82.322 112.440  0.00  0.00     0.149 HD
ENDBRANCH   6  13
BRANCH   5  18
ATOM     18  N   LIG d   1      -0.718  79.153 110.718  0.00  0.00     0.381 N 
ATOM     19  H   LIG d   1      -1.170  78.652 109.979  0.00  0.00    -0.090 HD
ATOM     20  H   LIG d   1       0.055  78.601 111.046  0.00  0.00    -0.090 HD
ATOM     21  H   LIG d   1      -0.389  80.031 110.381  0.00  0.00    -0.090 HD
ENDBRANCH   5  18
BRANCH   3  22
ATOM     22  C   LIG d   1      -3.552  76.998 113.921  0.00  0.00     0.382 C 
ATOM     23  O   LIG d   1      -3.055  75.869 114.146  0.00  0.00    -0.241 OA
ATOM     24  O   LIG d   1      -4.790  77.136 113.928  0.00  0.00    -0.241 OA
ENDBRANCH   3  22
TORSDOF 7
ENDMDL
MODEL 5
REMARK VINA RESULT:      -4.8      3.846      6.582
REMARK  7 active torsions:
REMARK  status: ('A' for Active; 'I' for Inactive)
REMARK    1  A    between atoms: C_2  and  C_3 
REMARK    2  A    between atoms: C_3  and  O_6 
REMARK    3  A    between atoms: C_3  and  C_4 
REMARK    4  A    between atoms: C_7  and  O_6 
REMARK    5  A    between atoms: C_9  and  C_10 
REMARK    6  A    between atoms: N_15  and  C_14 
REMARK    7  A    between atoms: N_20  and  C_19 
REMARK       I    between atoms: C_22  and  N_20 
ROOT
ATOM      1  C   LIG d   1      -4.255  78.943 116.061  0.00  0.00     0.161 C 
ATOM      2  C   LIG d   1      -3.825  77.897 115.228  0.00  0.00     0.016 C 
ATOM      3  C   LIG d   1      -4.591  76.734 114.982  0.00  0.00     0.038 C 
ATOM      4  C   LIG d   1      -5.913  76.607 115.435  0.00  0.00     0.028 C 
ATOM      5  C   LIG d   1      -6.201  77.414 116.696  0.00  0.00    -0.047 C 
ATOM      6  C   LIG d   1      -5.740  78.873 116.475  0.00  0.00     0.091 C 
ENDROOT
BRANCH   1   7
ATOM      7  O   LIG d   1      -3.968  80.212 115.439  0.00  0.00    -0.368 OA
BRANCH   7   8
ATOM      8  C   LIG d   1      -2.731  80.852 115.838  0.00  0.00     0.119 C 
BRANCH   8   9
ATOM      9  C   LIG d   1      -3.066  81.838 116.974  0.00  0.00     0.028 C 
ATOM     10  C   LIG d   1      -2.553  81.355 118.341  0.00  0.00     0.006 C 
ENDBRANCH   8   9
BRANCH   8  11
ATOM     11  C   LIG d   1      -2.160  81.714 114.709  0.00  0.00     0.028 C 
ATOM     12  C   LIG d   1      -2.172  83.215 115.039  0.00  0.00     0.006 C 
ENDBRANCH   8  11
ENDBRANCH   7   8
ENDBRANCH   1   7
BRANCH   6  13
ATOM     13  N   LIG d   1      -5.908  79.711 117.690  0.00  0.00    -0.311 N 
ATOM     14  C   LIG d   1      -6.597  80.851 117.705  0.00  0.00     0.210 C 
ATOM     15  C   LIG d   1      -6.629  81.569 119.058  0.00  0.00     0.109 C 
ATOM     16  O   LIG d   1      -7.212  81.318 116.735  0.00  0.00    -0.276 OA
ATOM     17  H   LIG d   1      -5.468  79.390 118.530  0.00  0.00     0.149 HD
ENDBRANCH   6  13
BRANCH   5  18
ATOM     18  N   LIG d   1      -7.644  77.300 116.979  0.00  0.00     0.381 N 
ATOM     19  H   LIG d   1      -7.874  76.351 117.193  0.00  0.00    -0.090 HD
ATOM     20  H   LIG d   1      -8.158  77.572 116.159  0.00  0.00    -0.090 HD
ATOM     21  H   LIG d   1      -7.889  77.890 117.743  0.00  0.00    -0.090 HD
ENDBRANCH   5  18
BRANCH   3  22
ATOM     22  C   LIG d   1      -4.021  75.665 114.307  0.00  0.00     0.382 C 
ATOM     23  O   LIG d   1      -2.775  75.514 114.312  0.00  0.00    -0.241 OA
ATOM     24  O   LIG d   1      -4.732  74.876 113.658  0.00  0.00    -0.241 OA
ENDBRANCH   3  22
TORSDOF 7
ENDMDL
MODEL 6
REMARK VINA RESULT:      -4.8      2.961      4.531
REMARK  7 active torsions:
REMARK  status: ('A' for Active; 'I' for Inactive)
REMARK    1  A    between atoms: C_2  and  C_3 
REMARK    2  A    between atoms: C_3  and  O_6 
REMARK    3  A    between atoms: C_3  and  C_4 
REMARK    4  A    between atoms: C_7  and  O_6 
REMARK    5  A    between atoms: C_9  and  C_10 
REMARK    6  A    between atoms: N_15  and  C_14 
REMARK    7  A    between atoms: N_20  and  C_19 
REMARK       I    between atoms: C_22  and  N_20 
ROOT
ATOM      1  C   LIG d   1      -2.255  81.048 114.498  0.00  0.00     0.161 C 
ATOM      2  C   LIG d   1      -1.674  82.262 114.096  0.00  0.00     0.016 C 
ATOM      3  C   LIG d   1      -0.967  82.422 112.883  0.00  0.00     0.038 C 
ATOM      4  C   LIG d   1      -0.922  81.411 111.912  0.00  0.00     0.028 C 
ATOM      5  C   LIG d   1      -1.064  80.008 112.492  0.00  0.00    -0.047 C 
ATOM      6  C   LIG d   1      -2.313  79.964 113.402  0.00  0.00     0.091 C 
ENDROOT
BRANCH   1   7
ATOM      7  O   LIG d   1      -3.572  81.290 115.033  0.00  0.00    -0.368 OA
BRANCH   7   8
ATOM      8  C   LIG d   1      -3.701  81.203 116.473  0.00  0.00     0.119 C 
BRANCH   8   9
ATOM      9  C   LIG d   1      -2.309  80.865 117.043  0.00  0.00     0.028 C 
ATOM     10  C   LIG d   1      -1.893  81.815 118.179  0.00  0.00     0.006 C 
ENDBRANCH   8   9
BRANCH   8  11
ATOM     11  C   LIG d   1      -4.601  80.034 116.883  0.00  0.00     0.028 C 
ATOM     12  C   LIG d   1      -6.017  80.483 117.278  0.00  0.00     0.006 C 
ENDBRANCH   8  11
ENDBRANCH   7   8
ENDBRANCH   1   7
BRANCH   6  13
ATOM     13  N   LIG d   1      -2.477  78.650 114.076  0.00  0.00    -0.311 N 
ATOM     14  C   LIG d   1      -3.137  77.627 113.536  0.00  0.00     0.210 C 
ATOM     15  C   LIG d   1      -3.205  76.369 114.409  0.00  0.00     0.109 C 
ATOM     16  O   LIG d   1      -3.644  77.630 112.405  0.00  0.00    -0.276 OA
ATOM     17  H   LIG d   1      -2.070  78.550 114.985  0.00  0.00     0.149 HD
ENDBRANCH   6  13
BRANCH   5  18
ATOM     18  N   LIG d   1      -1.139  79.063 111.361  0.00  0.00     0.381 N 
ATOM     19  H   LIG d   1      -0.316  78.495 111.339  0.00  0.00    -0.090 HD
ATOM     20  H   LIG d   1      -1.185  79.586 110.504  0.00  0.00    -0.090 HD
ATOM     21  H   LIG d   1      -1.947  78.488 111.451  0.00  0.00    -0.090 HD
ENDBRANCH   5  18
BRANCH   3  22
ATOM     22  C   LIG d   1      -0.260  83.592 112.648  0.00  0.00     0.382 C 
ATOM     23  O   LIG d   1       0.993  83.567 112.591  0.00  0.00    -0.241 OA
ATOM     24  O   LIG d   1      -0.858  84.679 112.536  0.00  0.00    -0.241 OA
ENDBRANCH   3  22
TORSDOF 7
ENDMDL
MODEL 7
REMARK VINA RESULT:      -4.7      3.030      5.648
REMARK  7 active torsions:
REMARK  status: ('A' for Active; 'I' for Inactive)
REMARK    1  A    between atoms: C_2  and  C_3 
REMARK    2  A    between atoms: C_3  and  O_6 
REMARK    3  A    between atoms: C_3  and  C_4 
REMARK    4  A    between atoms: C_7  and  O_6 
REMARK    5  A    between atoms: C_9  and  C_10 
REMARK    6  A    between atoms: N_15  and  C_14 
REMARK    7  A    between atoms: N_20  and  C_19 
REMARK       I    between atoms: C_22  and  N_20 
ROOT
ATOM      1  C   LIG d   1      -2.407  80.151 114.557  0.00  0.00     0.161 C 
ATOM      2  C   LIG d   1      -3.043  78.907 114.693  0.00  0.00     0.016 C 
ATOM      3  C   LIG d   1      -2.970  77.884 113.719  0.00  0.00     0.038 C 
ATOM      4  C   LIG d   1      -2.125  77.982 112.604  0.00  0.00     0.028 C 
ATOM      5  C   LIG d   1      -1.858  79.420 112.171  0.00  0.00    -0.047 C 
ATOM      6  C   LIG d   1      -1.391  80.235 113.399  0.00  0.00     0.091 C 
ENDROOT
BRANCH   1   7
ATOM      7  O   LIG d   1      -1.779  80.518 115.802  0.00  0.00    -0.368 OA
BRANCH   7   8
ATOM      8  C   LIG d   1      -2.286  81.715 116.442  0.00  0.00     0.119 C 
BRANCH   8   9
ATOM      9  C   LIG d   1      -1.134  82.322 117.266  0.00  0.00     0.028 C 
ATOM     10  C   LIG d   1       0.040  82.781 116.385  0.00  0.00     0.006 C 
ENDBRANCH   8   9
BRANCH   8  11
ATOM     11  C   LIG d   1      -3.380  81.381 117.460  0.00  0.00     0.028 C 
ATOM     12  C   LIG d   1      -2.940  81.630 118.912  0.00  0.00     0.006 C 
ENDBRANCH   8  11
ENDBRANCH   7   8
ENDBRANCH   1   7
BRANCH   6  13
ATOM     13  N   LIG d   1      -1.188  81.673 113.081  0.00  0.00    -0.311 N 
ATOM     14  C   LIG d   1      -0.011  82.186 112.729  0.00  0.00     0.210 C 
ATOM     15  C   LIG d   1      -0.017  83.695 112.464  0.00  0.00     0.109 C 
ATOM     16  O   LIG d   1       1.031  81.530 112.580  0.00  0.00    -0.276 OA
ATOM     17  H   LIG d   1      -1.987  82.271 113.147  0.00  0.00     0.149 HD
ENDBRANCH   6  13
BRANCH   5  18
ATOM     18  N   LIG d   1      -0.856  79.381 111.088  0.00  0.00     0.381 N 
ATOM     19  H   LIG d   1      -0.874  80.242 110.580  0.00  0.00    -0.090 HD
ATOM     20  H   LIG d   1      -1.091  78.636 110.456  0.00  0.00    -0.090 HD
ATOM     21  H   LIG d   1       0.052  79.230 111.469  0.00  0.00    -0.090 HD
ENDBRANCH   5  18
BRANCH   3  22
ATOM     22  C   LIG d   1      -3.779  76.764 113.836  0.00  0.00     0.382 C 
ATOM     23  O   LIG d   1      -5.020  76.868 113.683  0.00  0.00    -0.241 OA
ATOM     24  O   LIG d   1      -3.288  75.659 114.137  0.00  0.00    -0.241 OA
ENDBRANCH   3  22
TORSDOF 7
ENDMDL
MODEL 8
REMARK VINA RESULT:      -4.7      3.369      4.421
REMARK  7 active torsions:
REMARK  status: ('A' for Active; 'I' for Inactive)
REMARK    1  A    between atoms: C_2  and  C_3 
REMARK    2  A    between atoms: C_3  and  O_6 
REMARK    3  A    between atoms: C_3  and  C_4 
REMARK    4  A    between atoms: C_7  and  O_6 
REMARK    5  A    between atoms: C_9  and  C_10 
REMARK    6  A    between atoms: N_15  and  C_14 
REMARK    7  A    between atoms: N_20  and  C_19 
REMARK       I    between atoms: C_22  and  N_20 
ROOT
ATOM      1  C   LIG d   1      -3.378  80.209 115.721  0.00  0.00     0.161 C 
ATOM      2  C   LIG d   1      -3.007  81.564 115.713  0.00  0.00     0.016 C 
ATOM      3  C   LIG d   1      -2.090  82.114 114.789  0.00  0.00     0.038 C 
ATOM      4  C   LIG d   1      -1.592  81.373 113.707  0.00  0.00     0.028 C 
ATOM      5  C   LIG d   1      -1.546  79.872 113.971  0.00  0.00    -0.047 C 
ATOM      6  C   LIG d   1      -2.931  79.409 114.479  0.00  0.00     0.091 C 
ENDROOT
BRANCH   1   7
ATOM      7  O   LIG d   1      -4.803  80.093 115.905  0.00  0.00    -0.368 OA
BRANCH   7   8
ATOM      8  C   LIG d   1      -5.272  80.112 117.275  0.00  0.00     0.119 C 
BRANCH   8   9
ATOM      9  C   LIG d   1      -6.312  78.985 117.425  0.00  0.00     0.028 C 
ATOM     10  C   LIG d   1      -6.199  77.931 116.310  0.00  0.00     0.006 C 
ENDBRANCH   8   9
BRANCH   8  11
ATOM     11  C   LIG d   1      -6.030  81.406 117.587  0.00  0.00     0.028 C 
ATOM     12  C   LIG d   1      -7.555  81.241 117.494  0.00  0.00     0.006 C 
ENDBRANCH   8  11
ENDBRANCH   7   8
ENDBRANCH   1   7
BRANCH   6  13
ATOM     13  N   LIG d   1      -2.949  77.968 114.842  0.00  0.00    -0.311 N 
ATOM     14  C   LIG d   1      -3.401  77.013 114.030  0.00  0.00     0.210 C 
ATOM     15  C   LIG d   1      -3.349  75.595 114.608  0.00  0.00     0.109 C 
ATOM     16  O   LIG d   1      -3.811  77.202 112.875  0.00  0.00    -0.276 OA
ATOM     17  H   LIG d   1      -2.606  77.721 115.749  0.00  0.00     0.149 HD
ENDBRANCH   6  13
BRANCH   5  18
ATOM     18  N   LIG d   1      -1.140  79.211 112.717  0.00  0.00     0.381 N 
ATOM     19  H   LIG d   1      -0.475  79.781 112.233  0.00  0.00    -0.090 HD
ATOM     20  H   LIG d   1      -1.948  79.102 112.130  0.00  0.00    -0.090 HD
ATOM     21  H   LIG d   1      -0.741  78.319 112.915  0.00  0.00    -0.090 HD
ENDBRANCH   5  18
BRANCH   3  22
ATOM     22  C   LIG d   1      -1.630  83.410 114.967  0.00  0.00     0.382 C 
ATOM     23  O   LIG d   1      -0.478  83.610 115.422  0.00  0.00    -0.241 OA
ATOM     24  O   LIG d   1      -2.368  84.382 114.719  0.00  0.00    -0.241 OA
ENDBRANCH   3  22
TORSDOF 7
ENDMDL
MODEL 9
REMARK VINA RESULT:      -4.6      2.732      5.924
REMARK  7 active torsions:
REMARK  status: ('A' for Active; 'I' for Inactive)
REMARK    1  A    between atoms: C_2  and  C_3 
REMARK    2  A    between atoms: C_3  and  O_6 
REMARK    3  A    between atoms: C_3  and  C_4 
REMARK    4  A    between atoms: C_7  and  O_6 
REMARK    5  A    between atoms: C_9  and  C_10 
REMARK    6  A    between atoms: N_15  and  C_14 
REMARK    7  A    between atoms: N_20  and  C_19 
REMARK       I    between atoms: C_22  and  N_20 
ROOT
ATOM      1  C   LIG d   1      -2.216  80.129 114.970  0.00  0.00     0.161 C 
ATOM      2  C   LIG d   1      -3.182  79.218 115.428  0.00  0.00     0.016 C 
ATOM      3  C   LIG d   1      -3.522  78.031 114.738  0.00  0.00     0.038 C 
ATOM      4  C   LIG d   1      -2.804  77.596 113.614  0.00  0.00     0.028 C 
ATOM      5  C   LIG d   1      -2.159  78.734 112.830  0.00  0.00    -0.047 C 
ATOM      6  C   LIG d   1      -1.345  79.616 113.804  0.00  0.00     0.091 C 
ENDROOT
BRANCH   1   7
ATOM      7  O   LIG d   1      -1.384  80.551 116.069  0.00  0.00    -0.368 OA
BRANCH   7   8
ATOM      8  C   LIG d   1      -1.604  81.899 116.554  0.00  0.00     0.119 C 
BRANCH   8   9
ATOM      9  C   LIG d   1      -2.319  81.790 117.915  0.00  0.00     0.028 C 
ATOM     10  C   LIG d   1      -1.403  82.172 119.090  0.00  0.00     0.006 C 
ENDBRANCH   8   9
BRANCH   8  11
ATOM     11  C   LIG d   1      -2.572  82.666 115.648  0.00  0.00     0.028 C 
ATOM     12  C   LIG d   1      -1.940  83.923 115.030  0.00  0.00     0.006 C 
ENDBRANCH   8  11
ENDBRANCH   7   8
ENDBRANCH   1   7
BRANCH   6  13
ATOM     13  N   LIG d   1      -0.749  80.800 113.134  0.00  0.00    -0.311 N 
ATOM     14  C   LIG d   1      -1.444  81.631 112.358  0.00  0.00     0.210 C 
ATOM     15  C   LIG d   1      -0.632  82.777 111.747  0.00  0.00     0.109 C 
ATOM     16  O   LIG d   1      -2.662  81.545 112.143  0.00  0.00    -0.276 OA
ATOM     17  H   LIG d   1       0.229  80.963 113.279  0.00  0.00     0.149 HD
ENDBRANCH   6  13
BRANCH   5  18
ATOM     18  N   LIG d   1      -1.332  78.130 111.768  0.00  0.00     0.381 N 
ATOM     19  H   LIG d   1      -1.163  77.166 111.977  0.00  0.00    -0.090 HD
ATOM     20  H   LIG d   1      -0.447  78.605 111.736  0.00  0.00    -0.090 HD
ATOM     21  H   LIG d   1      -1.793  78.212 110.889  0.00  0.00    -0.090 HD
ENDBRANCH   5  18
BRANCH   3  22
ATOM     22  C   LIG d   1      -4.616  77.286 115.150  0.00  0.00     0.382 C 
ATOM     23  O   LIG d   1      -5.644  77.865 115.576  0.00  0.00    -0.241 OA
ATOM     24  O   LIG d   1      -4.571  76.041 115.143  0.00  0.00    -0.241 OA
ENDBRANCH   3  22
TORSDOF 7
ENDMDL
