MODEL 1
REMARK VINA RESULT:      -4.6      0.000      0.000
REMARK  7 active torsions:
REMARK  status: ('A' for Active; 'I' for Inactive)
REMARK    1  A    between atoms: C_2  and  C_3 
REMARK    2  A    between atoms: C_3  and  O_6 
REMARK    3  A    between atoms: C_3  and  C_4 
REMARK    4  A    between atoms: C_7  and  O_6 
REMARK    5  A    between atoms: C_9  and  C_10 
REMARK    6  A    between atoms: N_15  and  C_14 
REMARK    7  A    between atoms: N_20  and  C_19 
REMARK       I    between atoms: C_22  and  N_20 
ROOT
ATOM      1  C   LIG d   1      -3.121  77.740 115.839  0.00  0.00     0.161 C 
ATOM      2  C   LIG d   1      -3.206  78.676 114.795  0.00  0.00     0.016 C 
ATOM      3  C   LIG d   1      -2.375  78.644 113.652  0.00  0.00     0.038 C 
ATOM      4  C   LIG d   1      -1.497  77.578 113.403  0.00  0.00     0.028 C 
ATOM      5  C   LIG d   1      -1.018  76.879 114.671  0.00  0.00    -0.047 C 
ATOM      6  C   LIG d   1      -2.246  76.507 115.533  0.00  0.00     0.091 C 
ENDROOT
BRANCH   1   7
ATOM      7  O   LIG d   1      -4.444  77.330 116.236  0.00  0.00    -0.368 OA
BRANCH   7   8
ATOM      8  C   LIG d   1      -5.189  78.274 117.043  0.00  0.00     0.119 C 
BRANCH   8   9
ATOM      9  C   LIG d   1      -4.429  78.448 118.373  0.00  0.00     0.028 C 
ATOM     10  C   LIG d   1      -4.524  77.202 119.270  0.00  0.00     0.006 C 
ENDBRANCH   8   9
BRANCH   8  11
ATOM     11  C   LIG d   1      -6.562  77.715 117.431  0.00  0.00     0.028 C 
ATOM     12  C   LIG d   1      -6.872  76.373 116.750  0.00  0.00     0.006 C 
ENDBRANCH   8  11
ENDBRANCH   7   8
ENDBRANCH   1   7
BRANCH   6  13
ATOM     13  N   LIG d   1      -1.862  75.894 116.831  0.00  0.00    -0.311 N 
ATOM     14  C   LIG d   1      -2.461  74.819 117.340  0.00  0.00     0.210 C 
ATOM     15  C   LIG d   1      -1.924  74.362 118.700  0.00  0.00     0.109 C 
ATOM     16  O   LIG d   1      -3.365  74.181 116.779  0.00  0.00    -0.276 OA
ATOM     17  H   LIG d   1      -1.116  76.329 117.338  0.00  0.00     0.149 HD
ENDBRANCH   6  13
BRANCH   5  18
ATOM     18  N   LIG d   1      -0.223  75.706 114.260  0.00  0.00     0.381 N 
ATOM     19  H   LIG d   1      -0.088  75.098 115.042  0.00  0.00    -0.090 HD
ATOM     20  H   LIG d   1       0.678  76.019 113.944  0.00  0.00    -0.090 HD
ATOM     21  H   LIG d   1      -0.689  75.218 113.527  0.00  0.00    -0.090 HD
ENDBRANCH   5  18
BRANCH   3  22
ATOM     22  C   LIG d   1      -2.388  79.708 112.762  0.00  0.00     0.382 C 
ATOM     23  O   LIG d   1      -1.473  79.825 111.912  0.00  0.00    -0.241 OA
ATOM     24  O   LIG d   1      -3.279  80.576 112.829  0.00  0.00    -0.241 OA
ENDBRANCH   3  22
TORSDOF 7
ENDMDL
MODEL 2
REMARK VINA RESULT:      -4.6      2.026      2.544
REMARK  7 active torsions:
REMARK  status: ('A' for Active; 'I' for Inactive)
REMARK    1  A    between atoms: C_2  and  C_3 
REMARK    2  A    between atoms: C_3  and  O_6 
REMARK    3  A    between atoms: C_3  and  C_4 
REMARK    4  A    between atoms: C_7  and  O_6 
REMARK    5  A    between atoms: C_9  and  C_10 
REMARK    6  A    between atoms: N_15  and  C_14 
REMARK    7  A    between atoms: N_20  and  C_19 
REMARK       I    between atoms: C_22  and  N_20 
ROOT
ATOM      1  C   LIG d   1      -2.472  75.747 116.765  0.00  0.00     0.161 C 
ATOM      2  C   LIG d   1      -2.953  76.597 115.755  0.00  0.00     0.016 C 
ATOM      3  C   LIG d   1      -2.217  76.917 114.591  0.00  0.00     0.038 C 
ATOM      4  C   LIG d   1      -1.003  76.285 114.285  0.00  0.00     0.028 C 
ATOM      5  C   LIG d   1      -0.243  75.803 115.516  0.00  0.00    -0.047 C 
ATOM      6  C   LIG d   1      -1.197  74.961 116.395  0.00  0.00     0.091 C 
ENDROOT
BRANCH   1   7
ATOM      7  O   LIG d   1      -3.515  74.843 117.181  0.00  0.00    -0.368 OA
BRANCH   7   8
ATOM      8  C   LIG d   1      -4.874  75.298 116.970  0.00  0.00     0.119 C 
BRANCH   8   9
ATOM      9  C   LIG d   1      -5.473  75.622 118.352  0.00  0.00     0.028 C 
ATOM     10  C   LIG d   1      -5.429  77.125 118.673  0.00  0.00     0.006 C 
ENDBRANCH   8   9
BRANCH   8  11
ATOM     11  C   LIG d   1      -5.753  74.181 116.398  0.00  0.00     0.028 C 
ATOM     12  C   LIG d   1      -7.175  74.186 116.980  0.00  0.00     0.006 C 
ENDBRANCH   8  11
ENDBRANCH   7   8
ENDBRANCH   1   7
BRANCH   6  13
ATOM     13  N   LIG d   1      -0.557  74.520 117.662  0.00  0.00    -0.311 N 
ATOM     14  C   LIG d   1      -0.078  75.364 118.574  0.00  0.00     0.210 C 
ATOM     15  C   LIG d   1       0.559  74.700 119.799  0.00  0.00     0.109 C 
ATOM     16  O   LIG d   1      -0.149  76.600 118.501  0.00  0.00    -0.276 OA
ATOM     17  H   LIG d   1      -0.486  73.534 117.818  0.00  0.00     0.149 HD
ENDBRANCH   6  13
BRANCH   5  18
ATOM     18  N   LIG d   1       0.931  75.044 115.046  0.00  0.00     0.381 N 
ATOM     19  H   LIG d   1       0.687  74.509 114.237  0.00  0.00    -0.090 HD
ATOM     20  H   LIG d   1       1.218  74.408 115.770  0.00  0.00    -0.090 HD
ATOM     21  H   LIG d   1       1.676  75.668 114.828  0.00  0.00    -0.090 HD
ENDBRANCH   5  18
BRANCH   3  22
ATOM     22  C   LIG d   1      -2.677  77.910 113.739  0.00  0.00     0.382 C 
ATOM     23  O   LIG d   1      -3.522  77.634 112.854  0.00  0.00    -0.241 OA
ATOM     24  O   LIG d   1      -2.224  79.067 113.815  0.00  0.00    -0.241 OA
ENDBRANCH   3  22
TORSDOF 7
ENDMDL
MODEL 3
REMARK VINA RESULT:      -4.4      2.268      5.136
REMARK  7 active torsions:
REMARK  status: ('A' for Active; 'I' for Inactive)
REMARK    1  A    between atoms: C_2  and  C_3 
REMARK    2  A    between atoms: C_3  and  O_6 
REMARK    3  A    between atoms: C_3  and  C_4 
REMARK    4  A    between atoms: C_7  and  O_6 
REMARK    5  A    between atoms: C_9  and  C_10 
REMARK    6  A    between atoms: N_15  and  C_14 
REMARK    7  A    between atoms: N_20  and  C_19 
REMARK       I    between atoms: C_22  and  N_20 
ROOT
ATOM      1  C   LIG d   1      -1.933  76.248 115.600  0.00  0.00     0.161 C 
ATOM      2  C   LIG d   1      -1.778  75.521 116.793  0.00  0.00     0.016 C 
ATOM      3  C   LIG d   1      -1.038  75.993 117.901  0.00  0.00     0.038 C 
ATOM      4  C   LIG d   1      -0.526  77.299 117.949  0.00  0.00     0.028 C 
ATOM      5  C   LIG d   1      -0.226  77.883 116.573  0.00  0.00    -0.047 C 
ATOM      6  C   LIG d   1      -1.475  77.719 115.676  0.00  0.00     0.091 C 
ENDROOT
BRANCH   1   7
ATOM      7  O   LIG d   1      -3.302  76.171 115.156  0.00  0.00    -0.368 OA
BRANCH   7   8
ATOM      8  C   LIG d   1      -4.304  76.059 116.196  0.00  0.00     0.119 C 
BRANCH   8   9
ATOM      9  C   LIG d   1      -5.433  75.160 115.656  0.00  0.00     0.028 C 
ATOM     10  C   LIG d   1      -5.963  74.182 116.717  0.00  0.00     0.006 C 
ENDBRANCH   8   9
BRANCH   8  11
ATOM     11  C   LIG d   1      -4.964  77.411 116.483  0.00  0.00     0.028 C 
ATOM     12  C   LIG d   1      -4.696  77.914 117.910  0.00  0.00     0.006 C 
ENDBRANCH   8  11
ENDBRANCH   7   8
ENDBRANCH   1   7
BRANCH   6  13
ATOM     13  N   LIG d   1      -1.239  78.189 114.286  0.00  0.00    -0.311 N 
ATOM     14  C   LIG d   1      -2.095  78.960 113.617  0.00  0.00     0.210 C 
ATOM     15  C   LIG d   1      -1.668  79.313 112.189  0.00  0.00     0.109 C 
ATOM     16  O   LIG d   1      -3.153  79.411 114.083  0.00  0.00    -0.276 OA
ATOM     17  H   LIG d   1      -0.391  77.895 113.843  0.00  0.00     0.149 HD
ENDBRANCH   6  13
BRANCH   5  18
ATOM     18  N   LIG d   1       0.169  79.291 116.763  0.00  0.00     0.381 N 
ATOM     19  H   LIG d   1       0.981  79.339 117.344  0.00  0.00    -0.090 HD
ATOM     20  H   LIG d   1      -0.579  79.779 117.224  0.00  0.00    -0.090 HD
ATOM     21  H   LIG d   1       0.357  79.714 115.881  0.00  0.00    -0.090 HD
ENDBRANCH   5  18
BRANCH   3  22
ATOM     22  C   LIG d   1      -0.770  75.142 118.962  0.00  0.00     0.382 C 
ATOM     23  O   LIG d   1       0.392  75.067 119.428  0.00  0.00    -0.241 OA
ATOM     24  O   LIG d   1      -1.666  74.414 119.430  0.00  0.00    -0.241 OA
ENDBRANCH   3  22
TORSDOF 7
ENDMDL
MODEL 4
REMARK VINA RESULT:      -4.2      2.189      5.351
REMARK  7 active torsions:
REMARK  status: ('A' for Active; 'I' for Inactive)
REMARK    1  A    between atoms: C_2  and  C_3 
REMARK    2  A    between atoms: C_3  and  O_6 
REMARK    3  A    between atoms: C_3  and  C_4 
REMARK    4  A    between atoms: C_7  and  O_6 
REMARK    5  A    between atoms: C_9  and  C_10 
REMARK    6  A    between atoms: N_15  and  C_14 
REMARK    7  A    between atoms: N_20  and  C_19 
REMARK       I    between atoms: C_22  and  N_20 
ROOT
ATOM      1  C   LIG d   1      -1.911  77.763 114.547  0.00  0.00     0.161 C 
ATOM      2  C   LIG d   1      -2.663  78.389 115.556  0.00  0.00     0.016 C 
ATOM      3  C   LIG d   1      -2.918  77.799 116.816  0.00  0.00     0.038 C 
ATOM      4  C   LIG d   1      -2.307  76.600 117.210  0.00  0.00     0.028 C 
ATOM      5  C   LIG d   1      -1.948  75.690 116.040  0.00  0.00    -0.047 C 
ATOM      6  C   LIG d   1      -1.144  76.503 115.000  0.00  0.00     0.091 C 
ENDROOT
BRANCH   1   7
ATOM      7  O   LIG d   1      -1.006  78.713 113.951  0.00  0.00    -0.368 OA
BRANCH   7   8
ATOM      8  C   LIG d   1      -1.179  78.955 112.533  0.00  0.00     0.119 C 
BRANCH   8   9
ATOM      9  C   LIG d   1      -0.314  80.176 112.164  0.00  0.00     0.028 C 
ATOM     10  C   LIG d   1       0.365  80.021 110.792  0.00  0.00     0.006 C 
ENDBRANCH   8   9
BRANCH   8  11
ATOM     11  C   LIG d   1      -2.619  79.365 112.209  0.00  0.00     0.028 C 
ATOM     12  C   LIG d   1      -2.931  80.814 112.614  0.00  0.00     0.006 C 
ENDBRANCH   8  11
ENDBRANCH   7   8
ENDBRANCH   1   7
BRANCH   6  13
ATOM     13  N   LIG d   1      -0.825  75.710 113.784  0.00  0.00    -0.311 N 
ATOM     14  C   LIG d   1       0.249  74.929 113.679  0.00  0.00     0.210 C 
ATOM     15  C   LIG d   1       0.400  74.215 112.332  0.00  0.00     0.109 C 
ATOM     16  O   LIG d   1       1.074  74.736 114.584  0.00  0.00    -0.276 OA
ATOM     17  H   LIG d   1      -1.459  75.783 113.012  0.00  0.00     0.149 HD
ENDBRANCH   6  13
BRANCH   5  18
ATOM     18  N   LIG d   1      -1.196  74.542 116.583  0.00  0.00     0.381 N 
ATOM     19  H   LIG d   1      -0.407  74.870 117.104  0.00  0.00    -0.090 HD
ATOM     20  H   LIG d   1      -0.859  73.983 115.818  0.00  0.00    -0.090 HD
ATOM     21  H   LIG d   1      -1.787  73.994 117.169  0.00  0.00    -0.090 HD
ENDBRANCH   5  18
BRANCH   3  22
ATOM     22  C   LIG d   1      -3.824  78.392 117.681  0.00  0.00     0.382 C 
ATOM     23  O   LIG d   1      -4.953  78.746 117.261  0.00  0.00    -0.241 OA
ATOM     24  O   LIG d   1      -3.512  78.619 118.865  0.00  0.00    -0.241 OA
ENDBRANCH   3  22
TORSDOF 7
ENDMDL
MODEL 5
REMARK VINA RESULT:      -4.2      2.605      4.713
REMARK  7 active torsions:
REMARK  status: ('A' for Active; 'I' for Inactive)
REMARK    1  A    between atoms: C_2  and  C_3 
REMARK    2  A    between atoms: C_3  and  O_6 
REMARK    3  A    between atoms: C_3  and  C_4 
REMARK    4  A    between atoms: C_7  and  O_6 
REMARK    5  A    between atoms: C_9  and  C_10 
REMARK    6  A    between atoms: N_15  and  C_14 
REMARK    7  A    between atoms: N_20  and  C_19 
REMARK       I    between atoms: C_22  and  N_20 
ROOT
ATOM      1  C   LIG d   1      -2.699  76.014 116.454  0.00  0.00     0.161 C 
ATOM      2  C   LIG d   1      -1.661  75.308 115.823  0.00  0.00     0.016 C 
ATOM      3  C   LIG d   1      -0.974  75.787 114.684  0.00  0.00     0.038 C 
ATOM      4  C   LIG d   1      -1.177  77.082 114.186  0.00  0.00     0.028 C 
ATOM      5  C   LIG d   1      -2.568  77.634 114.482  0.00  0.00    -0.047 C 
ATOM      6  C   LIG d   1      -2.858  77.478 115.992  0.00  0.00     0.091 C 
ENDROOT
BRANCH   1   7
ATOM      7  O   LIG d   1      -2.530  75.956 117.884  0.00  0.00    -0.368 OA
BRANCH   7   8
ATOM      8  C   LIG d   1      -1.174  75.771 118.359  0.00  0.00     0.119 C 
BRANCH   8   9
ATOM      9  C   LIG d   1      -1.240  74.869 119.607  0.00  0.00     0.028 C 
ATOM     10  C   LIG d   1       0.103  74.181 119.905  0.00  0.00     0.006 C 
ENDBRANCH   8   9
BRANCH   8  11
ATOM     11  C   LIG d   1      -0.569  77.091 118.844  0.00  0.00     0.028 C 
ATOM     12  C   LIG d   1       0.417  77.701 117.835  0.00  0.00     0.006 C 
ENDBRANCH   8  11
ENDBRANCH   7   8
ENDBRANCH   1   7
BRANCH   6  13
ATOM     13  N   LIG d   1      -4.232  77.916 116.353  0.00  0.00    -0.311 N 
ATOM     14  C   LIG d   1      -4.509  78.643 117.434  0.00  0.00     0.210 C 
ATOM     15  C   LIG d   1      -5.993  78.969 117.631  0.00  0.00     0.109 C 
ATOM     16  O   LIG d   1      -3.663  79.075 118.232  0.00  0.00    -0.276 OA
ATOM     17  H   LIG d   1      -4.975  77.636 115.744  0.00  0.00     0.149 HD
ENDBRANCH   6  13
BRANCH   5  18
ATOM     18  N   LIG d   1      -2.596  79.038 114.030  0.00  0.00     0.381 N 
ATOM     19  H   LIG d   1      -3.421  79.488 114.373  0.00  0.00    -0.090 HD
ATOM     20  H   LIG d   1      -2.622  79.056 113.026  0.00  0.00    -0.090 HD
ATOM     21  H   LIG d   1      -1.786  79.518 114.357  0.00  0.00    -0.090 HD
ENDBRANCH   5  18
BRANCH   3  22
ATOM     22  C   LIG d   1      -0.100  74.950 114.006  0.00  0.00     0.382 C 
ATOM     23  O   LIG d   1      -0.399  74.523 112.865  0.00  0.00    -0.241 OA
ATOM     24  O   LIG d   1       0.964  74.582 114.540  0.00  0.00    -0.241 OA
ENDBRANCH   3  22
TORSDOF 7
ENDMDL
MODEL 6
REMARK VINA RESULT:      -4.1      2.811      3.680
REMARK  7 active torsions:
REMARK  status: ('A' for Active; 'I' for Inactive)
REMARK    1  A    between atoms: C_2  and  C_3 
REMARK    2  A    between atoms: C_3  and  O_6 
REMARK    3  A    between atoms: C_3  and  C_4 
REMARK    4  A    between atoms: C_7  and  O_6 
REMARK    5  A    between atoms: C_9  and  C_10 
REMARK    6  A    between atoms: N_15  and  C_14 
REMARK    7  A    between atoms: N_20  and  C_19 
REMARK       I    between atoms: C_22  and  N_20 
ROOT
ATOM      1  C   LIG d   1      -3.510  78.195 117.697  0.00  0.00     0.161 C 
ATOM      2  C   LIG d   1      -2.499  79.115 118.022  0.00  0.00     0.016 C 
ATOM      3  C   LIG d   1      -1.177  79.025 117.530  0.00  0.00     0.038 C 
ATOM      4  C   LIG d   1      -0.811  78.087 116.553  0.00  0.00     0.028 C 
ATOM      5  C   LIG d   1      -1.667  76.824 116.576  0.00  0.00    -0.047 C 
ATOM      6  C   LIG d   1      -3.159  77.229 116.546  0.00  0.00     0.091 C 
ENDROOT
BRANCH   1   7
ATOM      7  O   LIG d   1      -4.735  78.896 117.407  0.00  0.00    -0.368 OA
BRANCH   7   8
ATOM      8  C   LIG d   1      -5.789  78.772 118.393  0.00  0.00     0.119 C 
BRANCH   8   9
ATOM      9  C   LIG d   1      -7.018  78.170 117.684  0.00  0.00     0.028 C 
ATOM     10  C   LIG d   1      -7.504  76.873 118.352  0.00  0.00     0.006 C 
ENDBRANCH   8   9
BRANCH   8  11
ATOM     11  C   LIG d   1      -6.244  80.144 118.898  0.00  0.00     0.028 C 
ATOM     12  C   LIG d   1      -7.194  80.854 117.920  0.00  0.00     0.006 C 
ENDBRANCH   8  11
ENDBRANCH   7   8
ENDBRANCH   1   7
BRANCH   6  13
ATOM     13  N   LIG d   1      -4.066  76.056 116.650  0.00  0.00    -0.311 N 
ATOM     14  C   LIG d   1      -4.899  75.685 115.679  0.00  0.00     0.210 C 
ATOM     15  C   LIG d   1      -5.761  74.460 116.000  0.00  0.00     0.109 C 
ATOM     16  O   LIG d   1      -4.982  76.235 114.571  0.00  0.00    -0.276 OA
ATOM     17  H   LIG d   1      -4.041  75.534 117.504  0.00  0.00     0.149 HD
ENDBRANCH   6  13
BRANCH   5  18
ATOM     18  N   LIG d   1      -1.269  75.996 115.422  0.00  0.00     0.381 N 
ATOM     19  H   LIG d   1      -1.402  76.510 114.574  0.00  0.00    -0.090 HD
ATOM     20  H   LIG d   1      -1.855  75.180 115.391  0.00  0.00    -0.090 HD
ATOM     21  H   LIG d   1      -0.314  75.726 115.509  0.00  0.00    -0.090 HD
ENDBRANCH   5  18
BRANCH   3  22
ATOM     22  C   LIG d   1      -0.194  79.855 118.046  0.00  0.00     0.382 C 
ATOM     23  O   LIG d   1       0.585  80.462 117.272  0.00  0.00    -0.241 OA
ATOM     24  O   LIG d   1      -0.047  79.971 119.278  0.00  0.00    -0.241 OA
ENDBRANCH   3  22
TORSDOF 7
ENDMDL
MODEL 7
REMARK VINA RESULT:      -4.0      1.542      1.927
REMARK  7 active torsions:
REMARK  status: ('A' for Active; 'I' for Inactive)
REMARK    1  A    between atoms: C_2  and  C_3 
REMARK    2  A    between atoms: C_3  and  O_6 
REMARK    3  A    between atoms: C_3  and  C_4 
REMARK    4  A    between atoms: C_7  and  O_6 
REMARK    5  A    between atoms: C_9  and  C_10 
REMARK    6  A    between atoms: N_15  and  C_14 
REMARK    7  A    between atoms: N_20  and  C_19 
REMARK       I    between atoms: C_22  and  N_20 
ROOT
ATOM      1  C   LIG d   1      -1.512  77.569 116.921  0.00  0.00     0.161 C 
ATOM      2  C   LIG d   1      -1.815  78.341 115.787  0.00  0.00     0.016 C 
ATOM      3  C   LIG d   1      -1.628  77.884 114.462  0.00  0.00     0.038 C 
ATOM      4  C   LIG d   1      -1.264  76.559 114.179  0.00  0.00     0.028 C 
ATOM      5  C   LIG d   1      -0.463  75.899 115.296  0.00  0.00    -0.047 C 
ATOM      6  C   LIG d   1      -1.220  76.082 116.632  0.00  0.00     0.091 C 
ENDROOT
BRANCH   1   7
ATOM      7  O   LIG d   1      -2.570  77.692 117.892  0.00  0.00    -0.368 OA
BRANCH   7   8
ATOM      8  C   LIG d   1      -3.859  77.159 117.502  0.00  0.00     0.119 C 
BRANCH   8   9
ATOM      9  C   LIG d   1      -4.733  78.345 117.051  0.00  0.00     0.028 C 
ATOM     10  C   LIG d   1      -5.063  79.304 118.208  0.00  0.00     0.006 C 
ENDBRANCH   8   9
BRANCH   8  11
ATOM     11  C   LIG d   1      -4.593  76.545 118.697  0.00  0.00     0.028 C 
ATOM     12  C   LIG d   1      -5.734  75.604 118.277  0.00  0.00     0.006 C 
ENDBRANCH   8  11
ENDBRANCH   7   8
ENDBRANCH   1   7
BRANCH   6  13
ATOM     13  N   LIG d   1      -0.464  75.539 117.790  0.00  0.00    -0.311 N 
ATOM     14  C   LIG d   1      -0.979  74.670 118.659  0.00  0.00     0.210 C 
ATOM     15  C   LIG d   1      -0.036  74.253 119.792  0.00  0.00     0.109 C 
ATOM     16  O   LIG d   1      -2.116  74.181 118.581  0.00  0.00    -0.276 OA
ATOM     17  H   LIG d   1       0.477  75.858 117.912  0.00  0.00     0.149 HD
ENDBRANCH   6  13
BRANCH   5  18
ATOM     18  N   LIG d   1      -0.271  74.483 114.930  0.00  0.00     0.381 N 
ATOM     19  H   LIG d   1       0.496  74.101 115.446  0.00  0.00    -0.090 HD
ATOM     20  H   LIG d   1      -0.051  74.427 113.951  0.00  0.00    -0.090 HD
ATOM     21  H   LIG d   1      -1.100  73.965 115.121  0.00  0.00    -0.090 HD
ENDBRANCH   5  18
BRANCH   3  22
ATOM     22  C   LIG d   1      -1.766  78.769 113.404  0.00  0.00     0.382 C 
ATOM     23  O   LIG d   1      -2.882  78.912 112.848  0.00  0.00    -0.241 OA
ATOM     24  O   LIG d   1      -0.780  79.393 112.969  0.00  0.00    -0.241 OA
ENDBRANCH   3  22
TORSDOF 7
ENDMDL
MODEL 8
REMARK VINA RESULT:      -3.9      2.893      5.540
REMARK  7 active torsions:
REMARK  status: ('A' for Active; 'I' for Inactive)
REMARK    1  A    between atoms: C_2  and  C_3 
REMARK    2  A    between atoms: C_3  and  O_6 
REMARK    3  A    between atoms: C_3  and  C_4 
REMARK    4  A    between atoms: C_7  and  O_6 
REMARK    5  A    between atoms: C_9  and  C_10 
REMARK    6  A    between atoms: N_15  and  C_14 
REMARK    7  A    between atoms: N_20  and  C_19 
REMARK       I    between atoms: C_22  and  N_20 
ROOT
ATOM      1  C   LIG d   1      -2.859  74.370 116.850  0.00  0.00     0.161 C 
ATOM      2  C   LIG d   1      -4.180  74.559 116.411  0.00  0.00     0.016 C 
ATOM      3  C   LIG d   1      -5.109  75.393 117.075  0.00  0.00     0.038 C 
ATOM      4  C   LIG d   1      -4.731  76.218 118.145  0.00  0.00     0.028 C 
ATOM      5  C   LIG d   1      -3.542  75.681 118.934  0.00  0.00    -0.047 C 
ATOM      6  C   LIG d   1      -2.397  75.347 117.951  0.00  0.00     0.091 C 
ENDROOT
BRANCH   1   7
ATOM      7  O   LIG d   1      -1.959  74.419 115.726  0.00  0.00    -0.368 OA
BRANCH   7   8
ATOM      8  C   LIG d   1      -1.150  75.616 115.609  0.00  0.00     0.119 C 
BRANCH   8   9
ATOM      9  C   LIG d   1      -1.654  76.397 114.380  0.00  0.00     0.028 C 
ATOM     10  C   LIG d   1      -2.690  77.471 114.752  0.00  0.00     0.006 C 
ENDBRANCH   8   9
BRANCH   8  11
ATOM     11  C   LIG d   1       0.311  75.273 115.301  0.00  0.00     0.028 C 
ATOM     12  C   LIG d   1       0.460  74.324 114.101  0.00  0.00     0.006 C 
ENDBRANCH   8  11
ENDBRANCH   7   8
ENDBRANCH   1   7
BRANCH   6  13
ATOM     13  N   LIG d   1      -1.225  74.737 118.632  0.00  0.00    -0.311 N 
ATOM     14  C   LIG d   1      -0.184  75.441 119.072  0.00  0.00     0.210 C 
ATOM     15  C   LIG d   1       0.926  74.614 119.727  0.00  0.00     0.109 C 
ATOM     16  O   LIG d   1      -0.090  76.677 119.012  0.00  0.00    -0.276 OA
ATOM     17  H   LIG d   1      -1.234  73.743 118.751  0.00  0.00     0.149 HD
ENDBRANCH   6  13
BRANCH   5  18
ATOM     18  N   LIG d   1      -3.170  76.703 119.930  0.00  0.00     0.381 N 
ATOM     19  H   LIG d   1      -2.356  77.197 119.621  0.00  0.00    -0.090 HD
ATOM     20  H   LIG d   1      -2.951  76.247 120.798  0.00  0.00    -0.090 HD
ATOM     21  H   LIG d   1      -3.924  77.341 120.063  0.00  0.00    -0.090 HD
ENDBRANCH   5  18
BRANCH   3  22
ATOM     22  C   LIG d   1      -6.442  75.377 116.694  0.00  0.00     0.382 C 
ATOM     23  O   LIG d   1      -7.041  76.455 116.463  0.00  0.00    -0.241 OA
ATOM     24  O   LIG d   1      -7.065  74.301 116.621  0.00  0.00    -0.241 OA
ENDBRANCH   3  22
TORSDOF 7
ENDMDL
MODEL 9
REMARK VINA RESULT:      -3.8      2.752      5.496
REMARK  7 active torsions:
REMARK  status: ('A' for Active; 'I' for Inactive)
REMARK    1  A    between atoms: C_2  and  C_3 
REMARK    2  A    between atoms: C_3  and  O_6 
REMARK    3  A    between atoms: C_3  and  C_4 
REMARK    4  A    between atoms: C_7  and  O_6 
REMARK    5  A    between atoms: C_9  and  C_10 
REMARK    6  A    between atoms: N_15  and  C_14 
REMARK    7  A    between atoms: N_20  and  C_19 
REMARK       I    between atoms: C_22  and  N_20 
ROOT
ATOM      1  C   LIG d   1      -1.717  78.211 116.630  0.00  0.00     0.161 C 
ATOM      2  C   LIG d   1      -1.881  77.273 117.662  0.00  0.00     0.016 C 
ATOM      3  C   LIG d   1      -1.521  75.911 117.540  0.00  0.00     0.038 C 
ATOM      4  C   LIG d   1      -0.828  75.425 116.422  0.00  0.00     0.028 C 
ATOM      5  C   LIG d   1      -1.093  76.224 115.150  0.00  0.00    -0.047 C 
ATOM      6  C   LIG d   1      -0.860  77.724 115.442  0.00  0.00     0.091 C 
ENDROOT
BRANCH   1   7
ATOM      7  O   LIG d   1      -1.180  79.437 117.165  0.00  0.00    -0.368 OA
BRANCH   7   8
ATOM      8  C   LIG d   1      -0.614  79.357 118.496  0.00  0.00     0.119 C 
BRANCH   8   9
ATOM      9  C   LIG d   1      -1.117  80.580 119.287  0.00  0.00     0.028 C 
ATOM     10  C   LIG d   1      -2.623  80.504 119.589  0.00  0.00     0.006 C 
ENDBRANCH   8   9
BRANCH   8  11
ATOM     11  C   LIG d   1       0.911  79.496 118.462  0.00  0.00     0.028 C 
ATOM     12  C   LIG d   1       1.628  78.149 118.278  0.00  0.00     0.006 C 
ENDBRANCH   8  11
ENDBRANCH   7   8
ENDBRANCH   1   7
BRANCH   6  13
ATOM     13  N   LIG d   1      -1.179  78.585 114.274  0.00  0.00    -0.311 N 
ATOM     14  C   LIG d   1      -2.348  78.553 113.637  0.00  0.00     0.210 C 
ATOM     15  C   LIG d   1      -2.462  79.509 112.445  0.00  0.00     0.109 C 
ATOM     16  O   LIG d   1      -3.314  77.847 113.966  0.00  0.00    -0.276 OA
ATOM     17  H   LIG d   1      -0.463  79.211 113.960  0.00  0.00     0.149 HD
ENDBRANCH   6  13
BRANCH   5  18
ATOM     18  N   LIG d   1      -0.204  75.695 114.098  0.00  0.00     0.381 N 
ATOM     19  H   LIG d   1       0.093  76.440 113.500  0.00  0.00    -0.090 HD
ATOM     20  H   LIG d   1      -0.715  75.031 113.544  0.00  0.00    -0.090 HD
ATOM     21  H   LIG d   1       0.589  75.255 114.511  0.00  0.00    -0.090 HD
ENDBRANCH   5  18
BRANCH   3  22
ATOM     22  C   LIG d   1      -1.891  75.011 118.528  0.00  0.00     0.382 C 
ATOM     23  O   LIG d   1      -1.283  75.001 119.626  0.00  0.00    -0.241 OA
ATOM     24  O   LIG d   1      -2.795  74.180 118.320  0.00  0.00    -0.241 OA
ENDBRANCH   3  22
TORSDOF 7
ENDMDL
