MODEL 1
REMARK VINA RESULT:      -5.4      0.000      0.000
REMARK  7 active torsions:
REMARK  status: ('A' for Active; 'I' for Inactive)
REMARK    1  A    between atoms: C_2  and  C_3 
REMARK    2  A    between atoms: C_3  and  O_6 
REMARK    3  A    between atoms: C_3  and  C_4 
REMARK    4  A    between atoms: C_7  and  O_6 
REMARK    5  A    between atoms: C_9  and  C_10 
REMARK    6  A    between atoms: N_15  and  C_14 
REMARK    7  A    between atoms: N_20  and  C_19 
REMARK       I    between atoms: C_22  and  N_20 
ROOT
ATOM      1  C   LIG d   1      -2.871  79.508 114.933  0.00  0.00     0.161 C 
ATOM      2  C   LIG d   1      -2.394  80.745 114.469  0.00  0.00     0.016 C 
ATOM      3  C   LIG d   1      -1.691  80.901 113.252  0.00  0.00     0.038 C 
ATOM      4  C   LIG d   1      -1.549  79.847 112.338  0.00  0.00     0.028 C 
ATOM      5  C   LIG d   1      -1.573  78.470 112.993  0.00  0.00    -0.047 C 
ATOM      6  C   LIG d   1      -2.822  78.366 113.897  0.00  0.00     0.091 C 
ENDROOT
BRANCH   1   7
ATOM      7  O   LIG d   1      -4.209  79.661 115.447  0.00  0.00    -0.368 OA
BRANCH   7   8
ATOM      8  C   LIG d   1      -4.328  79.800 116.884  0.00  0.00     0.119 C 
BRANCH   8   9
ATOM      9  C   LIG d   1      -4.766  78.433 117.446  0.00  0.00     0.028 C 
ATOM     10  C   LIG d   1      -6.155  78.009 116.942  0.00  0.00     0.006 C 
ENDBRANCH   8   9
BRANCH   8  11
ATOM     11  C   LIG d   1      -5.452  80.770 117.259  0.00  0.00     0.028 C 
ATOM     12  C   LIG d   1      -5.047  81.748 118.373  0.00  0.00     0.006 C 
ENDBRANCH   8  11
ENDBRANCH   7   8
ENDBRANCH   1   7
BRANCH   6  13
ATOM     13  N   LIG d   1      -2.878  77.080 114.641  0.00  0.00    -0.311 N 
ATOM     14  C   LIG d   1      -3.884  76.214 114.532  0.00  0.00     0.210 C 
ATOM     15  C   LIG d   1      -3.753  74.959 115.402  0.00  0.00     0.109 C 
ATOM     16  O   LIG d   1      -4.855  76.349 113.773  0.00  0.00    -0.276 OA
ATOM     17  H   LIG d   1      -2.115  76.876 115.255  0.00  0.00     0.149 HD
ENDBRANCH   6  13
BRANCH   5  18
ATOM     18  N   LIG d   1      -1.554  77.463 111.914  0.00  0.00     0.381 N 
ATOM     19  H   LIG d   1      -2.484  77.140 111.736  0.00  0.00    -0.090 HD
ATOM     20  H   LIG d   1      -0.999  76.680 112.211  0.00  0.00    -0.090 HD
ATOM     21  H   LIG d   1      -1.168  77.859 111.085  0.00  0.00    -0.090 HD
ENDBRANCH   5  18
BRANCH   3  22
ATOM     22  C   LIG d   1      -1.087  82.114 112.958  0.00  0.00     0.382 C 
ATOM     23  O   LIG d   1      -0.048  82.461 113.569  0.00  0.00    -0.241 OA
ATOM     24  O   LIG d   1      -1.594  82.886 112.122  0.00  0.00    -0.241 OA
ENDBRANCH   3  22
TORSDOF 7
ENDMDL
MODEL 2
REMARK VINA RESULT:      -5.0      2.826      5.589
REMARK  7 active torsions:
REMARK  status: ('A' for Active; 'I' for Inactive)
REMARK    1  A    between atoms: C_2  and  C_3 
REMARK    2  A    between atoms: C_3  and  O_6 
REMARK    3  A    between atoms: C_3  and  C_4 
REMARK    4  A    between atoms: C_7  and  O_6 
REMARK    5  A    between atoms: C_9  and  C_10 
REMARK    6  A    between atoms: N_15  and  C_14 
REMARK    7  A    between atoms: N_20  and  C_19 
REMARK       I    between atoms: C_22  and  N_20 
ROOT
ATOM      1  C   LIG d   1      -1.907  80.418 112.740  0.00  0.00     0.161 C 
ATOM      2  C   LIG d   1      -2.733  79.378 113.196  0.00  0.00     0.016 C 
ATOM      3  C   LIG d   1      -2.676  78.059 112.689  0.00  0.00     0.038 C 
ATOM      4  C   LIG d   1      -1.678  77.653 111.791  0.00  0.00     0.028 C 
ATOM      5  C   LIG d   1      -1.142  78.789 110.926  0.00  0.00    -0.047 C 
ATOM      6  C   LIG d   1      -0.737  79.968 111.840  0.00  0.00     0.091 C 
ENDROOT
BRANCH   1   7
ATOM      7  O   LIG d   1      -1.413  81.177 113.861  0.00  0.00    -0.368 OA
BRANCH   7   8
ATOM      8  C   LIG d   1      -0.950  80.407 114.998  0.00  0.00     0.119 C 
BRANCH   8   9
ATOM      9  C   LIG d   1      -1.945  80.640 116.151  0.00  0.00     0.028 C 
ATOM     10  C   LIG d   1      -1.255  81.151 117.427  0.00  0.00     0.006 C 
ENDBRANCH   8   9
BRANCH   8  11
ATOM     11  C   LIG d   1       0.396  80.927 115.512  0.00  0.00     0.028 C 
ATOM     12  C   LIG d   1       1.141  81.780 114.474  0.00  0.00     0.006 C 
ENDBRANCH   8  11
ENDBRANCH   7   8
ENDBRANCH   1   7
BRANCH   6  13
ATOM     13  N   LIG d   1      -0.281  81.153 111.068  0.00  0.00    -0.311 N 
ATOM     14  C   LIG d   1       0.996  81.390 110.776  0.00  0.00     0.210 C 
ATOM     15  C   LIG d   1       1.251  82.679 109.988  0.00  0.00     0.109 C 
ATOM     16  O   LIG d   1       1.940  80.639 111.066  0.00  0.00    -0.276 OA
ATOM     17  H   LIG d   1      -0.984  81.798 110.766  0.00  0.00     0.149 HD
ENDBRANCH   6  13
BRANCH   5  18
ATOM     18  N   LIG d   1      -0.016  78.255 110.137  0.00  0.00     0.381 N 
ATOM     19  H   LIG d   1       0.175  77.313 110.414  0.00  0.00    -0.090 HD
ATOM     20  H   LIG d   1       0.801  78.810 110.321  0.00  0.00    -0.090 HD
ATOM     21  H   LIG d   1      -0.236  78.286 109.166  0.00  0.00    -0.090 HD
ENDBRANCH   5  18
BRANCH   3  22
ATOM     22  C   LIG d   1      -3.650  77.141 113.051  0.00  0.00     0.382 C 
ATOM     23  O   LIG d   1      -3.418  76.305 113.958  0.00  0.00    -0.241 OA
ATOM     24  O   LIG d   1      -4.741  77.109 112.452  0.00  0.00    -0.241 OA
ENDBRANCH   3  22
TORSDOF 7
ENDMDL
MODEL 3
REMARK VINA RESULT:      -5.0      1.867      5.050
REMARK  7 active torsions:
REMARK  status: ('A' for Active; 'I' for Inactive)
REMARK    1  A    between atoms: C_2  and  C_3 
REMARK    2  A    between atoms: C_3  and  O_6 
REMARK    3  A    between atoms: C_3  and  C_4 
REMARK    4  A    between atoms: C_7  and  O_6 
REMARK    5  A    between atoms: C_9  and  C_10 
REMARK    6  A    between atoms: N_15  and  C_14 
REMARK    7  A    between atoms: N_20  and  C_19 
REMARK       I    between atoms: C_22  and  N_20 
ROOT
ATOM      1  C   LIG d   1      -2.824  80.256 114.053  0.00  0.00     0.161 C 
ATOM      2  C   LIG d   1      -3.294  78.990 114.438  0.00  0.00     0.016 C 
ATOM      3  C   LIG d   1      -2.895  77.787 113.811  0.00  0.00     0.038 C 
ATOM      4  C   LIG d   1      -1.876  77.756 112.848  0.00  0.00     0.028 C 
ATOM      5  C   LIG d   1      -1.734  79.063 112.074  0.00  0.00    -0.047 C 
ATOM      6  C   LIG d   1      -1.627  80.232 113.079  0.00  0.00     0.091 C 
ENDROOT
BRANCH   1   7
ATOM      7  O   LIG d   1      -2.502  81.034 115.223  0.00  0.00    -0.368 OA
BRANCH   7   8
ATOM      8  C   LIG d   1      -2.127  80.283 116.405  0.00  0.00     0.119 C 
BRANCH   8   9
ATOM      9  C   LIG d   1      -2.798  80.961 117.615  0.00  0.00     0.028 C 
ATOM     10  C   LIG d   1      -4.330  81.005 117.489  0.00  0.00     0.006 C 
ENDBRANCH   8   9
BRANCH   8  11
ATOM     11  C   LIG d   1      -0.622  80.377 116.670  0.00  0.00     0.028 C 
ATOM     12  C   LIG d   1      -0.216  81.698 117.342  0.00  0.00     0.006 C 
ENDBRANCH   8  11
ENDBRANCH   7   8
ENDBRANCH   1   7
BRANCH   6  13
ATOM     13  N   LIG d   1      -1.570  81.556 112.405  0.00  0.00    -0.311 N 
ATOM     14  C   LIG d   1      -0.714  82.517 112.748  0.00  0.00     0.210 C 
ATOM     15  C   LIG d   1      -0.836  83.811 111.937  0.00  0.00     0.109 C 
ATOM     16  O   LIG d   1       0.157  82.408 113.624  0.00  0.00    -0.276 OA
ATOM     17  H   LIG d   1      -2.221  81.717 111.661  0.00  0.00     0.149 HD
ENDBRANCH   6  13
BRANCH   5  18
ATOM     18  N   LIG d   1      -0.550  78.939 111.204  0.00  0.00     0.381 N 
ATOM     19  H   LIG d   1      -0.270  77.980 111.147  0.00  0.00    -0.090 HD
ATOM     20  H   LIG d   1       0.206  79.464 111.606  0.00  0.00    -0.090 HD
ATOM     21  H   LIG d   1      -0.757  79.286 110.293  0.00  0.00    -0.090 HD
ENDBRANCH   5  18
BRANCH   3  22
ATOM     22  C   LIG d   1      -3.547  76.602 114.118  0.00  0.00     0.382 C 
ATOM     23  O   LIG d   1      -4.752  76.449 113.801  0.00  0.00    -0.241 OA
ATOM     24  O   LIG d   1      -2.959  75.702 114.746  0.00  0.00    -0.241 OA
ENDBRANCH   3  22
TORSDOF 7
ENDMDL
MODEL 4
REMARK VINA RESULT:      -4.9      2.901      5.855
REMARK  7 active torsions:
REMARK  status: ('A' for Active; 'I' for Inactive)
REMARK    1  A    between atoms: C_2  and  C_3 
REMARK    2  A    between atoms: C_3  and  O_6 
REMARK    3  A    between atoms: C_3  and  C_4 
REMARK    4  A    between atoms: C_7  and  O_6 
REMARK    5  A    between atoms: C_9  and  C_10 
REMARK    6  A    between atoms: N_15  and  C_14 
REMARK    7  A    between atoms: N_20  and  C_19 
REMARK       I    between atoms: C_22  and  N_20 
ROOT
ATOM      1  C   LIG d   1      -4.183  78.745 116.280  0.00  0.00     0.161 C 
ATOM      2  C   LIG d   1      -3.846  77.583 115.566  0.00  0.00     0.016 C 
ATOM      3  C   LIG d   1      -4.588  76.382 115.639  0.00  0.00     0.038 C 
ATOM      4  C   LIG d   1      -5.813  76.308 116.319  0.00  0.00     0.028 C 
ATOM      5  C   LIG d   1      -5.931  77.307 117.465  0.00  0.00    -0.047 C 
ATOM      6  C   LIG d   1      -5.578  78.717 116.940  0.00  0.00     0.091 C 
ENDROOT
BRANCH   1   7
ATOM      7  O   LIG d   1      -4.057  79.898 115.425  0.00  0.00    -0.368 OA
BRANCH   7   8
ATOM      8  C   LIG d   1      -2.961  80.797 115.723  0.00  0.00     0.119 C 
BRANCH   8   9
ATOM      9  C   LIG d   1      -1.939  80.677 114.576  0.00  0.00     0.028 C 
ATOM     10  C   LIG d   1      -2.608  80.397 113.220  0.00  0.00     0.006 C 
ENDBRANCH   8   9
BRANCH   8  11
ATOM     11  C   LIG d   1      -2.209  80.359 116.983  0.00  0.00     0.028 C 
ATOM     12  C   LIG d   1      -2.294  81.392 118.118  0.00  0.00     0.006 C 
ENDBRANCH   8  11
ENDBRANCH   7   8
ENDBRANCH   1   7
BRANCH   6  13
ATOM     13  N   LIG d   1      -5.587  79.742 118.016  0.00  0.00    -0.311 N 
ATOM     14  C   LIG d   1      -6.232  80.903 117.918  0.00  0.00     0.210 C 
ATOM     15  C   LIG d   1      -6.096  81.823 119.135  0.00  0.00     0.109 C 
ATOM     16  O   LIG d   1      -6.931  81.244 116.952  0.00  0.00    -0.276 OA
ATOM     17  H   LIG d   1      -5.071  79.533 118.849  0.00  0.00     0.149 HD
ENDBRANCH   6  13
BRANCH   5  18
ATOM     18  N   LIG d   1      -7.304  77.215 117.997  0.00  0.00     0.381 N 
ATOM     19  H   LIG d   1      -7.421  76.350 118.486  0.00  0.00    -0.090 HD
ATOM     20  H   LIG d   1      -7.952  77.233 117.229  0.00  0.00    -0.090 HD
ATOM     21  H   LIG d   1      -7.484  77.979 118.610  0.00  0.00    -0.090 HD
ENDBRANCH   5  18
BRANCH   3  22
ATOM     22  C   LIG d   1      -4.085  75.227 115.060  0.00  0.00     0.382 C 
ATOM     23  O   LIG d   1      -2.884  74.911 115.234  0.00  0.00    -0.241 OA
ATOM     24  O   LIG d   1      -4.806  74.522 114.329  0.00  0.00    -0.241 OA
ENDBRANCH   3  22
TORSDOF 7
ENDMDL
MODEL 5
REMARK VINA RESULT:      -4.8      2.366      4.310
REMARK  7 active torsions:
REMARK  status: ('A' for Active; 'I' for Inactive)
REMARK    1  A    between atoms: C_2  and  C_3 
REMARK    2  A    between atoms: C_3  and  O_6 
REMARK    3  A    between atoms: C_3  and  C_4 
REMARK    4  A    between atoms: C_7  and  O_6 
REMARK    5  A    between atoms: C_9  and  C_10 
REMARK    6  A    between atoms: N_15  and  C_14 
REMARK    7  A    between atoms: N_20  and  C_19 
REMARK       I    between atoms: C_22  and  N_20 
ROOT
ATOM      1  C   LIG d   1      -3.329  78.319 114.134  0.00  0.00     0.161 C 
ATOM      2  C   LIG d   1      -2.804  77.744 112.964  0.00  0.00     0.016 C 
ATOM      3  C   LIG d   1      -1.860  78.391 112.135  0.00  0.00     0.038 C 
ATOM      4  C   LIG d   1      -1.258  79.604 112.503  0.00  0.00     0.028 C 
ATOM      5  C   LIG d   1      -2.128  80.458 113.419  0.00  0.00    -0.047 C 
ATOM      6  C   LIG d   1      -2.601  79.594 114.610  0.00  0.00     0.091 C 
ENDROOT
BRANCH   1   7
ATOM      7  O   LIG d   1      -3.361  77.337 115.189  0.00  0.00    -0.368 OA
BRANCH   7   8
ATOM      8  C   LIG d   1      -4.623  76.652 115.383  0.00  0.00     0.119 C 
BRANCH   8   9
ATOM      9  C   LIG d   1      -5.086  76.935 116.826  0.00  0.00     0.028 C 
ATOM     10  C   LIG d   1      -6.351  77.809 116.875  0.00  0.00     0.006 C 
ENDBRANCH   8   9
BRANCH   8  11
ATOM     11  C   LIG d   1      -4.451  75.133 115.303  0.00  0.00     0.028 C 
ATOM     12  C   LIG d   1      -5.768  74.398 115.011  0.00  0.00     0.006 C 
ENDBRANCH   8  11
ENDBRANCH   7   8
ENDBRANCH   1   7
BRANCH   6  13
ATOM     13  N   LIG d   1      -3.526  80.329 115.511  0.00  0.00    -0.311 N 
ATOM     14  C   LIG d   1      -3.418  80.320 116.839  0.00  0.00     0.210 C 
ATOM     15  C   LIG d   1      -4.487  81.129 117.580  0.00  0.00     0.109 C 
ATOM     16  O   LIG d   1      -2.519  79.746 117.471  0.00  0.00    -0.276 OA
ATOM     17  H   LIG d   1      -4.267  80.847 115.081  0.00  0.00     0.149 HD
ENDBRANCH   6  13
BRANCH   5  18
ATOM     18  N   LIG d   1      -1.326  81.625 113.834  0.00  0.00     0.381 N 
ATOM     19  H   LIG d   1      -0.548  81.739 113.215  0.00  0.00    -0.090 HD
ATOM     20  H   LIG d   1      -0.970  81.462 114.760  0.00  0.00    -0.090 HD
ATOM     21  H   LIG d   1      -1.890  82.446 113.826  0.00  0.00    -0.090 HD
ENDBRANCH   5  18
BRANCH   3  22
ATOM     22  C   LIG d   1      -1.537  77.843 110.903  0.00  0.00     0.382 C 
ATOM     23  O   LIG d   1      -1.522  76.597 110.756  0.00  0.00    -0.241 OA
ATOM     24  O   LIG d   1      -1.219  78.577 109.949  0.00  0.00    -0.241 OA
ENDBRANCH   3  22
TORSDOF 7
ENDMDL
MODEL 6
REMARK VINA RESULT:      -4.8      3.083      3.614
REMARK  7 active torsions:
REMARK  status: ('A' for Active; 'I' for Inactive)
REMARK    1  A    between atoms: C_2  and  C_3 
REMARK    2  A    between atoms: C_3  and  O_6 
REMARK    3  A    between atoms: C_3  and  C_4 
REMARK    4  A    between atoms: C_7  and  O_6 
REMARK    5  A    between atoms: C_9  and  C_10 
REMARK    6  A    between atoms: N_15  and  C_14 
REMARK    7  A    between atoms: N_20  and  C_19 
REMARK       I    between atoms: C_22  and  N_20 
ROOT
ATOM      1  C   LIG d   1      -0.725  80.065 116.117  0.00  0.00     0.161 C 
ATOM      2  C   LIG d   1      -1.482  80.892 115.272  0.00  0.00     0.016 C 
ATOM      3  C   LIG d   1      -2.084  80.439 114.075  0.00  0.00     0.038 C 
ATOM      4  C   LIG d   1      -2.096  79.083 113.718  0.00  0.00     0.028 C 
ATOM      5  C   LIG d   1      -0.915  78.298 114.281  0.00  0.00    -0.047 C 
ATOM      6  C   LIG d   1      -0.820  78.557 115.802  0.00  0.00     0.091 C 
ENDROOT
BRANCH   1   7
ATOM      7  O   LIG d   1      -1.082  80.312 117.491  0.00  0.00    -0.368 OA
BRANCH   7   8
ATOM      8  C   LIG d   1      -2.176  81.236 117.709  0.00  0.00     0.119 C 
BRANCH   8   9
ATOM      9  C   LIG d   1      -1.771  82.170 118.866  0.00  0.00     0.028 C 
ATOM     10  C   LIG d   1      -0.336  82.703 118.715  0.00  0.00     0.006 C 
ENDBRANCH   8   9
BRANCH   8  11
ATOM     11  C   LIG d   1      -3.432  80.508 118.196  0.00  0.00     0.028 C 
ATOM     12  C   LIG d   1      -4.615  80.643 117.223  0.00  0.00     0.006 C 
ENDBRANCH   8  11
ENDBRANCH   7   8
ENDBRANCH   1   7
BRANCH   6  13
ATOM     13  N   LIG d   1       0.359  77.894 116.417  0.00  0.00    -0.311 N 
ATOM     14  C   LIG d   1       0.314  76.682 116.968  0.00  0.00     0.210 C 
ATOM     15  C   LIG d   1       1.638  76.192 117.563  0.00  0.00     0.109 C 
ATOM     16  O   LIG d   1      -0.689  75.952 116.991  0.00  0.00    -0.276 OA
ATOM     17  H   LIG d   1       1.222  78.402 116.413  0.00  0.00     0.149 HD
ENDBRANCH   6  13
BRANCH   5  18
ATOM     18  N   LIG d   1      -1.126  76.876 113.949  0.00  0.00     0.381 N 
ATOM     19  H   LIG d   1      -2.074  76.621 114.139  0.00  0.00    -0.090 HD
ATOM     20  H   LIG d   1      -0.526  76.315 114.527  0.00  0.00    -0.090 HD
ATOM     21  H   LIG d   1      -0.918  76.716 112.988  0.00  0.00    -0.090 HD
ENDBRANCH   5  18
BRANCH   3  22
ATOM     22  C   LIG d   1      -2.649  81.355 113.201  0.00  0.00     0.382 C 
ATOM     23  O   LIG d   1      -3.856  81.249 112.875  0.00  0.00    -0.241 OA
ATOM     24  O   LIG d   1      -1.956  82.260 112.699  0.00  0.00    -0.241 OA
ENDBRANCH   3  22
TORSDOF 7
ENDMDL
MODEL 7
REMARK VINA RESULT:      -4.7      2.507      3.434
REMARK  7 active torsions:
REMARK  status: ('A' for Active; 'I' for Inactive)
REMARK    1  A    between atoms: C_2  and  C_3 
REMARK    2  A    between atoms: C_3  and  O_6 
REMARK    3  A    between atoms: C_3  and  C_4 
REMARK    4  A    between atoms: C_7  and  O_6 
REMARK    5  A    between atoms: C_9  and  C_10 
REMARK    6  A    between atoms: N_15  and  C_14 
REMARK    7  A    between atoms: N_20  and  C_19 
REMARK       I    between atoms: C_22  and  N_20 
ROOT
ATOM      1  C   LIG d   1      -2.784  78.055 116.617  0.00  0.00     0.161 C 
ATOM      2  C   LIG d   1      -3.147  79.062 115.708  0.00  0.00     0.016 C 
ATOM      3  C   LIG d   1      -2.578  79.191 114.420  0.00  0.00     0.038 C 
ATOM      4  C   LIG d   1      -1.709  78.224 113.893  0.00  0.00     0.028 C 
ATOM      5  C   LIG d   1      -0.929  77.465 114.961  0.00  0.00    -0.047 C 
ATOM      6  C   LIG d   1      -1.919  76.926 116.018  0.00  0.00     0.091 C 
ENDROOT
BRANCH   1   7
ATOM      7  O   LIG d   1      -3.964  77.507 117.237  0.00  0.00    -0.368 OA
BRANCH   7   8
ATOM      8  C   LIG d   1      -5.167  77.507 116.429  0.00  0.00     0.119 C 
BRANCH   8   9
ATOM      9  C   LIG d   1      -6.306  78.079 117.295  0.00  0.00     0.028 C 
ATOM     10  C   LIG d   1      -7.564  77.196 117.268  0.00  0.00     0.006 C 
ENDBRANCH   8   9
BRANCH   8  11
ATOM     11  C   LIG d   1      -5.601  76.080 116.079  0.00  0.00     0.028 C 
ATOM     12  C   LIG d   1      -5.225  75.679 114.644  0.00  0.00     0.006 C 
ENDBRANCH   8  11
ENDBRANCH   7   8
ENDBRANCH   1   7
BRANCH   6  13
ATOM     13  N   LIG d   1      -1.230  76.242 117.144  0.00  0.00    -0.311 N 
ATOM     14  C   LIG d   1      -0.914  74.949 117.133  0.00  0.00     0.210 C 
ATOM     15  C   LIG d   1      -0.225  74.441 118.404  0.00  0.00     0.109 C 
ATOM     16  O   LIG d   1      -1.110  74.181 116.179  0.00  0.00    -0.276 OA
ATOM     17  H   LIG d   1      -1.005  76.798 117.946  0.00  0.00     0.149 HD
ENDBRANCH   6  13
BRANCH   5  18
ATOM     18  N   LIG d   1      -0.168  76.398 114.284  0.00  0.00     0.381 N 
ATOM     19  H   LIG d   1      -0.524  76.264 113.358  0.00  0.00    -0.090 HD
ATOM     20  H   LIG d   1      -0.286  75.541 114.794  0.00  0.00    -0.090 HD
ATOM     21  H   LIG d   1       0.797  76.640 114.244  0.00  0.00    -0.090 HD
ENDBRANCH   5  18
BRANCH   3  22
ATOM     22  C   LIG d   1      -2.847  80.319 113.659  0.00  0.00     0.382 C 
ATOM     23  O   LIG d   1      -3.535  81.250 114.141  0.00  0.00    -0.241 OA
ATOM     24  O   LIG d   1      -2.447  80.397 112.482  0.00  0.00    -0.241 OA
ENDBRANCH   3  22
TORSDOF 7
ENDMDL
MODEL 8
REMARK VINA RESULT:      -4.7      2.766      4.788
REMARK  7 active torsions:
REMARK  status: ('A' for Active; 'I' for Inactive)
REMARK    1  A    between atoms: C_2  and  C_3 
REMARK    2  A    between atoms: C_3  and  O_6 
REMARK    3  A    between atoms: C_3  and  C_4 
REMARK    4  A    between atoms: C_7  and  O_6 
REMARK    5  A    between atoms: C_9  and  C_10 
REMARK    6  A    between atoms: N_15  and  C_14 
REMARK    7  A    between atoms: N_20  and  C_19 
REMARK       I    between atoms: C_22  and  N_20 
ROOT
ATOM      1  C   LIG d   1      -3.319  76.880 115.607  0.00  0.00     0.161 C 
ATOM      2  C   LIG d   1      -3.109  76.909 116.996  0.00  0.00     0.016 C 
ATOM      3  C   LIG d   1      -2.082  77.662 117.612  0.00  0.00     0.038 C 
ATOM      4  C   LIG d   1      -1.286  78.561 116.887  0.00  0.00     0.028 C 
ATOM      5  C   LIG d   1      -1.130  78.184 115.418  0.00  0.00    -0.047 C 
ATOM      6  C   LIG d   1      -2.531  77.941 114.811  0.00  0.00     0.091 C 
ENDROOT
BRANCH   1   7
ATOM      7  O   LIG d   1      -4.728  76.986 115.324  0.00  0.00    -0.368 OA
BRANCH   7   8
ATOM      8  C   LIG d   1      -5.611  76.228 116.188  0.00  0.00     0.119 C 
BRANCH   8   9
ATOM      9  C   LIG d   1      -6.144  75.034 115.372  0.00  0.00     0.028 C 
ATOM     10  C   LIG d   1      -6.454  75.411 113.914  0.00  0.00     0.006 C 
ENDBRANCH   8   9
BRANCH   8  11
ATOM     11  C   LIG d   1      -6.850  77.042 116.571  0.00  0.00     0.028 C 
ATOM     12  C   LIG d   1      -6.500  78.409 117.182  0.00  0.00     0.006 C 
ENDBRANCH   8  11
ENDBRANCH   7   8
ENDBRANCH   1   7
BRANCH   6  13
ATOM     13  N   LIG d   1      -2.465  77.486 113.398  0.00  0.00    -0.311 N 
ATOM     14  C   LIG d   1      -2.491  78.318 112.358  0.00  0.00     0.210 C 
ATOM     15  C   LIG d   1      -2.433  77.640 110.986  0.00  0.00     0.109 C 
ATOM     16  O   LIG d   1      -2.524  79.555 112.442  0.00  0.00    -0.276 OA
ATOM     17  H   LIG d   1      -2.405  76.499 113.238  0.00  0.00     0.149 HD
ENDBRANCH   6  13
BRANCH   5  18
ATOM     18  N   LIG d   1      -0.394  79.276 114.753  0.00  0.00     0.381 N 
ATOM     19  H   LIG d   1      -1.039  79.957 114.405  0.00  0.00    -0.090 HD
ATOM     20  H   LIG d   1       0.116  78.898 113.975  0.00  0.00    -0.090 HD
ATOM     21  H   LIG d   1       0.236  79.704 115.396  0.00  0.00    -0.090 HD
ENDBRANCH   5  18
BRANCH   3  22
ATOM     22  C   LIG d   1      -1.818  77.488 118.962  0.00  0.00     0.382 C 
ATOM     23  O   LIG d   1      -2.096  78.400 119.777  0.00  0.00    -0.241 OA
ATOM     24  O   LIG d   1      -1.266  76.448 119.369  0.00  0.00    -0.241 OA
ENDBRANCH   3  22
TORSDOF 7
ENDMDL
MODEL 9
REMARK VINA RESULT:      -4.6      2.772      4.556
REMARK  7 active torsions:
REMARK  status: ('A' for Active; 'I' for Inactive)
REMARK    1  A    between atoms: C_2  and  C_3 
REMARK    2  A    between atoms: C_3  and  O_6 
REMARK    3  A    between atoms: C_3  and  C_4 
REMARK    4  A    between atoms: C_7  and  O_6 
REMARK    5  A    between atoms: C_9  and  C_10 
REMARK    6  A    between atoms: N_15  and  C_14 
REMARK    7  A    between atoms: N_20  and  C_19 
REMARK       I    between atoms: C_22  and  N_20 
ROOT
ATOM      1  C   LIG d   1      -2.878  77.761 114.521  0.00  0.00     0.161 C 
ATOM      2  C   LIG d   1      -2.312  77.340 113.306  0.00  0.00     0.016 C 
ATOM      3  C   LIG d   1      -1.922  78.231 112.279  0.00  0.00     0.038 C 
ATOM      4  C   LIG d   1      -1.932  79.622 112.462  0.00  0.00     0.028 C 
ATOM      5  C   LIG d   1      -2.966  80.092 113.479  0.00  0.00    -0.047 C 
ATOM      6  C   LIG d   1      -2.794  79.279 114.782  0.00  0.00     0.091 C 
ENDROOT
BRANCH   1   7
ATOM      7  O   LIG d   1      -2.287  77.030 115.614  0.00  0.00    -0.368 OA
BRANCH   7   8
ATOM      8  C   LIG d   1      -0.843  77.094 115.715  0.00  0.00     0.119 C 
BRANCH   8   9
ATOM      9  C   LIG d   1      -0.328  75.653 115.899  0.00  0.00     0.028 C 
ATOM     10  C   LIG d   1      -1.463  74.616 115.866  0.00  0.00     0.006 C 
ENDBRANCH   8   9
BRANCH   8  11
ATOM     11  C   LIG d   1      -0.406  77.845 116.977  0.00  0.00     0.028 C 
ATOM     12  C   LIG d   1      -1.430  77.740 118.117  0.00  0.00     0.006 C 
ENDBRANCH   8  11
ENDBRANCH   7   8
ENDBRANCH   1   7
BRANCH   6  13
ATOM     13  N   LIG d   1      -3.821  79.618 115.801  0.00  0.00    -0.311 N 
ATOM     14  C   LIG d   1      -3.596  80.441 116.824  0.00  0.00     0.210 C 
ATOM     15  C   LIG d   1      -4.785  80.638 117.769  0.00  0.00     0.109 C 
ATOM     16  O   LIG d   1      -2.535  81.053 117.019  0.00  0.00    -0.276 OA
ATOM     17  H   LIG d   1      -4.721  79.190 115.702  0.00  0.00     0.149 HD
ENDBRANCH   6  13
BRANCH   5  18
ATOM     18  N   LIG d   1      -2.774  81.542 113.672  0.00  0.00     0.381 N 
ATOM     19  H   LIG d   1      -2.020  81.701 114.310  0.00  0.00    -0.090 HD
ATOM     20  H   LIG d   1      -3.611  81.931 114.069  0.00  0.00    -0.090 HD
ATOM     21  H   LIG d   1      -2.578  81.979 112.799  0.00  0.00    -0.090 HD
ENDBRANCH   5  18
BRANCH   3  22
ATOM     22  C   LIG d   1      -1.553  77.732 111.039  0.00  0.00     0.382 C 
ATOM     23  O   LIG d   1      -1.354  78.517 110.081  0.00  0.00    -0.241 OA
ATOM     24  O   LIG d   1      -1.460  76.504 110.855  0.00  0.00    -0.241 OA
ENDBRANCH   3  22
TORSDOF 7
ENDMDL
