MODEL 1
REMARK VINA RESULT:      -5.7      0.000      0.000
REMARK  7 active torsions:
REMARK  status: ('A' for Active; 'I' for Inactive)
REMARK    1  A    between atoms: C_2  and  C_3 
REMARK    2  A    between atoms: C_3  and  O_6 
REMARK    3  A    between atoms: C_3  and  C_4 
REMARK    4  A    between atoms: C_7  and  O_6 
REMARK    5  A    between atoms: C_9  and  C_10 
REMARK    6  A    between atoms: N_15  and  C_14 
REMARK    7  A    between atoms: N_20  and  C_19 
REMARK       I    between atoms: C_22  and  N_20 
ROOT
ATOM      1  C   LIG d   1      -2.267  77.562 115.904  0.00  0.00     0.161 C 
ATOM      2  C   LIG d   1      -2.732  78.316 114.813  0.00  0.00     0.016 C 
ATOM      3  C   LIG d   1      -2.084  78.348 113.557  0.00  0.00     0.038 C 
ATOM      4  C   LIG d   1      -1.005  77.503 113.257  0.00  0.00     0.028 C 
ATOM      5  C   LIG d   1      -0.194  77.099 114.484  0.00  0.00    -0.047 C 
ATOM      6  C   LIG d   1      -1.155  76.549 115.562  0.00  0.00     0.091 C 
ENDROOT
BRANCH   1   7
ATOM      7  O   LIG d   1      -3.373  76.896 116.544  0.00  0.00    -0.368 OA
BRANCH   7   8
ATOM      8  C   LIG d   1      -4.564  76.720 115.738  0.00  0.00     0.119 C 
BRANCH   8   9
ATOM      9  C   LIG d   1      -5.777  77.082 116.618  0.00  0.00     0.028 C 
ATOM     10  C   LIG d   1      -5.646  78.476 117.253  0.00  0.00     0.006 C 
ENDBRANCH   8   9
BRANCH   8  11
ATOM     11  C   LIG d   1      -4.766  75.252 115.353  0.00  0.00     0.028 C 
ATOM     12  C   LIG d   1      -6.239  74.900 115.094  0.00  0.00     0.006 C 
ENDBRANCH   8  11
ENDBRANCH   7   8
ENDBRANCH   1   7
BRANCH   6  13
ATOM     13  N   LIG d   1      -0.453  76.208 116.827  0.00  0.00    -0.311 N 
ATOM     14  C   LIG d   1      -0.672  75.085 117.508  0.00  0.00     0.210 C 
ATOM     15  C   LIG d   1       0.143  74.940 118.797  0.00  0.00     0.109 C 
ATOM     16  O   LIG d   1      -1.442  74.180 117.151  0.00  0.00    -0.276 OA
ATOM     17  H   LIG d   1       0.212  76.873 117.173  0.00  0.00     0.149 HD
ENDBRANCH   6  13
BRANCH   5  18
ATOM     18  N   LIG d   1       0.812  76.112 114.047  0.00  0.00     0.381 N 
ATOM     19  H   LIG d   1       0.791  75.316 114.654  0.00  0.00    -0.090 HD
ATOM     20  H   LIG d   1       1.724  76.529 114.106  0.00  0.00    -0.090 HD
ATOM     21  H   LIG d   1       0.627  75.829 113.110  0.00  0.00    -0.090 HD
ENDBRANCH   5  18
BRANCH   3  22
ATOM     22  C   LIG d   1      -2.492  79.261 112.596  0.00  0.00     0.382 C 
ATOM     23  O   LIG d   1      -3.262  80.200 112.911  0.00  0.00    -0.241 OA
ATOM     24  O   LIG d   1      -2.135  79.133 111.410  0.00  0.00    -0.241 OA
ENDBRANCH   3  22
TORSDOF 7
ENDMDL
MODEL 2
REMARK VINA RESULT:      -5.5      1.089      1.938
REMARK  7 active torsions:
REMARK  status: ('A' for Active; 'I' for Inactive)
REMARK    1  A    between atoms: C_2  and  C_3 
REMARK    2  A    between atoms: C_3  and  O_6 
REMARK    3  A    between atoms: C_3  and  C_4 
REMARK    4  A    between atoms: C_7  and  O_6 
REMARK    5  A    between atoms: C_9  and  C_10 
REMARK    6  A    between atoms: N_15  and  C_14 
REMARK    7  A    between atoms: N_20  and  C_19 
REMARK       I    between atoms: C_22  and  N_20 
ROOT
ATOM      1  C   LIG d   1      -3.135  77.707 115.311  0.00  0.00     0.161 C 
ATOM      2  C   LIG d   1      -3.200  78.653 114.275  0.00  0.00     0.016 C 
ATOM      3  C   LIG d   1      -2.116  78.940 113.414  0.00  0.00     0.038 C 
ATOM      4  C   LIG d   1      -0.933  78.186 113.435  0.00  0.00     0.028 C 
ATOM      5  C   LIG d   1      -0.637  77.562 114.794  0.00  0.00    -0.047 C 
ATOM      6  C   LIG d   1      -1.890  76.797 115.278  0.00  0.00     0.091 C 
ENDROOT
BRANCH   1   7
ATOM      7  O   LIG d   1      -4.337  76.912 115.323  0.00  0.00    -0.368 OA
BRANCH   7   8
ATOM      8  C   LIG d   1      -5.074  76.889 116.570  0.00  0.00     0.119 C 
BRANCH   8   9
ATOM      9  C   LIG d   1      -6.575  76.866 116.221  0.00  0.00     0.028 C 
ATOM     10  C   LIG d   1      -6.915  75.804 115.162  0.00  0.00     0.006 C 
ENDBRANCH   8   9
BRANCH   8  11
ATOM     11  C   LIG d   1      -4.862  78.180 117.367  0.00  0.00     0.028 C 
ATOM     12  C   LIG d   1      -6.049  79.150 117.254  0.00  0.00     0.006 C 
ENDBRANCH   8  11
ENDBRANCH   7   8
ENDBRANCH   1   7
BRANCH   6  13
ATOM     13  N   LIG d   1      -1.714  76.225 116.639  0.00  0.00    -0.311 N 
ATOM     14  C   LIG d   1      -1.292  74.982 116.864  0.00  0.00     0.210 C 
ATOM     15  C   LIG d   1      -1.200  74.587 118.341  0.00  0.00     0.109 C 
ATOM     16  O   LIG d   1      -0.954  74.180 115.980  0.00  0.00    -0.276 OA
ATOM     17  H   LIG d   1      -1.936  76.818 117.415  0.00  0.00     0.149 HD
ENDBRANCH   6  13
BRANCH   5  18
ATOM     18  N   LIG d   1       0.546  76.694 114.638  0.00  0.00     0.381 N 
ATOM     19  H   LIG d   1       1.376  77.253 114.620  0.00  0.00    -0.090 HD
ATOM     20  H   LIG d   1       0.476  76.205 113.763  0.00  0.00    -0.090 HD
ATOM     21  H   LIG d   1       0.592  76.042 115.389  0.00  0.00    -0.090 HD
ENDBRANCH   5  18
BRANCH   3  22
ATOM     22  C   LIG d   1      -2.195  80.018 112.545  0.00  0.00     0.382 C 
ATOM     23  O   LIG d   1      -1.364  80.133 111.612  0.00  0.00    -0.241 OA
ATOM     24  O   LIG d   1      -3.059  80.900 112.709  0.00  0.00    -0.241 OA
ENDBRANCH   3  22
TORSDOF 7
ENDMDL
MODEL 3
REMARK VINA RESULT:      -5.4      1.190      1.597
REMARK  7 active torsions:
REMARK  status: ('A' for Active; 'I' for Inactive)
REMARK    1  A    between atoms: C_2  and  C_3 
REMARK    2  A    between atoms: C_3  and  O_6 
REMARK    3  A    between atoms: C_3  and  C_4 
REMARK    4  A    between atoms: C_7  and  O_6 
REMARK    5  A    between atoms: C_9  and  C_10 
REMARK    6  A    between atoms: N_15  and  C_14 
REMARK    7  A    between atoms: N_20  and  C_19 
REMARK       I    between atoms: C_22  and  N_20 
ROOT
ATOM      1  C   LIG d   1      -2.457  77.884 115.826  0.00  0.00     0.161 C 
ATOM      2  C   LIG d   1      -2.793  78.678 114.717  0.00  0.00     0.016 C 
ATOM      3  C   LIG d   1      -2.048  78.692 113.515  0.00  0.00     0.038 C 
ATOM      4  C   LIG d   1      -0.996  77.793 113.285  0.00  0.00     0.028 C 
ATOM      5  C   LIG d   1      -0.307  77.326 114.563  0.00  0.00    -0.047 C 
ATOM      6  C   LIG d   1      -1.378  76.815 115.553  0.00  0.00     0.091 C 
ENDROOT
BRANCH   1   7
ATOM      7  O   LIG d   1      -3.644  77.270 116.365  0.00  0.00    -0.368 OA
BRANCH   7   8
ATOM      8  C   LIG d   1      -4.596  78.166 116.991  0.00  0.00     0.119 C 
BRANCH   8   9
ATOM      9  C   LIG d   1      -4.106  78.433 118.427  0.00  0.00     0.028 C 
ATOM     10  C   LIG d   1      -3.760  77.137 119.180  0.00  0.00     0.006 C 
ENDBRANCH   8   9
BRANCH   8  11
ATOM     11  C   LIG d   1      -5.967  77.501 117.147  0.00  0.00     0.028 C 
ATOM     12  C   LIG d   1      -7.118  78.517 117.215  0.00  0.00     0.006 C 
ENDBRANCH   8  11
ENDBRANCH   7   8
ENDBRANCH   1   7
BRANCH   6  13
ATOM     13  N   LIG d   1      -0.796  76.418 116.861  0.00  0.00    -0.311 N 
ATOM     14  C   LIG d   1      -0.799  75.165 117.315  0.00  0.00     0.210 C 
ATOM     15  C   LIG d   1      -0.165  74.977 118.697  0.00  0.00     0.109 C 
ATOM     16  O   LIG d   1      -1.236  74.187 116.690  0.00  0.00    -0.276 OA
ATOM     17  H   LIG d   1      -0.392  77.144 117.420  0.00  0.00     0.149 HD
ENDBRANCH   6  13
BRANCH   5  18
ATOM     18  N   LIG d   1       0.675  76.291 114.187  0.00  0.00     0.381 N 
ATOM     19  H   LIG d   1       1.599  76.605 114.408  0.00  0.00    -0.090 HD
ATOM     20  H   LIG d   1       0.623  76.138 113.195  0.00  0.00    -0.090 HD
ATOM     21  H   LIG d   1       0.479  75.444 114.672  0.00  0.00    -0.090 HD
ENDBRANCH   5  18
BRANCH   3  22
ATOM     22  C   LIG d   1      -2.329  79.640 112.544  0.00  0.00     0.382 C 
ATOM     23  O   LIG d   1      -3.269  80.453 112.715  0.00  0.00    -0.241 OA
ATOM     24  O   LIG d   1      -1.683  79.664 111.479  0.00  0.00    -0.241 OA
ENDBRANCH   3  22
TORSDOF 7
ENDMDL
MODEL 4
REMARK VINA RESULT:      -4.9      2.417      4.940
REMARK  7 active torsions:
REMARK  status: ('A' for Active; 'I' for Inactive)
REMARK    1  A    between atoms: C_2  and  C_3 
REMARK    2  A    between atoms: C_3  and  O_6 
REMARK    3  A    between atoms: C_3  and  C_4 
REMARK    4  A    between atoms: C_7  and  O_6 
REMARK    5  A    between atoms: C_9  and  C_10 
REMARK    6  A    between atoms: N_15  and  C_14 
REMARK    7  A    between atoms: N_20  and  C_19 
REMARK       I    between atoms: C_22  and  N_20 
ROOT
ATOM      1  C   LIG d   1      -2.899  78.056 115.892  0.00  0.00     0.161 C 
ATOM      2  C   LIG d   1      -1.573  78.395 116.208  0.00  0.00     0.016 C 
ATOM      3  C   LIG d   1      -0.671  77.506 116.836  0.00  0.00     0.038 C 
ATOM      4  C   LIG d   1      -0.991  76.158 117.056  0.00  0.00     0.028 C 
ATOM      5  C   LIG d   1      -2.487  75.908 117.214  0.00  0.00    -0.047 C 
ATOM      6  C   LIG d   1      -3.232  76.555 116.023  0.00  0.00     0.091 C 
ENDROOT
BRANCH   1   7
ATOM      7  O   LIG d   1      -3.222  78.527 114.569  0.00  0.00    -0.368 OA
BRANCH   7   8
ATOM      8  C   LIG d   1      -2.104  78.697 113.663  0.00  0.00     0.119 C 
BRANCH   8   9
ATOM      9  C   LIG d   1      -2.370  79.969 112.834  0.00  0.00     0.028 C 
ATOM     10  C   LIG d   1      -1.092  80.520 112.180  0.00  0.00     0.006 C 
ENDBRANCH   8   9
BRANCH   8  11
ATOM     11  C   LIG d   1      -2.035  77.557 112.643  0.00  0.00     0.028 C 
ATOM     12  C   LIG d   1      -3.243  77.532 111.693  0.00  0.00     0.006 C 
ENDBRANCH   8  11
ENDBRANCH   7   8
ENDBRANCH   1   7
BRANCH   6  13
ATOM     13  N   LIG d   1      -4.708  76.430 116.143  0.00  0.00    -0.311 N 
ATOM     14  C   LIG d   1      -5.469  75.830 115.229  0.00  0.00     0.210 C 
ATOM     15  C   LIG d   1      -6.970  75.829 115.537  0.00  0.00     0.109 C 
ATOM     16  O   LIG d   1      -5.041  75.272 114.208  0.00  0.00    -0.276 OA
ATOM     17  H   LIG d   1      -5.135  76.828 116.956  0.00  0.00     0.149 HD
ENDBRANCH   6  13
BRANCH   5  18
ATOM     18  N   LIG d   1      -2.689  74.449 117.298  0.00  0.00     0.381 N 
ATOM     19  H   LIG d   1      -1.848  74.009 117.614  0.00  0.00    -0.090 HD
ATOM     20  H   LIG d   1      -2.904  74.097 116.382  0.00  0.00    -0.090 HD
ATOM     21  H   LIG d   1      -3.435  74.244 117.925  0.00  0.00    -0.090 HD
ENDBRANCH   5  18
BRANCH   3  22
ATOM     22  C   LIG d   1       0.553  77.975 117.288  0.00  0.00     0.382 C 
ATOM     23  O   LIG d   1       0.757  79.210 117.378  0.00  0.00    -0.241 OA
ATOM     24  O   LIG d   1       1.471  77.180 117.565  0.00  0.00    -0.241 OA
ENDBRANCH   3  22
TORSDOF 7
ENDMDL
MODEL 5
REMARK VINA RESULT:      -4.8      1.722      2.621
REMARK  7 active torsions:
REMARK  status: ('A' for Active; 'I' for Inactive)
REMARK    1  A    between atoms: C_2  and  C_3 
REMARK    2  A    between atoms: C_3  and  O_6 
REMARK    3  A    between atoms: C_3  and  C_4 
REMARK    4  A    between atoms: C_7  and  O_6 
REMARK    5  A    between atoms: C_9  and  C_10 
REMARK    6  A    between atoms: N_15  and  C_14 
REMARK    7  A    between atoms: N_20  and  C_19 
REMARK       I    between atoms: C_22  and  N_20 
ROOT
ATOM      1  C   LIG d   1      -2.573  78.337 114.955  0.00  0.00     0.161 C 
ATOM      2  C   LIG d   1      -2.366  78.048 113.596  0.00  0.00     0.016 C 
ATOM      3  C   LIG d   1      -1.269  77.294 113.119  0.00  0.00     0.038 C 
ATOM      4  C   LIG d   1      -0.380  76.646 113.990  0.00  0.00     0.028 C 
ATOM      5  C   LIG d   1      -0.259  77.327 115.349  0.00  0.00    -0.047 C 
ATOM      6  C   LIG d   1      -1.676  77.545 115.929  0.00  0.00     0.091 C 
ENDROOT
BRANCH   1   7
ATOM      7  O   LIG d   1      -3.963  78.149 115.288  0.00  0.00    -0.368 OA
BRANCH   7   8
ATOM      8  C   LIG d   1      -4.303  76.886 115.913  0.00  0.00     0.119 C 
BRANCH   8   9
ATOM      9  C   LIG d   1      -4.888  75.972 114.819  0.00  0.00     0.028 C 
ATOM     10  C   LIG d   1      -6.201  75.300 115.257  0.00  0.00     0.006 C 
ENDBRANCH   8   9
BRANCH   8  11
ATOM     11  C   LIG d   1      -5.424  77.058 116.941  0.00  0.00     0.028 C 
ATOM     12  C   LIG d   1      -5.297  78.358 117.751  0.00  0.00     0.006 C 
ENDBRANCH   8  11
ENDBRANCH   7   8
ENDBRANCH   1   7
BRANCH   6  13
ATOM     13  N   LIG d   1      -1.652  78.281 117.219  0.00  0.00    -0.311 N 
ATOM     14  C   LIG d   1      -1.661  77.679 118.407  0.00  0.00     0.210 C 
ATOM     15  C   LIG d   1      -1.654  78.626 119.612  0.00  0.00     0.109 C 
ATOM     16  O   LIG d   1      -1.641  76.451 118.578  0.00  0.00    -0.276 OA
ATOM     17  H   LIG d   1      -1.636  79.281 117.173  0.00  0.00     0.149 HD
ENDBRANCH   6  13
BRANCH   5  18
ATOM     18  N   LIG d   1       0.589  76.472 116.201  0.00  0.00     0.381 N 
ATOM     19  H   LIG d   1       0.278  76.526 117.150  0.00  0.00    -0.090 HD
ATOM     20  H   LIG d   1       1.535  76.809 116.160  0.00  0.00    -0.090 HD
ATOM     21  H   LIG d   1       0.550  75.529 115.884  0.00  0.00    -0.090 HD
ENDBRANCH   5  18
BRANCH   3  22
ATOM     22  C   LIG d   1      -1.030  77.216 111.755  0.00  0.00     0.382 C 
ATOM     23  O   LIG d   1      -0.759  76.110 111.229  0.00  0.00    -0.241 OA
ATOM     24  O   LIG d   1      -1.037  78.245 111.053  0.00  0.00    -0.241 OA
ENDBRANCH   3  22
TORSDOF 7
ENDMDL
MODEL 6
REMARK VINA RESULT:      -4.8      2.228      4.726
REMARK  7 active torsions:
REMARK  status: ('A' for Active; 'I' for Inactive)
REMARK    1  A    between atoms: C_2  and  C_3 
REMARK    2  A    between atoms: C_3  and  O_6 
REMARK    3  A    between atoms: C_3  and  C_4 
REMARK    4  A    between atoms: C_7  and  O_6 
REMARK    5  A    between atoms: C_9  and  C_10 
REMARK    6  A    between atoms: N_15  and  C_14 
REMARK    7  A    between atoms: N_20  and  C_19 
REMARK       I    between atoms: C_22  and  N_20 
ROOT
ATOM      1  C   LIG d   1      -3.228  75.700 115.690  0.00  0.00     0.161 C 
ATOM      2  C   LIG d   1      -4.586  75.805 115.347  0.00  0.00     0.016 C 
ATOM      3  C   LIG d   1      -5.529  76.529 116.112  0.00  0.00     0.038 C 
ATOM      4  C   LIG d   1      -5.144  77.329 117.198  0.00  0.00     0.028 C 
ATOM      5  C   LIG d   1      -3.867  76.850 117.880  0.00  0.00    -0.047 C 
ATOM      6  C   LIG d   1      -2.769  76.657 116.810  0.00  0.00     0.091 C 
ENDROOT
BRANCH   1   7
ATOM      7  O   LIG d   1      -2.412  75.876 114.515  0.00  0.00    -0.368 OA
BRANCH   7   8
ATOM      8  C   LIG d   1      -2.099  77.244 114.155  0.00  0.00     0.119 C 
BRANCH   8   9
ATOM      9  C   LIG d   1      -2.737  77.519 112.780  0.00  0.00     0.028 C 
ATOM     10  C   LIG d   1      -2.499  78.961 112.300  0.00  0.00     0.006 C 
ENDBRANCH   8   9
BRANCH   8  11
ATOM     11  C   LIG d   1      -0.593  77.435 113.949  0.00  0.00     0.028 C 
ATOM     12  C   LIG d   1       0.198  76.124 114.085  0.00  0.00     0.006 C 
ENDBRANCH   8  11
ENDBRANCH   7   8
ENDBRANCH   1   7
BRANCH   6  13
ATOM     13  N   LIG d   1      -1.510  76.110 117.381  0.00  0.00    -0.311 N 
ATOM     14  C   LIG d   1      -0.467  76.867 117.714  0.00  0.00     0.210 C 
ATOM     15  C   LIG d   1       0.738  76.100 118.267  0.00  0.00     0.109 C 
ATOM     16  O   LIG d   1      -0.436  78.104 117.635  0.00  0.00    -0.276 OA
ATOM     17  H   LIG d   1      -1.461  75.118 117.509  0.00  0.00     0.149 HD
ENDBRANCH   6  13
BRANCH   5  18
ATOM     18  N   LIG d   1      -3.507  77.850 118.904  0.00  0.00     0.381 N 
ATOM     19  H   LIG d   1      -4.241  78.524 118.992  0.00  0.00    -0.090 HD
ATOM     20  H   LIG d   1      -2.673  78.328 118.612  0.00  0.00    -0.090 HD
ATOM     21  H   LIG d   1      -3.352  77.401 119.780  0.00  0.00    -0.090 HD
ENDBRANCH   5  18
BRANCH   3  22
ATOM     22  C   LIG d   1      -6.880  76.425 115.816  0.00  0.00     0.382 C 
ATOM     23  O   LIG d   1      -7.256  76.357 114.621  0.00  0.00    -0.241 OA
ATOM     24  O   LIG d   1      -7.729  76.444 116.727  0.00  0.00    -0.241 OA
ENDBRANCH   3  22
TORSDOF 7
ENDMDL
MODEL 7
REMARK VINA RESULT:      -4.8      1.768      4.803
REMARK  7 active torsions:
REMARK  status: ('A' for Active; 'I' for Inactive)
REMARK    1  A    between atoms: C_2  and  C_3 
REMARK    2  A    between atoms: C_3  and  O_6 
REMARK    3  A    between atoms: C_3  and  C_4 
REMARK    4  A    between atoms: C_7  and  O_6 
REMARK    5  A    between atoms: C_9  and  C_10 
REMARK    6  A    between atoms: N_15  and  C_14 
REMARK    7  A    between atoms: N_20  and  C_19 
REMARK       I    between atoms: C_22  and  N_20 
ROOT
ATOM      1  C   LIG d   1      -1.746  75.348 115.466  0.00  0.00     0.161 C 
ATOM      2  C   LIG d   1      -1.207  74.950 116.701  0.00  0.00     0.016 C 
ATOM      3  C   LIG d   1      -0.352  75.766 117.476  0.00  0.00     0.038 C 
ATOM      4  C   LIG d   1      -0.097  77.104 117.139  0.00  0.00     0.028 C 
ATOM      5  C   LIG d   1      -0.212  77.385 115.645  0.00  0.00    -0.047 C 
ATOM      6  C   LIG d   1      -1.569  76.845 115.136  0.00  0.00     0.091 C 
ENDROOT
BRANCH   1   7
ATOM      7  O   LIG d   1      -3.138  74.982 115.400  0.00  0.00    -0.368 OA
BRANCH   7   8
ATOM      8  C   LIG d   1      -4.088  76.074 115.456  0.00  0.00     0.119 C 
BRANCH   8   9
ATOM      9  C   LIG d   1      -4.593  76.175 116.908  0.00  0.00     0.028 C 
ATOM     10  C   LIG d   1      -4.204  77.506 117.574  0.00  0.00     0.006 C 
ENDBRANCH   8   9
BRANCH   8  11
ATOM     11  C   LIG d   1      -5.332  75.775 114.614  0.00  0.00     0.028 C 
ATOM     12  C   LIG d   1      -6.573  75.475 115.470  0.00  0.00     0.006 C 
ENDBRANCH   8  11
ENDBRANCH   7   8
ENDBRANCH   1   7
BRANCH   6  13
ATOM     13  N   LIG d   1      -1.727  77.004 113.667  0.00  0.00    -0.311 N 
ATOM     14  C   LIG d   1      -2.341  78.042 113.103  0.00  0.00     0.210 C 
ATOM     15  C   LIG d   1      -2.411  78.000 111.573  0.00  0.00     0.109 C 
ATOM     16  O   LIG d   1      -2.805  79.011 113.723  0.00  0.00    -0.276 OA
ATOM     17  H   LIG d   1      -1.352  76.279 113.087  0.00  0.00     0.149 HD
ENDBRANCH   6  13
BRANCH   5  18
ATOM     18  N   LIG d   1      -0.059  78.839 115.451  0.00  0.00     0.381 N 
ATOM     19  H   LIG d   1       0.677  79.182 116.035  0.00  0.00    -0.090 HD
ATOM     20  H   LIG d   1      -0.913  79.294 115.720  0.00  0.00    -0.090 HD
ATOM     21  H   LIG d   1       0.145  79.036 114.496  0.00  0.00    -0.090 HD
ENDBRANCH   5  18
BRANCH   3  22
ATOM     22  C   LIG d   1       0.291  75.232 118.583  0.00  0.00     0.382 C 
ATOM     23  O   LIG d   1      -0.276  74.350 119.272  0.00  0.00    -0.241 OA
ATOM     24  O   LIG d   1       1.412  75.652 118.926  0.00  0.00    -0.241 OA
ENDBRANCH   3  22
TORSDOF 7
ENDMDL
MODEL 8
REMARK VINA RESULT:      -4.7      2.329      4.914
REMARK  7 active torsions:
REMARK  status: ('A' for Active; 'I' for Inactive)
REMARK    1  A    between atoms: C_2  and  C_3 
REMARK    2  A    between atoms: C_3  and  O_6 
REMARK    3  A    between atoms: C_3  and  C_4 
REMARK    4  A    between atoms: C_7  and  O_6 
REMARK    5  A    between atoms: C_9  and  C_10 
REMARK    6  A    between atoms: N_15  and  C_14 
REMARK    7  A    between atoms: N_20  and  C_19 
REMARK       I    between atoms: C_22  and  N_20 
ROOT
ATOM      1  C   LIG d   1      -2.754  76.157 115.178  0.00  0.00     0.161 C 
ATOM      2  C   LIG d   1      -4.062  75.841 114.774  0.00  0.00     0.016 C 
ATOM      3  C   LIG d   1      -5.209  76.146 115.543  0.00  0.00     0.038 C 
ATOM      4  C   LIG d   1      -5.136  76.929 116.705  0.00  0.00     0.028 C 
ATOM      5  C   LIG d   1      -3.789  76.837 117.413  0.00  0.00    -0.047 C 
ATOM      6  C   LIG d   1      -2.664  77.109 116.389  0.00  0.00     0.091 C 
ENDROOT
BRANCH   1   7
ATOM      7  O   LIG d   1      -2.015  76.693 114.063  0.00  0.00    -0.368 OA
BRANCH   7   8
ATOM      8  C   LIG d   1      -2.676  77.734 113.301  0.00  0.00     0.119 C 
BRANCH   8   9
ATOM      9  C   LIG d   1      -2.388  77.469 111.811  0.00  0.00     0.028 C 
ATOM     10  C   LIG d   1      -0.970  76.925 111.574  0.00  0.00     0.006 C 
ENDBRANCH   8   9
BRANCH   8  11
ATOM     11  C   LIG d   1      -2.069  79.109 113.594  0.00  0.00     0.028 C 
ATOM     12  C   LIG d   1      -2.713  80.233 112.766  0.00  0.00     0.006 C 
ENDBRANCH   8  11
ENDBRANCH   7   8
ENDBRANCH   1   7
BRANCH   6  13
ATOM     13  N   LIG d   1      -1.309  76.956 116.981  0.00  0.00    -0.311 N 
ATOM     14  C   LIG d   1      -0.566  77.984 117.388  0.00  0.00     0.210 C 
ATOM     15  C   LIG d   1       0.808  77.606 117.950  0.00  0.00     0.109 C 
ATOM     16  O   LIG d   1      -0.928  79.170 117.367  0.00  0.00    -0.276 OA
ATOM     17  H   LIG d   1      -0.950  76.025 117.065  0.00  0.00     0.149 HD
ENDBRANCH   6  13
BRANCH   5  18
ATOM     18  N   LIG d   1      -3.804  77.804 118.527  0.00  0.00     0.381 N 
ATOM     19  H   LIG d   1      -3.269  77.447 119.293  0.00  0.00    -0.090 HD
ATOM     20  H   LIG d   1      -4.752  77.930 118.835  0.00  0.00    -0.090 HD
ATOM     21  H   LIG d   1      -3.427  78.676 118.226  0.00  0.00    -0.090 HD
ENDBRANCH   5  18
BRANCH   3  22
ATOM     22  C   LIG d   1      -6.442  75.632 115.171  0.00  0.00     0.382 C 
ATOM     23  O   LIG d   1      -6.732  74.442 115.440  0.00  0.00    -0.241 OA
ATOM     24  O   LIG d   1      -7.251  76.331 114.531  0.00  0.00    -0.241 OA
ENDBRANCH   3  22
TORSDOF 7
ENDMDL
MODEL 9
REMARK VINA RESULT:      -4.7      2.934      4.648
REMARK  7 active torsions:
REMARK  status: ('A' for Active; 'I' for Inactive)
REMARK    1  A    between atoms: C_2  and  C_3 
REMARK    2  A    between atoms: C_3  and  O_6 
REMARK    3  A    between atoms: C_3  and  C_4 
REMARK    4  A    between atoms: C_7  and  O_6 
REMARK    5  A    between atoms: C_9  and  C_10 
REMARK    6  A    between atoms: N_15  and  C_14 
REMARK    7  A    between atoms: N_20  and  C_19 
REMARK       I    between atoms: C_22  and  N_20 
ROOT
ATOM      1  C   LIG d   1      -4.041  77.488 117.172  0.00  0.00     0.161 C 
ATOM      2  C   LIG d   1      -2.986  78.269 117.671  0.00  0.00     0.016 C 
ATOM      3  C   LIG d   1      -1.622  77.951 117.476  0.00  0.00     0.038 C 
ATOM      4  C   LIG d   1      -1.218  76.905 116.633  0.00  0.00     0.028 C 
ATOM      5  C   LIG d   1      -2.250  75.787 116.518  0.00  0.00    -0.047 C 
ATOM      6  C   LIG d   1      -3.620  76.404 116.157  0.00  0.00     0.091 C 
ENDROOT
BRANCH   1   7
ATOM      7  O   LIG d   1      -5.054  78.341 116.603  0.00  0.00    -0.368 OA
BRANCH   7   8
ATOM      8  C   LIG d   1      -6.217  78.589 117.431  0.00  0.00     0.119 C 
BRANCH   8   9
ATOM      9  C   LIG d   1      -7.428  77.940 116.734  0.00  0.00     0.028 C 
ATOM     10  C   LIG d   1      -8.052  76.810 117.571  0.00  0.00     0.006 C 
ENDBRANCH   8   9
BRANCH   8  11
ATOM     11  C   LIG d   1      -6.542  80.084 117.501  0.00  0.00     0.028 C 
ATOM     12  C   LIG d   1      -8.052  80.363 117.570  0.00  0.00     0.006 C 
ENDBRANCH   8  11
ENDBRANCH   7   8
ENDBRANCH   1   7
BRANCH   6  13
ATOM     13  N   LIG d   1      -4.704  75.389 116.108  0.00  0.00    -0.311 N 
ATOM     14  C   LIG d   1      -5.577  75.296 115.106  0.00  0.00     0.210 C 
ATOM     15  C   LIG d   1      -6.626  74.191 115.263  0.00  0.00     0.109 C 
ATOM     16  O   LIG d   1      -5.562  76.004 114.088  0.00  0.00    -0.276 OA
ATOM     17  H   LIG d   1      -4.770  74.754 116.879  0.00  0.00     0.149 HD
ENDBRANCH   6  13
BRANCH   5  18
ATOM     18  N   LIG d   1      -1.761  74.832 115.505  0.00  0.00     0.381 N 
ATOM     19  H   LIG d   1      -0.983  75.226 115.016  0.00  0.00    -0.090 HD
ATOM     20  H   LIG d   1      -2.496  74.658 114.842  0.00  0.00    -0.090 HD
ATOM     21  H   LIG d   1      -1.490  73.980 115.944  0.00  0.00    -0.090 HD
ENDBRANCH   5  18
BRANCH   3  22
ATOM     22  C   LIG d   1      -0.646  78.660 118.159  0.00  0.00     0.382 C 
ATOM     23  O   LIG d   1      -0.562  79.904 118.020  0.00  0.00    -0.241 OA
ATOM     24  O   LIG d   1       0.179  78.066 118.878  0.00  0.00    -0.241 OA
ENDBRANCH   3  22
TORSDOF 7
ENDMDL
