MODEL 1
REMARK VINA RESULT:      -5.0      0.000      0.000
REMARK  7 active torsions:
REMARK  status: ('A' for Active; 'I' for Inactive)
REMARK    1  A    between atoms: C_2  and  C_3 
REMARK    2  A    between atoms: C_3  and  O_6 
REMARK    3  A    between atoms: C_3  and  C_4 
REMARK    4  A    between atoms: C_7  and  O_6 
REMARK    5  A    between atoms: C_9  and  C_10 
REMARK    6  A    between atoms: N_15  and  C_14 
REMARK    7  A    between atoms: N_20  and  C_19 
REMARK       I    between atoms: C_22  and  N_20 
ROOT
ATOM      1  C   LIG d   1      -1.562  75.777 115.046  0.00  0.00     0.161 C 
ATOM      2  C   LIG d   1      -1.304  75.083 116.240  0.00  0.00     0.016 C 
ATOM      3  C   LIG d   1      -0.844  75.711 117.420  0.00  0.00     0.038 C 
ATOM      4  C   LIG d   1      -0.755  77.106 117.532  0.00  0.00     0.028 C 
ATOM      5  C   LIG d   1      -0.522  77.807 116.197  0.00  0.00    -0.047 C 
ATOM      6  C   LIG d   1      -1.577  77.314 115.181  0.00  0.00     0.091 C 
ENDROOT
BRANCH   1   7
ATOM      7  O   LIG d   1      -2.798  75.312 114.469  0.00  0.00    -0.368 OA
BRANCH   7   8
ATOM      8  C   LIG d   1      -3.969  76.124 114.732  0.00  0.00     0.119 C 
BRANCH   8   9
ATOM      9  C   LIG d   1      -4.698  75.506 115.941  0.00  0.00     0.028 C 
ATOM     10  C   LIG d   1      -4.648  76.412 117.183  0.00  0.00     0.006 C 
ENDBRANCH   8   9
BRANCH   8  11
ATOM     11  C   LIG d   1      -4.970  76.051 113.575  0.00  0.00     0.028 C 
ATOM     12  C   LIG d   1      -6.431  76.123 114.046  0.00  0.00     0.006 C 
ENDBRANCH   8  11
ENDBRANCH   7   8
ENDBRANCH   1   7
BRANCH   6  13
ATOM     13  N   LIG d   1      -1.369  77.886 113.825  0.00  0.00    -0.311 N 
ATOM     14  C   LIG d   1      -2.027  78.952 113.371  0.00  0.00     0.210 C 
ATOM     15  C   LIG d   1      -1.676  79.366 111.938  0.00  0.00     0.109 C 
ATOM     16  O   LIG d   1      -2.843  79.613 114.030  0.00  0.00    -0.276 OA
ATOM     17  H   LIG d   1      -0.701  77.431 113.235  0.00  0.00     0.149 HD
ENDBRANCH   6  13
BRANCH   5  18
ATOM     18  N   LIG d   1      -0.588  79.260 116.440  0.00  0.00     0.381 N 
ATOM     19  H   LIG d   1       0.210  79.552 116.968  0.00  0.00    -0.090 HD
ATOM     20  H   LIG d   1      -1.413  79.464 116.976  0.00  0.00    -0.090 HD
ATOM     21  H   LIG d   1      -0.617  79.750 115.572  0.00  0.00    -0.090 HD
ENDBRANCH   5  18
BRANCH   3  22
ATOM     22  C   LIG d   1      -0.429  74.937 118.493  0.00  0.00     0.382 C 
ATOM     23  O   LIG d   1      -1.018  75.029 119.597  0.00  0.00    -0.241 OA
ATOM     24  O   LIG d   1       0.555  74.180 118.384  0.00  0.00    -0.241 OA
ENDBRANCH   3  22
TORSDOF 7
ENDMDL
MODEL 2
REMARK VINA RESULT:      -5.0      1.172      1.750
REMARK  7 active torsions:
REMARK  status: ('A' for Active; 'I' for Inactive)
REMARK    1  A    between atoms: C_2  and  C_3 
REMARK    2  A    between atoms: C_3  and  O_6 
REMARK    3  A    between atoms: C_3  and  C_4 
REMARK    4  A    between atoms: C_7  and  O_6 
REMARK    5  A    between atoms: C_9  and  C_10 
REMARK    6  A    between atoms: N_15  and  C_14 
REMARK    7  A    between atoms: N_20  and  C_19 
REMARK       I    between atoms: C_22  and  N_20 
ROOT
ATOM      1  C   LIG d   1      -2.689  75.987 115.921  0.00  0.00     0.161 C 
ATOM      2  C   LIG d   1      -2.236  75.525 117.168  0.00  0.00     0.016 C 
ATOM      3  C   LIG d   1      -1.163  76.116 117.873  0.00  0.00     0.038 C 
ATOM      4  C   LIG d   1      -0.563  77.310 117.446  0.00  0.00     0.028 C 
ATOM      5  C   LIG d   1      -0.650  77.527 115.939  0.00  0.00    -0.047 C 
ATOM      6  C   LIG d   1      -2.120  77.356 115.492  0.00  0.00     0.091 C 
ENDROOT
BRANCH   1   7
ATOM      7  O   LIG d   1      -4.130  76.016 115.904  0.00  0.00    -0.368 OA
BRANCH   7   8
ATOM      8  C   LIG d   1      -4.789  74.776 115.548  0.00  0.00     0.119 C 
BRANCH   8   9
ATOM      9  C   LIG d   1      -4.951  74.762 114.016  0.00  0.00     0.028 C 
ATOM     10  C   LIG d   1      -5.595  76.052 113.482  0.00  0.00     0.006 C 
ENDBRANCH   8   9
BRANCH   8  11
ATOM     11  C   LIG d   1      -6.213  74.721 116.107  0.00  0.00     0.028 C 
ATOM     12  C   LIG d   1      -6.471  75.783 117.188  0.00  0.00     0.006 C 
ENDBRANCH   8  11
ENDBRANCH   7   8
ENDBRANCH   1   7
BRANCH   6  13
ATOM     13  N   LIG d   1      -2.281  77.468 114.019  0.00  0.00    -0.311 N 
ATOM     14  C   LIG d   1      -2.667  78.586 113.407  0.00  0.00     0.210 C 
ATOM     15  C   LIG d   1      -2.789  78.481 111.884  0.00  0.00     0.109 C 
ATOM     16  O   LIG d   1      -2.890  79.665 113.978  0.00  0.00    -0.276 OA
ATOM     17  H   LIG d   1      -2.091  76.649 113.475  0.00  0.00     0.149 HD
ENDBRANCH   6  13
BRANCH   5  18
ATOM     18  N   LIG d   1      -0.111  78.869 115.650  0.00  0.00     0.381 N 
ATOM     19  H   LIG d   1       0.042  79.364 116.506  0.00  0.00    -0.090 HD
ATOM     20  H   LIG d   1      -0.784  79.380 115.106  0.00  0.00    -0.090 HD
ATOM     21  H   LIG d   1       0.745  78.791 115.146  0.00  0.00    -0.090 HD
ENDBRANCH   5  18
BRANCH   3  22
ATOM     22  C   LIG d   1      -0.652  75.488 118.999  0.00  0.00     0.382 C 
ATOM     23  O   LIG d   1      -0.023  76.154 119.857  0.00  0.00    -0.241 OA
ATOM     24  O   LIG d   1      -0.774  74.258 119.147  0.00  0.00    -0.241 OA
ENDBRANCH   3  22
TORSDOF 7
ENDMDL
MODEL 3
REMARK VINA RESULT:      -5.0      1.475      4.917
REMARK  7 active torsions:
REMARK  status: ('A' for Active; 'I' for Inactive)
REMARK    1  A    between atoms: C_2  and  C_3 
REMARK    2  A    between atoms: C_3  and  O_6 
REMARK    3  A    between atoms: C_3  and  C_4 
REMARK    4  A    between atoms: C_7  and  O_6 
REMARK    5  A    between atoms: C_9  and  C_10 
REMARK    6  A    between atoms: N_15  and  C_14 
REMARK    7  A    between atoms: N_20  and  C_19 
REMARK       I    between atoms: C_22  and  N_20 
ROOT
ATOM      1  C   LIG d   1      -2.600  76.944 115.055  0.00  0.00     0.161 C 
ATOM      2  C   LIG d   1      -2.789  77.822 113.975  0.00  0.00     0.016 C 
ATOM      3  C   LIG d   1      -1.874  78.844 113.634  0.00  0.00     0.038 C 
ATOM      4  C   LIG d   1      -0.625  78.962 114.262  0.00  0.00     0.028 C 
ATOM      5  C   LIG d   1      -0.610  78.418 115.686  0.00  0.00    -0.047 C 
ATOM      6  C   LIG d   1      -1.191  76.985 115.683  0.00  0.00     0.091 C 
ENDROOT
BRANCH   1   7
ATOM      7  O   LIG d   1      -2.931  75.600 114.655  0.00  0.00    -0.368 OA
BRANCH   7   8
ATOM      8  C   LIG d   1      -4.053  74.990 115.339  0.00  0.00     0.119 C 
BRANCH   8   9
ATOM      9  C   LIG d   1      -5.077  74.570 114.266  0.00  0.00     0.028 C 
ATOM     10  C   LIG d   1      -5.565  75.760 113.424  0.00  0.00     0.006 C 
ENDBRANCH   8   9
BRANCH   8  11
ATOM     11  C   LIG d   1      -4.785  76.004 116.223  0.00  0.00     0.028 C 
ATOM     12  C   LIG d   1      -6.064  75.430 116.855  0.00  0.00     0.006 C 
ENDBRANCH   8  11
ENDBRANCH   7   8
ENDBRANCH   1   7
BRANCH   6  13
ATOM     13  N   LIG d   1      -1.290  76.411 117.050  0.00  0.00    -0.311 N 
ATOM     14  C   LIG d   1      -0.674  75.290 117.421  0.00  0.00     0.210 C 
ATOM     15  C   LIG d   1      -0.926  74.862 118.870  0.00  0.00     0.109 C 
ATOM     16  O   LIG d   1       0.084  74.627 116.697  0.00  0.00    -0.276 OA
ATOM     17  H   LIG d   1      -1.860  76.902 117.711  0.00  0.00     0.149 HD
ENDBRANCH   6  13
BRANCH   5  18
ATOM     18  N   LIG d   1       0.782  78.477 116.171  0.00  0.00     0.381 N 
ATOM     19  H   LIG d   1       1.152  79.394 116.027  0.00  0.00    -0.090 HD
ATOM     20  H   LIG d   1       1.337  77.826 115.644  0.00  0.00    -0.090 HD
ATOM     21  H   LIG d   1       0.815  78.245 117.140  0.00  0.00    -0.090 HD
ENDBRANCH   5  18
BRANCH   3  22
ATOM     22  C   LIG d   1      -2.222  79.788 112.680  0.00  0.00     0.382 C 
ATOM     23  O   LIG d   1      -1.725  79.731 111.529  0.00  0.00    -0.241 OA
ATOM     24  O   LIG d   1      -2.994  80.723 112.968  0.00  0.00    -0.241 OA
ENDBRANCH   3  22
TORSDOF 7
ENDMDL
MODEL 4
REMARK VINA RESULT:      -4.8      2.036      4.855
REMARK  7 active torsions:
REMARK  status: ('A' for Active; 'I' for Inactive)
REMARK    1  A    between atoms: C_2  and  C_3 
REMARK    2  A    between atoms: C_3  and  O_6 
REMARK    3  A    between atoms: C_3  and  C_4 
REMARK    4  A    between atoms: C_7  and  O_6 
REMARK    5  A    between atoms: C_9  and  C_10 
REMARK    6  A    between atoms: N_15  and  C_14 
REMARK    7  A    between atoms: N_20  and  C_19 
REMARK       I    between atoms: C_22  and  N_20 
ROOT
ATOM      1  C   LIG d   1      -3.198  77.245 116.264  0.00  0.00     0.161 C 
ATOM      2  C   LIG d   1      -3.280  78.186 115.223  0.00  0.00     0.016 C 
ATOM      3  C   LIG d   1      -2.469  78.138 114.066  0.00  0.00     0.038 C 
ATOM      4  C   LIG d   1      -1.620  77.054 113.800  0.00  0.00     0.028 C 
ATOM      5  C   LIG d   1      -1.135  76.341 115.057  0.00  0.00    -0.047 C 
ATOM      6  C   LIG d   1      -2.356  75.994 115.939  0.00  0.00     0.091 C 
ENDROOT
BRANCH   1   7
ATOM      7  O   LIG d   1      -4.523  76.863 116.682  0.00  0.00    -0.368 OA
BRANCH   7   8
ATOM      8  C   LIG d   1      -5.580  77.056 115.710  0.00  0.00     0.119 C 
BRANCH   8   9
ATOM      9  C   LIG d   1      -6.864  77.410 116.485  0.00  0.00     0.028 C 
ATOM     10  C   LIG d   1      -7.974  76.365 116.289  0.00  0.00     0.006 C 
ENDBRANCH   8   9
BRANCH   8  11
ATOM     11  C   LIG d   1      -5.899  75.755 114.968  0.00  0.00     0.028 C 
ATOM     12  C   LIG d   1      -5.442  75.778 113.501  0.00  0.00     0.006 C 
ENDBRANCH   8  11
ENDBRANCH   7   8
ENDBRANCH   1   7
BRANCH   6  13
ATOM     13  N   LIG d   1      -1.964  75.369 117.229  0.00  0.00    -0.311 N 
ATOM     14  C   LIG d   1      -1.126  75.937 118.095  0.00  0.00     0.210 C 
ATOM     15  C   LIG d   1      -0.840  75.114 119.355  0.00  0.00     0.109 C 
ATOM     16  O   LIG d   1      -0.617  77.059 117.953  0.00  0.00    -0.276 OA
ATOM     17  H   LIG d   1      -2.355  74.471 117.439  0.00  0.00     0.149 HD
ENDBRANCH   6  13
BRANCH   5  18
ATOM     18  N   LIG d   1      -0.374  75.152 114.630  0.00  0.00     0.381 N 
ATOM     19  H   LIG d   1      -0.879  74.322 114.870  0.00  0.00    -0.090 HD
ATOM     20  H   LIG d   1       0.506  75.137 115.116  0.00  0.00    -0.090 HD
ATOM     21  H   LIG d   1      -0.218  75.182 113.646  0.00  0.00    -0.090 HD
ENDBRANCH   5  18
BRANCH   3  22
ATOM     22  C   LIG d   1      -2.474  79.205 113.180  0.00  0.00     0.382 C 
ATOM     23  O   LIG d   1      -1.926  79.089 112.057  0.00  0.00    -0.241 OA
ATOM     24  O   LIG d   1      -2.980  80.295 113.506  0.00  0.00    -0.241 OA
ENDBRANCH   3  22
TORSDOF 7
ENDMDL
MODEL 5
REMARK VINA RESULT:      -4.8      2.186      5.135
REMARK  7 active torsions:
REMARK  status: ('A' for Active; 'I' for Inactive)
REMARK    1  A    between atoms: C_2  and  C_3 
REMARK    2  A    between atoms: C_3  and  O_6 
REMARK    3  A    between atoms: C_3  and  C_4 
REMARK    4  A    between atoms: C_7  and  O_6 
REMARK    5  A    between atoms: C_9  and  C_10 
REMARK    6  A    between atoms: N_15  and  C_14 
REMARK    7  A    between atoms: N_20  and  C_19 
REMARK       I    between atoms: C_22  and  N_20 
ROOT
ATOM      1  C   LIG d   1      -2.991  78.083 116.555  0.00  0.00     0.161 C 
ATOM      2  C   LIG d   1      -3.254  78.765 115.355  0.00  0.00     0.016 C 
ATOM      3  C   LIG d   1      -2.652  78.428 114.121  0.00  0.00     0.038 C 
ATOM      4  C   LIG d   1      -1.855  77.283 113.972  0.00  0.00     0.028 C 
ATOM      5  C   LIG d   1      -1.160  76.858 115.261  0.00  0.00    -0.047 C 
ATOM      6  C   LIG d   1      -2.211  76.762 116.391  0.00  0.00     0.091 C 
ENDROOT
BRANCH   1   7
ATOM      7  O   LIG d   1      -4.224  77.851 117.266  0.00  0.00    -0.368 OA
BRANCH   7   8
ATOM      8  C   LIG d   1      -5.441  77.986 116.491  0.00  0.00     0.119 C 
BRANCH   8   9
ATOM      9  C   LIG d   1      -6.476  78.707 117.377  0.00  0.00     0.028 C 
ATOM     10  C   LIG d   1      -6.106  80.178 117.633  0.00  0.00     0.006 C 
ENDBRANCH   8   9
BRANCH   8  11
ATOM     11  C   LIG d   1      -6.057  76.619 116.179  0.00  0.00     0.028 C 
ATOM     12  C   LIG d   1      -5.907  76.221 114.702  0.00  0.00     0.006 C 
ENDBRANCH   8  11
ENDBRANCH   7   8
ENDBRANCH   1   7
BRANCH   6  13
ATOM     13  N   LIG d   1      -1.601  76.433 117.705  0.00  0.00    -0.311 N 
ATOM     14  C   LIG d   1      -1.311  75.191 118.089  0.00  0.00     0.210 C 
ATOM     15  C   LIG d   1      -0.706  75.072 119.491  0.00  0.00     0.109 C 
ATOM     16  O   LIG d   1      -1.467  74.180 117.388  0.00  0.00    -0.276 OA
ATOM     17  H   LIG d   1      -1.412  77.197 118.324  0.00  0.00     0.149 HD
ENDBRANCH   6  13
BRANCH   5  18
ATOM     18  N   LIG d   1      -0.476  75.578 114.997  0.00  0.00     0.381 N 
ATOM     19  H   LIG d   1      -1.145  74.834 114.978  0.00  0.00    -0.090 HD
ATOM     20  H   LIG d   1       0.175  75.398 115.741  0.00  0.00    -0.090 HD
ATOM     21  H   LIG d   1       0.007  75.622 114.127  0.00  0.00    -0.090 HD
ENDBRANCH   5  18
BRANCH   3  22
ATOM     22  C   LIG d   1      -2.813  79.265 113.027  0.00  0.00     0.382 C 
ATOM     23  O   LIG d   1      -2.751  80.509 113.175  0.00  0.00    -0.241 OA
ATOM     24  O   LIG d   1      -3.064  78.793 111.902  0.00  0.00    -0.241 OA
ENDBRANCH   3  22
TORSDOF 7
ENDMDL
MODEL 6
REMARK VINA RESULT:      -4.7      2.882      4.844
REMARK  7 active torsions:
REMARK  status: ('A' for Active; 'I' for Inactive)
REMARK    1  A    between atoms: C_2  and  C_3 
REMARK    2  A    between atoms: C_3  and  O_6 
REMARK    3  A    between atoms: C_3  and  C_4 
REMARK    4  A    between atoms: C_7  and  O_6 
REMARK    5  A    between atoms: C_9  and  C_10 
REMARK    6  A    between atoms: N_15  and  C_14 
REMARK    7  A    between atoms: N_20  and  C_19 
REMARK       I    between atoms: C_22  and  N_20 
ROOT
ATOM      1  C   LIG d   1      -4.750  76.668 117.526  0.00  0.00     0.161 C 
ATOM      2  C   LIG d   1      -5.625  77.735 117.785  0.00  0.00     0.016 C 
ATOM      3  C   LIG d   1      -5.351  79.073 117.419  0.00  0.00     0.038 C 
ATOM      4  C   LIG d   1      -4.242  79.413 116.629  0.00  0.00     0.028 C 
ATOM      5  C   LIG d   1      -3.074  78.445 116.776  0.00  0.00    -0.047 C 
ATOM      6  C   LIG d   1      -3.588  77.002 116.567  0.00  0.00     0.091 C 
ENDROOT
BRANCH   1   7
ATOM      7  O   LIG d   1      -5.493  75.534 117.036  0.00  0.00    -0.368 OA
BRANCH   7   8
ATOM      8  C   LIG d   1      -6.347  75.779 115.891  0.00  0.00     0.119 C 
BRANCH   8   9
ATOM      9  C   LIG d   1      -7.720  75.149 116.194  0.00  0.00     0.028 C 
ATOM     10  C   LIG d   1      -7.671  74.181 117.389  0.00  0.00     0.006 C 
ENDBRANCH   8   9
BRANCH   8  11
ATOM     11  C   LIG d   1      -5.832  75.049 114.647  0.00  0.00     0.028 C 
ATOM     12  C   LIG d   1      -5.351  76.010 113.548  0.00  0.00     0.006 C 
ENDBRANCH   8  11
ENDBRANCH   7   8
ENDBRANCH   1   7
BRANCH   6  13
ATOM     13  N   LIG d   1      -2.525  75.985 116.777  0.00  0.00    -0.311 N 
ATOM     14  C   LIG d   1      -1.816  75.450 115.784  0.00  0.00     0.210 C 
ATOM     15  C   LIG d   1      -0.783  74.405 116.218  0.00  0.00     0.109 C 
ATOM     16  O   LIG d   1      -1.922  75.765 114.590  0.00  0.00    -0.276 OA
ATOM     17  H   LIG d   1      -2.351  75.695 117.719  0.00  0.00     0.149 HD
ENDBRANCH   6  13
BRANCH   5  18
ATOM     18  N   LIG d   1      -2.042  78.839 115.798  0.00  0.00     0.381 N 
ATOM     19  H   LIG d   1      -1.504  78.038 115.532  0.00  0.00    -0.090 HD
ATOM     20  H   LIG d   1      -1.425  79.506 116.227  0.00  0.00    -0.090 HD
ATOM     21  H   LIG d   1      -2.471  79.241 114.994  0.00  0.00    -0.090 HD
ENDBRANCH   5  18
BRANCH   3  22
ATOM     22  C   LIG d   1      -6.169  80.093 117.879  0.00  0.00     0.382 C 
ATOM     23  O   LIG d   1      -6.801  80.807 117.063  0.00  0.00    -0.241 OA
ATOM     24  O   LIG d   1      -6.250  80.338 119.098  0.00  0.00    -0.241 OA
ENDBRANCH   3  22
TORSDOF 7
ENDMDL
MODEL 7
REMARK VINA RESULT:      -4.6      3.678      5.628
REMARK  7 active torsions:
REMARK  status: ('A' for Active; 'I' for Inactive)
REMARK    1  A    between atoms: C_2  and  C_3 
REMARK    2  A    between atoms: C_3  and  O_6 
REMARK    3  A    between atoms: C_3  and  C_4 
REMARK    4  A    between atoms: C_7  and  O_6 
REMARK    5  A    between atoms: C_9  and  C_10 
REMARK    6  A    between atoms: N_15  and  C_14 
REMARK    7  A    between atoms: N_20  and  C_19 
REMARK       I    between atoms: C_22  and  N_20 
ROOT
ATOM      1  C   LIG d   1      -4.197  78.245 116.098  0.00  0.00     0.161 C 
ATOM      2  C   LIG d   1      -3.157  78.785 115.324  0.00  0.00     0.016 C 
ATOM      3  C   LIG d   1      -2.686  78.191 114.130  0.00  0.00     0.038 C 
ATOM      4  C   LIG d   1      -3.329  77.089 113.546  0.00  0.00     0.028 C 
ATOM      5  C   LIG d   1      -4.063  76.212 114.554  0.00  0.00    -0.047 C 
ATOM      6  C   LIG d   1      -4.984  77.104 115.418  0.00  0.00     0.091 C 
ENDROOT
BRANCH   1   7
ATOM      7  O   LIG d   1      -5.094  79.294 116.513  0.00  0.00    -0.368 OA
BRANCH   7   8
ATOM      8  C   LIG d   1      -5.114  79.591 117.931  0.00  0.00     0.119 C 
BRANCH   8   9
ATOM      9  C   LIG d   1      -3.977  78.786 118.589  0.00  0.00     0.028 C 
ATOM     10  C   LIG d   1      -2.950  79.689 119.292  0.00  0.00     0.006 C 
ENDBRANCH   8   9
BRANCH   8  11
ATOM     11  C   LIG d   1      -6.402  79.086 118.588  0.00  0.00     0.028 C 
ATOM     12  C   LIG d   1      -7.644  79.306 117.710  0.00  0.00     0.006 C 
ENDBRANCH   8  11
ENDBRANCH   7   8
ENDBRANCH   1   7
BRANCH   6  13
ATOM     13  N   LIG d   1      -5.677  76.337 116.486  0.00  0.00    -0.311 N 
ATOM     14  C   LIG d   1      -6.931  75.902 116.380  0.00  0.00     0.210 C 
ATOM     15  C   LIG d   1      -7.460  75.149 117.605  0.00  0.00     0.109 C 
ATOM     16  O   LIG d   1      -7.645  76.040 115.375  0.00  0.00    -0.276 OA
ATOM     17  H   LIG d   1      -5.161  76.153 117.324  0.00  0.00     0.149 HD
ENDBRANCH   6  13
BRANCH   5  18
ATOM     18  N   LIG d   1      -4.800  75.184 113.797  0.00  0.00     0.381 N 
ATOM     19  H   LIG d   1      -4.921  75.482 112.849  0.00  0.00    -0.090 HD
ATOM     20  H   LIG d   1      -5.709  75.065 114.208  0.00  0.00    -0.090 HD
ATOM     21  H   LIG d   1      -4.302  74.321 113.819  0.00  0.00    -0.090 HD
ENDBRANCH   5  18
BRANCH   3  22
ATOM     22  C   LIG d   1      -1.534  78.676 113.529  0.00  0.00     0.382 C 
ATOM     23  O   LIG d   1      -1.419  78.649 112.280  0.00  0.00    -0.241 OA
ATOM     24  O   LIG d   1      -0.590  79.100 114.223  0.00  0.00    -0.241 OA
ENDBRANCH   3  22
TORSDOF 7
ENDMDL
MODEL 8
REMARK VINA RESULT:      -4.5      3.805      6.312
REMARK  7 active torsions:
REMARK  status: ('A' for Active; 'I' for Inactive)
REMARK    1  A    between atoms: C_2  and  C_3 
REMARK    2  A    between atoms: C_3  and  O_6 
REMARK    3  A    between atoms: C_3  and  C_4 
REMARK    4  A    between atoms: C_7  and  O_6 
REMARK    5  A    between atoms: C_9  and  C_10 
REMARK    6  A    between atoms: N_15  and  C_14 
REMARK    7  A    between atoms: N_20  and  C_19 
REMARK       I    between atoms: C_22  and  N_20 
ROOT
ATOM      1  C   LIG d   1      -4.854  78.240 116.884  0.00  0.00     0.161 C 
ATOM      2  C   LIG d   1      -5.455  79.443 117.290  0.00  0.00     0.016 C 
ATOM      3  C   LIG d   1      -6.811  79.544 117.676  0.00  0.00     0.038 C 
ATOM      4  C   LIG d   1      -7.626  78.412 117.827  0.00  0.00     0.028 C 
ATOM      5  C   LIG d   1      -7.206  77.242 116.945  0.00  0.00    -0.047 C 
ATOM      6  C   LIG d   1      -5.697  76.975 117.149  0.00  0.00     0.091 C 
ENDROOT
BRANCH   1   7
ATOM      7  O   LIG d   1      -3.554  78.112 117.493  0.00  0.00    -0.368 OA
BRANCH   7   8
ATOM      8  C   LIG d   1      -2.418  78.312 116.618  0.00  0.00     0.119 C 
BRANCH   8   9
ATOM      9  C   LIG d   1      -2.966  78.654 115.219  0.00  0.00     0.028 C 
ATOM     10  C   LIG d   1      -2.315  77.809 114.111  0.00  0.00     0.006 C 
ENDBRANCH   8   9
BRANCH   8  11
ATOM     11  C   LIG d   1      -1.620  77.018 116.435  0.00  0.00     0.028 C 
ATOM     12  C   LIG d   1      -1.870  76.001 117.560  0.00  0.00     0.006 C 
ENDBRANCH   8  11
ENDBRANCH   7   8
ENDBRANCH   1   7
BRANCH   6  13
ATOM     13  N   LIG d   1      -5.186  75.899 116.260  0.00  0.00    -0.311 N 
ATOM     14  C   LIG d   1      -5.364  75.893 114.940  0.00  0.00     0.210 C 
ATOM     15  C   LIG d   1      -4.774  74.680 114.214  0.00  0.00     0.109 C 
ATOM     16  O   LIG d   1      -5.927  76.792 114.298  0.00  0.00    -0.276 OA
ATOM     17  H   LIG d   1      -4.691  75.145 116.694  0.00  0.00     0.149 HD
ENDBRANCH   6  13
BRANCH   5  18
ATOM     18  N   LIG d   1      -8.051  76.087 117.304  0.00  0.00     0.381 N 
ATOM     19  H   LIG d   1      -8.966  76.204 116.915  0.00  0.00    -0.090 HD
ATOM     20  H   LIG d   1      -8.137  76.045 118.304  0.00  0.00    -0.090 HD
ATOM     21  H   LIG d   1      -7.642  75.246 116.962  0.00  0.00    -0.090 HD
ENDBRANCH   5  18
BRANCH   3  22
ATOM     22  C   LIG d   1      -7.377  80.794 117.876  0.00  0.00     0.382 C 
ATOM     23  O   LIG d   1      -7.306  81.666 116.977  0.00  0.00    -0.241 OA
ATOM     24  O   LIG d   1      -7.919  81.076 118.962  0.00  0.00    -0.241 OA
ENDBRANCH   3  22
TORSDOF 7
ENDMDL
MODEL 9
REMARK VINA RESULT:      -4.4      2.433      5.285
REMARK  7 active torsions:
REMARK  status: ('A' for Active; 'I' for Inactive)
REMARK    1  A    between atoms: C_2  and  C_3 
REMARK    2  A    between atoms: C_3  and  O_6 
REMARK    3  A    between atoms: C_3  and  C_4 
REMARK    4  A    between atoms: C_7  and  O_6 
REMARK    5  A    between atoms: C_9  and  C_10 
REMARK    6  A    between atoms: N_15  and  C_14 
REMARK    7  A    between atoms: N_20  and  C_19 
REMARK       I    between atoms: C_22  and  N_20 
ROOT
ATOM      1  C   LIG d   1      -1.233  77.728 114.411  0.00  0.00     0.161 C 
ATOM      2  C   LIG d   1      -2.391  77.253 113.773  0.00  0.00     0.016 C 
ATOM      3  C   LIG d   1      -3.413  76.543 114.443  0.00  0.00     0.038 C 
ATOM      4  C   LIG d   1      -3.417  76.389 115.838  0.00  0.00     0.028 C 
ATOM      5  C   LIG d   1      -2.023  76.412 116.454  0.00  0.00    -0.047 C 
ATOM      6  C   LIG d   1      -1.273  77.667 115.953  0.00  0.00     0.091 C 
ENDROOT
BRANCH   1   7
ATOM      7  O   LIG d   1      -0.948  79.070 113.970  0.00  0.00    -0.368 OA
BRANCH   7   8
ATOM      8  C   LIG d   1      -1.261  79.367 112.587  0.00  0.00     0.119 C 
BRANCH   8   9
ATOM      9  C   LIG d   1      -0.207  80.369 112.078  0.00  0.00     0.028 C 
ATOM     10  C   LIG d   1       0.318  80.008 110.679  0.00  0.00     0.006 C 
ENDBRANCH   8   9
BRANCH   8  11
ATOM     11  C   LIG d   1      -2.604  80.094 112.464  0.00  0.00     0.028 C 
ATOM     12  C   LIG d   1      -2.458  81.624 112.491  0.00  0.00     0.006 C 
ENDBRANCH   8  11
ENDBRANCH   7   8
ENDBRANCH   1   7
BRANCH   6  13
ATOM     13  N   LIG d   1       0.130  77.722 116.441  0.00  0.00    -0.311 N 
ATOM     14  C   LIG d   1       0.672  78.808 116.991  0.00  0.00     0.210 C 
ATOM     15  C   LIG d   1       2.138  78.657 117.408  0.00  0.00     0.109 C 
ATOM     16  O   LIG d   1       0.069  79.870 117.202  0.00  0.00    -0.276 OA
ATOM     17  H   LIG d   1       0.682  76.894 116.338  0.00  0.00     0.149 HD
ENDBRANCH   6  13
BRANCH   5  18
ATOM     18  N   LIG d   1      -2.182  76.381 117.920  0.00  0.00     0.381 N 
ATOM     19  H   LIG d   1      -1.800  77.214 118.320  0.00  0.00    -0.090 HD
ATOM     20  H   LIG d   1      -1.676  75.594 118.286  0.00  0.00    -0.090 HD
ATOM     21  H   LIG d   1      -3.147  76.303 118.156  0.00  0.00    -0.090 HD
ENDBRANCH   5  18
BRANCH   3  22
ATOM     22  C   LIG d   1      -4.426  75.942 113.711  0.00  0.00     0.382 C 
ATOM     23  O   LIG d   1      -4.671  74.721 113.864  0.00  0.00    -0.241 OA
ATOM     24  O   LIG d   1      -5.068  76.595 112.868  0.00  0.00    -0.241 OA
ENDBRANCH   3  22
TORSDOF 7
ENDMDL
