MODEL 1
REMARK VINA RESULT:      -5.5      0.000      0.000
REMARK  7 active torsions:
REMARK  status: ('A' for Active; 'I' for Inactive)
REMARK    1  A    between atoms: C_2  and  C_3 
REMARK    2  A    between atoms: C_3  and  O_6 
REMARK    3  A    between atoms: C_3  and  C_4 
REMARK    4  A    between atoms: C_7  and  O_6 
REMARK    5  A    between atoms: C_9  and  C_10 
REMARK    6  A    between atoms: N_15  and  C_14 
REMARK    7  A    between atoms: N_20  and  C_19 
REMARK       I    between atoms: C_22  and  N_20 
ROOT
ATOM      1  C   LIG d   1      -3.209  78.625 115.575  0.00  0.00     0.161 C 
ATOM      2  C   LIG d   1      -3.151  79.764 114.755  0.00  0.00     0.016 C 
ATOM      3  C   LIG d   1      -2.293  79.874 113.637  0.00  0.00     0.038 C 
ATOM      4  C   LIG d   1      -1.539  78.787 113.171  0.00  0.00     0.028 C 
ATOM      5  C   LIG d   1      -1.186  77.782 114.262  0.00  0.00    -0.047 C 
ATOM      6  C   LIG d   1      -2.475  77.388 115.017  0.00  0.00     0.091 C 
ENDROOT
BRANCH   1   7
ATOM      7  O   LIG d   1      -4.584  78.303 115.867  0.00  0.00    -0.368 OA
BRANCH   7   8
ATOM      8  C   LIG d   1      -5.016  78.531 117.231  0.00  0.00     0.119 C 
BRANCH   8   9
ATOM      9  C   LIG d   1      -6.103  77.488 117.553  0.00  0.00     0.028 C 
ATOM     10  C   LIG d   1      -6.313  76.486 116.405  0.00  0.00     0.006 C 
ENDBRANCH   8   9
BRANCH   8  11
ATOM     11  C   LIG d   1      -5.703  79.892 117.378  0.00  0.00     0.028 C 
ATOM     12  C   LIG d   1      -7.185  79.771 117.769  0.00  0.00     0.006 C 
ENDBRANCH   8  11
ENDBRANCH   7   8
ENDBRANCH   1   7
BRANCH   6  13
ATOM     13  N   LIG d   1      -2.208  76.472 116.157  0.00  0.00    -0.311 N 
ATOM     14  C   LIG d   1      -2.278  75.145 116.063  0.00  0.00     0.210 C 
ATOM     15  C   LIG d   1      -1.984  74.389 117.362  0.00  0.00     0.109 C 
ATOM     16  O   LIG d   1      -2.526  74.522 115.020  0.00  0.00    -0.276 OA
ATOM     17  H   LIG d   1      -1.969  76.892 117.034  0.00  0.00     0.149 HD
ENDBRANCH   6  13
BRANCH   5  18
ATOM     18  N   LIG d   1      -0.521  76.636 113.615  0.00  0.00     0.381 N 
ATOM     19  H   LIG d   1      -0.552  75.840 114.220  0.00  0.00    -0.090 HD
ATOM     20  H   LIG d   1       0.442  76.869 113.450  0.00  0.00    -0.090 HD
ATOM     21  H   LIG d   1      -0.971  76.423 112.752  0.00  0.00    -0.090 HD
ENDBRANCH   5  18
BRANCH   3  22
ATOM     22  C   LIG d   1      -2.153  81.096 112.996  0.00  0.00     0.382 C 
ATOM     23  O   LIG d   1      -3.171  81.735 112.635  0.00  0.00    -0.241 OA
ATOM     24  O   LIG d   1      -1.022  81.546 112.733  0.00  0.00    -0.241 OA
ENDBRANCH   3  22
TORSDOF 7
ENDMDL
MODEL 2
REMARK VINA RESULT:      -5.1      2.022      2.434
REMARK  7 active torsions:
REMARK  status: ('A' for Active; 'I' for Inactive)
REMARK    1  A    between atoms: C_2  and  C_3 
REMARK    2  A    between atoms: C_3  and  O_6 
REMARK    3  A    between atoms: C_3  and  C_4 
REMARK    4  A    between atoms: C_7  and  O_6 
REMARK    5  A    between atoms: C_9  and  C_10 
REMARK    6  A    between atoms: N_15  and  C_14 
REMARK    7  A    between atoms: N_20  and  C_19 
REMARK       I    between atoms: C_22  and  N_20 
ROOT
ATOM      1  C   LIG d   1      -1.871  78.597 114.928  0.00  0.00     0.161 C 
ATOM      2  C   LIG d   1      -2.315  79.860 114.502  0.00  0.00     0.016 C 
ATOM      3  C   LIG d   1      -2.300  80.276 113.151  0.00  0.00     0.038 C 
ATOM      4  C   LIG d   1      -1.978  79.395 112.108  0.00  0.00     0.028 C 
ATOM      5  C   LIG d   1      -1.041  78.269 112.534  0.00  0.00    -0.047 C 
ATOM      6  C   LIG d   1      -1.621  77.583 113.792  0.00  0.00     0.091 C 
ENDROOT
BRANCH   1   7
ATOM      7  O   LIG d   1      -2.796  78.053 115.891  0.00  0.00    -0.368 OA
BRANCH   7   8
ATOM      8  C   LIG d   1      -2.368  78.086 117.274  0.00  0.00     0.119 C 
BRANCH   8   9
ATOM      9  C   LIG d   1      -2.890  76.804 117.951  0.00  0.00     0.028 C 
ATOM     10  C   LIG d   1      -1.755  75.928 118.507  0.00  0.00     0.006 C 
ENDBRANCH   8   9
BRANCH   8  11
ATOM     11  C   LIG d   1      -3.025  79.242 118.034  0.00  0.00     0.028 C 
ATOM     12  C   LIG d   1      -2.049  79.969 118.973  0.00  0.00     0.006 C 
ENDBRANCH   8  11
ENDBRANCH   7   8
ENDBRANCH   1   7
BRANCH   6  13
ATOM     13  N   LIG d   1      -0.724  76.525 114.325  0.00  0.00    -0.311 N 
ATOM     14  C   LIG d   1      -1.164  75.361 114.800  0.00  0.00     0.210 C 
ATOM     15  C   LIG d   1      -0.073  74.419 115.319  0.00  0.00     0.109 C 
ATOM     16  O   LIG d   1      -2.353  75.007 114.813  0.00  0.00    -0.276 OA
ATOM     17  H   LIG d   1       0.259  76.716 114.323  0.00  0.00     0.149 HD
ENDBRANCH   6  13
BRANCH   5  18
ATOM     18  N   LIG d   1      -0.900  77.350 111.388  0.00  0.00     0.381 N 
ATOM     19  H   LIG d   1      -0.132  76.728 111.546  0.00  0.00    -0.090 HD
ATOM     20  H   LIG d   1      -0.705  77.888 110.562  0.00  0.00    -0.090 HD
ATOM     21  H   LIG d   1      -1.739  76.828 111.264  0.00  0.00    -0.090 HD
ENDBRANCH   5  18
BRANCH   3  22
ATOM     22  C   LIG d   1      -2.571  81.598 112.835  0.00  0.00     0.382 C 
ATOM     23  O   LIG d   1      -3.575  82.167 113.328  0.00  0.00    -0.241 OA
ATOM     24  O   LIG d   1      -1.850  82.216 112.029  0.00  0.00    -0.241 OA
ENDBRANCH   3  22
TORSDOF 7
ENDMDL
MODEL 3
REMARK VINA RESULT:      -5.1      2.357      5.279
REMARK  7 active torsions:
REMARK  status: ('A' for Active; 'I' for Inactive)
REMARK    1  A    between atoms: C_2  and  C_3 
REMARK    2  A    between atoms: C_3  and  O_6 
REMARK    3  A    between atoms: C_3  and  C_4 
REMARK    4  A    between atoms: C_7  and  O_6 
REMARK    5  A    between atoms: C_9  and  C_10 
REMARK    6  A    between atoms: N_15  and  C_14 
REMARK    7  A    between atoms: N_20  and  C_19 
REMARK       I    between atoms: C_22  and  N_20 
ROOT
ATOM      1  C   LIG d   1      -1.768  75.446 115.119  0.00  0.00     0.161 C 
ATOM      2  C   LIG d   1      -1.647  74.814 116.368  0.00  0.00     0.016 C 
ATOM      3  C   LIG d   1      -0.882  75.339 117.435  0.00  0.00     0.038 C 
ATOM      4  C   LIG d   1      -0.306  76.617 117.375  0.00  0.00     0.028 C 
ATOM      5  C   LIG d   1       0.019  77.069 115.956  0.00  0.00    -0.047 C 
ATOM      6  C   LIG d   1      -1.237  76.894 115.073  0.00  0.00     0.091 C 
ENDROOT
BRANCH   1   7
ATOM      7  O   LIG d   1      -3.140  75.400 114.679  0.00  0.00    -0.368 OA
BRANCH   7   8
ATOM      8  C   LIG d   1      -4.144  75.394 115.724  0.00  0.00     0.119 C 
BRANCH   8   9
ATOM      9  C   LIG d   1      -5.361  74.614 115.191  0.00  0.00     0.028 C 
ATOM     10  C   LIG d   1      -6.407  75.533 114.538  0.00  0.00     0.006 C 
ENDBRANCH   8   9
BRANCH   8  11
ATOM     11  C   LIG d   1      -4.661  76.807 116.009  0.00  0.00     0.028 C 
ATOM     12  C   LIG d   1      -4.229  77.333 117.387  0.00  0.00     0.006 C 
ENDBRANCH   8  11
ENDBRANCH   7   8
ENDBRANCH   1   7
BRANCH   6  13
ATOM     13  N   LIG d   1      -0.981  77.234 113.649  0.00  0.00    -0.311 N 
ATOM     14  C   LIG d   1      -1.822  77.949 112.903  0.00  0.00     0.210 C 
ATOM     15  C   LIG d   1      -1.375  78.168 111.454  0.00  0.00     0.109 C 
ATOM     16  O   LIG d   1      -2.880  78.450 113.313  0.00  0.00    -0.276 OA
ATOM     17  H   LIG d   1      -0.131  76.894 113.244  0.00  0.00     0.149 HD
ENDBRANCH   6  13
BRANCH   5  18
ATOM     18  N   LIG d   1       0.485  78.467 116.029  0.00  0.00     0.381 N 
ATOM     19  H   LIG d   1      -0.254  79.084 115.755  0.00  0.00    -0.090 HD
ATOM     20  H   LIG d   1       1.251  78.588 115.390  0.00  0.00    -0.090 HD
ATOM     21  H   LIG d   1       0.779  78.680 116.956  0.00  0.00    -0.090 HD
ENDBRANCH   5  18
BRANCH   3  22
ATOM     22  C   LIG d   1      -0.655  74.567 118.563  0.00  0.00     0.382 C 
ATOM     23  O   LIG d   1      -1.622  74.180 119.264  0.00  0.00    -0.241 OA
ATOM     24  O   LIG d   1       0.507  74.288 118.915  0.00  0.00    -0.241 OA
ENDBRANCH   3  22
TORSDOF 7
ENDMDL
MODEL 4
REMARK VINA RESULT:      -5.1      1.445      2.176
REMARK  7 active torsions:
REMARK  status: ('A' for Active; 'I' for Inactive)
REMARK    1  A    between atoms: C_2  and  C_3 
REMARK    2  A    between atoms: C_3  and  O_6 
REMARK    3  A    between atoms: C_3  and  C_4 
REMARK    4  A    between atoms: C_7  and  O_6 
REMARK    5  A    between atoms: C_9  and  C_10 
REMARK    6  A    between atoms: N_15  and  C_14 
REMARK    7  A    between atoms: N_20  and  C_19 
REMARK       I    between atoms: C_22  and  N_20 
ROOT
ATOM      1  C   LIG d   1      -1.648  78.634 114.919  0.00  0.00     0.161 C 
ATOM      2  C   LIG d   1      -2.135  79.892 114.526  0.00  0.00     0.016 C 
ATOM      3  C   LIG d   1      -2.268  80.288 113.175  0.00  0.00     0.038 C 
ATOM      4  C   LIG d   1      -2.064  79.390 112.116  0.00  0.00     0.028 C 
ATOM      5  C   LIG d   1      -1.088  78.268 112.453  0.00  0.00    -0.047 C 
ATOM      6  C   LIG d   1      -1.526  77.603 113.778  0.00  0.00     0.091 C 
ENDROOT
BRANCH   1   7
ATOM      7  O   LIG d   1      -2.462  78.107 115.985  0.00  0.00    -0.368 OA
BRANCH   7   8
ATOM      8  C   LIG d   1      -3.887  78.348 115.878  0.00  0.00     0.119 C 
BRANCH   8   9
ATOM      9  C   LIG d   1      -4.375  78.859 117.248  0.00  0.00     0.028 C 
ATOM     10  C   LIG d   1      -5.029  80.247 117.157  0.00  0.00     0.006 C 
ENDBRANCH   8   9
BRANCH   8  11
ATOM     11  C   LIG d   1      -4.655  77.045 115.635  0.00  0.00     0.028 C 
ATOM     12  C   LIG d   1      -5.804  76.835 116.634  0.00  0.00     0.006 C 
ENDBRANCH   8  11
ENDBRANCH   7   8
ENDBRANCH   1   7
BRANCH   6  13
ATOM     13  N   LIG d   1      -0.577  76.549 114.224  0.00  0.00    -0.311 N 
ATOM     14  C   LIG d   1      -0.964  75.353 114.664  0.00  0.00     0.210 C 
ATOM     15  C   LIG d   1       0.174  74.423 115.093  0.00  0.00     0.109 C 
ATOM     16  O   LIG d   1      -2.141  74.962 114.709  0.00  0.00    -0.276 OA
ATOM     17  H   LIG d   1       0.398  76.770 114.191  0.00  0.00     0.149 HD
ENDBRANCH   6  13
BRANCH   5  18
ATOM     18  N   LIG d   1      -1.074  77.332 111.313  0.00  0.00     0.381 N 
ATOM     19  H   LIG d   1      -0.295  76.710 111.394  0.00  0.00    -0.090 HD
ATOM     20  H   LIG d   1      -0.971  77.857 110.462  0.00  0.00    -0.090 HD
ATOM     21  H   LIG d   1      -1.923  76.810 111.290  0.00  0.00    -0.090 HD
ENDBRANCH   5  18
BRANCH   3  22
ATOM     22  C   LIG d   1      -2.570  81.606 112.871  0.00  0.00     0.382 C 
ATOM     23  O   LIG d   1      -3.564  82.159 113.400  0.00  0.00    -0.241 OA
ATOM     24  O   LIG d   1      -1.887  82.236 112.041  0.00  0.00    -0.241 OA
ENDBRANCH   3  22
TORSDOF 7
ENDMDL
MODEL 5
REMARK VINA RESULT:      -5.0      1.953      2.751
REMARK  7 active torsions:
REMARK  status: ('A' for Active; 'I' for Inactive)
REMARK    1  A    between atoms: C_2  and  C_3 
REMARK    2  A    between atoms: C_3  and  O_6 
REMARK    3  A    between atoms: C_3  and  C_4 
REMARK    4  A    between atoms: C_7  and  O_6 
REMARK    5  A    between atoms: C_9  and  C_10 
REMARK    6  A    between atoms: N_15  and  C_14 
REMARK    7  A    between atoms: N_20  and  C_19 
REMARK       I    between atoms: C_22  and  N_20 
ROOT
ATOM      1  C   LIG d   1      -3.151  77.016 116.029  0.00  0.00     0.161 C 
ATOM      2  C   LIG d   1      -3.386  77.510 114.735  0.00  0.00     0.016 C 
ATOM      3  C   LIG d   1      -2.390  77.570 113.732  0.00  0.00     0.038 C 
ATOM      4  C   LIG d   1      -1.123  76.997 113.911  0.00  0.00     0.028 C 
ATOM      5  C   LIG d   1      -0.683  76.942 115.370  0.00  0.00    -0.047 C 
ATOM      6  C   LIG d   1      -1.804  76.285 116.207  0.00  0.00     0.091 C 
ENDROOT
BRANCH   1   7
ATOM      7  O   LIG d   1      -4.241  76.164 116.432  0.00  0.00    -0.368 OA
BRANCH   7   8
ATOM      8  C   LIG d   1      -5.562  76.570 115.997  0.00  0.00     0.119 C 
BRANCH   8   9
ATOM      9  C   LIG d   1      -6.300  77.139 117.224  0.00  0.00     0.028 C 
ATOM     10  C   LIG d   1      -6.305  78.677 117.244  0.00  0.00     0.006 C 
ENDBRANCH   8   9
BRANCH   8  11
ATOM     11  C   LIG d   1      -6.394  75.366 115.545  0.00  0.00     0.028 C 
ATOM     12  C   LIG d   1      -7.723  75.241 116.307  0.00  0.00     0.006 C 
ENDBRANCH   8  11
ENDBRANCH   7   8
ENDBRANCH   1   7
BRANCH   6  13
ATOM     13  N   LIG d   1      -1.491  76.267 117.660  0.00  0.00    -0.311 N 
ATOM     14  C   LIG d   1      -0.935  75.226 118.278  0.00  0.00     0.210 C 
ATOM     15  C   LIG d   1      -0.715  75.409 119.783  0.00  0.00     0.109 C 
ATOM     16  O   LIG d   1      -0.575  74.181 117.716  0.00  0.00    -0.276 OA
ATOM     17  H   LIG d   1      -1.722  77.087 118.186  0.00  0.00     0.149 HD
ENDBRANCH   6  13
BRANCH   5  18
ATOM     18  N   LIG d   1       0.590  76.199 115.424  0.00  0.00     0.381 N 
ATOM     19  H   LIG d   1       1.095  76.330 114.570  0.00  0.00    -0.090 HD
ATOM     20  H   LIG d   1       0.391  75.219 115.526  0.00  0.00    -0.090 HD
ATOM     21  H   LIG d   1       1.137  76.516 116.194  0.00  0.00    -0.090 HD
ENDBRANCH   5  18
BRANCH   3  22
ATOM     22  C   LIG d   1      -2.647  78.245 112.549  0.00  0.00     0.382 C 
ATOM     23  O   LIG d   1      -3.524  77.817 111.760  0.00  0.00    -0.241 OA
ATOM     24  O   LIG d   1      -1.983  79.253 112.239  0.00  0.00    -0.241 OA
ENDBRANCH   3  22
TORSDOF 7
ENDMDL
MODEL 6
REMARK VINA RESULT:      -5.0      1.843      2.736
REMARK  7 active torsions:
REMARK  status: ('A' for Active; 'I' for Inactive)
REMARK    1  A    between atoms: C_2  and  C_3 
REMARK    2  A    between atoms: C_3  and  O_6 
REMARK    3  A    between atoms: C_3  and  C_4 
REMARK    4  A    between atoms: C_7  and  O_6 
REMARK    5  A    between atoms: C_9  and  C_10 
REMARK    6  A    between atoms: N_15  and  C_14 
REMARK    7  A    between atoms: N_20  and  C_19 
REMARK       I    between atoms: C_22  and  N_20 
ROOT
ATOM      1  C   LIG d   1      -2.550  78.185 114.773  0.00  0.00     0.161 C 
ATOM      2  C   LIG d   1      -2.884  79.206 113.868  0.00  0.00     0.016 C 
ATOM      3  C   LIG d   1      -1.990  80.234 113.490  0.00  0.00     0.038 C 
ATOM      4  C   LIG d   1      -0.642  80.225 113.879  0.00  0.00     0.028 C 
ATOM      5  C   LIG d   1      -0.397  79.494 115.195  0.00  0.00    -0.047 C 
ATOM      6  C   LIG d   1      -1.050  78.095 115.122  0.00  0.00     0.091 C 
ENDROOT
BRANCH   1   7
ATOM      7  O   LIG d   1      -3.026  76.918 114.278  0.00  0.00    -0.368 OA
BRANCH   7   8
ATOM      8  C   LIG d   1      -4.333  76.502 114.745  0.00  0.00     0.119 C 
BRANCH   8   9
ATOM      9  C   LIG d   1      -4.540  77.111 116.145  0.00  0.00     0.028 C 
ATOM     10  C   LIG d   1      -6.014  77.085 116.584  0.00  0.00     0.006 C 
ENDBRANCH   8   9
BRANCH   8  11
ATOM     11  C   LIG d   1      -4.394  74.985 114.950  0.00  0.00     0.028 C 
ATOM     12  C   LIG d   1      -3.318  74.471 115.920  0.00  0.00     0.006 C 
ENDBRANCH   8  11
ENDBRANCH   7   8
ENDBRANCH   1   7
BRANCH   6  13
ATOM     13  N   LIG d   1      -0.929  77.346 116.400  0.00  0.00    -0.311 N 
ATOM     14  C   LIG d   1      -0.334  76.158 116.500  0.00  0.00     0.210 C 
ATOM     15  C   LIG d   1      -0.337  75.550 117.906  0.00  0.00     0.109 C 
ATOM     16  O   LIG d   1       0.224  75.566 115.564  0.00  0.00    -0.276 OA
ATOM     17  H   LIG d   1      -1.327  77.768 117.216  0.00  0.00     0.149 HD
ENDBRANCH   6  13
BRANCH   5  18
ATOM     18  N   LIG d   1       1.062  79.441 115.411  0.00  0.00     0.381 N 
ATOM     19  H   LIG d   1       1.489  78.880 114.701  0.00  0.00    -0.090 HD
ATOM     20  H   LIG d   1       1.244  79.014 116.302  0.00  0.00    -0.090 HD
ATOM     21  H   LIG d   1       1.443  80.362 115.391  0.00  0.00    -0.090 HD
ENDBRANCH   5  18
BRANCH   3  22
ATOM     22  C   LIG d   1      -2.453  81.309 112.746  0.00  0.00     0.382 C 
ATOM     23  O   LIG d   1      -3.687  81.504 112.628  0.00  0.00    -0.241 OA
ATOM     24  O   LIG d   1      -1.654  82.060 112.156  0.00  0.00    -0.241 OA
ENDBRANCH   3  22
TORSDOF 7
ENDMDL
MODEL 7
REMARK VINA RESULT:      -5.0      2.588      5.010
REMARK  7 active torsions:
REMARK  status: ('A' for Active; 'I' for Inactive)
REMARK    1  A    between atoms: C_2  and  C_3 
REMARK    2  A    between atoms: C_3  and  O_6 
REMARK    3  A    between atoms: C_3  and  C_4 
REMARK    4  A    between atoms: C_7  and  O_6 
REMARK    5  A    between atoms: C_9  and  C_10 
REMARK    6  A    between atoms: N_15  and  C_14 
REMARK    7  A    between atoms: N_20  and  C_19 
REMARK       I    between atoms: C_22  and  N_20 
ROOT
ATOM      1  C   LIG d   1      -2.826  78.073 115.602  0.00  0.00     0.161 C 
ATOM      2  C   LIG d   1      -1.501  78.312 116.002  0.00  0.00     0.016 C 
ATOM      3  C   LIG d   1      -0.623  77.292 116.436  0.00  0.00     0.038 C 
ATOM      4  C   LIG d   1      -0.967  75.934 116.355  0.00  0.00     0.028 C 
ATOM      5  C   LIG d   1      -2.469  75.684 116.435  0.00  0.00    -0.047 C 
ATOM      6  C   LIG d   1      -3.183  76.586 115.402  0.00  0.00     0.091 C 
ENDROOT
BRANCH   1   7
ATOM      7  O   LIG d   1      -3.119  78.824 114.407  0.00  0.00    -0.368 OA
BRANCH   7   8
ATOM      8  C   LIG d   1      -2.146  78.725 113.338  0.00  0.00     0.119 C 
BRANCH   8   9
ATOM      9  C   LIG d   1      -1.571  80.136 113.103  0.00  0.00     0.028 C 
ATOM     10  C   LIG d   1      -2.669  81.208 113.008  0.00  0.00     0.006 C 
ENDBRANCH   8   9
BRANCH   8  11
ATOM     11  C   LIG d   1      -2.810  78.332 112.015  0.00  0.00     0.028 C 
ATOM     12  C   LIG d   1      -1.802  78.176 110.866  0.00  0.00     0.006 C 
ENDBRANCH   8  11
ENDBRANCH   7   8
ENDBRANCH   1   7
BRANCH   6  13
ATOM     13  N   LIG d   1      -4.663  76.465 115.472  0.00  0.00    -0.311 N 
ATOM     14  C   LIG d   1      -5.371  75.663 114.679  0.00  0.00     0.210 C 
ATOM     15  C   LIG d   1      -6.886  75.705 114.903  0.00  0.00     0.109 C 
ATOM     16  O   LIG d   1      -4.886  74.896 113.833  0.00  0.00    -0.276 OA
ATOM     17  H   LIG d   1      -5.135  77.029 116.152  0.00  0.00     0.149 HD
ENDBRANCH   6  13
BRANCH   5  18
ATOM     18  N   LIG d   1      -2.694  74.245 116.200  0.00  0.00     0.381 N 
ATOM     19  H   LIG d   1      -1.837  73.808 115.927  0.00  0.00    -0.090 HD
ATOM     20  H   LIG d   1      -3.355  74.138 115.451  0.00  0.00    -0.090 HD
ATOM     21  H   LIG d   1      -3.045  73.816 117.027  0.00  0.00    -0.090 HD
ENDBRANCH   5  18
BRANCH   3  22
ATOM     22  C   LIG d   1       0.600  77.630 116.995  0.00  0.00     0.382 C 
ATOM     23  O   LIG d   1       1.056  78.790 116.851  0.00  0.00    -0.241 OA
ATOM     24  O   LIG d   1       1.274  76.777 117.603  0.00  0.00    -0.241 OA
ENDBRANCH   3  22
TORSDOF 7
ENDMDL
MODEL 8
REMARK VINA RESULT:      -5.0      2.122      4.719
REMARK  7 active torsions:
REMARK  status: ('A' for Active; 'I' for Inactive)
REMARK    1  A    between atoms: C_2  and  C_3 
REMARK    2  A    between atoms: C_3  and  O_6 
REMARK    3  A    between atoms: C_3  and  C_4 
REMARK    4  A    between atoms: C_7  and  O_6 
REMARK    5  A    between atoms: C_9  and  C_10 
REMARK    6  A    between atoms: N_15  and  C_14 
REMARK    7  A    between atoms: N_20  and  C_19 
REMARK       I    between atoms: C_22  and  N_20 
ROOT
ATOM      1  C   LIG d   1      -2.980  76.400 115.150  0.00  0.00     0.161 C 
ATOM      2  C   LIG d   1      -2.781  75.990 116.479  0.00  0.00     0.016 C 
ATOM      3  C   LIG d   1      -1.689  76.416 117.270  0.00  0.00     0.038 C 
ATOM      4  C   LIG d   1      -0.797  77.405 116.832  0.00  0.00     0.028 C 
ATOM      5  C   LIG d   1      -0.666  77.473 115.314  0.00  0.00    -0.047 C 
ATOM      6  C   LIG d   1      -2.079  77.566 114.692  0.00  0.00     0.091 C 
ENDROOT
BRANCH   1   7
ATOM      7  O   LIG d   1      -4.368  76.728 114.942  0.00  0.00    -0.368 OA
BRANCH   7   8
ATOM      8  C   LIG d   1      -5.278  76.353 116.005  0.00  0.00     0.119 C 
BRANCH   8   9
ATOM      9  C   LIG d   1      -6.333  75.408 115.399  0.00  0.00     0.028 C 
ATOM     10  C   LIG d   1      -7.693  75.513 116.111  0.00  0.00     0.006 C 
ENDBRANCH   8   9
BRANCH   8  11
ATOM     11  C   LIG d   1      -6.064  77.563 116.519  0.00  0.00     0.028 C 
ATOM     12  C   LIG d   1      -5.156  78.735 116.926  0.00  0.00     0.006 C 
ENDBRANCH   8  11
ENDBRANCH   7   8
ENDBRANCH   1   7
BRANCH   6  13
ATOM     13  N   LIG d   1      -2.046  77.552 113.206  0.00  0.00    -0.311 N 
ATOM     14  C   LIG d   1      -2.540  78.533 112.453  0.00  0.00     0.210 C 
ATOM     15  C   LIG d   1      -2.421  78.310 110.942  0.00  0.00     0.109 C 
ATOM     16  O   LIG d   1      -3.035  79.581 112.892  0.00  0.00    -0.276 OA
ATOM     17  H   LIG d   1      -1.633  76.753 112.767  0.00  0.00     0.149 HD
ENDBRANCH   6  13
BRANCH   5  18
ATOM     18  N   LIG d   1       0.185  78.634 114.992  0.00  0.00     0.381 N 
ATOM     19  H   LIG d   1      -0.389  79.422 114.763  0.00  0.00    -0.090 HD
ATOM     20  H   LIG d   1       0.748  78.412 114.190  0.00  0.00    -0.090 HD
ATOM     21  H   LIG d   1       0.770  78.854 115.767  0.00  0.00    -0.090 HD
ENDBRANCH   5  18
BRANCH   3  22
ATOM     22  C   LIG d   1      -1.458  75.819 118.500  0.00  0.00     0.382 C 
ATOM     23  O   LIG d   1      -1.911  74.673 118.736  0.00  0.00    -0.241 OA
ATOM     24  O   LIG d   1      -0.840  76.430 119.393  0.00  0.00    -0.241 OA
ENDBRANCH   3  22
TORSDOF 7
ENDMDL
MODEL 9
REMARK VINA RESULT:      -4.9      3.105      4.600
REMARK  7 active torsions:
REMARK  status: ('A' for Active; 'I' for Inactive)
REMARK    1  A    between atoms: C_2  and  C_3 
REMARK    2  A    between atoms: C_3  and  O_6 
REMARK    3  A    between atoms: C_3  and  C_4 
REMARK    4  A    between atoms: C_7  and  O_6 
REMARK    5  A    between atoms: C_9  and  C_10 
REMARK    6  A    between atoms: N_15  and  C_14 
REMARK    7  A    between atoms: N_20  and  C_19 
REMARK       I    between atoms: C_22  and  N_20 
ROOT
ATOM      1  C   LIG d   1      -2.050  77.194 115.781  0.00  0.00     0.161 C 
ATOM      2  C   LIG d   1      -2.551  77.290 114.473  0.00  0.00     0.016 C 
ATOM      3  C   LIG d   1      -2.000  78.144 113.489  0.00  0.00     0.038 C 
ATOM      4  C   LIG d   1      -0.809  78.852 113.706  0.00  0.00     0.028 C 
ATOM      5  C   LIG d   1      -0.554  79.174 115.174  0.00  0.00    -0.047 C 
ATOM      6  C   LIG d   1      -0.684  77.876 116.003  0.00  0.00     0.091 C 
ENDROOT
BRANCH   1   7
ATOM      7  O   LIG d   1      -1.991  75.811 116.181  0.00  0.00    -0.368 OA
BRANCH   7   8
ATOM      8  C   LIG d   1      -0.678  75.198 116.162  0.00  0.00     0.119 C 
BRANCH   8   9
ATOM      9  C   LIG d   1      -0.659  74.181 115.004  0.00  0.00     0.028 C 
ATOM     10  C   LIG d   1       0.351  74.558 113.908  0.00  0.00     0.006 C 
ENDBRANCH   8   9
BRANCH   8  11
ATOM     11  C   LIG d   1      -0.429  74.374 117.429  0.00  0.00     0.028 C 
ATOM     12  C   LIG d   1      -1.458  74.656 118.535  0.00  0.00     0.006 C 
ENDBRANCH   8  11
ENDBRANCH   7   8
ENDBRANCH   1   7
BRANCH   6  13
ATOM     13  N   LIG d   1      -0.532  78.117 117.461  0.00  0.00    -0.311 N 
ATOM     14  C   LIG d   1       0.625  77.991 118.109  0.00  0.00     0.210 C 
ATOM     15  C   LIG d   1       0.557  78.266 119.614  0.00  0.00     0.109 C 
ATOM     16  O   LIG d   1       1.708  77.709 117.574  0.00  0.00    -0.276 OA
ATOM     17  H   LIG d   1      -1.355  78.380 117.968  0.00  0.00     0.149 HD
ENDBRANCH   6  13
BRANCH   5  18
ATOM     18  N   LIG d   1       0.783  79.790 115.270  0.00  0.00     0.381 N 
ATOM     19  H   LIG d   1       1.110  79.746 116.214  0.00  0.00    -0.090 HD
ATOM     20  H   LIG d   1       0.716  80.757 115.004  0.00  0.00    -0.090 HD
ATOM     21  H   LIG d   1       1.421  79.316 114.668  0.00  0.00    -0.090 HD
ENDBRANCH   5  18
BRANCH   3  22
ATOM     22  C   LIG d   1      -2.666  78.326 112.286  0.00  0.00     0.382 C 
ATOM     23  O   LIG d   1      -3.663  77.618 112.008  0.00  0.00    -0.241 OA
ATOM     24  O   LIG d   1      -2.254  79.159 111.457  0.00  0.00    -0.241 OA
ENDBRANCH   3  22
TORSDOF 7
ENDMDL
