MODEL 1
REMARK VINA RESULT:      -5.2      0.000      0.000
REMARK  7 active torsions:
REMARK  status: ('A' for Active; 'I' for Inactive)
REMARK    1  A    between atoms: C_2  and  C_3 
REMARK    2  A    between atoms: C_3  and  O_6 
REMARK    3  A    between atoms: C_3  and  C_4 
REMARK    4  A    between atoms: C_7  and  O_6 
REMARK    5  A    between atoms: C_9  and  C_10 
REMARK    6  A    between atoms: N_15  and  C_14 
REMARK    7  A    between atoms: N_20  and  C_19 
REMARK       I    between atoms: C_22  and  N_20 
ROOT
ATOM      1  C   LIG d   1      -2.782  78.427 115.180  0.00  0.00     0.161 C 
ATOM      2  C   LIG d   1      -3.048  79.617 114.482  0.00  0.00     0.016 C 
ATOM      3  C   LIG d   1      -2.706  79.817 113.125  0.00  0.00     0.038 C 
ATOM      4  C   LIG d   1      -2.208  78.777 112.325  0.00  0.00     0.028 C 
ATOM      5  C   LIG d   1      -1.456  77.712 113.116  0.00  0.00    -0.047 C 
ATOM      6  C   LIG d   1      -2.340  77.243 114.294  0.00  0.00     0.091 C 
ENDROOT
BRANCH   1   7
ATOM      7  O   LIG d   1      -3.928  78.059 115.972  0.00  0.00    -0.368 OA
BRANCH   7   8
ATOM      8  C   LIG d   1      -4.121  78.804 117.200  0.00  0.00     0.119 C 
BRANCH   8   9
ATOM      9  C   LIG d   1      -3.179  78.201 118.260  0.00  0.00     0.028 C 
ATOM     10  C   LIG d   1      -3.456  76.709 118.510  0.00  0.00     0.006 C 
ENDBRANCH   8   9
BRANCH   8  11
ATOM     11  C   LIG d   1      -5.534  78.608 117.755  0.00  0.00     0.028 C 
ATOM     12  C   LIG d   1      -6.406  79.867 117.622  0.00  0.00     0.006 C 
ENDBRANCH   8  11
ENDBRANCH   7   8
ENDBRANCH   1   7
BRANCH   6  13
ATOM     13  N   LIG d   1      -1.647  76.261 115.168  0.00  0.00    -0.311 N 
ATOM     14  C   LIG d   1      -2.092  75.024 115.377  0.00  0.00     0.210 C 
ATOM     15  C   LIG d   1      -1.237  74.181 116.329  0.00  0.00     0.109 C 
ATOM     16  O   LIG d   1      -3.097  74.533 114.840  0.00  0.00    -0.276 OA
ATOM     17  H   LIG d   1      -0.807  76.566 115.619  0.00  0.00     0.149 HD
ENDBRANCH   6  13
BRANCH   5  18
ATOM     18  N   LIG d   1      -1.112  76.623 112.182  0.00  0.00     0.381 N 
ATOM     19  H   LIG d   1      -0.230  76.813 111.751  0.00  0.00    -0.090 HD
ATOM     20  H   LIG d   1      -1.812  76.580 111.462  0.00  0.00    -0.090 HD
ATOM     21  H   LIG d   1      -1.073  75.755 112.669  0.00  0.00    -0.090 HD
ENDBRANCH   5  18
BRANCH   3  22
ATOM     22  C   LIG d   1      -2.825  81.080 112.565  0.00  0.00     0.382 C 
ATOM     23  O   LIG d   1      -1.810  81.664 112.115  0.00  0.00    -0.241 OA
ATOM     24  O   LIG d   1      -3.927  81.660 112.544  0.00  0.00    -0.241 OA
ENDBRANCH   3  22
TORSDOF 7
ENDMDL
MODEL 2
REMARK VINA RESULT:      -4.8      2.285      3.072
REMARK  7 active torsions:
REMARK  status: ('A' for Active; 'I' for Inactive)
REMARK    1  A    between atoms: C_2  and  C_3 
REMARK    2  A    between atoms: C_3  and  O_6 
REMARK    3  A    between atoms: C_3  and  C_4 
REMARK    4  A    between atoms: C_7  and  O_6 
REMARK    5  A    between atoms: C_9  and  C_10 
REMARK    6  A    between atoms: N_15  and  C_14 
REMARK    7  A    between atoms: N_20  and  C_19 
REMARK       I    between atoms: C_22  and  N_20 
ROOT
ATOM      1  C   LIG d   1      -3.211  77.285 115.496  0.00  0.00     0.161 C 
ATOM      2  C   LIG d   1      -3.603  77.755 114.231  0.00  0.00     0.016 C 
ATOM      3  C   LIG d   1      -2.811  77.614 113.069  0.00  0.00     0.038 C 
ATOM      4  C   LIG d   1      -1.633  76.853 113.062  0.00  0.00     0.028 C 
ATOM      5  C   LIG d   1      -0.946  76.789 114.422  0.00  0.00    -0.047 C 
ATOM      6  C   LIG d   1      -1.979  76.355 115.486  0.00  0.00     0.091 C 
ENDROOT
BRANCH   1   7
ATOM      7  O   LIG d   1      -4.324  76.636 116.142  0.00  0.00    -0.368 OA
BRANCH   7   8
ATOM      8  C   LIG d   1      -5.559  76.587 115.387  0.00  0.00     0.119 C 
BRANCH   8   9
ATOM      9  C   LIG d   1      -6.660  77.221 116.260  0.00  0.00     0.028 C 
ATOM     10  C   LIG d   1      -6.165  78.464 117.018  0.00  0.00     0.006 C 
ENDBRANCH   8   9
BRANCH   8  11
ATOM     11  C   LIG d   1      -6.011  75.143 115.151  0.00  0.00     0.028 C 
ATOM     12  C   LIG d   1      -4.863  74.227 114.695  0.00  0.00     0.006 C 
ENDBRANCH   8  11
ENDBRANCH   7   8
ENDBRANCH   1   7
BRANCH   6  13
ATOM     13  N   LIG d   1      -1.411  76.348 116.859  0.00  0.00    -0.311 N 
ATOM     14  C   LIG d   1      -0.856  75.274 117.418  0.00  0.00     0.210 C 
ATOM     15  C   LIG d   1      -0.350  75.478 118.849  0.00  0.00     0.109 C 
ATOM     16  O   LIG d   1      -0.707  74.180 116.853  0.00  0.00    -0.276 OA
ATOM     17  H   LIG d   1      -1.461  77.203 117.378  0.00  0.00     0.149 HD
ENDBRANCH   6  13
BRANCH   5  18
ATOM     18  N   LIG d   1       0.190  75.855 114.304  0.00  0.00     0.381 N 
ATOM     19  H   LIG d   1       0.145  75.173 115.035  0.00  0.00    -0.090 HD
ATOM     20  H   LIG d   1       1.046  76.370 114.406  0.00  0.00    -0.090 HD
ATOM     21  H   LIG d   1       0.169  75.403 113.417  0.00  0.00    -0.090 HD
ENDBRANCH   5  18
BRANCH   3  22
ATOM     22  C   LIG d   1      -3.177  78.271 111.904  0.00  0.00     0.382 C 
ATOM     23  O   LIG d   1      -2.464  79.203 111.460  0.00  0.00    -0.241 OA
ATOM     24  O   LIG d   1      -4.234  77.974 111.316  0.00  0.00    -0.241 OA
ENDBRANCH   3  22
TORSDOF 7
ENDMDL
MODEL 3
REMARK VINA RESULT:      -4.8      2.759      5.100
REMARK  7 active torsions:
REMARK  status: ('A' for Active; 'I' for Inactive)
REMARK    1  A    between atoms: C_2  and  C_3 
REMARK    2  A    between atoms: C_3  and  O_6 
REMARK    3  A    between atoms: C_3  and  C_4 
REMARK    4  A    between atoms: C_7  and  O_6 
REMARK    5  A    between atoms: C_9  and  C_10 
REMARK    6  A    between atoms: N_15  and  C_14 
REMARK    7  A    between atoms: N_20  and  C_19 
REMARK       I    between atoms: C_22  and  N_20 
ROOT
ATOM      1  C   LIG d   1      -2.373  79.145 114.597  0.00  0.00     0.161 C 
ATOM      2  C   LIG d   1      -3.095  77.981 114.914  0.00  0.00     0.016 C 
ATOM      3  C   LIG d   1      -3.592  77.085 113.941  0.00  0.00     0.038 C 
ATOM      4  C   LIG d   1      -3.270  77.213 112.581  0.00  0.00     0.028 C 
ATOM      5  C   LIG d   1      -2.969  78.648 112.162  0.00  0.00    -0.047 C 
ATOM      6  C   LIG d   1      -1.917  79.242 113.126  0.00  0.00     0.091 C 
ENDROOT
BRANCH   1   7
ATOM      7  O   LIG d   1      -1.244  79.275 115.482  0.00  0.00    -0.368 OA
BRANCH   7   8
ATOM      8  C   LIG d   1      -1.193  78.347 116.593  0.00  0.00     0.119 C 
BRANCH   8   9
ATOM      9  C   LIG d   1      -1.253  79.175 117.892  0.00  0.00     0.028 C 
ATOM     10  C   LIG d   1      -0.037  80.104 118.051  0.00  0.00     0.006 C 
ENDBRANCH   8   9
BRANCH   8  11
ATOM     11  C   LIG d   1       0.148  77.610 116.643  0.00  0.00     0.028 C 
ATOM     12  C   LIG d   1       0.122  76.273 115.886  0.00  0.00     0.006 C 
ENDBRANCH   8  11
ENDBRANCH   7   8
ENDBRANCH   1   7
BRANCH   6  13
ATOM     13  N   LIG d   1      -1.627  80.671 112.839  0.00  0.00    -0.311 N 
ATOM     14  C   LIG d   1      -0.679  81.071 111.993  0.00  0.00     0.210 C 
ATOM     15  C   LIG d   1      -0.533  82.590 111.857  0.00  0.00     0.109 C 
ATOM     16  O   LIG d   1       0.033  80.312 111.318  0.00  0.00    -0.276 OA
ATOM     17  H   LIG d   1      -2.179  81.354 113.320  0.00  0.00     0.149 HD
ENDBRANCH   6  13
BRANCH   5  18
ATOM     18  N   LIG d   1      -2.515  78.617 110.759  0.00  0.00     0.381 N 
ATOM     19  H   LIG d   1      -2.039  79.468 110.538  0.00  0.00    -0.090 HD
ATOM     20  H   LIG d   1      -3.318  78.539 110.160  0.00  0.00    -0.090 HD
ATOM     21  H   LIG d   1      -1.907  77.841 110.614  0.00  0.00    -0.090 HD
ENDBRANCH   5  18
BRANCH   3  22
ATOM     22  C   LIG d   1      -4.455  76.068 114.320  0.00  0.00     0.382 C 
ATOM     23  O   LIG d   1      -4.916  75.282 113.457  0.00  0.00    -0.241 OA
ATOM     24  O   LIG d   1      -4.814  75.955 115.507  0.00  0.00    -0.241 OA
ENDBRANCH   3  22
TORSDOF 7
ENDMDL
MODEL 4
REMARK VINA RESULT:      -4.7      2.659      5.482
REMARK  7 active torsions:
REMARK  status: ('A' for Active; 'I' for Inactive)
REMARK    1  A    between atoms: C_2  and  C_3 
REMARK    2  A    between atoms: C_3  and  O_6 
REMARK    3  A    between atoms: C_3  and  C_4 
REMARK    4  A    between atoms: C_7  and  O_6 
REMARK    5  A    between atoms: C_9  and  C_10 
REMARK    6  A    between atoms: N_15  and  C_14 
REMARK    7  A    between atoms: N_20  and  C_19 
REMARK       I    between atoms: C_22  and  N_20 
ROOT
ATOM      1  C   LIG d   1      -1.428  75.284 114.821  0.00  0.00     0.161 C 
ATOM      2  C   LIG d   1      -0.794  74.794 115.975  0.00  0.00     0.016 C 
ATOM      3  C   LIG d   1      -0.184  75.628 116.940  0.00  0.00     0.038 C 
ATOM      4  C   LIG d   1      -0.299  77.025 116.893  0.00  0.00     0.028 C 
ATOM      5  C   LIG d   1      -0.496  77.569 115.482  0.00  0.00    -0.047 C 
ATOM      6  C   LIG d   1      -1.661  76.809 114.809  0.00  0.00     0.091 C 
ENDROOT
BRANCH   1   7
ATOM      7  O   LIG d   1      -2.671  74.585 114.613  0.00  0.00    -0.368 OA
BRANCH   7   8
ATOM      8  C   LIG d   1      -3.873  75.290 115.011  0.00  0.00     0.119 C 
BRANCH   8   9
ATOM      9  C   LIG d   1      -4.212  74.852 116.449  0.00  0.00     0.028 C 
ATOM     10  C   LIG d   1      -3.913  75.950 117.483  0.00  0.00     0.006 C 
ENDBRANCH   8   9
BRANCH   8  11
ATOM     11  C   LIG d   1      -5.075  74.865 114.163  0.00  0.00     0.028 C 
ATOM     12  C   LIG d   1      -5.752  76.048 113.453  0.00  0.00     0.006 C 
ENDBRANCH   8  11
ENDBRANCH   7   8
ENDBRANCH   1   7
BRANCH   6  13
ATOM     13  N   LIG d   1      -1.866  77.221 113.396  0.00  0.00    -0.311 N 
ATOM     14  C   LIG d   1      -2.711  78.183 113.028  0.00  0.00     0.210 C 
ATOM     15  C   LIG d   1      -2.784  78.436 111.519  0.00  0.00     0.109 C 
ATOM     16  O   LIG d   1      -3.383  78.871 113.810  0.00  0.00    -0.276 OA
ATOM     17  H   LIG d   1      -1.337  76.736 112.698  0.00  0.00     0.149 HD
ENDBRANCH   6  13
BRANCH   5  18
ATOM     18  N   LIG d   1      -0.739  79.019 115.594  0.00  0.00     0.381 N 
ATOM     19  H   LIG d   1      -0.601  79.314 116.540  0.00  0.00    -0.090 HD
ATOM     20  H   LIG d   1      -1.693  79.209 115.340  0.00  0.00    -0.090 HD
ATOM     21  H   LIG d   1      -0.122  79.516 114.990  0.00  0.00    -0.090 HD
ENDBRANCH   5  18
BRANCH   3  22
ATOM     22  C   LIG d   1       0.586  75.064 117.947  0.00  0.00     0.382 C 
ATOM     23  O   LIG d   1       1.783  75.412 118.089  0.00  0.00    -0.241 OA
ATOM     24  O   LIG d   1       0.112  74.180 118.685  0.00  0.00    -0.241 OA
ENDBRANCH   3  22
TORSDOF 7
ENDMDL
MODEL 5
REMARK VINA RESULT:      -4.7      1.105      1.983
REMARK  7 active torsions:
REMARK  status: ('A' for Active; 'I' for Inactive)
REMARK    1  A    between atoms: C_2  and  C_3 
REMARK    2  A    between atoms: C_3  and  O_6 
REMARK    3  A    between atoms: C_3  and  C_4 
REMARK    4  A    between atoms: C_7  and  O_6 
REMARK    5  A    between atoms: C_9  and  C_10 
REMARK    6  A    between atoms: N_15  and  C_14 
REMARK    7  A    between atoms: N_20  and  C_19 
REMARK       I    between atoms: C_22  and  N_20 
ROOT
ATOM      1  C   LIG d   1      -3.265  77.948 114.746  0.00  0.00     0.161 C 
ATOM      2  C   LIG d   1      -3.317  79.232 114.180  0.00  0.00     0.016 C 
ATOM      3  C   LIG d   1      -2.638  79.588 112.992  0.00  0.00     0.038 C 
ATOM      4  C   LIG d   1      -1.978  78.635 112.202  0.00  0.00     0.028 C 
ATOM      5  C   LIG d   1      -1.476  77.433 112.995  0.00  0.00    -0.047 C 
ATOM      6  C   LIG d   1      -2.641  76.866 113.839  0.00  0.00     0.091 C 
ENDROOT
BRANCH   1   7
ATOM      7  O   LIG d   1      -4.583  77.546 115.169  0.00  0.00    -0.368 OA
BRANCH   7   8
ATOM      8  C   LIG d   1      -4.801  77.483 116.600  0.00  0.00     0.119 C 
BRANCH   8   9
ATOM      9  C   LIG d   1      -5.948  78.455 116.938  0.00  0.00     0.028 C 
ATOM     10  C   LIG d   1      -5.436  79.806 117.466  0.00  0.00     0.006 C 
ENDBRANCH   8   9
BRANCH   8  11
ATOM     11  C   LIG d   1      -3.586  78.006 117.373  0.00  0.00     0.028 C 
ATOM     12  C   LIG d   1      -3.093  77.021 118.445  0.00  0.00     0.006 C 
ENDBRANCH   8  11
ENDBRANCH   7   8
ENDBRANCH   1   7
BRANCH   6  13
ATOM     13  N   LIG d   1      -2.215  75.740 114.709  0.00  0.00    -0.311 N 
ATOM     14  C   LIG d   1      -1.191  75.815 115.557  0.00  0.00     0.210 C 
ATOM     15  C   LIG d   1      -0.909  74.533 116.346  0.00  0.00     0.109 C 
ATOM     16  O   LIG d   1      -0.510  76.833 115.755  0.00  0.00    -0.276 OA
ATOM     17  H   LIG d   1      -2.733  74.886 114.636  0.00  0.00     0.149 HD
ENDBRANCH   6  13
BRANCH   5  18
ATOM     18  N   LIG d   1      -0.933  76.458 112.031  0.00  0.00     0.381 N 
ATOM     19  H   LIG d   1      -1.226  75.535 112.281  0.00  0.00    -0.090 HD
ATOM     20  H   LIG d   1       0.071  76.491 112.066  0.00  0.00    -0.090 HD
ATOM     21  H   LIG d   1      -1.248  76.676 111.111  0.00  0.00    -0.090 HD
ENDBRANCH   5  18
BRANCH   3  22
ATOM     22  C   LIG d   1      -2.581  80.918 112.605  0.00  0.00     0.382 C 
ATOM     23  O   LIG d   1      -3.559  81.675 112.816  0.00  0.00    -0.241 OA
ATOM     24  O   LIG d   1      -1.581  81.360 112.008  0.00  0.00    -0.241 OA
ENDBRANCH   3  22
TORSDOF 7
ENDMDL
MODEL 6
REMARK VINA RESULT:      -4.7      1.732      4.539
REMARK  7 active torsions:
REMARK  status: ('A' for Active; 'I' for Inactive)
REMARK    1  A    between atoms: C_2  and  C_3 
REMARK    2  A    between atoms: C_3  and  O_6 
REMARK    3  A    between atoms: C_3  and  C_4 
REMARK    4  A    between atoms: C_7  and  O_6 
REMARK    5  A    between atoms: C_9  and  C_10 
REMARK    6  A    between atoms: N_15  and  C_14 
REMARK    7  A    between atoms: N_20  and  C_19 
REMARK       I    between atoms: C_22  and  N_20 
ROOT
ATOM      1  C   LIG d   1      -3.419  78.231 114.737  0.00  0.00     0.161 C 
ATOM      2  C   LIG d   1      -4.235  77.112 114.976  0.00  0.00     0.016 C 
ATOM      3  C   LIG d   1      -3.757  75.782 114.951  0.00  0.00     0.038 C 
ATOM      4  C   LIG d   1      -2.391  75.486 114.835  0.00  0.00     0.028 C 
ATOM      5  C   LIG d   1      -1.602  76.556 114.088  0.00  0.00    -0.047 C 
ATOM      6  C   LIG d   1      -1.905  77.935 114.718  0.00  0.00     0.091 C 
ENDROOT
BRANCH   1   7
ATOM      7  O   LIG d   1      -3.715  79.265 115.696  0.00  0.00    -0.368 OA
BRANCH   7   8
ATOM      8  C   LIG d   1      -4.330  78.830 116.934  0.00  0.00     0.119 C 
BRANCH   8   9
ATOM      9  C   LIG d   1      -5.437  79.844 117.283  0.00  0.00     0.028 C 
ATOM     10  C   LIG d   1      -6.579  79.210 118.094  0.00  0.00     0.006 C 
ENDBRANCH   8   9
BRANCH   8  11
ATOM     11  C   LIG d   1      -3.340  78.893 118.101  0.00  0.00     0.028 C 
ATOM     12  C   LIG d   1      -2.780  77.513 118.482  0.00  0.00     0.006 C 
ENDBRANCH   8  11
ENDBRANCH   7   8
ENDBRANCH   1   7
BRANCH   6  13
ATOM     13  N   LIG d   1      -1.238  79.048 113.994  0.00  0.00    -0.311 N 
ATOM     14  C   LIG d   1      -1.453  79.318 112.707  0.00  0.00     0.210 C 
ATOM     15  C   LIG d   1      -0.648  80.497 112.151  0.00  0.00     0.109 C 
ATOM     16  O   LIG d   1      -2.257  78.714 111.982  0.00  0.00    -0.276 OA
ATOM     17  H   LIG d   1      -0.593  79.609 114.515  0.00  0.00     0.149 HD
ENDBRANCH   6  13
BRANCH   5  18
ATOM     18  N   LIG d   1      -0.175  76.189 114.160  0.00  0.00     0.381 N 
ATOM     19  H   LIG d   1       0.392  76.999 114.004  0.00  0.00    -0.090 HD
ATOM     20  H   LIG d   1       0.026  75.520 113.437  0.00  0.00    -0.090 HD
ATOM     21  H   LIG d   1       0.032  75.797 115.052  0.00  0.00    -0.090 HD
ENDBRANCH   5  18
BRANCH   3  22
ATOM     22  C   LIG d   1      -4.657  74.728 115.005  0.00  0.00     0.382 C 
ATOM     23  O   LIG d   1      -5.044  74.180 113.944  0.00  0.00    -0.241 OA
ATOM     24  O   LIG d   1      -5.120  74.347 116.096  0.00  0.00    -0.241 OA
ENDBRANCH   3  22
TORSDOF 7
ENDMDL
MODEL 7
REMARK VINA RESULT:      -4.5      2.771      5.189
REMARK  7 active torsions:
REMARK  status: ('A' for Active; 'I' for Inactive)
REMARK    1  A    between atoms: C_2  and  C_3 
REMARK    2  A    between atoms: C_3  and  O_6 
REMARK    3  A    between atoms: C_3  and  C_4 
REMARK    4  A    between atoms: C_7  and  O_6 
REMARK    5  A    between atoms: C_9  and  C_10 
REMARK    6  A    between atoms: N_15  and  C_14 
REMARK    7  A    between atoms: N_20  and  C_19 
REMARK       I    between atoms: C_22  and  N_20 
ROOT
ATOM      1  C   LIG d   1      -2.747  78.381 115.353  0.00  0.00     0.161 C 
ATOM      2  C   LIG d   1      -1.440  78.554 115.839  0.00  0.00     0.016 C 
ATOM      3  C   LIG d   1      -0.647  77.494 116.334  0.00  0.00     0.038 C 
ATOM      4  C   LIG d   1      -1.054  76.155 116.235  0.00  0.00     0.028 C 
ATOM      5  C   LIG d   1      -2.569  75.982 116.215  0.00  0.00    -0.047 C 
ATOM      6  C   LIG d   1      -3.166  76.912 115.134  0.00  0.00     0.091 C 
ENDROOT
BRANCH   1   7
ATOM      7  O   LIG d   1      -2.920  79.137 114.138  0.00  0.00    -0.368 OA
BRANCH   7   8
ATOM      8  C   LIG d   1      -1.847  79.044 113.170  0.00  0.00     0.119 C 
BRANCH   8   9
ATOM      9  C   LIG d   1      -1.804  80.376 112.396  0.00  0.00     0.028 C 
ATOM     10  C   LIG d   1      -0.385  80.737 111.927  0.00  0.00     0.006 C 
ENDBRANCH   8   9
BRANCH   8  11
ATOM     11  C   LIG d   1      -2.139  77.972 112.116  0.00  0.00     0.028 C 
ATOM     12  C   LIG d   1      -3.536  78.115 111.492  0.00  0.00     0.006 C 
ENDBRANCH   8  11
ENDBRANCH   7   8
ENDBRANCH   1   7
BRANCH   6  13
ATOM     13  N   LIG d   1      -4.651  76.868 115.106  0.00  0.00    -0.311 N 
ATOM     14  C   LIG d   1      -5.345  76.107 114.261  0.00  0.00     0.210 C 
ATOM     15  C   LIG d   1      -6.868  76.226 114.386  0.00  0.00     0.109 C 
ATOM     16  O   LIG d   1      -4.846  75.321 113.443  0.00  0.00    -0.276 OA
ATOM     17  H   LIG d   1      -5.137  77.451 115.758  0.00  0.00     0.149 HD
ENDBRANCH   6  13
BRANCH   5  18
ATOM     18  N   LIG d   1      -2.851  74.555 115.971  0.00  0.00     0.381 N 
ATOM     19  H   LIG d   1      -3.835  74.387 116.047  0.00  0.00    -0.090 HD
ATOM     20  H   LIG d   1      -2.383  74.006 116.670  0.00  0.00    -0.090 HD
ATOM     21  H   LIG d   1      -2.532  74.295 115.064  0.00  0.00    -0.090 HD
ENDBRANCH   5  18
BRANCH   3  22
ATOM     22  C   LIG d   1       0.552  77.772 116.972  0.00  0.00     0.382 C 
ATOM     23  O   LIG d   1       1.127  76.881 117.642  0.00  0.00    -0.241 OA
ATOM     24  O   LIG d   1       1.044  78.916 116.922  0.00  0.00    -0.241 OA
ENDBRANCH   3  22
TORSDOF 7
ENDMDL
MODEL 8
REMARK VINA RESULT:      -4.1      2.708      4.675
REMARK  7 active torsions:
REMARK  status: ('A' for Active; 'I' for Inactive)
REMARK    1  A    between atoms: C_2  and  C_3 
REMARK    2  A    between atoms: C_3  and  O_6 
REMARK    3  A    between atoms: C_3  and  C_4 
REMARK    4  A    between atoms: C_7  and  O_6 
REMARK    5  A    between atoms: C_9  and  C_10 
REMARK    6  A    between atoms: N_15  and  C_14 
REMARK    7  A    between atoms: N_20  and  C_19 
REMARK       I    between atoms: C_22  and  N_20 
ROOT
ATOM      1  C   LIG d   1      -2.516  75.852 116.969  0.00  0.00     0.161 C 
ATOM      2  C   LIG d   1      -1.307  75.830 117.684  0.00  0.00     0.016 C 
ATOM      3  C   LIG d   1      -0.041  75.997 117.077  0.00  0.00     0.038 C 
ATOM      4  C   LIG d   1       0.093  76.350 115.727  0.00  0.00     0.028 C 
ATOM      5  C   LIG d   1      -1.073  75.887 114.860  0.00  0.00    -0.047 C 
ATOM      6  C   LIG d   1      -2.397  76.348 115.513  0.00  0.00     0.091 C 
ENDROOT
BRANCH   1   7
ATOM      7  O   LIG d   1      -3.493  76.633 117.685  0.00  0.00    -0.368 OA
BRANCH   7   8
ATOM      8  C   LIG d   1      -3.603  78.026 117.299  0.00  0.00     0.119 C 
BRANCH   8   9
ATOM      9  C   LIG d   1      -3.201  78.877 118.519  0.00  0.00     0.028 C 
ATOM     10  C   LIG d   1      -1.770  79.428 118.403  0.00  0.00     0.006 C 
ENDBRANCH   8   9
BRANCH   8  11
ATOM     11  C   LIG d   1      -5.056  78.407 117.000  0.00  0.00     0.028 C 
ATOM     12  C   LIG d   1      -5.445  79.774 117.585  0.00  0.00     0.006 C 
ENDBRANCH   8  11
ENDBRANCH   7   8
ENDBRANCH   1   7
BRANCH   6  13
ATOM     13  N   LIG d   1      -3.592  75.863 114.773  0.00  0.00    -0.311 N 
ATOM     14  C   LIG d   1      -4.242  76.595 113.871  0.00  0.00     0.210 C 
ATOM     15  C   LIG d   1      -5.460  75.912 113.241  0.00  0.00     0.109 C 
ATOM     16  O   LIG d   1      -3.908  77.733 113.509  0.00  0.00    -0.276 OA
ATOM     17  H   LIG d   1      -3.913  74.938 114.983  0.00  0.00     0.149 HD
ENDBRANCH   6  13
BRANCH   5  18
ATOM     18  N   LIG d   1      -0.872  76.440 113.508  0.00  0.00     0.381 N 
ATOM     19  H   LIG d   1      -1.758  76.619 113.080  0.00  0.00    -0.090 HD
ATOM     20  H   LIG d   1      -0.382  75.763 112.950  0.00  0.00    -0.090 HD
ATOM     21  H   LIG d   1      -0.343  77.283 113.560  0.00  0.00    -0.090 HD
ENDBRANCH   5  18
BRANCH   3  22
ATOM     22  C   LIG d   1       1.110  75.770 117.816  0.00  0.00     0.382 C 
ATOM     23  O   LIG d   1       2.107  76.518 117.670  0.00  0.00    -0.241 OA
ATOM     24  O   LIG d   1       1.181  74.800 118.594  0.00  0.00    -0.241 OA
ENDBRANCH   3  22
TORSDOF 7
ENDMDL
MODEL 9
REMARK VINA RESULT:      -4.1      1.787      2.384
REMARK  7 active torsions:
REMARK  status: ('A' for Active; 'I' for Inactive)
REMARK    1  A    between atoms: C_2  and  C_3 
REMARK    2  A    between atoms: C_3  and  O_6 
REMARK    3  A    between atoms: C_3  and  C_4 
REMARK    4  A    between atoms: C_7  and  O_6 
REMARK    5  A    between atoms: C_9  and  C_10 
REMARK    6  A    between atoms: N_15  and  C_14 
REMARK    7  A    between atoms: N_20  and  C_19 
REMARK       I    between atoms: C_22  and  N_20 
ROOT
ATOM      1  C   LIG d   1      -2.074  78.430 115.714  0.00  0.00     0.161 C 
ATOM      2  C   LIG d   1      -2.639  79.015 114.568  0.00  0.00     0.016 C 
ATOM      3  C   LIG d   1      -2.467  78.496 113.264  0.00  0.00     0.038 C 
ATOM      4  C   LIG d   1      -1.838  77.263 113.033  0.00  0.00     0.028 C 
ATOM      5  C   LIG d   1      -0.817  76.895 114.104  0.00  0.00    -0.047 C 
ATOM      6  C   LIG d   1      -1.478  77.023 115.495  0.00  0.00     0.091 C 
ENDROOT
BRANCH   1   7
ATOM      7  O   LIG d   1      -3.045  78.402 116.778  0.00  0.00    -0.368 OA
BRANCH   7   8
ATOM      8  C   LIG d   1      -3.953  77.274 116.783  0.00  0.00     0.119 C 
BRANCH   8   9
ATOM      9  C   LIG d   1      -5.385  77.831 116.666  0.00  0.00     0.028 C 
ATOM     10  C   LIG d   1      -6.266  76.993 115.725  0.00  0.00     0.006 C 
ENDBRANCH   8   9
BRANCH   8  11
ATOM     11  C   LIG d   1      -3.915  76.533 118.124  0.00  0.00     0.028 C 
ATOM     12  C   LIG d   1      -3.090  77.273 119.189  0.00  0.00     0.006 C 
ENDBRANCH   8  11
ENDBRANCH   7   8
ENDBRANCH   1   7
BRANCH   6  13
ATOM     13  N   LIG d   1      -0.523  76.762 116.603  0.00  0.00    -0.311 N 
ATOM     14  C   LIG d   1      -0.395  75.576 117.196  0.00  0.00     0.210 C 
ATOM     15  C   LIG d   1       0.634  75.528 118.330  0.00  0.00     0.109 C 
ATOM     16  O   LIG d   1      -1.013  74.552 116.870  0.00  0.00    -0.276 OA
ATOM     17  H   LIG d   1       0.040  77.530 116.910  0.00  0.00     0.149 HD
ENDBRANCH   6  13
BRANCH   5  18
ATOM     18  N   LIG d   1      -0.340  75.529 113.814  0.00  0.00     0.381 N 
ATOM     19  H   LIG d   1      -0.249  75.405 112.825  0.00  0.00    -0.090 HD
ATOM     20  H   LIG d   1      -1.018  74.870 114.153  0.00  0.00    -0.090 HD
ATOM     21  H   LIG d   1       0.538  75.373 114.258  0.00  0.00    -0.090 HD
ENDBRANCH   5  18
BRANCH   3  22
ATOM     22  C   LIG d   1      -2.892  79.234 112.170  0.00  0.00     0.382 C 
ATOM     23  O   LIG d   1      -2.836  78.737 111.019  0.00  0.00    -0.241 OA
ATOM     24  O   LIG d   1      -3.290  80.406 112.314  0.00  0.00    -0.241 OA
ENDBRANCH   3  22
TORSDOF 7
ENDMDL
