MODEL 1
REMARK VINA RESULT:      -5.5      0.000      0.000
REMARK  7 active torsions:
REMARK  status: ('A' for Active; 'I' for Inactive)
REMARK    1  A    between atoms: C_2  and  C_3 
REMARK    2  A    between atoms: C_3  and  O_6 
REMARK    3  A    between atoms: C_3  and  C_4 
REMARK    4  A    between atoms: C_7  and  O_6 
REMARK    5  A    between atoms: C_9  and  C_10 
REMARK    6  A    between atoms: N_15  and  C_14 
REMARK    7  A    between atoms: N_20  and  C_19 
REMARK       I    between atoms: C_22  and  N_20 
ROOT
ATOM      1  C   LIG d   1      -3.198  77.707 114.076  0.00  0.00     0.161 C 
ATOM      2  C   LIG d   1      -3.248  78.948 113.417  0.00  0.00     0.016 C 
ATOM      3  C   LIG d   1      -2.134  79.811 113.299  0.00  0.00     0.038 C 
ATOM      4  C   LIG d   1      -0.848  79.422 113.702  0.00  0.00     0.028 C 
ATOM      5  C   LIG d   1      -0.852  78.389 114.824  0.00  0.00    -0.047 C 
ATOM      6  C   LIG d   1      -1.777  77.217 114.425  0.00  0.00     0.091 C 
ENDROOT
BRANCH   1   7
ATOM      7  O   LIG d   1      -3.894  76.713 113.298  0.00  0.00    -0.368 OA
BRANCH   7   8
ATOM      8  C   LIG d   1      -5.177  76.283 113.815  0.00  0.00     0.119 C 
BRANCH   8   9
ATOM      9  C   LIG d   1      -5.026  74.819 114.270  0.00  0.00     0.028 C 
ATOM     10  C   LIG d   1      -5.254  74.647 115.782  0.00  0.00     0.006 C 
ENDBRANCH   8   9
BRANCH   8  11
ATOM     11  C   LIG d   1      -6.242  76.257 112.714  0.00  0.00     0.028 C 
ATOM     12  C   LIG d   1      -5.868  77.127 111.504  0.00  0.00     0.006 C 
ENDBRANCH   8  11
ENDBRANCH   7   8
ENDBRANCH   1   7
BRANCH   6  13
ATOM     13  N   LIG d   1      -1.904  76.202 115.502  0.00  0.00    -0.311 N 
ATOM     14  C   LIG d   1      -1.151  75.105 115.569  0.00  0.00     0.210 C 
ATOM     15  C   LIG d   1      -1.459  74.180 116.750  0.00  0.00     0.109 C 
ATOM     16  O   LIG d   1      -0.236  74.826 114.779  0.00  0.00    -0.276 OA
ATOM     17  H   LIG d   1      -2.600  76.365 116.203  0.00  0.00     0.149 HD
ENDBRANCH   6  13
BRANCH   5  18
ATOM     18  N   LIG d   1       0.545  77.972 115.050  0.00  0.00     0.381 N 
ATOM     19  H   LIG d   1       1.165  78.716 114.801  0.00  0.00    -0.090 HD
ATOM     20  H   LIG d   1       0.747  77.182 114.463  0.00  0.00    -0.090 HD
ATOM     21  H   LIG d   1       0.677  77.727 116.007  0.00  0.00    -0.090 HD
ENDBRANCH   5  18
BRANCH   3  22
ATOM     22  C   LIG d   1      -2.310  81.096 112.807  0.00  0.00     0.382 C 
ATOM     23  O   LIG d   1      -1.326  81.741 112.374  0.00  0.00    -0.241 OA
ATOM     24  O   LIG d   1      -3.433  81.633 112.833  0.00  0.00    -0.241 OA
ENDBRANCH   3  22
TORSDOF 7
ENDMDL
MODEL 2
REMARK VINA RESULT:      -5.3      0.480      1.866
REMARK  7 active torsions:
REMARK  status: ('A' for Active; 'I' for Inactive)
REMARK    1  A    between atoms: C_2  and  C_3 
REMARK    2  A    between atoms: C_3  and  O_6 
REMARK    3  A    between atoms: C_3  and  C_4 
REMARK    4  A    between atoms: C_7  and  O_6 
REMARK    5  A    between atoms: C_9  and  C_10 
REMARK    6  A    between atoms: N_15  and  C_14 
REMARK    7  A    between atoms: N_20  and  C_19 
REMARK       I    between atoms: C_22  and  N_20 
ROOT
ATOM      1  C   LIG d   1      -3.165  77.691 114.060  0.00  0.00     0.161 C 
ATOM      2  C   LIG d   1      -3.231  78.932 113.404  0.00  0.00     0.016 C 
ATOM      3  C   LIG d   1      -2.130  79.812 113.293  0.00  0.00     0.038 C 
ATOM      4  C   LIG d   1      -0.840  79.442 113.701  0.00  0.00     0.028 C 
ATOM      5  C   LIG d   1      -0.833  78.407 114.821  0.00  0.00    -0.047 C 
ATOM      6  C   LIG d   1      -1.739  77.222 114.415  0.00  0.00     0.091 C 
ENDROOT
BRANCH   1   7
ATOM      7  O   LIG d   1      -3.843  76.688 113.278  0.00  0.00    -0.368 OA
BRANCH   7   8
ATOM      8  C   LIG d   1      -5.016  76.092 113.884  0.00  0.00     0.119 C 
BRANCH   8   9
ATOM      9  C   LIG d   1      -6.234  76.496 113.030  0.00  0.00     0.028 C 
ATOM     10  C   LIG d   1      -5.842  76.885 111.595  0.00  0.00     0.006 C 
ENDBRANCH   8   9
BRANCH   8  11
ATOM     11  C   LIG d   1      -5.283  76.677 115.274  0.00  0.00     0.028 C 
ATOM     12  C   LIG d   1      -6.079  75.722 116.178  0.00  0.00     0.006 C 
ENDBRANCH   8  11
ENDBRANCH   7   8
ENDBRANCH   1   7
BRANCH   6  13
ATOM     13  N   LIG d   1      -1.855  76.202 115.490  0.00  0.00    -0.311 N 
ATOM     14  C   LIG d   1      -1.093  75.112 115.552  0.00  0.00     0.210 C 
ATOM     15  C   LIG d   1      -1.390  74.181 116.732  0.00  0.00     0.109 C 
ATOM     16  O   LIG d   1      -0.177  74.843 114.760  0.00  0.00    -0.276 OA
ATOM     17  H   LIG d   1      -2.552  76.357 116.192  0.00  0.00     0.149 HD
ENDBRANCH   6  13
BRANCH   5  18
ATOM     18  N   LIG d   1       0.569  78.010 115.053  0.00  0.00     0.381 N 
ATOM     19  H   LIG d   1       1.111  78.187 114.231  0.00  0.00    -0.090 HD
ATOM     20  H   LIG d   1       0.600  77.025 115.246  0.00  0.00    -0.090 HD
ATOM     21  H   LIG d   1       0.944  78.519 115.823  0.00  0.00    -0.090 HD
ENDBRANCH   5  18
BRANCH   3  22
ATOM     22  C   LIG d   1      -2.323  81.095 112.803  0.00  0.00     0.382 C 
ATOM     23  O   LIG d   1      -3.473  81.597 112.796  0.00  0.00    -0.241 OA
ATOM     24  O   LIG d   1      -1.369  81.740 112.327  0.00  0.00    -0.241 OA
ENDBRANCH   3  22
TORSDOF 7
ENDMDL
MODEL 3
REMARK VINA RESULT:      -5.1      2.087      2.517
REMARK  7 active torsions:
REMARK  status: ('A' for Active; 'I' for Inactive)
REMARK    1  A    between atoms: C_2  and  C_3 
REMARK    2  A    between atoms: C_3  and  O_6 
REMARK    3  A    between atoms: C_3  and  C_4 
REMARK    4  A    between atoms: C_7  and  O_6 
REMARK    5  A    between atoms: C_9  and  C_10 
REMARK    6  A    between atoms: N_15  and  C_14 
REMARK    7  A    between atoms: N_20  and  C_19 
REMARK       I    between atoms: C_22  and  N_20 
ROOT
ATOM      1  C   LIG d   1      -3.072  78.222 115.149  0.00  0.00     0.161 C 
ATOM      2  C   LIG d   1      -3.171  79.432 114.441  0.00  0.00     0.016 C 
ATOM      3  C   LIG d   1      -2.295  79.794 113.392  0.00  0.00     0.038 C 
ATOM      4  C   LIG d   1      -1.347  78.898 112.876  0.00  0.00     0.028 C 
ATOM      5  C   LIG d   1      -0.878  77.861 113.891  0.00  0.00    -0.047 C 
ATOM      6  C   LIG d   1      -2.115  77.185 114.526  0.00  0.00     0.091 C 
ENDROOT
BRANCH   1   7
ATOM      7  O   LIG d   1      -4.384  77.651 115.326  0.00  0.00    -0.368 OA
BRANCH   7   8
ATOM      8  C   LIG d   1      -4.868  77.576 116.690  0.00  0.00     0.119 C 
BRANCH   8   9
ATOM      9  C   LIG d   1      -5.712  76.293 116.811  0.00  0.00     0.028 C 
ATOM     10  C   LIG d   1      -7.108  76.562 117.398  0.00  0.00     0.006 C 
ENDBRANCH   8   9
BRANCH   8  11
ATOM     11  C   LIG d   1      -5.829  78.725 117.004  0.00  0.00     0.028 C 
ATOM     12  C   LIG d   1      -5.165  79.856 117.806  0.00  0.00     0.006 C 
ENDBRANCH   8  11
ENDBRANCH   7   8
ENDBRANCH   1   7
BRANCH   6  13
ATOM     13  N   LIG d   1      -1.746  76.216 115.591  0.00  0.00    -0.311 N 
ATOM     14  C   LIG d   1      -2.306  75.014 115.714  0.00  0.00     0.210 C 
ATOM     15  C   LIG d   1      -1.795  74.181 116.894  0.00  0.00     0.109 C 
ATOM     16  O   LIG d   1      -3.154  74.546 114.939  0.00  0.00    -0.276 OA
ATOM     17  H   LIG d   1      -1.044  76.503 116.245  0.00  0.00     0.149 HD
ENDBRANCH   6  13
BRANCH   5  18
ATOM     18  N   LIG d   1       0.000  76.910 113.183  0.00  0.00     0.381 N 
ATOM     19  H   LIG d   1       0.226  77.268 112.276  0.00  0.00    -0.090 HD
ATOM     20  H   LIG d   1      -0.489  76.040 113.066  0.00  0.00    -0.090 HD
ATOM     21  H   LIG d   1       0.835  76.762 113.706  0.00  0.00    -0.090 HD
ENDBRANCH   5  18
BRANCH   3  22
ATOM     22  C   LIG d   1      -2.336  81.079 112.875  0.00  0.00     0.382 C 
ATOM     23  O   LIG d   1      -1.283  81.624 112.465  0.00  0.00    -0.241 OA
ATOM     24  O   LIG d   1      -3.406  81.718 112.854  0.00  0.00    -0.241 OA
ENDBRANCH   3  22
TORSDOF 7
ENDMDL
MODEL 4
REMARK VINA RESULT:      -4.9      2.016      2.655
REMARK  7 active torsions:
REMARK  status: ('A' for Active; 'I' for Inactive)
REMARK    1  A    between atoms: C_2  and  C_3 
REMARK    2  A    between atoms: C_3  and  O_6 
REMARK    3  A    between atoms: C_3  and  C_4 
REMARK    4  A    between atoms: C_7  and  O_6 
REMARK    5  A    between atoms: C_9  and  C_10 
REMARK    6  A    between atoms: N_15  and  C_14 
REMARK    7  A    between atoms: N_20  and  C_19 
REMARK       I    between atoms: C_22  and  N_20 
ROOT
ATOM      1  C   LIG d   1      -2.731  76.925 115.775  0.00  0.00     0.161 C 
ATOM      2  C   LIG d   1      -3.164  77.414 114.531  0.00  0.00     0.016 C 
ATOM      3  C   LIG d   1      -2.289  77.686 113.455  0.00  0.00     0.038 C 
ATOM      4  C   LIG d   1      -0.930  77.341 113.499  0.00  0.00     0.028 C 
ATOM      5  C   LIG d   1      -0.357  77.313 114.912  0.00  0.00    -0.047 C 
ATOM      6  C   LIG d   1      -1.267  76.438 115.804  0.00  0.00     0.091 C 
ENDROOT
BRANCH   1   7
ATOM      7  O   LIG d   1      -3.615  75.879 116.224  0.00  0.00    -0.368 OA
BRANCH   7   8
ATOM      8  C   LIG d   1      -5.014  76.037 115.881  0.00  0.00     0.119 C 
BRANCH   8   9
ATOM      9  C   LIG d   1      -5.751  76.507 117.150  0.00  0.00     0.028 C 
ATOM     10  C   LIG d   1      -7.186  75.959 117.232  0.00  0.00     0.006 C 
ENDBRANCH   8   9
BRANCH   8  11
ATOM     11  C   LIG d   1      -5.653  74.694 115.515  0.00  0.00     0.028 C 
ATOM     12  C   LIG d   1      -5.315  74.244 114.085  0.00  0.00     0.006 C 
ENDBRANCH   8  11
ENDBRANCH   7   8
ENDBRANCH   1   7
BRANCH   6  13
ATOM     13  N   LIG d   1      -0.825  76.426 117.223  0.00  0.00    -0.311 N 
ATOM     14  C   LIG d   1      -0.491  75.315 117.877  0.00  0.00     0.210 C 
ATOM     15  C   LIG d   1      -0.084  75.523 119.340  0.00  0.00     0.109 C 
ATOM     16  O   LIG d   1      -0.462  74.181 117.376  0.00  0.00    -0.276 OA
ATOM     17  H   LIG d   1      -0.789  77.307 117.698  0.00  0.00     0.149 HD
ENDBRANCH   6  13
BRANCH   5  18
ATOM     18  N   LIG d   1       1.025  76.807 114.823  0.00  0.00     0.381 N 
ATOM     19  H   LIG d   1       1.333  76.502 115.724  0.00  0.00    -0.090 HD
ATOM     20  H   LIG d   1       1.626  77.554 114.521  0.00  0.00    -0.090 HD
ATOM     21  H   LIG d   1       1.071  76.052 114.175  0.00  0.00    -0.090 HD
ENDBRANCH   5  18
BRANCH   3  22
ATOM     22  C   LIG d   1      -2.765  78.345 112.332  0.00  0.00     0.382 C 
ATOM     23  O   LIG d   1      -2.876  77.731 111.243  0.00  0.00    -0.241 OA
ATOM     24  O   LIG d   1      -3.044  79.558 112.383  0.00  0.00    -0.241 OA
ENDBRANCH   3  22
TORSDOF 7
ENDMDL
MODEL 5
REMARK VINA RESULT:      -4.8      3.162      5.714
REMARK  7 active torsions:
REMARK  status: ('A' for Active; 'I' for Inactive)
REMARK    1  A    between atoms: C_2  and  C_3 
REMARK    2  A    between atoms: C_3  and  O_6 
REMARK    3  A    between atoms: C_3  and  C_4 
REMARK    4  A    between atoms: C_7  and  O_6 
REMARK    5  A    between atoms: C_9  and  C_10 
REMARK    6  A    between atoms: N_15  and  C_14 
REMARK    7  A    between atoms: N_20  and  C_19 
REMARK       I    between atoms: C_22  and  N_20 
ROOT
ATOM      1  C   LIG d   1      -1.477  80.104 112.896  0.00  0.00     0.161 C 
ATOM      2  C   LIG d   1      -2.584  79.254 112.743  0.00  0.00     0.016 C 
ATOM      3  C   LIG d   1      -2.664  78.252 111.749  0.00  0.00     0.038 C 
ATOM      4  C   LIG d   1      -1.571  77.930 110.930  0.00  0.00     0.028 C 
ATOM      5  C   LIG d   1      -0.614  79.097 110.712  0.00  0.00    -0.047 C 
ATOM      6  C   LIG d   1      -0.230  79.694 112.085  0.00  0.00     0.091 C 
ENDROOT
BRANCH   1   7
ATOM      7  O   LIG d   1      -1.146  80.229 114.293  0.00  0.00    -0.368 OA
BRANCH   7   8
ATOM      8  C   LIG d   1      -1.469  79.091 115.129  0.00  0.00     0.119 C 
BRANCH   8   9
ATOM      9  C   LIG d   1      -2.114  79.632 116.420  0.00  0.00     0.028 C 
ATOM     10  C   LIG d   1      -3.644  79.484 116.418  0.00  0.00     0.006 C 
ENDBRANCH   8   9
BRANCH   8  11
ATOM     11  C   LIG d   1      -0.204  78.357 115.584  0.00  0.00     0.028 C 
ATOM     12  C   LIG d   1       0.049  77.061 114.797  0.00  0.00     0.006 C 
ENDBRANCH   8  11
ENDBRANCH   7   8
ENDBRANCH   1   7
BRANCH   6  13
ATOM     13  N   LIG d   1       0.638  80.894 111.957  0.00  0.00    -0.311 N 
ATOM     14  C   LIG d   1       0.210  82.061 111.480  0.00  0.00     0.210 C 
ATOM     15  C   LIG d   1       1.273  83.162 111.415  0.00  0.00     0.109 C 
ATOM     16  O   LIG d   1      -0.957  82.299 111.135  0.00  0.00    -0.276 OA
ATOM     17  H   LIG d   1       1.593  80.799 112.244  0.00  0.00     0.149 HD
ENDBRANCH   6  13
BRANCH   5  18
ATOM     18  N   LIG d   1       0.546  78.586 109.958  0.00  0.00     0.381 N 
ATOM     19  H   LIG d   1       0.233  78.103 109.140  0.00  0.00    -0.090 HD
ATOM     20  H   LIG d   1       1.048  77.934 110.536  0.00  0.00    -0.090 HD
ATOM     21  H   LIG d   1       1.144  79.340 109.699  0.00  0.00    -0.090 HD
ENDBRANCH   5  18
BRANCH   3  22
ATOM     22  C   LIG d   1      -3.863  77.586 111.539  0.00  0.00     0.382 C 
ATOM     23  O   LIG d   1      -4.556  77.219 112.518  0.00  0.00    -0.241 OA
ATOM     24  O   LIG d   1      -4.238  77.309 110.383  0.00  0.00    -0.241 OA
ENDBRANCH   3  22
TORSDOF 7
ENDMDL
MODEL 6
REMARK VINA RESULT:      -4.7      2.318      4.604
REMARK  7 active torsions:
REMARK  status: ('A' for Active; 'I' for Inactive)
REMARK    1  A    between atoms: C_2  and  C_3 
REMARK    2  A    between atoms: C_3  and  O_6 
REMARK    3  A    between atoms: C_3  and  C_4 
REMARK    4  A    between atoms: C_7  and  O_6 
REMARK    5  A    between atoms: C_9  and  C_10 
REMARK    6  A    between atoms: N_15  and  C_14 
REMARK    7  A    between atoms: N_20  and  C_19 
REMARK       I    between atoms: C_22  and  N_20 
ROOT
ATOM      1  C   LIG d   1      -2.818  76.677 115.062  0.00  0.00     0.161 C 
ATOM      2  C   LIG d   1      -2.663  76.486 116.445  0.00  0.00     0.016 C 
ATOM      3  C   LIG d   1      -1.646  77.106 117.207  0.00  0.00     0.038 C 
ATOM      4  C   LIG d   1      -0.802  78.084 116.661  0.00  0.00     0.028 C 
ATOM      5  C   LIG d   1      -0.595  77.935 115.158  0.00  0.00    -0.047 C 
ATOM      6  C   LIG d   1      -1.976  77.827 114.470  0.00  0.00     0.091 C 
ENDROOT
BRANCH   1   7
ATOM      7  O   LIG d   1      -4.212  76.864 114.748  0.00  0.00    -0.368 OA
BRANCH   7   8
ATOM      8  C   LIG d   1      -4.767  75.968 113.754  0.00  0.00     0.119 C 
BRANCH   8   9
ATOM      9  C   LIG d   1      -6.204  76.439 113.457  0.00  0.00     0.028 C 
ATOM     10  C   LIG d   1      -6.407  76.805 111.977  0.00  0.00     0.006 C 
ENDBRANCH   8   9
BRANCH   8  11
ATOM     11  C   LIG d   1      -4.912  74.546 114.305  0.00  0.00     0.028 C 
ATOM     12  C   LIG d   1      -5.813  74.478 115.548  0.00  0.00     0.006 C 
ENDBRANCH   8  11
ENDBRANCH   7   8
ENDBRANCH   1   7
BRANCH   6  13
ATOM     13  N   LIG d   1      -1.863  77.594 113.006  0.00  0.00    -0.311 N 
ATOM     14  C   LIG d   1      -2.464  78.357 112.094  0.00  0.00     0.210 C 
ATOM     15  C   LIG d   1      -2.233  77.930 110.641  0.00  0.00     0.109 C 
ATOM     16  O   LIG d   1      -3.140  79.365 112.349  0.00  0.00    -0.276 OA
ATOM     17  H   LIG d   1      -1.308  76.816 112.710  0.00  0.00     0.149 HD
ENDBRANCH   6  13
BRANCH   5  18
ATOM     18  N   LIG d   1       0.190  79.096 114.698  0.00  0.00     0.381 N 
ATOM     19  H   LIG d   1      -0.426  79.811 114.364  0.00  0.00    -0.090 HD
ATOM     20  H   LIG d   1       0.781  78.809 113.939  0.00  0.00    -0.090 HD
ATOM     21  H   LIG d   1       0.746  79.450 115.446  0.00  0.00    -0.090 HD
ENDBRANCH   5  18
BRANCH   3  22
ATOM     22  C   LIG d   1      -1.440  76.718 118.523  0.00  0.00     0.382 C 
ATOM     23  O   LIG d   1      -0.276  76.510 118.940  0.00  0.00    -0.241 OA
ATOM     24  O   LIG d   1      -2.408  76.532 119.285  0.00  0.00    -0.241 OA
ENDBRANCH   3  22
TORSDOF 7
ENDMDL
MODEL 7
REMARK VINA RESULT:      -4.5      2.657      3.363
REMARK  7 active torsions:
REMARK  status: ('A' for Active; 'I' for Inactive)
REMARK    1  A    between atoms: C_2  and  C_3 
REMARK    2  A    between atoms: C_3  and  O_6 
REMARK    3  A    between atoms: C_3  and  C_4 
REMARK    4  A    between atoms: C_7  and  O_6 
REMARK    5  A    between atoms: C_9  and  C_10 
REMARK    6  A    between atoms: N_15  and  C_14 
REMARK    7  A    between atoms: N_20  and  C_19 
REMARK       I    between atoms: C_22  and  N_20 
ROOT
ATOM      1  C   LIG d   1      -3.123  78.216 114.544  0.00  0.00     0.161 C 
ATOM      2  C   LIG d   1      -3.094  77.839 113.191  0.00  0.00     0.016 C 
ATOM      3  C   LIG d   1      -2.053  78.199 112.305  0.00  0.00     0.038 C 
ATOM      4  C   LIG d   1      -0.885  78.835 112.752  0.00  0.00     0.028 C 
ATOM      5  C   LIG d   1      -1.097  79.678 114.006  0.00  0.00    -0.047 C 
ATOM      6  C   LIG d   1      -1.804  78.815 115.076  0.00  0.00     0.091 C 
ENDROOT
BRANCH   1   7
ATOM      7  O   LIG d   1      -3.526  77.094 115.355  0.00  0.00    -0.368 OA
BRANCH   7   8
ATOM      8  C   LIG d   1      -4.912  76.689 115.237  0.00  0.00     0.119 C 
BRANCH   8   9
ATOM      9  C   LIG d   1      -5.693  77.375 116.375  0.00  0.00     0.028 C 
ATOM     10  C   LIG d   1      -6.920  76.561 116.818  0.00  0.00     0.006 C 
ENDBRANCH   8   9
BRANCH   8  11
ATOM     11  C   LIG d   1      -5.075  75.186 115.482  0.00  0.00     0.028 C 
ATOM     12  C   LIG d   1      -5.308  74.393 114.186  0.00  0.00     0.006 C 
ENDBRANCH   8  11
ENDBRANCH   7   8
ENDBRANCH   1   7
BRANCH   6  13
ATOM     13  N   LIG d   1      -2.125  79.588 116.305  0.00  0.00    -0.311 N 
ATOM     14  C   LIG d   1      -1.313  79.660 117.358  0.00  0.00     0.210 C 
ATOM     15  C   LIG d   1      -1.845  80.493 118.528  0.00  0.00     0.109 C 
ATOM     16  O   LIG d   1      -0.189  79.140 117.422  0.00  0.00    -0.276 OA
ATOM     17  H   LIG d   1      -3.004  80.066 116.326  0.00  0.00     0.149 HD
ENDBRANCH   6  13
BRANCH   5  18
ATOM     18  N   LIG d   1       0.223  80.171 114.440  0.00  0.00     0.381 N 
ATOM     19  H   LIG d   1       0.111  80.823 115.191  0.00  0.00    -0.090 HD
ATOM     20  H   LIG d   1       0.661  80.647 113.671  0.00  0.00    -0.090 HD
ATOM     21  H   LIG d   1       0.792  79.408 114.735  0.00  0.00    -0.090 HD
ENDBRANCH   5  18
BRANCH   3  22
ATOM     22  C   LIG d   1      -2.191  77.956 110.947  0.00  0.00     0.382 C 
ATOM     23  O   LIG d   1      -1.281  78.296 110.153  0.00  0.00    -0.241 OA
ATOM     24  O   LIG d   1      -3.234  77.441 110.500  0.00  0.00    -0.241 OA
ENDBRANCH   3  22
TORSDOF 7
ENDMDL
MODEL 8
REMARK VINA RESULT:      -4.4      2.701      5.943
REMARK  7 active torsions:
REMARK  status: ('A' for Active; 'I' for Inactive)
REMARK    1  A    between atoms: C_2  and  C_3 
REMARK    2  A    between atoms: C_3  and  O_6 
REMARK    3  A    between atoms: C_3  and  C_4 
REMARK    4  A    between atoms: C_7  and  O_6 
REMARK    5  A    between atoms: C_9  and  C_10 
REMARK    6  A    between atoms: N_15  and  C_14 
REMARK    7  A    between atoms: N_20  and  C_19 
REMARK       I    between atoms: C_22  and  N_20 
ROOT
ATOM      1  C   LIG d   1      -2.439  79.827 114.470  0.00  0.00     0.161 C 
ATOM      2  C   LIG d   1      -3.103  78.630 114.787  0.00  0.00     0.016 C 
ATOM      3  C   LIG d   1      -3.246  77.555 113.880  0.00  0.00     0.038 C 
ATOM      4  C   LIG d   1      -2.599  77.545 112.635  0.00  0.00     0.028 C 
ATOM      5  C   LIG d   1      -2.340  78.940 112.076  0.00  0.00    -0.047 C 
ATOM      6  C   LIG d   1      -1.632  79.790 113.156  0.00  0.00     0.091 C 
ENDROOT
BRANCH   1   7
ATOM      7  O   LIG d   1      -1.592  80.222 115.568  0.00  0.00    -0.368 OA
BRANCH   7   8
ATOM      8  C   LIG d   1      -1.261  79.184 116.522  0.00  0.00     0.119 C 
BRANCH   8   9
ATOM      9  C   LIG d   1      -1.373  79.798 117.931  0.00  0.00     0.028 C 
ATOM     10  C   LIG d   1      -0.656  81.154 118.039  0.00  0.00     0.006 C 
ENDBRANCH   8   9
BRANCH   8  11
ATOM     11  C   LIG d   1       0.201  78.747 116.386  0.00  0.00     0.028 C 
ATOM     12  C   LIG d   1       0.367  77.483 115.527  0.00  0.00     0.006 C 
ENDBRANCH   8  11
ENDBRANCH   7   8
ENDBRANCH   1   7
BRANCH   6  13
ATOM     13  N   LIG d   1      -1.417  81.195 112.721  0.00  0.00    -0.311 N 
ATOM     14  C   LIG d   1      -0.304  81.614 112.119  0.00  0.00     0.210 C 
ATOM     15  C   LIG d   1      -0.280  83.106 111.772  0.00  0.00     0.109 C 
ATOM     16  O   LIG d   1       0.651  80.885 111.812  0.00  0.00    -0.276 OA
ATOM     17  H   LIG d   1      -2.154  81.847 112.903  0.00  0.00     0.149 HD
ENDBRANCH   6  13
BRANCH   5  18
ATOM     18  N   LIG d   1      -1.540  78.786 110.846  0.00  0.00     0.381 N 
ATOM     19  H   LIG d   1      -2.005  78.163 110.216  0.00  0.00    -0.090 HD
ATOM     20  H   LIG d   1      -0.650  78.386 111.085  0.00  0.00    -0.090 HD
ATOM     21  H   LIG d   1      -1.409  79.673 110.411  0.00  0.00    -0.090 HD
ENDBRANCH   5  18
BRANCH   3  22
ATOM     22  C   LIG d   1      -4.076  76.492 114.199  0.00  0.00     0.382 C 
ATOM     23  O   LIG d   1      -5.261  76.706 114.551  0.00  0.00    -0.241 OA
ATOM     24  O   LIG d   1      -3.642  75.325 114.183  0.00  0.00    -0.241 OA
ENDBRANCH   3  22
TORSDOF 7
ENDMDL
MODEL 9
REMARK VINA RESULT:      -4.3      2.672      4.401
REMARK  7 active torsions:
REMARK  status: ('A' for Active; 'I' for Inactive)
REMARK    1  A    between atoms: C_2  and  C_3 
REMARK    2  A    between atoms: C_3  and  O_6 
REMARK    3  A    between atoms: C_3  and  C_4 
REMARK    4  A    between atoms: C_7  and  O_6 
REMARK    5  A    between atoms: C_9  and  C_10 
REMARK    6  A    between atoms: N_15  and  C_14 
REMARK    7  A    between atoms: N_20  and  C_19 
REMARK       I    between atoms: C_22  and  N_20 
ROOT
ATOM      1  C   LIG d   1      -2.239  78.455 115.141  0.00  0.00     0.161 C 
ATOM      2  C   LIG d   1      -2.531  77.840 113.913  0.00  0.00     0.016 C 
ATOM      3  C   LIG d   1      -1.878  78.169 112.703  0.00  0.00     0.038 C 
ATOM      4  C   LIG d   1      -0.775  79.035 112.667  0.00  0.00     0.028 C 
ATOM      5  C   LIG d   1      -0.773  80.059 113.797  0.00  0.00    -0.047 C 
ATOM      6  C   LIG d   1      -0.962  79.322 115.143  0.00  0.00     0.091 C 
ENDROOT
BRANCH   1   7
ATOM      7  O   LIG d   1      -2.169  77.460 116.182  0.00  0.00    -0.368 OA
BRANCH   7   8
ATOM      8  C   LIG d   1      -1.798  76.124 115.762  0.00  0.00     0.119 C 
BRANCH   8   9
ATOM      9  C   LIG d   1      -2.762  75.137 116.449  0.00  0.00     0.028 C 
ATOM     10  C   LIG d   1      -3.836  74.601 115.489  0.00  0.00     0.006 C 
ENDBRANCH   8   9
BRANCH   8  11
ATOM     11  C   LIG d   1      -0.403  75.748 116.270  0.00  0.00     0.028 C 
ATOM     12  C   LIG d   1      -0.047  76.434 117.598  0.00  0.00     0.006 C 
ENDBRANCH   8  11
ENDBRANCH   7   8
ENDBRANCH   1   7
BRANCH   6  13
ATOM     13  N   LIG d   1      -1.056  80.258 116.294  0.00  0.00    -0.311 N 
ATOM     14  C   LIG d   1      -0.101  80.386 117.213  0.00  0.00     0.210 C 
ATOM     15  C   LIG d   1      -0.407  81.393 118.327  0.00  0.00     0.109 C 
ATOM     16  O   LIG d   1       0.984  79.785 117.195  0.00  0.00    -0.276 OA
ATOM     17  H   LIG d   1      -1.889  80.807 116.368  0.00  0.00     0.149 HD
ENDBRANCH   6  13
BRANCH   5  18
ATOM     18  N   LIG d   1       0.498  80.804 113.721  0.00  0.00     0.381 N 
ATOM     19  H   LIG d   1       0.528  81.499 114.440  0.00  0.00    -0.090 HD
ATOM     20  H   LIG d   1       0.549  81.269 112.831  0.00  0.00    -0.090 HD
ATOM     21  H   LIG d   1       1.267  80.179 113.821  0.00  0.00    -0.090 HD
ENDBRANCH   5  18
BRANCH   3  22
ATOM     22  C   LIG d   1      -2.354  77.659 111.504  0.00  0.00     0.382 C 
ATOM     23  O   LIG d   1      -3.580  77.713 111.243  0.00  0.00    -0.241 OA
ATOM     24  O   LIG d   1      -1.579  77.107 110.701  0.00  0.00    -0.241 OA
ENDBRANCH   3  22
TORSDOF 7
ENDMDL
