MODEL 1
REMARK VINA RESULT:      -5.3      0.000      0.000
REMARK  7 active torsions:
REMARK  status: ('A' for Active; 'I' for Inactive)
REMARK    1  A    between atoms: C_2  and  C_3 
REMARK    2  A    between atoms: C_3  and  O_6 
REMARK    3  A    between atoms: C_3  and  C_4 
REMARK    4  A    between atoms: C_7  and  O_6 
REMARK    5  A    between atoms: C_9  and  C_10 
REMARK    6  A    between atoms: N_15  and  C_14 
REMARK    7  A    between atoms: N_20  and  C_19 
REMARK       I    between atoms: C_22  and  N_20 
ROOT
ATOM      1  C   LIG d   1      -2.511  77.958 115.760  0.00  0.00     0.161 C 
ATOM      2  C   LIG d   1      -2.822  78.870 114.737  0.00  0.00     0.016 C 
ATOM      3  C   LIG d   1      -2.222  78.838 113.457  0.00  0.00     0.038 C 
ATOM      4  C   LIG d   1      -1.374  77.793 113.061  0.00  0.00     0.028 C 
ATOM      5  C   LIG d   1      -0.641  77.134 114.225  0.00  0.00    -0.047 C 
ATOM      6  C   LIG d   1      -1.671  76.744 115.310  0.00  0.00     0.091 C 
ENDROOT
BRANCH   1   7
ATOM      7  O   LIG d   1      -3.721  77.518 116.408  0.00  0.00    -0.368 OA
BRANCH   7   8
ATOM      8  C   LIG d   1      -4.851  77.262 115.539  0.00  0.00     0.119 C 
BRANCH   8   9
ATOM      9  C   LIG d   1      -6.101  77.856 116.218  0.00  0.00     0.028 C 
ATOM     10  C   LIG d   1      -5.786  79.138 117.007  0.00  0.00     0.006 C 
ENDBRANCH   8   9
BRANCH   8  11
ATOM     11  C   LIG d   1      -5.131  75.761 115.417  0.00  0.00     0.028 C 
ATOM     12  C   LIG d   1      -5.538  75.344 113.995  0.00  0.00     0.006 C 
ENDBRANCH   8  11
ENDBRANCH   7   8
ENDBRANCH   1   7
BRANCH   6  13
ATOM     13  N   LIG d   1      -1.028  76.169 116.521  0.00  0.00    -0.311 N 
ATOM     14  C   LIG d   1      -1.333  74.970 117.013  0.00  0.00     0.210 C 
ATOM     15  C   LIG d   1      -0.567  74.577 118.280  0.00  0.00     0.109 C 
ATOM     16  O   LIG d   1      -2.142  74.181 116.503  0.00  0.00    -0.276 OA
ATOM     17  H   LIG d   1      -0.337  76.730 116.980  0.00  0.00     0.149 HD
ENDBRANCH   6  13
BRANCH   5  18
ATOM     18  N   LIG d   1       0.098  75.976 113.687  0.00  0.00     0.381 N 
ATOM     19  H   LIG d   1      -0.450  75.521 112.985  0.00  0.00    -0.090 HD
ATOM     20  H   LIG d   1       0.263  75.322 114.432  0.00  0.00    -0.090 HD
ATOM     21  H   LIG d   1       0.966  76.276 113.301  0.00  0.00    -0.090 HD
ENDBRANCH   5  18
BRANCH   3  22
ATOM     22  C   LIG d   1      -2.438  79.883 112.571  0.00  0.00     0.382 C 
ATOM     23  O   LIG d   1      -2.041  79.790 111.385  0.00  0.00    -0.241 OA
ATOM     24  O   LIG d   1      -2.985  80.934 112.955  0.00  0.00    -0.241 OA
ENDBRANCH   3  22
TORSDOF 7
ENDMDL
MODEL 2
REMARK VINA RESULT:      -5.2      1.202      2.037
REMARK  7 active torsions:
REMARK  status: ('A' for Active; 'I' for Inactive)
REMARK    1  A    between atoms: C_2  and  C_3 
REMARK    2  A    between atoms: C_3  and  O_6 
REMARK    3  A    between atoms: C_3  and  C_4 
REMARK    4  A    between atoms: C_7  and  O_6 
REMARK    5  A    between atoms: C_9  and  C_10 
REMARK    6  A    between atoms: N_15  and  C_14 
REMARK    7  A    between atoms: N_20  and  C_19 
REMARK       I    between atoms: C_22  and  N_20 
ROOT
ATOM      1  C   LIG d   1      -3.047  78.469 115.055  0.00  0.00     0.161 C 
ATOM      2  C   LIG d   1      -3.106  79.560 114.173  0.00  0.00     0.016 C 
ATOM      3  C   LIG d   1      -2.260  79.698 113.048  0.00  0.00     0.038 C 
ATOM      4  C   LIG d   1      -1.394  78.673 112.642  0.00  0.00     0.028 C 
ATOM      5  C   LIG d   1      -0.941  77.773 113.787  0.00  0.00    -0.047 C 
ATOM      6  C   LIG d   1      -2.185  77.287 114.565  0.00  0.00     0.091 C 
ENDROOT
BRANCH   1   7
ATOM      7  O   LIG d   1      -4.381  78.021 115.367  0.00  0.00    -0.368 OA
BRANCH   7   8
ATOM      8  C   LIG d   1      -4.787  78.144 116.753  0.00  0.00     0.119 C 
BRANCH   8   9
ATOM      9  C   LIG d   1      -5.791  77.012 117.043  0.00  0.00     0.028 C 
ATOM     10  C   LIG d   1      -5.452  75.717 116.284  0.00  0.00     0.006 C 
ENDBRANCH   8   9
BRANCH   8  11
ATOM     11  C   LIG d   1      -5.560  79.444 116.994  0.00  0.00     0.028 C 
ATOM     12  C   LIG d   1      -7.022  79.200 117.401  0.00  0.00     0.006 C 
ENDBRANCH   8  11
ENDBRANCH   7   8
ENDBRANCH   1   7
BRANCH   6  13
ATOM     13  N   LIG d   1      -1.827  76.469 115.753  0.00  0.00    -0.311 N 
ATOM     14  C   LIG d   1      -1.683  75.145 115.715  0.00  0.00     0.210 C 
ATOM     15  C   LIG d   1      -1.331  74.495 117.057  0.00  0.00     0.109 C 
ATOM     16  O   LIG d   1      -1.783  74.452 114.692  0.00  0.00    -0.276 OA
ATOM     17  H   LIG d   1      -1.696  76.954 116.619  0.00  0.00     0.149 HD
ENDBRANCH   6  13
BRANCH   5  18
ATOM     18  N   LIG d   1      -0.157  76.669 113.202  0.00  0.00     0.381 N 
ATOM     19  H   LIG d   1      -0.759  75.896 113.000  0.00  0.00    -0.090 HD
ATOM     20  H   LIG d   1       0.529  76.367 113.872  0.00  0.00    -0.090 HD
ATOM     21  H   LIG d   1       0.294  76.975 112.368  0.00  0.00    -0.090 HD
ENDBRANCH   5  18
BRANCH   3  22
ATOM     22  C   LIG d   1      -2.247  80.890 112.340  0.00  0.00     0.382 C 
ATOM     23  O   LIG d   1      -1.196  81.269 111.770  0.00  0.00    -0.241 OA
ATOM     24  O   LIG d   1      -3.261  81.613 112.302  0.00  0.00    -0.241 OA
ENDBRANCH   3  22
TORSDOF 7
ENDMDL
MODEL 3
REMARK VINA RESULT:      -5.0      2.298      3.090
REMARK  7 active torsions:
REMARK  status: ('A' for Active; 'I' for Inactive)
REMARK    1  A    between atoms: C_2  and  C_3 
REMARK    2  A    between atoms: C_3  and  O_6 
REMARK    3  A    between atoms: C_3  and  C_4 
REMARK    4  A    between atoms: C_7  and  O_6 
REMARK    5  A    between atoms: C_9  and  C_10 
REMARK    6  A    between atoms: N_15  and  C_14 
REMARK    7  A    between atoms: N_20  and  C_19 
REMARK       I    between atoms: C_22  and  N_20 
ROOT
ATOM      1  C   LIG d   1      -3.240  78.360 114.297  0.00  0.00     0.161 C 
ATOM      2  C   LIG d   1      -2.963  78.037 112.958  0.00  0.00     0.016 C 
ATOM      3  C   LIG d   1      -1.652  77.913 112.442  0.00  0.00     0.038 C 
ATOM      4  C   LIG d   1      -0.522  77.956 113.272  0.00  0.00     0.028 C 
ATOM      5  C   LIG d   1      -0.731  78.780 114.538  0.00  0.00    -0.047 C 
ATOM      6  C   LIG d   1      -2.021  78.300 115.241  0.00  0.00     0.091 C 
ENDROOT
BRANCH   1   7
ATOM      7  O   LIG d   1      -4.300  77.519 114.793  0.00  0.00    -0.368 OA
BRANCH   7   8
ATOM      8  C   LIG d   1      -4.178  76.104 114.507  0.00  0.00     0.119 C 
BRANCH   8   9
ATOM      9  C   LIG d   1      -5.547  75.615 113.996  0.00  0.00     0.028 C 
ATOM     10  C   LIG d   1      -6.168  74.547 114.912  0.00  0.00     0.006 C 
ENDBRANCH   8   9
BRANCH   8  11
ATOM     11  C   LIG d   1      -3.910  75.298 115.782  0.00  0.00     0.028 C 
ATOM     12  C   LIG d   1      -2.438  74.879 115.923  0.00  0.00     0.006 C 
ENDBRANCH   8  11
ENDBRANCH   7   8
ENDBRANCH   1   7
BRANCH   6  13
ATOM     13  N   LIG d   1      -2.345  79.110 116.445  0.00  0.00    -0.311 N 
ATOM     14  C   LIG d   1      -1.988  78.763 117.680  0.00  0.00     0.210 C 
ATOM     15  C   LIG d   1      -2.440  79.729 118.779  0.00  0.00     0.109 C 
ATOM     16  O   LIG d   1      -1.312  77.763 117.966  0.00  0.00    -0.276 OA
ATOM     17  H   LIG d   1      -2.865  79.954 116.300  0.00  0.00     0.149 HD
ENDBRANCH   6  13
BRANCH   5  18
ATOM     18  N   LIG d   1       0.475  78.625 115.374  0.00  0.00     0.381 N 
ATOM     19  H   LIG d   1       0.215  78.585 116.339  0.00  0.00    -0.090 HD
ATOM     20  H   LIG d   1       1.067  79.426 115.241  0.00  0.00    -0.090 HD
ATOM     21  H   LIG d   1       0.963  77.795 115.119  0.00  0.00    -0.090 HD
ENDBRANCH   5  18
BRANCH   3  22
ATOM     22  C   LIG d   1      -1.461  77.784 111.075  0.00  0.00     0.382 C 
ATOM     23  O   LIG d   1      -1.814  78.707 110.302  0.00  0.00    -0.241 OA
ATOM     24  O   LIG d   1      -0.981  76.737 110.600  0.00  0.00    -0.241 OA
ENDBRANCH   3  22
TORSDOF 7
ENDMDL
MODEL 4
REMARK VINA RESULT:      -4.6      2.475      5.081
REMARK  7 active torsions:
REMARK  status: ('A' for Active; 'I' for Inactive)
REMARK    1  A    between atoms: C_2  and  C_3 
REMARK    2  A    between atoms: C_3  and  O_6 
REMARK    3  A    between atoms: C_3  and  C_4 
REMARK    4  A    between atoms: C_7  and  O_6 
REMARK    5  A    between atoms: C_9  and  C_10 
REMARK    6  A    between atoms: N_15  and  C_14 
REMARK    7  A    between atoms: N_20  and  C_19 
REMARK       I    between atoms: C_22  and  N_20 
ROOT
ATOM      1  C   LIG d   1      -1.595  78.170 114.243  0.00  0.00     0.161 C 
ATOM      2  C   LIG d   1      -2.834  77.654 113.828  0.00  0.00     0.016 C 
ATOM      3  C   LIG d   1      -3.662  76.860 114.654  0.00  0.00     0.038 C 
ATOM      4  C   LIG d   1      -3.375  76.651 116.011  0.00  0.00     0.028 C 
ATOM      5  C   LIG d   1      -1.886  76.730 116.334  0.00  0.00    -0.047 C 
ATOM      6  C   LIG d   1      -1.316  78.046 115.756  0.00  0.00     0.091 C 
ENDROOT
BRANCH   1   7
ATOM      7  O   LIG d   1      -1.471  79.543 113.822  0.00  0.00    -0.368 OA
BRANCH   7   8
ATOM      8  C   LIG d   1      -2.037  79.866 112.528  0.00  0.00     0.119 C 
BRANCH   8   9
ATOM      9  C   LIG d   1      -0.909  79.739 111.485  0.00  0.00     0.028 C 
ATOM     10  C   LIG d   1      -1.205  78.661 110.429  0.00  0.00     0.006 C 
ENDBRANCH   8   9
BRANCH   8  11
ATOM     11  C   LIG d   1      -2.484  81.329 112.465  0.00  0.00     0.028 C 
ATOM     12  C   LIG d   1      -1.316  82.300 112.234  0.00  0.00     0.006 C 
ENDBRANCH   8  11
ENDBRANCH   7   8
ENDBRANCH   1   7
BRANCH   6  13
ATOM     13  N   LIG d   1       0.152  78.163 115.954  0.00  0.00    -0.311 N 
ATOM     14  C   LIG d   1       0.721  79.143 116.654  0.00  0.00     0.210 C 
ATOM     15  C   LIG d   1       2.251  79.088 116.717  0.00  0.00     0.109 C 
ATOM     16  O   LIG d   1       0.103  80.035 117.254  0.00  0.00    -0.276 OA
ATOM     17  H   LIG d   1       0.727  77.464 115.527  0.00  0.00     0.149 HD
ENDBRANCH   6  13
BRANCH   5  18
ATOM     18  N   LIG d   1      -1.742  76.632 117.799  0.00  0.00     0.381 N 
ATOM     19  H   LIG d   1      -2.619  76.382 118.210  0.00  0.00    -0.090 HD
ATOM     20  H   LIG d   1      -1.470  77.530 118.160  0.00  0.00    -0.090 HD
ATOM     21  H   LIG d   1      -1.052  75.951 118.029  0.00  0.00    -0.090 HD
ENDBRANCH   5  18
BRANCH   3  22
ATOM     22  C   LIG d   1      -4.773  76.231 114.112  0.00  0.00     0.382 C 
ATOM     23  O   LIG d   1      -5.837  76.873 113.945  0.00  0.00    -0.241 OA
ATOM     24  O   LIG d   1      -4.737  75.018 113.830  0.00  0.00    -0.241 OA
ENDBRANCH   3  22
TORSDOF 7
ENDMDL
MODEL 5
REMARK VINA RESULT:      -4.6      2.027      4.883
REMARK  7 active torsions:
REMARK  status: ('A' for Active; 'I' for Inactive)
REMARK    1  A    between atoms: C_2  and  C_3 
REMARK    2  A    between atoms: C_3  and  O_6 
REMARK    3  A    between atoms: C_3  and  C_4 
REMARK    4  A    between atoms: C_7  and  O_6 
REMARK    5  A    between atoms: C_9  and  C_10 
REMARK    6  A    between atoms: N_15  and  C_14 
REMARK    7  A    between atoms: N_20  and  C_19 
REMARK       I    between atoms: C_22  and  N_20 
ROOT
ATOM      1  C   LIG d   1      -2.576  76.136 114.777  0.00  0.00     0.161 C 
ATOM      2  C   LIG d   1      -2.369  75.844 116.135  0.00  0.00     0.016 C 
ATOM      3  C   LIG d   1      -1.599  76.658 116.998  0.00  0.00     0.038 C 
ATOM      4  C   LIG d   1      -1.106  77.907 116.594  0.00  0.00     0.028 C 
ATOM      5  C   LIG d   1      -0.862  78.005 115.091  0.00  0.00    -0.047 C 
ATOM      6  C   LIG d   1      -2.138  77.552 114.346  0.00  0.00     0.091 C 
ENDROOT
BRANCH   1   7
ATOM      7  O   LIG d   1      -3.958  75.913 114.434  0.00  0.00    -0.368 OA
BRANCH   7   8
ATOM      8  C   LIG d   1      -4.876  75.771 115.546  0.00  0.00     0.119 C 
BRANCH   8   9
ATOM      9  C   LIG d   1      -5.713  74.501 115.296  0.00  0.00     0.028 C 
ATOM     10  C   LIG d   1      -7.196  74.696 115.655  0.00  0.00     0.006 C 
ENDBRANCH   8   9
BRANCH   8  11
ATOM     11  C   LIG d   1      -5.886  76.921 115.586  0.00  0.00     0.028 C 
ATOM     12  C   LIG d   1      -5.359  78.152 116.341  0.00  0.00     0.006 C 
ENDBRANCH   8  11
ENDBRANCH   7   8
ENDBRANCH   1   7
BRANCH   6  13
ATOM     13  N   LIG d   1      -1.957  77.537 112.871  0.00  0.00    -0.311 N 
ATOM     14  C   LIG d   1      -2.373  78.518 112.071  0.00  0.00     0.210 C 
ATOM     15  C   LIG d   1      -2.105  78.294 110.580  0.00  0.00     0.109 C 
ATOM     16  O   LIG d   1      -2.908  79.567 112.459  0.00  0.00    -0.276 OA
ATOM     17  H   LIG d   1      -1.504  76.737 112.475  0.00  0.00     0.149 HD
ENDBRANCH   6  13
BRANCH   5  18
ATOM     18  N   LIG d   1      -0.482  79.399 114.792  0.00  0.00     0.381 N 
ATOM     19  H   LIG d   1      -0.507  79.945 115.630  0.00  0.00    -0.090 HD
ATOM     20  H   LIG d   1      -1.146  79.785 114.144  0.00  0.00    -0.090 HD
ATOM     21  H   LIG d   1       0.432  79.425 114.397  0.00  0.00    -0.090 HD
ENDBRANCH   5  18
BRANCH   3  22
ATOM     22  C   LIG d   1      -1.283  76.205 118.269  0.00  0.00     0.382 C 
ATOM     23  O   LIG d   1      -0.779  75.066 118.421  0.00  0.00    -0.241 OA
ATOM     24  O   LIG d   1      -1.535  76.902 119.270  0.00  0.00    -0.241 OA
ENDBRANCH   3  22
TORSDOF 7
ENDMDL
MODEL 6
REMARK VINA RESULT:      -4.5      2.495      4.729
REMARK  7 active torsions:
REMARK  status: ('A' for Active; 'I' for Inactive)
REMARK    1  A    between atoms: C_2  and  C_3 
REMARK    2  A    between atoms: C_3  and  O_6 
REMARK    3  A    between atoms: C_3  and  C_4 
REMARK    4  A    between atoms: C_7  and  O_6 
REMARK    5  A    between atoms: C_9  and  C_10 
REMARK    6  A    between atoms: N_15  and  C_14 
REMARK    7  A    between atoms: N_20  and  C_19 
REMARK       I    between atoms: C_22  and  N_20 
ROOT
ATOM      1  C   LIG d   1      -2.706  78.563 115.398  0.00  0.00     0.161 C 
ATOM      2  C   LIG d   1      -1.395  78.765 115.858  0.00  0.00     0.016 C 
ATOM      3  C   LIG d   1      -0.569  77.722 116.338  0.00  0.00     0.038 C 
ATOM      4  C   LIG d   1      -0.950  76.374 116.248  0.00  0.00     0.028 C 
ATOM      5  C   LIG d   1      -2.461  76.170 116.258  0.00  0.00    -0.047 C 
ATOM      6  C   LIG d   1      -3.098  77.085 115.189  0.00  0.00     0.091 C 
ENDROOT
BRANCH   1   7
ATOM      7  O   LIG d   1      -2.920  79.315 114.187  0.00  0.00    -0.368 OA
BRANCH   7   8
ATOM      8  C   LIG d   1      -2.068  78.973 113.066  0.00  0.00     0.119 C 
BRANCH   8   9
ATOM      9  C   LIG d   1      -1.523  80.291 112.481  0.00  0.00     0.028 C 
ATOM     10  C   LIG d   1      -2.559  81.426 112.528  0.00  0.00     0.006 C 
ENDBRANCH   8   9
BRANCH   8  11
ATOM     11  C   LIG d   1      -2.870  78.327 111.933  0.00  0.00     0.028 C 
ATOM     12  C   LIG d   1      -2.078  78.239 110.618  0.00  0.00     0.006 C 
ENDBRANCH   8  11
ENDBRANCH   7   8
ENDBRANCH   1   7
BRANCH   6  13
ATOM     13  N   LIG d   1      -4.583  77.009 115.190  0.00  0.00    -0.311 N 
ATOM     14  C   LIG d   1      -5.273  76.151 114.441  0.00  0.00     0.210 C 
ATOM     15  C   LIG d   1      -6.795  76.253 114.578  0.00  0.00     0.109 C 
ATOM     16  O   LIG d   1      -4.769  75.292 113.702  0.00  0.00    -0.276 OA
ATOM     17  H   LIG d   1      -5.072  77.649 115.785  0.00  0.00     0.149 HD
ENDBRANCH   6  13
BRANCH   5  18
ATOM     18  N   LIG d   1      -2.718  74.737 116.020  0.00  0.00     0.381 N 
ATOM     19  H   LIG d   1      -3.362  74.390 116.703  0.00  0.00    -0.090 HD
ATOM     20  H   LIG d   1      -1.855  74.231 116.116  0.00  0.00    -0.090 HD
ATOM     21  H   LIG d   1      -3.089  74.604 115.105  0.00  0.00    -0.090 HD
ENDBRANCH   5  18
BRANCH   3  22
ATOM     22  C   LIG d   1       0.636  78.026 116.952  0.00  0.00     0.382 C 
ATOM     23  O   LIG d   1       1.032  77.346 117.929  0.00  0.00    -0.241 OA
ATOM     24  O   LIG d   1       1.312  79.000 116.570  0.00  0.00    -0.241 OA
ENDBRANCH   3  22
TORSDOF 7
ENDMDL
MODEL 7
REMARK VINA RESULT:      -4.5      1.969      2.299
REMARK  7 active torsions:
REMARK  status: ('A' for Active; 'I' for Inactive)
REMARK    1  A    between atoms: C_2  and  C_3 
REMARK    2  A    between atoms: C_3  and  O_6 
REMARK    3  A    between atoms: C_3  and  C_4 
REMARK    4  A    between atoms: C_7  and  O_6 
REMARK    5  A    between atoms: C_9  and  C_10 
REMARK    6  A    between atoms: N_15  and  C_14 
REMARK    7  A    between atoms: N_20  and  C_19 
REMARK       I    between atoms: C_22  and  N_20 
ROOT
ATOM      1  C   LIG d   1      -3.382  77.304 114.866  0.00  0.00     0.161 C 
ATOM      2  C   LIG d   1      -3.220  77.572 113.496  0.00  0.00     0.016 C 
ATOM      3  C   LIG d   1      -1.959  77.640 112.861  0.00  0.00     0.038 C 
ATOM      4  C   LIG d   1      -0.774  77.294 113.526  0.00  0.00     0.028 C 
ATOM      5  C   LIG d   1      -0.841  77.508 115.034  0.00  0.00    -0.047 C 
ATOM      6  C   LIG d   1      -2.108  76.814 115.584  0.00  0.00     0.091 C 
ENDROOT
BRANCH   1   7
ATOM      7  O   LIG d   1      -4.458  76.363 115.056  0.00  0.00    -0.368 OA
BRANCH   7   8
ATOM      8  C   LIG d   1      -5.779  76.932 115.227  0.00  0.00     0.119 C 
BRANCH   8   9
ATOM      9  C   LIG d   1      -5.897  77.396 116.692  0.00  0.00     0.028 C 
ATOM     10  C   LIG d   1      -6.004  78.925 116.817  0.00  0.00     0.006 C 
ENDBRANCH   8   9
BRANCH   8  11
ATOM     11  C   LIG d   1      -6.869  75.871 115.049  0.00  0.00     0.028 C 
ATOM     12  C   LIG d   1      -6.315  74.438 115.068  0.00  0.00     0.006 C 
ENDBRANCH   8  11
ENDBRANCH   7   8
ENDBRANCH   1   7
BRANCH   6  13
ATOM     13  N   LIG d   1      -2.295  77.046 117.040  0.00  0.00    -0.311 N 
ATOM     14  C   LIG d   1      -2.354  78.259 117.588  0.00  0.00     0.210 C 
ATOM     15  C   LIG d   1      -2.531  78.273 119.109  0.00  0.00     0.109 C 
ATOM     16  O   LIG d   1      -2.308  79.324 116.954  0.00  0.00    -0.276 OA
ATOM     17  H   LIG d   1      -2.372  76.237 117.625  0.00  0.00     0.149 HD
ENDBRANCH   6  13
BRANCH   5  18
ATOM     18  N   LIG d   1       0.407  76.979 115.616  0.00  0.00     0.381 N 
ATOM     19  H   LIG d   1       0.193  76.355 116.368  0.00  0.00    -0.090 HD
ATOM     20  H   LIG d   1       0.944  77.744 115.984  0.00  0.00    -0.090 HD
ATOM     21  H   LIG d   1       0.933  76.501 114.917  0.00  0.00    -0.090 HD
ENDBRANCH   5  18
BRANCH   3  22
ATOM     22  C   LIG d   1      -1.872  78.098 111.555  0.00  0.00     0.382 C 
ATOM     23  O   LIG d   1      -0.839  78.697 111.168  0.00  0.00    -0.241 OA
ATOM     24  O   LIG d   1      -2.830  77.959 110.771  0.00  0.00    -0.241 OA
ENDBRANCH   3  22
TORSDOF 7
ENDMDL
MODEL 8
REMARK VINA RESULT:      -4.5      2.833      4.053
REMARK  7 active torsions:
REMARK  status: ('A' for Active; 'I' for Inactive)
REMARK    1  A    between atoms: C_2  and  C_3 
REMARK    2  A    between atoms: C_3  and  O_6 
REMARK    3  A    between atoms: C_3  and  C_4 
REMARK    4  A    between atoms: C_7  and  O_6 
REMARK    5  A    between atoms: C_9  and  C_10 
REMARK    6  A    between atoms: N_15  and  C_14 
REMARK    7  A    between atoms: N_20  and  C_19 
REMARK       I    between atoms: C_22  and  N_20 
ROOT
ATOM      1  C   LIG d   1      -4.070  77.954 116.872  0.00  0.00     0.161 C 
ATOM      2  C   LIG d   1      -3.046  78.798 117.334  0.00  0.00     0.016 C 
ATOM      3  C   LIG d   1      -1.671  78.491 117.214  0.00  0.00     0.038 C 
ATOM      4  C   LIG d   1      -1.220  77.382 116.482  0.00  0.00     0.028 C 
ATOM      5  C   LIG d   1      -2.228  76.238 116.433  0.00  0.00    -0.047 C 
ATOM      6  C   LIG d   1      -3.595  76.794 115.972  0.00  0.00     0.091 C 
ENDROOT
BRANCH   1   7
ATOM      7  O   LIG d   1      -5.076  78.733 116.195  0.00  0.00    -0.368 OA
BRANCH   7   8
ATOM      8  C   LIG d   1      -6.353  78.848 116.869  0.00  0.00     0.119 C 
BRANCH   8   9
ATOM      9  C   LIG d   1      -6.502  80.310 117.334  0.00  0.00     0.028 C 
ATOM     10  C   LIG d   1      -6.029  80.516 118.783  0.00  0.00     0.006 C 
ENDBRANCH   8   9
BRANCH   8  11
ATOM     11  C   LIG d   1      -6.384  78.010 118.151  0.00  0.00     0.028 C 
ATOM     12  C   LIG d   1      -7.406  76.864 118.089  0.00  0.00     0.006 C 
ENDBRANCH   8  11
ENDBRANCH   7   8
ENDBRANCH   1   7
BRANCH   6  13
ATOM     13  N   LIG d   1      -4.659  75.756 115.978  0.00  0.00    -0.311 N 
ATOM     14  C   LIG d   1      -5.164  75.218 114.869  0.00  0.00     0.210 C 
ATOM     15  C   LIG d   1      -6.267  74.180 115.098  0.00  0.00     0.109 C 
ATOM     16  O   LIG d   1      -4.780  75.479 113.718  0.00  0.00    -0.276 OA
ATOM     17  H   LIG d   1      -5.006  75.464 116.870  0.00  0.00     0.149 HD
ENDBRANCH   6  13
BRANCH   5  18
ATOM     18  N   LIG d   1      -1.687  75.207 115.527  0.00  0.00     0.381 N 
ATOM     19  H   LIG d   1      -0.805  74.883 115.870  0.00  0.00    -0.090 HD
ATOM     20  H   LIG d   1      -1.542  75.615 114.620  0.00  0.00    -0.090 HD
ATOM     21  H   LIG d   1      -2.326  74.445 115.458  0.00  0.00    -0.090 HD
ENDBRANCH   5  18
BRANCH   3  22
ATOM     22  C   LIG d   1      -0.732  79.277 117.864  0.00  0.00     0.382 C 
ATOM     23  O   LIG d   1      -0.592  79.187 119.107  0.00  0.00    -0.241 OA
ATOM     24  O   LIG d   1      -0.054  80.107 117.228  0.00  0.00    -0.241 OA
ENDBRANCH   3  22
TORSDOF 7
ENDMDL
MODEL 9
REMARK VINA RESULT:      -4.4      2.783      4.216
REMARK  7 active torsions:
REMARK  status: ('A' for Active; 'I' for Inactive)
REMARK    1  A    between atoms: C_2  and  C_3 
REMARK    2  A    between atoms: C_3  and  O_6 
REMARK    3  A    between atoms: C_3  and  C_4 
REMARK    4  A    between atoms: C_7  and  O_6 
REMARK    5  A    between atoms: C_9  and  C_10 
REMARK    6  A    between atoms: N_15  and  C_14 
REMARK    7  A    between atoms: N_20  and  C_19 
REMARK       I    between atoms: C_22  and  N_20 
ROOT
ATOM      1  C   LIG d   1      -3.438  76.576 116.465  0.00  0.00     0.161 C 
ATOM      2  C   LIG d   1      -2.371  77.043 115.679  0.00  0.00     0.016 C 
ATOM      3  C   LIG d   1      -2.466  77.255 114.285  0.00  0.00     0.038 C 
ATOM      4  C   LIG d   1      -3.688  77.158 113.602  0.00  0.00     0.028 C 
ATOM      5  C   LIG d   1      -4.676  76.202 114.261  0.00  0.00    -0.047 C 
ATOM      6  C   LIG d   1      -4.809  76.571 115.757  0.00  0.00     0.091 C 
ENDROOT
BRANCH   1   7
ATOM      7  O   LIG d   1      -3.510  77.332 117.690  0.00  0.00    -0.368 OA
BRANCH   7   8
ATOM      8  C   LIG d   1      -3.711  78.760 117.547  0.00  0.00     0.119 C 
BRANCH   8   9
ATOM      9  C   LIG d   1      -2.608  79.467 118.358  0.00  0.00     0.028 C 
ATOM     10  C   LIG d   1      -3.168  80.233 119.568  0.00  0.00     0.006 C 
ENDBRANCH   8   9
BRANCH   8  11
ATOM     11  C   LIG d   1      -5.031  79.203 118.185  0.00  0.00     0.028 C 
ATOM     12  C   LIG d   1      -6.016  79.797 117.166  0.00  0.00     0.006 C 
ENDBRANCH   8  11
ENDBRANCH   7   8
ENDBRANCH   1   7
BRANCH   6  13
ATOM     13  N   LIG d   1      -5.693  75.633 116.496  0.00  0.00    -0.311 N 
ATOM     14  C   LIG d   1      -6.990  75.858 116.704  0.00  0.00     0.210 C 
ATOM     15  C   LIG d   1      -7.714  74.772 117.507  0.00  0.00     0.109 C 
ATOM     16  O   LIG d   1      -7.615  76.838 116.273  0.00  0.00    -0.276 OA
ATOM     17  H   LIG d   1      -5.274  74.797 116.853  0.00  0.00     0.149 HD
ENDBRANCH   6  13
BRANCH   5  18
ATOM     18  N   LIG d   1      -5.951  76.303 113.526  0.00  0.00     0.381 N 
ATOM     19  H   LIG d   1      -6.327  77.225 113.624  0.00  0.00    -0.090 HD
ATOM     20  H   LIG d   1      -6.607  75.652 113.922  0.00  0.00    -0.090 HD
ATOM     21  H   LIG d   1      -5.806  76.095 112.563  0.00  0.00    -0.090 HD
ENDBRANCH   5  18
BRANCH   3  22
ATOM     22  C   LIG d   1      -1.322  77.529 113.552  0.00  0.00     0.382 C 
ATOM     23  O   LIG d   1      -0.395  78.201 114.065  0.00  0.00    -0.241 OA
ATOM     24  O   LIG d   1      -1.223  77.151 112.369  0.00  0.00    -0.241 OA
ENDBRANCH   3  22
TORSDOF 7
ENDMDL
