MODEL 1
REMARK VINA RESULT:      -5.5      0.000      0.000
REMARK  7 active torsions:
REMARK  status: ('A' for Active; 'I' for Inactive)
REMARK    1  A    between atoms: C_2  and  C_3 
REMARK    2  A    between atoms: C_3  and  O_6 
REMARK    3  A    between atoms: C_3  and  C_4 
REMARK    4  A    between atoms: C_7  and  O_6 
REMARK    5  A    between atoms: C_9  and  C_10 
REMARK    6  A    between atoms: N_15  and  C_14 
REMARK    7  A    between atoms: N_20  and  C_19 
REMARK       I    between atoms: C_22  and  N_20 
ROOT
ATOM      1  C   LIG d   1      -1.635  75.507 115.048  0.00  0.00     0.161 C 
ATOM      2  C   LIG d   1      -1.318  74.967 116.305  0.00  0.00     0.016 C 
ATOM      3  C   LIG d   1      -0.424  75.580 117.213  0.00  0.00     0.038 C 
ATOM      4  C   LIG d   1       0.100  76.861 116.985  0.00  0.00     0.028 C 
ATOM      5  C   LIG d   1       0.206  77.219 115.506  0.00  0.00    -0.047 C 
ATOM      6  C   LIG d   1      -1.158  76.958 114.828  0.00  0.00     0.091 C 
ENDROOT
BRANCH   1   7
ATOM      7  O   LIG d   1      -3.053  75.404 114.815  0.00  0.00    -0.368 OA
BRANCH   7   8
ATOM      8  C   LIG d   1      -3.900  75.511 115.986  0.00  0.00     0.119 C 
BRANCH   8   9
ATOM      9  C   LIG d   1      -5.246  74.840 115.647  0.00  0.00     0.028 C 
ATOM     10  C   LIG d   1      -5.774  75.252 114.262  0.00  0.00     0.006 C 
ENDBRANCH   8   9
BRANCH   8  11
ATOM     11  C   LIG d   1      -4.242  76.971 116.296  0.00  0.00     0.028 C 
ATOM     12  C   LIG d   1      -3.833  77.390 117.717  0.00  0.00     0.006 C 
ENDBRANCH   8  11
ENDBRANCH   7   8
ENDBRANCH   1   7
BRANCH   6  13
ATOM     13  N   LIG d   1      -1.119  77.202 113.363  0.00  0.00    -0.311 N 
ATOM     14  C   LIG d   1      -2.072  77.857 112.703  0.00  0.00     0.210 C 
ATOM     15  C   LIG d   1      -1.845  77.980 111.193  0.00  0.00     0.109 C 
ATOM     16  O   LIG d   1      -3.068  78.377 113.229  0.00  0.00    -0.276 OA
ATOM     17  H   LIG d   1      -0.330  76.841 112.862  0.00  0.00     0.149 HD
ENDBRANCH   6  13
BRANCH   5  18
ATOM     18  N   LIG d   1       0.636  78.627 115.418  0.00  0.00     0.381 N 
ATOM     19  H   LIG d   1      -0.128  79.230 115.650  0.00  0.00    -0.090 HD
ATOM     20  H   LIG d   1       0.916  78.822 114.473  0.00  0.00    -0.090 HD
ATOM     21  H   LIG d   1       1.398  78.790 116.038  0.00  0.00    -0.090 HD
ENDBRANCH   5  18
BRANCH   3  22
ATOM     22  C   LIG d   1      -0.016  74.893 118.346  0.00  0.00     0.382 C 
ATOM     23  O   LIG d   1      -0.853  74.583 119.227  0.00  0.00    -0.241 OA
ATOM     24  O   LIG d   1       1.187  74.619 118.519  0.00  0.00    -0.241 OA
ENDBRANCH   3  22
TORSDOF 7
ENDMDL
MODEL 2
REMARK VINA RESULT:      -5.5      2.352      4.522
REMARK  7 active torsions:
REMARK  status: ('A' for Active; 'I' for Inactive)
REMARK    1  A    between atoms: C_2  and  C_3 
REMARK    2  A    between atoms: C_3  and  O_6 
REMARK    3  A    between atoms: C_3  and  C_4 
REMARK    4  A    between atoms: C_7  and  O_6 
REMARK    5  A    between atoms: C_9  and  C_10 
REMARK    6  A    between atoms: N_15  and  C_14 
REMARK    7  A    between atoms: N_20  and  C_19 
REMARK       I    between atoms: C_22  and  N_20 
ROOT
ATOM      1  C   LIG d   1      -2.873  78.060 115.502  0.00  0.00     0.161 C 
ATOM      2  C   LIG d   1      -1.554  78.419 115.828  0.00  0.00     0.016 C 
ATOM      3  C   LIG d   1      -0.609  77.512 116.359  0.00  0.00     0.038 C 
ATOM      4  C   LIG d   1      -0.875  76.138 116.459  0.00  0.00     0.028 C 
ATOM      5  C   LIG d   1      -2.358  75.818 116.616  0.00  0.00    -0.047 C 
ATOM      6  C   LIG d   1      -3.148  76.542 115.501  0.00  0.00     0.091 C 
ENDROOT
BRANCH   1   7
ATOM      7  O   LIG d   1      -3.237  78.636 114.232  0.00  0.00    -0.368 OA
BRANCH   7   8
ATOM      8  C   LIG d   1      -2.279  78.468 113.158  0.00  0.00     0.119 C 
BRANCH   8   9
ATOM      9  C   LIG d   1      -1.870  79.874 112.678  0.00  0.00     0.028 C 
ATOM     10  C   LIG d   1      -2.964  80.923 112.935  0.00  0.00     0.006 C 
ENDBRANCH   8   9
BRANCH   8  11
ATOM     11  C   LIG d   1      -2.920  77.795 111.941  0.00  0.00     0.028 C 
ATOM     12  C   LIG d   1      -2.086  77.961 110.660  0.00  0.00     0.006 C 
ENDBRANCH   8  11
ENDBRANCH   7   8
ENDBRANCH   1   7
BRANCH   6  13
ATOM     13  N   LIG d   1      -4.616  76.351 115.630  0.00  0.00    -0.311 N 
ATOM     14  C   LIG d   1      -5.371  75.805 114.679  0.00  0.00     0.210 C 
ATOM     15  C   LIG d   1      -6.865  75.720 115.008  0.00  0.00     0.109 C 
ATOM     16  O   LIG d   1      -4.941  75.355 113.606  0.00  0.00    -0.276 OA
ATOM     17  H   LIG d   1      -5.043  76.660 116.482  0.00  0.00     0.149 HD
ENDBRANCH   6  13
BRANCH   5  18
ATOM     18  N   LIG d   1      -2.505  74.351 116.570  0.00  0.00     0.381 N 
ATOM     19  H   LIG d   1      -3.475  74.110 116.515  0.00  0.00    -0.090 HD
ATOM     20  H   LIG d   1      -2.130  73.960 117.416  0.00  0.00    -0.090 HD
ATOM     21  H   LIG d   1      -2.019  73.985 115.781  0.00  0.00    -0.090 HD
ENDBRANCH   5  18
BRANCH   3  22
ATOM     22  C   LIG d   1       0.605  77.983 116.833  0.00  0.00     0.382 C 
ATOM     23  O   LIG d   1       1.382  77.211 117.446  0.00  0.00    -0.241 OA
ATOM     24  O   LIG d   1       0.915  79.182 116.696  0.00  0.00    -0.241 OA
ENDBRANCH   3  22
TORSDOF 7
ENDMDL
MODEL 3
REMARK VINA RESULT:      -5.3      2.087      2.433
REMARK  7 active torsions:
REMARK  status: ('A' for Active; 'I' for Inactive)
REMARK    1  A    between atoms: C_2  and  C_3 
REMARK    2  A    between atoms: C_3  and  O_6 
REMARK    3  A    between atoms: C_3  and  C_4 
REMARK    4  A    between atoms: C_7  and  O_6 
REMARK    5  A    between atoms: C_9  and  C_10 
REMARK    6  A    between atoms: N_15  and  C_14 
REMARK    7  A    between atoms: N_20  and  C_19 
REMARK       I    between atoms: C_22  and  N_20 
ROOT
ATOM      1  C   LIG d   1      -1.482  74.683 115.621  0.00  0.00     0.161 C 
ATOM      2  C   LIG d   1      -1.961  74.951 116.914  0.00  0.00     0.016 C 
ATOM      3  C   LIG d   1      -1.221  75.663 117.886  0.00  0.00     0.038 C 
ATOM      4  C   LIG d   1      -0.003  76.289 117.580  0.00  0.00     0.028 C 
ATOM      5  C   LIG d   1       0.752  75.618 116.437  0.00  0.00    -0.047 C 
ATOM      6  C   LIG d   1      -0.203  75.454 115.233  0.00  0.00     0.091 C 
ENDROOT
BRANCH   1   7
ATOM      7  O   LIG d   1      -2.524  74.922 114.655  0.00  0.00    -0.368 OA
BRANCH   7   8
ATOM      8  C   LIG d   1      -3.479  75.959 114.990  0.00  0.00     0.119 C 
BRANCH   8   9
ATOM      9  C   LIG d   1      -4.855  75.508 114.464  0.00  0.00     0.028 C 
ATOM     10  C   LIG d   1      -5.662  74.734 115.520  0.00  0.00     0.006 C 
ENDBRANCH   8   9
BRANCH   8  11
ATOM     11  C   LIG d   1      -3.168  77.263 114.248  0.00  0.00     0.028 C 
ATOM     12  C   LIG d   1      -2.564  78.339 115.164  0.00  0.00     0.006 C 
ENDBRANCH   8  11
ENDBRANCH   7   8
ENDBRANCH   1   7
BRANCH   6  13
ATOM     13  N   LIG d   1       0.432  74.730 114.101  0.00  0.00    -0.311 N 
ATOM     14  C   LIG d   1       0.262  75.072 112.824  0.00  0.00     0.210 C 
ATOM     15  C   LIG d   1       0.991  74.180 111.814  0.00  0.00     0.109 C 
ATOM     16  O   LIG d   1      -0.397  76.047 112.435  0.00  0.00    -0.276 OA
ATOM     17  H   LIG d   1       1.009  73.944 114.328  0.00  0.00     0.149 HD
ENDBRANCH   6  13
BRANCH   5  18
ATOM     18  N   LIG d   1       1.930  76.452 116.132  0.00  0.00     0.381 N 
ATOM     19  H   LIG d   1       2.673  76.234 116.765  0.00  0.00    -0.090 HD
ATOM     20  H   LIG d   1       1.685  77.419 116.254  0.00  0.00    -0.090 HD
ATOM     21  H   LIG d   1       2.226  76.293 115.194  0.00  0.00    -0.090 HD
ENDBRANCH   5  18
BRANCH   3  22
ATOM     22  C   LIG d   1      -1.679  75.719 119.194  0.00  0.00     0.382 C 
ATOM     23  O   LIG d   1      -1.698  74.680 119.897  0.00  0.00    -0.241 OA
ATOM     24  O   LIG d   1      -2.115  76.786 119.665  0.00  0.00    -0.241 OA
ENDBRANCH   3  22
TORSDOF 7
ENDMDL
MODEL 4
REMARK VINA RESULT:      -5.3      2.607      5.333
REMARK  7 active torsions:
REMARK  status: ('A' for Active; 'I' for Inactive)
REMARK    1  A    between atoms: C_2  and  C_3 
REMARK    2  A    between atoms: C_3  and  O_6 
REMARK    3  A    between atoms: C_3  and  C_4 
REMARK    4  A    between atoms: C_7  and  O_6 
REMARK    5  A    between atoms: C_9  and  C_10 
REMARK    6  A    between atoms: N_15  and  C_14 
REMARK    7  A    between atoms: N_20  and  C_19 
REMARK       I    between atoms: C_22  and  N_20 
ROOT
ATOM      1  C   LIG d   1      -1.758  77.708 113.509  0.00  0.00     0.161 C 
ATOM      2  C   LIG d   1      -2.350  78.981 113.574  0.00  0.00     0.016 C 
ATOM      3  C   LIG d   1      -2.193  79.964 112.570  0.00  0.00     0.038 C 
ATOM      4  C   LIG d   1      -1.553  79.686 111.353  0.00  0.00     0.028 C 
ATOM      5  C   LIG d   1      -0.508  78.580 111.457  0.00  0.00    -0.047 C 
ATOM      6  C   LIG d   1      -1.148  77.348 112.138  0.00  0.00     0.091 C 
ENDROOT
BRANCH   1   7
ATOM      7  O   LIG d   1      -2.710  76.705 113.912  0.00  0.00    -0.368 OA
BRANCH   7   8
ATOM      8  C   LIG d   1      -2.305  75.844 115.005  0.00  0.00     0.119 C 
BRANCH   8   9
ATOM      9  C   LIG d   1      -3.482  75.768 115.996  0.00  0.00     0.028 C 
ATOM     10  C   LIG d   1      -3.491  76.944 116.988  0.00  0.00     0.006 C 
ENDBRANCH   8   9
BRANCH   8  11
ATOM     11  C   LIG d   1      -1.146  76.457 115.797  0.00  0.00     0.028 C 
ATOM     12  C   LIG d   1       0.036  75.490 115.968  0.00  0.00     0.006 C 
ENDBRANCH   8  11
ENDBRANCH   7   8
ENDBRANCH   1   7
BRANCH   6  13
ATOM     13  N   LIG d   1      -0.171  76.250 112.355  0.00  0.00    -0.311 N 
ATOM     14  C   LIG d   1       0.149  75.357 111.419  0.00  0.00     0.210 C 
ATOM     15  C   LIG d   1       1.163  74.296 111.858  0.00  0.00     0.109 C 
ATOM     16  O   LIG d   1      -0.286  75.363 110.258  0.00  0.00    -0.276 OA
ATOM     17  H   LIG d   1       0.254  76.189 113.260  0.00  0.00     0.149 HD
ENDBRANCH   6  13
BRANCH   5  18
ATOM     18  N   LIG d   1      -0.019  78.299 110.094  0.00  0.00     0.381 N 
ATOM     19  H   LIG d   1       0.815  77.749 110.140  0.00  0.00    -0.090 HD
ATOM     20  H   LIG d   1       0.200  79.169 109.642  0.00  0.00    -0.090 HD
ATOM     21  H   LIG d   1      -0.717  77.813 109.575  0.00  0.00    -0.090 HD
ENDBRANCH   5  18
BRANCH   3  22
ATOM     22  C   LIG d   1      -2.646  81.255 112.796  0.00  0.00     0.382 C 
ATOM     23  O   LIG d   1      -3.877  81.482 112.878  0.00  0.00    -0.241 OA
ATOM     24  O   LIG d   1      -1.841  82.202 112.875  0.00  0.00    -0.241 OA
ENDBRANCH   3  22
TORSDOF 7
ENDMDL
MODEL 5
REMARK VINA RESULT:      -5.2      1.760      4.970
REMARK  7 active torsions:
REMARK  status: ('A' for Active; 'I' for Inactive)
REMARK    1  A    between atoms: C_2  and  C_3 
REMARK    2  A    between atoms: C_3  and  O_6 
REMARK    3  A    between atoms: C_3  and  C_4 
REMARK    4  A    between atoms: C_7  and  O_6 
REMARK    5  A    between atoms: C_9  and  C_10 
REMARK    6  A    between atoms: N_15  and  C_14 
REMARK    7  A    between atoms: N_20  and  C_19 
REMARK       I    between atoms: C_22  and  N_20 
ROOT
ATOM      1  C   LIG d   1      -2.712  77.162 116.101  0.00  0.00     0.161 C 
ATOM      2  C   LIG d   1      -3.142  77.585 114.833  0.00  0.00     0.016 C 
ATOM      3  C   LIG d   1      -2.355  77.467 113.664  0.00  0.00     0.038 C 
ATOM      4  C   LIG d   1      -1.134  76.776 113.660  0.00  0.00     0.028 C 
ATOM      5  C   LIG d   1      -0.432  76.778 115.013  0.00  0.00    -0.047 C 
ATOM      6  C   LIG d   1      -1.428  76.306 116.096  0.00  0.00     0.091 C 
ENDROOT
BRANCH   1   7
ATOM      7  O   LIG d   1      -3.779  76.462 116.772  0.00  0.00    -0.368 OA
BRANCH   7   8
ATOM      8  C   LIG d   1      -5.085  76.545 116.150  0.00  0.00     0.119 C 
BRANCH   8   9
ATOM      9  C   LIG d   1      -6.059  77.124 117.194  0.00  0.00     0.028 C 
ATOM     10  C   LIG d   1      -7.415  76.399 117.196  0.00  0.00     0.006 C 
ENDBRANCH   8   9
BRANCH   8  11
ATOM     11  C   LIG d   1      -5.630  75.154 115.813  0.00  0.00     0.028 C 
ATOM     12  C   LIG d   1      -5.588  74.846 114.308  0.00  0.00     0.006 C 
ENDBRANCH   8  11
ENDBRANCH   7   8
ENDBRANCH   1   7
BRANCH   6  13
ATOM     13  N   LIG d   1      -0.847  76.358 117.463  0.00  0.00    -0.311 N 
ATOM     14  C   LIG d   1      -0.307  75.303 118.071  0.00  0.00     0.210 C 
ATOM     15  C   LIG d   1       0.217  75.570 119.486  0.00  0.00     0.109 C 
ATOM     16  O   LIG d   1      -0.182  74.180 117.560  0.00  0.00    -0.276 OA
ATOM     17  H   LIG d   1      -0.878  77.239 117.938  0.00  0.00     0.149 HD
ENDBRANCH   6  13
BRANCH   5  18
ATOM     18  N   LIG d   1       0.755  75.910 114.901  0.00  0.00     0.381 N 
ATOM     19  H   LIG d   1       0.606  75.064 115.414  0.00  0.00    -0.090 HD
ATOM     20  H   LIG d   1       1.545  76.385 115.299  0.00  0.00    -0.090 HD
ATOM     21  H   LIG d   1       0.933  75.698 113.944  0.00  0.00    -0.090 HD
ENDBRANCH   5  18
BRANCH   3  22
ATOM     22  C   LIG d   1      -2.770  78.080 112.492  0.00  0.00     0.382 C 
ATOM     23  O   LIG d   1      -3.178  79.266 112.514  0.00  0.00    -0.241 OA
ATOM     24  O   LIG d   1      -2.782  77.448 111.419  0.00  0.00    -0.241 OA
ENDBRANCH   3  22
TORSDOF 7
ENDMDL
MODEL 6
REMARK VINA RESULT:      -5.1      2.266      5.486
REMARK  7 active torsions:
REMARK  status: ('A' for Active; 'I' for Inactive)
REMARK    1  A    between atoms: C_2  and  C_3 
REMARK    2  A    between atoms: C_3  and  O_6 
REMARK    3  A    between atoms: C_3  and  C_4 
REMARK    4  A    between atoms: C_7  and  O_6 
REMARK    5  A    between atoms: C_9  and  C_10 
REMARK    6  A    between atoms: N_15  and  C_14 
REMARK    7  A    between atoms: N_20  and  C_19 
REMARK       I    between atoms: C_22  and  N_20 
ROOT
ATOM      1  C   LIG d   1      -2.496  76.990 114.528  0.00  0.00     0.161 C 
ATOM      2  C   LIG d   1      -3.851  76.784 114.220  0.00  0.00     0.016 C 
ATOM      3  C   LIG d   1      -4.668  75.846 114.893  0.00  0.00     0.038 C 
ATOM      4  C   LIG d   1      -4.221  75.153 116.028  0.00  0.00     0.028 C 
ATOM      5  C   LIG d   1      -2.709  74.958 116.062  0.00  0.00    -0.047 C 
ATOM      6  C   LIG d   1      -2.021  76.323 115.836  0.00  0.00     0.091 C 
ENDROOT
BRANCH   1   7
ATOM      7  O   LIG d   1      -2.210  78.402 114.553  0.00  0.00    -0.368 OA
BRANCH   7   8
ATOM      8  C   LIG d   1      -1.721  78.976 113.316  0.00  0.00     0.119 C 
BRANCH   8   9
ATOM      9  C   LIG d   1      -2.887  79.751 112.671  0.00  0.00     0.028 C 
ATOM     10  C   LIG d   1      -2.782  81.268 112.903  0.00  0.00     0.006 C 
ENDBRANCH   8   9
BRANCH   8  11
ATOM     11  C   LIG d   1      -1.351  77.886 112.305  0.00  0.00     0.028 C 
ATOM     12  C   LIG d   1      -2.154  77.988 110.999  0.00  0.00     0.006 C 
ENDBRANCH   8  11
ENDBRANCH   7   8
ENDBRANCH   1   7
BRANCH   6  13
ATOM     13  N   LIG d   1      -0.541  76.209 115.770  0.00  0.00    -0.311 N 
ATOM     14  C   LIG d   1       0.256  76.389 116.822  0.00  0.00     0.210 C 
ATOM     15  C   LIG d   1       1.753  76.244 116.532  0.00  0.00     0.109 C 
ATOM     16  O   LIG d   1      -0.137  76.623 117.975  0.00  0.00    -0.276 OA
ATOM     17  H   LIG d   1      -0.139  75.990 114.879  0.00  0.00     0.149 HD
ENDBRANCH   6  13
BRANCH   5  18
ATOM     18  N   LIG d   1      -2.367  74.346 117.360  0.00  0.00     0.381 N 
ATOM     19  H   LIG d   1      -1.563  74.798 117.746  0.00  0.00    -0.090 HD
ATOM     20  H   LIG d   1      -2.145  73.377 117.215  0.00  0.00    -0.090 HD
ATOM     21  H   LIG d   1      -3.136  74.427 117.988  0.00  0.00    -0.090 HD
ENDBRANCH   5  18
BRANCH   3  22
ATOM     22  C   LIG d   1      -5.935  75.564 114.406  0.00  0.00     0.382 C 
ATOM     23  O   LIG d   1      -6.606  74.631 114.909  0.00  0.00    -0.241 OA
ATOM     24  O   LIG d   1      -6.398  76.202 113.442  0.00  0.00    -0.241 OA
ENDBRANCH   3  22
TORSDOF 7
ENDMDL
MODEL 7
REMARK VINA RESULT:      -5.0      2.128      5.229
REMARK  7 active torsions:
REMARK  status: ('A' for Active; 'I' for Inactive)
REMARK    1  A    between atoms: C_2  and  C_3 
REMARK    2  A    between atoms: C_3  and  O_6 
REMARK    3  A    between atoms: C_3  and  C_4 
REMARK    4  A    between atoms: C_7  and  O_6 
REMARK    5  A    between atoms: C_9  and  C_10 
REMARK    6  A    between atoms: N_15  and  C_14 
REMARK    7  A    between atoms: N_20  and  C_19 
REMARK       I    between atoms: C_22  and  N_20 
ROOT
ATOM      1  C   LIG d   1      -2.715  77.864 115.927  0.00  0.00     0.161 C 
ATOM      2  C   LIG d   1      -3.002  78.788 114.909  0.00  0.00     0.016 C 
ATOM      3  C   LIG d   1      -2.311  78.828 113.676  0.00  0.00     0.038 C 
ATOM      4  C   LIG d   1      -1.380  77.842 113.316  0.00  0.00     0.028 C 
ATOM      5  C   LIG d   1      -0.698  77.187 114.512  0.00  0.00    -0.047 C 
ATOM      6  C   LIG d   1      -1.779  76.711 115.508  0.00  0.00     0.091 C 
ENDROOT
BRANCH   1   7
ATOM      7  O   LIG d   1      -3.943  77.340 116.472  0.00  0.00    -0.368 OA
BRANCH   7   8
ATOM      8  C   LIG d   1      -4.678  78.225 117.352  0.00  0.00     0.119 C 
BRANCH   8   9
ATOM      9  C   LIG d   1      -4.045  78.115 118.753  0.00  0.00     0.028 C 
ATOM     10  C   LIG d   1      -4.865  78.850 119.827  0.00  0.00     0.006 C 
ENDBRANCH   8   9
BRANCH   8  11
ATOM     11  C   LIG d   1      -6.127  77.763 117.524  0.00  0.00     0.028 C 
ATOM     12  C   LIG d   1      -6.475  76.553 116.642  0.00  0.00     0.006 C 
ENDBRANCH   8  11
ENDBRANCH   7   8
ENDBRANCH   1   7
BRANCH   6  13
ATOM     13  N   LIG d   1      -1.195  76.134 116.747  0.00  0.00    -0.311 N 
ATOM     14  C   LIG d   1      -1.553  74.952 117.245  0.00  0.00     0.210 C 
ATOM     15  C   LIG d   1      -0.841  74.554 118.542  0.00  0.00     0.109 C 
ATOM     16  O   LIG d   1      -2.370  74.181 116.720  0.00  0.00    -0.276 OA
ATOM     17  H   LIG d   1      -0.501  76.679 117.221  0.00  0.00     0.149 HD
ENDBRANCH   6  13
BRANCH   5  18
ATOM     18  N   LIG d   1       0.141  76.088 114.000  0.00  0.00     0.381 N 
ATOM     19  H   LIG d   1       0.650  75.670 114.753  0.00  0.00    -0.090 HD
ATOM     20  H   LIG d   1       0.803  76.463 113.343  0.00  0.00    -0.090 HD
ATOM     21  H   LIG d   1      -0.429  75.403 113.554  0.00  0.00    -0.090 HD
ENDBRANCH   5  18
BRANCH   3  22
ATOM     22  C   LIG d   1      -2.520  79.886 112.805  0.00  0.00     0.382 C 
ATOM     23  O   LIG d   1      -3.421  80.726 113.043  0.00  0.00    -0.241 OA
ATOM     24  O   LIG d   1      -1.848  79.987 111.761  0.00  0.00    -0.241 OA
ENDBRANCH   3  22
TORSDOF 7
ENDMDL
MODEL 8
REMARK VINA RESULT:      -4.9      2.359      5.375
REMARK  7 active torsions:
REMARK  status: ('A' for Active; 'I' for Inactive)
REMARK    1  A    between atoms: C_2  and  C_3 
REMARK    2  A    between atoms: C_3  and  O_6 
REMARK    3  A    between atoms: C_3  and  C_4 
REMARK    4  A    between atoms: C_7  and  O_6 
REMARK    5  A    between atoms: C_9  and  C_10 
REMARK    6  A    between atoms: N_15  and  C_14 
REMARK    7  A    between atoms: N_20  and  C_19 
REMARK       I    between atoms: C_22  and  N_20 
ROOT
ATOM      1  C   LIG d   1      -2.867  76.145 114.704  0.00  0.00     0.161 C 
ATOM      2  C   LIG d   1      -4.231  76.008 114.394  0.00  0.00     0.016 C 
ATOM      3  C   LIG d   1      -5.268  76.249 115.323  0.00  0.00     0.038 C 
ATOM      4  C   LIG d   1      -5.016  76.793 116.591  0.00  0.00     0.028 C 
ATOM      5  C   LIG d   1      -3.624  76.471 117.123  0.00  0.00    -0.047 C 
ATOM      6  C   LIG d   1      -2.578  76.844 116.049  0.00  0.00     0.091 C 
ENDROOT
BRANCH   1   7
ATOM      7  O   LIG d   1      -2.187  76.823 113.630  0.00  0.00    -0.368 OA
BRANCH   7   8
ATOM      8  C   LIG d   1      -2.866  77.975 113.072  0.00  0.00     0.119 C 
BRANCH   8   9
ATOM      9  C   LIG d   1      -2.763  77.876 111.538  0.00  0.00     0.028 C 
ATOM     10  C   LIG d   1      -1.329  77.587 111.064  0.00  0.00     0.006 C 
ENDBRANCH   8   9
BRANCH   8  11
ATOM     11  C   LIG d   1      -2.150  79.277 113.443  0.00  0.00     0.028 C 
ATOM     12  C   LIG d   1      -2.871  80.526 112.912  0.00  0.00     0.006 C 
ENDBRANCH   8  11
ENDBRANCH   7   8
ENDBRANCH   1   7
BRANCH   6  13
ATOM     13  N   LIG d   1      -1.194  76.483 116.455  0.00  0.00    -0.311 N 
ATOM     14  C   LIG d   1      -0.814  75.238 116.736  0.00  0.00     0.210 C 
ATOM     15  C   LIG d   1       0.652  75.088 117.153  0.00  0.00     0.109 C 
ATOM     16  O   LIG d   1      -1.544  74.239 116.648  0.00  0.00    -0.276 OA
ATOM     17  H   LIG d   1      -0.529  77.228 116.521  0.00  0.00     0.149 HD
ENDBRANCH   6  13
BRANCH   5  18
ATOM     18  N   LIG d   1      -3.447  77.212 118.386  0.00  0.00     0.381 N 
ATOM     19  H   LIG d   1      -3.346  78.189 118.194  0.00  0.00    -0.090 HD
ATOM     20  H   LIG d   1      -2.608  76.891 118.836  0.00  0.00    -0.090 HD
ATOM     21  H   LIG d   1      -4.230  77.062 118.983  0.00  0.00    -0.090 HD
ENDBRANCH   5  18
BRANCH   3  22
ATOM     22  C   LIG d   1      -6.573  75.907 115.001  0.00  0.00     0.382 C 
ATOM     23  O   LIG d   1      -7.019  76.148 113.853  0.00  0.00    -0.241 OA
ATOM     24  O   LIG d   1      -7.323  75.400 115.856  0.00  0.00    -0.241 OA
ENDBRANCH   3  22
TORSDOF 7
ENDMDL
MODEL 9
REMARK VINA RESULT:      -4.9      2.407      5.333
REMARK  7 active torsions:
REMARK  status: ('A' for Active; 'I' for Inactive)
REMARK    1  A    between atoms: C_2  and  C_3 
REMARK    2  A    between atoms: C_3  and  O_6 
REMARK    3  A    between atoms: C_3  and  C_4 
REMARK    4  A    between atoms: C_7  and  O_6 
REMARK    5  A    between atoms: C_9  and  C_10 
REMARK    6  A    between atoms: N_15  and  C_14 
REMARK    7  A    between atoms: N_20  and  C_19 
REMARK       I    between atoms: C_22  and  N_20 
ROOT
ATOM      1  C   LIG d   1      -1.991  77.790 114.614  0.00  0.00     0.161 C 
ATOM      2  C   LIG d   1      -3.175  77.170 114.183  0.00  0.00     0.016 C 
ATOM      3  C   LIG d   1      -3.905  76.252 114.973  0.00  0.00     0.038 C 
ATOM      4  C   LIG d   1      -3.578  76.005 116.315  0.00  0.00     0.028 C 
ATOM      5  C   LIG d   1      -2.102  76.222 116.628  0.00  0.00    -0.047 C 
ATOM      6  C   LIG d   1      -1.680  77.618 116.115  0.00  0.00     0.091 C 
ENDROOT
BRANCH   1   7
ATOM      7  O   LIG d   1      -2.016  79.188 114.265  0.00  0.00    -0.368 OA
BRANCH   7   8
ATOM      8  C   LIG d   1      -2.541  79.508 112.953  0.00  0.00     0.119 C 
BRANCH   8   9
ATOM      9  C   LIG d   1      -1.380  79.384 111.947  0.00  0.00     0.028 C 
ATOM     10  C   LIG d   1      -1.657  78.334 110.858  0.00  0.00     0.006 C 
ENDBRANCH   8   9
BRANCH   8  11
ATOM     11  C   LIG d   1      -2.991  80.970 112.874  0.00  0.00     0.028 C 
ATOM     12  C   LIG d   1      -1.839  81.931 112.542  0.00  0.00     0.006 C 
ENDBRANCH   8  11
ENDBRANCH   7   8
ENDBRANCH   1   7
BRANCH   6  13
ATOM     13  N   LIG d   1      -0.229  77.877 116.307  0.00  0.00    -0.311 N 
ATOM     14  C   LIG d   1       0.265  78.550 117.345  0.00  0.00     0.210 C 
ATOM     15  C   LIG d   1       1.787  78.722 117.339  0.00  0.00     0.109 C 
ATOM     16  O   LIG d   1      -0.410  78.993 118.286  0.00  0.00    -0.276 OA
ATOM     17  H   LIG d   1       0.394  77.526 115.606  0.00  0.00     0.149 HD
ENDBRANCH   6  13
BRANCH   5  18
ATOM     18  N   LIG d   1      -1.928  76.064 118.085  0.00  0.00     0.381 N 
ATOM     19  H   LIG d   1      -2.558  76.671 118.569  0.00  0.00    -0.090 HD
ATOM     20  H   LIG d   1      -0.988  76.324 118.330  0.00  0.00    -0.090 HD
ATOM     21  H   LIG d   1      -2.098  75.118 118.348  0.00  0.00    -0.090 HD
ENDBRANCH   5  18
BRANCH   3  22
ATOM     22  C   LIG d   1      -4.951  75.539 114.408  0.00  0.00     0.382 C 
ATOM     23  O   LIG d   1      -5.252  75.716 113.203  0.00  0.00    -0.241 OA
ATOM     24  O   LIG d   1      -5.627  74.754 115.100  0.00  0.00    -0.241 OA
ENDBRANCH   3  22
TORSDOF 7
ENDMDL
