MODEL 1
REMARK VINA RESULT:      -5.6      0.000      0.000
REMARK  7 active torsions:
REMARK  status: ('A' for Active; 'I' for Inactive)
REMARK    1  A    between atoms: C_2  and  C_3 
REMARK    2  A    between atoms: C_3  and  O_6 
REMARK    3  A    between atoms: C_3  and  C_4 
REMARK    4  A    between atoms: C_7  and  O_6 
REMARK    5  A    between atoms: C_9  and  C_10 
REMARK    6  A    between atoms: N_15  and  C_14 
REMARK    7  A    between atoms: N_20  and  C_19 
REMARK       I    between atoms: C_22  and  N_20 
ROOT
ATOM      1  C   LIG d   1      -1.151  75.066 115.727  0.00  0.00     0.161 C 
ATOM      2  C   LIG d   1      -0.745  74.635 117.001  0.00  0.00     0.016 C 
ATOM      3  C   LIG d   1      -0.054  75.460 117.918  0.00  0.00     0.038 C 
ATOM      4  C   LIG d   1       0.146  76.828 117.679  0.00  0.00     0.028 C 
ATOM      5  C   LIG d   1       0.201  77.183 116.197  0.00  0.00    -0.047 C 
ATOM      6  C   LIG d   1      -1.040  76.587 115.493  0.00  0.00     0.091 C 
ENDROOT
BRANCH   1   7
ATOM      7  O   LIG d   1      -2.495  74.616 115.464  0.00  0.00    -0.368 OA
BRANCH   7   8
ATOM      8  C   LIG d   1      -3.558  75.513 115.867  0.00  0.00     0.119 C 
BRANCH   8   9
ATOM      9  C   LIG d   1      -4.140  74.977 117.190  0.00  0.00     0.028 C 
ATOM     10  C   LIG d   1      -3.909  75.940 118.366  0.00  0.00     0.006 C 
ENDBRANCH   8   9
BRANCH   8  11
ATOM     11  C   LIG d   1      -4.721  75.484 114.871  0.00  0.00     0.028 C 
ATOM     12  C   LIG d   1      -6.013  74.915 115.479  0.00  0.00     0.006 C 
ENDBRANCH   8  11
ENDBRANCH   7   8
ENDBRANCH   1   7
BRANCH   6  13
ATOM     13  N   LIG d   1      -1.022  76.816 114.024  0.00  0.00    -0.311 N 
ATOM     14  C   LIG d   1      -1.868  77.634 113.400  0.00  0.00     0.210 C 
ATOM     15  C   LIG d   1      -1.691  77.710 111.880  0.00  0.00     0.109 C 
ATOM     16  O   LIG d   1      -2.727  78.329 113.964  0.00  0.00    -0.276 OA
ATOM     17  H   LIG d   1      -0.337  76.316 113.493  0.00  0.00     0.149 HD
ENDBRANCH   6  13
BRANCH   5  18
ATOM     18  N   LIG d   1       0.274  78.652 116.093  0.00  0.00     0.381 N 
ATOM     19  H   LIG d   1      -0.360  78.975 115.390  0.00  0.00    -0.090 HD
ATOM     20  H   LIG d   1       1.206  78.913 115.821  0.00  0.00    -0.090 HD
ATOM     21  H   LIG d   1       0.048  79.068 116.970  0.00  0.00    -0.090 HD
ENDBRANCH   5  18
BRANCH   3  22
ATOM     22  C   LIG d   1       0.480  74.907 119.072  0.00  0.00     0.382 C 
ATOM     23  O   LIG d   1      -0.231  74.180 119.806  0.00  0.00    -0.241 OA
ATOM     24  O   LIG d   1       1.651  75.163 119.411  0.00  0.00    -0.241 OA
ENDBRANCH   3  22
TORSDOF 7
ENDMDL
MODEL 2
REMARK VINA RESULT:      -5.5      1.230      1.820
REMARK  7 active torsions:
REMARK  status: ('A' for Active; 'I' for Inactive)
REMARK    1  A    between atoms: C_2  and  C_3 
REMARK    2  A    between atoms: C_3  and  O_6 
REMARK    3  A    between atoms: C_3  and  C_4 
REMARK    4  A    between atoms: C_7  and  O_6 
REMARK    5  A    between atoms: C_9  and  C_10 
REMARK    6  A    between atoms: N_15  and  C_14 
REMARK    7  A    between atoms: N_20  and  C_19 
REMARK       I    between atoms: C_22  and  N_20 
ROOT
ATOM      1  C   LIG d   1      -2.341  75.608 115.211  0.00  0.00     0.161 C 
ATOM      2  C   LIG d   1      -2.263  74.959 116.454  0.00  0.00     0.016 C 
ATOM      3  C   LIG d   1      -1.426  75.394 117.508  0.00  0.00     0.038 C 
ATOM      4  C   LIG d   1      -0.719  76.603 117.442  0.00  0.00     0.028 C 
ATOM      5  C   LIG d   1      -0.375  77.027 116.018  0.00  0.00    -0.047 C 
ATOM      6  C   LIG d   1      -1.660  76.992 115.160  0.00  0.00     0.091 C 
ENDROOT
BRANCH   1   7
ATOM      7  O   LIG d   1      -3.718  75.712 114.799  0.00  0.00    -0.368 OA
BRANCH   7   8
ATOM      8  C   LIG d   1      -4.709  75.581 115.849  0.00  0.00     0.119 C 
BRANCH   8   9
ATOM      9  C   LIG d   1      -5.945  74.896 115.235  0.00  0.00     0.028 C 
ATOM     10  C   LIG d   1      -6.805  74.181 116.291  0.00  0.00     0.006 C 
ENDBRANCH   8   9
BRANCH   8  11
ATOM     11  C   LIG d   1      -5.199  76.951 116.326  0.00  0.00     0.028 C 
ATOM     12  C   LIG d   1      -4.920  77.196 117.818  0.00  0.00     0.006 C 
ENDBRANCH   8  11
ENDBRANCH   7   8
ENDBRANCH   1   7
BRANCH   6  13
ATOM     13  N   LIG d   1      -1.398  77.312 113.732  0.00  0.00    -0.311 N 
ATOM     14  C   LIG d   1      -2.116  78.189 113.034  0.00  0.00     0.210 C 
ATOM     15  C   LIG d   1      -1.690  78.355 111.572  0.00  0.00     0.109 C 
ATOM     16  O   LIG d   1      -3.045  78.870 113.495  0.00  0.00    -0.276 OA
ATOM     17  H   LIG d   1      -0.642  76.829 113.288  0.00  0.00     0.149 HD
ENDBRANCH   6  13
BRANCH   5  18
ATOM     18  N   LIG d   1       0.238  78.367 116.087  0.00  0.00     0.381 N 
ATOM     19  H   LIG d   1      -0.469  79.068 115.990  0.00  0.00    -0.090 HD
ATOM     20  H   LIG d   1       0.888  78.467 115.328  0.00  0.00    -0.090 HD
ATOM     21  H   LIG d   1       0.711  78.481 116.956  0.00  0.00    -0.090 HD
ENDBRANCH   5  18
BRANCH   3  22
ATOM     22  C   LIG d   1      -1.260  74.594 118.628  0.00  0.00     0.382 C 
ATOM     23  O   LIG d   1      -2.264  74.180 119.257  0.00  0.00    -0.241 OA
ATOM     24  O   LIG d   1      -0.119  74.318 119.044  0.00  0.00    -0.241 OA
ENDBRANCH   3  22
TORSDOF 7
ENDMDL
MODEL 3
REMARK VINA RESULT:      -5.3      5.282      7.873
REMARK  7 active torsions:
REMARK  status: ('A' for Active; 'I' for Inactive)
REMARK    1  A    between atoms: C_2  and  C_3 
REMARK    2  A    between atoms: C_3  and  O_6 
REMARK    3  A    between atoms: C_3  and  C_4 
REMARK    4  A    between atoms: C_7  and  O_6 
REMARK    5  A    between atoms: C_9  and  C_10 
REMARK    6  A    between atoms: N_15  and  C_14 
REMARK    7  A    between atoms: N_20  and  C_19 
REMARK       I    between atoms: C_22  and  N_20 
ROOT
ATOM      1  C   LIG d   1      -1.084  80.510 111.807  0.00  0.00     0.161 C 
ATOM      2  C   LIG d   1      -2.089  79.669 112.314  0.00  0.00     0.016 C 
ATOM      3  C   LIG d   1      -2.139  78.278 112.066  0.00  0.00     0.038 C 
ATOM      4  C   LIG d   1      -1.097  77.604 111.414  0.00  0.00     0.028 C 
ATOM      5  C   LIG d   1      -0.314  78.487 110.448  0.00  0.00    -0.047 C 
ATOM      6  C   LIG d   1       0.122  79.774 111.186  0.00  0.00     0.091 C 
ENDROOT
BRANCH   1   7
ATOM      7  O   LIG d   1      -0.642  81.418 112.835  0.00  0.00    -0.368 OA
BRANCH   7   8
ATOM      8  C   LIG d   1      -1.189  82.759 112.779  0.00  0.00     0.119 C 
BRANCH   8   9
ATOM      9  C   LIG d   1      -1.009  83.272 111.337  0.00  0.00     0.028 C 
ATOM     10  C   LIG d   1      -0.392  84.680 111.288  0.00  0.00     0.006 C 
ENDBRANCH   8   9
BRANCH   8  11
ATOM     11  C   LIG d   1      -0.387  83.725 113.656  0.00  0.00     0.028 C 
ATOM     12  C   LIG d   1       0.850  83.068 114.289  0.00  0.00     0.006 C 
ENDBRANCH   8  11
ENDBRANCH   7   8
ENDBRANCH   1   7
BRANCH   6  13
ATOM     13  N   LIG d   1       0.822  80.732 110.291  0.00  0.00    -0.311 N 
ATOM     14  C   LIG d   1       1.884  81.443 110.665  0.00  0.00     0.210 C 
ATOM     15  C   LIG d   1       2.440  82.386 109.594  0.00  0.00     0.109 C 
ATOM     16  O   LIG d   1       2.438  81.358 111.771  0.00  0.00    -0.276 OA
ATOM     17  H   LIG d   1       0.457  80.839 109.365  0.00  0.00     0.149 HD
ENDBRANCH   6  13
BRANCH   5  18
ATOM     18  N   LIG d   1       0.825  77.696 109.944  0.00  0.00     0.381 N 
ATOM     19  H   LIG d   1       1.685  78.118 110.233  0.00  0.00    -0.090 HD
ATOM     20  H   LIG d   1       0.798  77.692 108.939  0.00  0.00    -0.090 HD
ATOM     21  H   LIG d   1       0.771  76.763 110.289  0.00  0.00    -0.090 HD
ENDBRANCH   5  18
BRANCH   3  22
ATOM     22  C   LIG d   1      -3.262  77.554 112.437  0.00  0.00     0.382 C 
ATOM     23  O   LIG d   1      -4.269  77.532 111.690  0.00  0.00    -0.241 OA
ATOM     24  O   LIG d   1      -3.296  76.959 113.531  0.00  0.00    -0.241 OA
ENDBRANCH   3  22
TORSDOF 7
ENDMDL
MODEL 4
REMARK VINA RESULT:      -5.0      1.799      5.109
REMARK  7 active torsions:
REMARK  status: ('A' for Active; 'I' for Inactive)
REMARK    1  A    between atoms: C_2  and  C_3 
REMARK    2  A    between atoms: C_3  and  O_6 
REMARK    3  A    between atoms: C_3  and  C_4 
REMARK    4  A    between atoms: C_7  and  O_6 
REMARK    5  A    between atoms: C_9  and  C_10 
REMARK    6  A    between atoms: N_15  and  C_14 
REMARK    7  A    between atoms: N_20  and  C_19 
REMARK       I    between atoms: C_22  and  N_20 
ROOT
ATOM      1  C   LIG d   1      -3.480  76.229 115.791  0.00  0.00     0.161 C 
ATOM      2  C   LIG d   1      -3.638  76.772 114.505  0.00  0.00     0.016 C 
ATOM      3  C   LIG d   1      -2.566  77.286 113.740  0.00  0.00     0.038 C 
ATOM      4  C   LIG d   1      -1.232  77.153 114.151  0.00  0.00     0.028 C 
ATOM      5  C   LIG d   1      -1.069  77.068 115.665  0.00  0.00    -0.047 C 
ATOM      6  C   LIG d   1      -2.016  75.974 116.210  0.00  0.00     0.091 C 
ENDROOT
BRANCH   1   7
ATOM      7  O   LIG d   1      -4.252  75.018 115.909  0.00  0.00    -0.368 OA
BRANCH   7   8
ATOM      8  C   LIG d   1      -5.296  75.023 116.914  0.00  0.00     0.119 C 
BRANCH   8   9
ATOM      9  C   LIG d   1      -6.554  74.401 116.278  0.00  0.00     0.028 C 
ATOM     10  C   LIG d   1      -7.719  75.400 116.181  0.00  0.00     0.006 C 
ENDBRANCH   8   9
BRANCH   8  11
ATOM     11  C   LIG d   1      -5.698  76.452 117.292  0.00  0.00     0.028 C 
ATOM     12  C   LIG d   1      -5.386  76.790 118.759  0.00  0.00     0.006 C 
ENDBRANCH   8  11
ENDBRANCH   7   8
ENDBRANCH   1   7
BRANCH   6  13
ATOM     13  N   LIG d   1      -1.982  75.883 117.693  0.00  0.00    -0.311 N 
ATOM     14  C   LIG d   1      -1.186  75.048 118.358  0.00  0.00     0.210 C 
ATOM     15  C   LIG d   1      -1.323  75.100 119.883  0.00  0.00     0.109 C 
ATOM     16  O   LIG d   1      -0.356  74.292 117.831  0.00  0.00    -0.276 OA
ATOM     17  H   LIG d   1      -2.602  76.483 118.201  0.00  0.00     0.149 HD
ENDBRANCH   6  13
BRANCH   5  18
ATOM     18  N   LIG d   1       0.353  76.793 115.946  0.00  0.00     0.381 N 
ATOM     19  H   LIG d   1       0.442  75.913 116.413  0.00  0.00    -0.090 HD
ATOM     20  H   LIG d   1       0.708  77.510 116.554  0.00  0.00    -0.090 HD
ATOM     21  H   LIG d   1       0.872  76.781 115.096  0.00  0.00    -0.090 HD
ENDBRANCH   5  18
BRANCH   3  22
ATOM     22  C   LIG d   1      -2.829  77.977 112.567  0.00  0.00     0.382 C 
ATOM     23  O   LIG d   1      -3.198  79.175 112.615  0.00  0.00    -0.241 OA
ATOM     24  O   LIG d   1      -2.744  77.405 111.464  0.00  0.00    -0.241 OA
ENDBRANCH   3  22
TORSDOF 7
ENDMDL
MODEL 5
REMARK VINA RESULT:      -4.8      2.404      5.674
REMARK  7 active torsions:
REMARK  status: ('A' for Active; 'I' for Inactive)
REMARK    1  A    between atoms: C_2  and  C_3 
REMARK    2  A    between atoms: C_3  and  O_6 
REMARK    3  A    between atoms: C_3  and  C_4 
REMARK    4  A    between atoms: C_7  and  O_6 
REMARK    5  A    between atoms: C_9  and  C_10 
REMARK    6  A    between atoms: N_15  and  C_14 
REMARK    7  A    between atoms: N_20  and  C_19 
REMARK       I    between atoms: C_22  and  N_20 
ROOT
ATOM      1  C   LIG d   1      -2.089  77.084 114.665  0.00  0.00     0.161 C 
ATOM      2  C   LIG d   1      -3.345  76.640 114.217  0.00  0.00     0.016 C 
ATOM      3  C   LIG d   1      -4.335  76.111 115.076  0.00  0.00     0.038 C 
ATOM      4  C   LIG d   1      -4.193  76.131 116.471  0.00  0.00     0.028 C 
ATOM      5  C   LIG d   1      -2.740  76.104 116.933  0.00  0.00    -0.047 C 
ATOM      6  C   LIG d   1      -1.959  77.216 116.197  0.00  0.00     0.091 C 
ENDROOT
BRANCH   1   7
ATOM      7  O   LIG d   1      -1.755  78.331 114.024  0.00  0.00    -0.368 OA
BRANCH   7   8
ATOM      8  C   LIG d   1      -2.437  78.610 112.777  0.00  0.00     0.119 C 
BRANCH   8   9
ATOM      9  C   LIG d   1      -1.371  78.645 111.664  0.00  0.00     0.028 C 
ATOM     10  C   LIG d   1      -1.125  77.260 111.043  0.00  0.00     0.006 C 
ENDBRANCH   8   9
BRANCH   8  11
ATOM     11  C   LIG d   1      -3.062  80.008 112.784  0.00  0.00     0.028 C 
ATOM     12  C   LIG d   1      -2.057  81.112 112.419  0.00  0.00     0.006 C 
ENDBRANCH   8  11
ENDBRANCH   7   8
ENDBRANCH   1   7
BRANCH   6  13
ATOM     13  N   LIG d   1      -0.510  77.205 116.527  0.00  0.00    -0.311 N 
ATOM     14  C   LIG d   1       0.047  78.032 117.410  0.00  0.00     0.210 C 
ATOM     15  C   LIG d   1       1.559  77.866 117.587  0.00  0.00     0.109 C 
ATOM     16  O   LIG d   1      -0.573  78.866 118.087  0.00  0.00    -0.276 OA
ATOM     17  H   LIG d   1       0.062  76.538 116.047  0.00  0.00     0.149 HD
ENDBRANCH   6  13
BRANCH   5  18
ATOM     18  N   LIG d   1      -2.735  76.267 118.399  0.00  0.00     0.381 N 
ATOM     19  H   LIG d   1      -2.864  77.231 118.633  0.00  0.00    -0.090 HD
ATOM     20  H   LIG d   1      -1.843  75.972 118.756  0.00  0.00    -0.090 HD
ATOM     21  H   LIG d   1      -3.461  75.719 118.806  0.00  0.00    -0.090 HD
ENDBRANCH   5  18
BRANCH   3  22
ATOM     22  C   LIG d   1      -5.467  75.519 114.537  0.00  0.00     0.382 C 
ATOM     23  O   LIG d   1      -6.034  74.580 115.147  0.00  0.00    -0.241 OA
ATOM     24  O   LIG d   1      -5.903  75.881 113.428  0.00  0.00    -0.241 OA
ENDBRANCH   3  22
TORSDOF 7
ENDMDL
MODEL 6
REMARK VINA RESULT:      -4.5      2.691      3.915
REMARK  7 active torsions:
REMARK  status: ('A' for Active; 'I' for Inactive)
REMARK    1  A    between atoms: C_2  and  C_3 
REMARK    2  A    between atoms: C_3  and  O_6 
REMARK    3  A    between atoms: C_3  and  C_4 
REMARK    4  A    between atoms: C_7  and  O_6 
REMARK    5  A    between atoms: C_9  and  C_10 
REMARK    6  A    between atoms: N_15  and  C_14 
REMARK    7  A    between atoms: N_20  and  C_19 
REMARK       I    between atoms: C_22  and  N_20 
ROOT
ATOM      1  C   LIG d   1      -3.000  76.886 118.039  0.00  0.00     0.161 C 
ATOM      2  C   LIG d   1      -1.829  77.031 118.800  0.00  0.00     0.016 C 
ATOM      3  C   LIG d   1      -0.614  76.376 118.492  0.00  0.00     0.038 C 
ATOM      4  C   LIG d   1      -0.446  75.646 117.306  0.00  0.00     0.028 C 
ATOM      5  C   LIG d   1      -1.746  75.060 116.766  0.00  0.00    -0.047 C 
ATOM      6  C   LIG d   1      -2.805  76.182 116.680  0.00  0.00     0.091 C 
ENDROOT
BRANCH   1   7
ATOM      7  O   LIG d   1      -3.623  78.173 117.852  0.00  0.00    -0.368 OA
BRANCH   7   8
ATOM      8  C   LIG d   1      -4.933  78.340 118.449  0.00  0.00     0.119 C 
BRANCH   8   9
ATOM      9  C   LIG d   1      -5.943  78.536 117.302  0.00  0.00     0.028 C 
ATOM     10  C   LIG d   1      -7.027  79.572 117.645  0.00  0.00     0.006 C 
ENDBRANCH   8   9
BRANCH   8  11
ATOM     11  C   LIG d   1      -5.007  79.624 119.279  0.00  0.00     0.028 C 
ATOM     12  C   LIG d   1      -3.621  80.179 119.643  0.00  0.00     0.006 C 
ENDBRANCH   8  11
ENDBRANCH   7   8
ENDBRANCH   1   7
BRANCH   6  13
ATOM     13  N   LIG d   1      -4.132  75.677 116.240  0.00  0.00    -0.311 N 
ATOM     14  C   LIG d   1      -4.587  75.800 114.994  0.00  0.00     0.210 C 
ATOM     15  C   LIG d   1      -5.989  75.228 114.759  0.00  0.00     0.109 C 
ATOM     16  O   LIG d   1      -3.951  76.300 114.055  0.00  0.00    -0.276 OA
ATOM     17  H   LIG d   1      -4.701  75.230 116.931  0.00  0.00     0.149 HD
ENDBRANCH   6  13
BRANCH   5  18
ATOM     18  N   LIG d   1      -1.448  74.443 115.460  0.00  0.00     0.381 N 
ATOM     19  H   LIG d   1      -0.651  74.887 115.050  0.00  0.00    -0.090 HD
ATOM     20  H   LIG d   1      -2.234  74.581 114.849  0.00  0.00    -0.090 HD
ATOM     21  H   LIG d   1      -1.273  73.469 115.574  0.00  0.00    -0.090 HD
ENDBRANCH   5  18
BRANCH   3  22
ATOM     22  C   LIG d   1       0.437  76.416 119.396  0.00  0.00     0.382 C 
ATOM     23  O   LIG d   1       1.007  77.505 119.647  0.00  0.00    -0.241 OA
ATOM     24  O   LIG d   1       0.851  75.370 119.930  0.00  0.00    -0.241 OA
ENDBRANCH   3  22
TORSDOF 7
ENDMDL
MODEL 7
REMARK VINA RESULT:      -4.4      5.649      7.963
REMARK  7 active torsions:
REMARK  status: ('A' for Active; 'I' for Inactive)
REMARK    1  A    between atoms: C_2  and  C_3 
REMARK    2  A    between atoms: C_3  and  O_6 
REMARK    3  A    between atoms: C_3  and  C_4 
REMARK    4  A    between atoms: C_7  and  O_6 
REMARK    5  A    between atoms: C_9  and  C_10 
REMARK    6  A    between atoms: N_15  and  C_14 
REMARK    7  A    between atoms: N_20  and  C_19 
REMARK       I    between atoms: C_22  and  N_20 
ROOT
ATOM      1  C   LIG d   1      -0.200  80.897 112.281  0.00  0.00     0.161 C 
ATOM      2  C   LIG d   1      -1.311  80.123 112.656  0.00  0.00     0.016 C 
ATOM      3  C   LIG d   1      -1.664  78.910 112.022  0.00  0.00     0.038 C 
ATOM      4  C   LIG d   1      -0.838  78.307 111.062  0.00  0.00     0.028 C 
ATOM      5  C   LIG d   1       0.028  79.302 110.297  0.00  0.00    -0.047 C 
ATOM      6  C   LIG d   1       0.776  80.199 111.310  0.00  0.00     0.091 C 
ENDROOT
BRANCH   1   7
ATOM      7  O   LIG d   1       0.500  81.349 113.457  0.00  0.00    -0.368 OA
BRANCH   7   8
ATOM      8  C   LIG d   1       0.665  82.782 113.588  0.00  0.00     0.119 C 
BRANCH   8   9
ATOM      9  C   LIG d   1       1.236  83.055 114.993  0.00  0.00     0.028 C 
ATOM     10  C   LIG d   1       1.115  84.533 115.399  0.00  0.00     0.006 C 
ENDBRANCH   8   9
BRANCH   8  11
ATOM     11  C   LIG d   1      -0.685  83.504 113.552  0.00  0.00     0.028 C 
ATOM     12  C   LIG d   1      -0.706  84.678 112.559  0.00  0.00     0.006 C 
ENDBRANCH   8  11
ENDBRANCH   7   8
ENDBRANCH   1   7
BRANCH   6  13
ATOM     13  N   LIG d   1       1.581  81.256 110.645  0.00  0.00    -0.311 N 
ATOM     14  C   LIG d   1       1.047  82.337 110.079  0.00  0.00     0.210 C 
ATOM     15  C   LIG d   1       2.055  83.292 109.431  0.00  0.00     0.109 C 
ATOM     16  O   LIG d   1      -0.162  82.612 110.080  0.00  0.00    -0.276 OA
ATOM     17  H   LIG d   1       2.574  81.128 110.625  0.00  0.00     0.149 HD
ENDBRANCH   6  13
BRANCH   5  18
ATOM     18  N   LIG d   1       0.936  78.528 109.430  0.00  0.00     0.381 N 
ATOM     19  H   LIG d   1       1.672  79.119 109.097  0.00  0.00    -0.090 HD
ATOM     20  H   LIG d   1       0.420  78.190 108.637  0.00  0.00    -0.090 HD
ATOM     21  H   LIG d   1       1.320  77.761 109.937  0.00  0.00    -0.090 HD
ENDBRANCH   5  18
BRANCH   3  22
ATOM     22  C   LIG d   1      -2.877  78.307 112.319  0.00  0.00     0.382 C 
ATOM     23  O   LIG d   1      -3.374  78.428 113.465  0.00  0.00    -0.241 OA
ATOM     24  O   LIG d   1      -3.460  77.607 111.469  0.00  0.00    -0.241 OA
ENDBRANCH   3  22
TORSDOF 7
ENDMDL
MODEL 8
REMARK VINA RESULT:      -4.1      3.338      6.172
REMARK  7 active torsions:
REMARK  status: ('A' for Active; 'I' for Inactive)
REMARK    1  A    between atoms: C_2  and  C_3 
REMARK    2  A    between atoms: C_3  and  O_6 
REMARK    3  A    between atoms: C_3  and  C_4 
REMARK    4  A    between atoms: C_7  and  O_6 
REMARK    5  A    between atoms: C_9  and  C_10 
REMARK    6  A    between atoms: N_15  and  C_14 
REMARK    7  A    between atoms: N_20  and  C_19 
REMARK       I    between atoms: C_22  and  N_20 
ROOT
ATOM      1  C   LIG d   1      -3.721  77.555 117.466  0.00  0.00     0.161 C 
ATOM      2  C   LIG d   1      -4.855  78.294 117.842  0.00  0.00     0.016 C 
ATOM      3  C   LIG d   1      -6.155  78.027 117.354  0.00  0.00     0.038 C 
ATOM      4  C   LIG d   1      -6.435  76.898 116.569  0.00  0.00     0.028 C 
ATOM      5  C   LIG d   1      -5.240  76.415 115.755  0.00  0.00    -0.047 C 
ATOM      6  C   LIG d   1      -4.025  76.252 116.697  0.00  0.00     0.091 C 
ENDROOT
BRANCH   1   7
ATOM      7  O   LIG d   1      -2.913  77.276 118.626  0.00  0.00    -0.368 OA
BRANCH   7   8
ATOM      8  C   LIG d   1      -1.622  77.930 118.676  0.00  0.00     0.119 C 
BRANCH   8   9
ATOM      9  C   LIG d   1      -0.647  76.976 119.393  0.00  0.00     0.028 C 
ATOM     10  C   LIG d   1       0.552  76.590 118.511  0.00  0.00     0.006 C 
ENDBRANCH   8   9
BRANCH   8  11
ATOM     11  C   LIG d   1      -1.668  79.190 119.544  0.00  0.00     0.028 C 
ATOM     12  C   LIG d   1      -0.560  80.196 119.194  0.00  0.00     0.006 C 
ENDBRANCH   8  11
ENDBRANCH   7   8
ENDBRANCH   1   7
BRANCH   6  13
ATOM     13  N   LIG d   1      -2.790  75.862 115.967  0.00  0.00    -0.311 N 
ATOM     14  C   LIG d   1      -1.955  74.916 116.392  0.00  0.00     0.210 C 
ATOM     15  C   LIG d   1      -0.731  74.685 115.500  0.00  0.00     0.109 C 
ATOM     16  O   LIG d   1      -2.128  74.223 117.407  0.00  0.00    -0.276 OA
ATOM     17  H   LIG d   1      -2.589  76.352 115.117  0.00  0.00     0.149 HD
ENDBRANCH   6  13
BRANCH   5  18
ATOM     18  N   LIG d   1      -5.631  75.156 115.093  0.00  0.00     0.381 N 
ATOM     19  H   LIG d   1      -5.751  75.313 114.112  0.00  0.00    -0.090 HD
ATOM     20  H   LIG d   1      -6.509  74.848 115.473  0.00  0.00    -0.090 HD
ATOM     21  H   LIG d   1      -4.934  74.461 115.243  0.00  0.00    -0.090 HD
ENDBRANCH   5  18
BRANCH   3  22
ATOM     22  C   LIG d   1      -7.185  78.917 117.620  0.00  0.00     0.382 C 
ATOM     23  O   LIG d   1      -8.059  78.628 118.472  0.00  0.00    -0.241 OA
ATOM     24  O   LIG d   1      -7.276  79.985 116.986  0.00  0.00    -0.241 OA
ENDBRANCH   3  22
TORSDOF 7
ENDMDL
MODEL 9
REMARK VINA RESULT:      -3.9      3.495      5.520
REMARK  7 active torsions:
REMARK  status: ('A' for Active; 'I' for Inactive)
REMARK    1  A    between atoms: C_2  and  C_3 
REMARK    2  A    between atoms: C_3  and  O_6 
REMARK    3  A    between atoms: C_3  and  C_4 
REMARK    4  A    between atoms: C_7  and  O_6 
REMARK    5  A    between atoms: C_9  and  C_10 
REMARK    6  A    between atoms: N_15  and  C_14 
REMARK    7  A    between atoms: N_20  and  C_19 
REMARK       I    between atoms: C_22  and  N_20 
ROOT
ATOM      1  C   LIG d   1      -3.480  76.822 118.109  0.00  0.00     0.161 C 
ATOM      2  C   LIG d   1      -2.314  76.258 117.565  0.00  0.00     0.016 C 
ATOM      3  C   LIG d   1      -2.325  75.323 116.504  0.00  0.00     0.038 C 
ATOM      4  C   LIG d   1      -3.501  75.002 115.810  0.00  0.00     0.028 C 
ATOM      5  C   LIG d   1      -4.763  75.162 116.651  0.00  0.00    -0.047 C 
ATOM      6  C   LIG d   1      -4.764  76.569 117.292  0.00  0.00     0.091 C 
ENDROOT
BRANCH   1   7
ATOM      7  O   LIG d   1      -3.288  78.236 118.314  0.00  0.00    -0.368 OA
BRANCH   7   8
ATOM      8  C   LIG d   1      -2.865  78.636 119.641  0.00  0.00     0.119 C 
BRANCH   8   9
ATOM      9  C   LIG d   1      -3.389  80.064 119.884  0.00  0.00     0.028 C 
ATOM     10  C   LIG d   1      -4.901  80.186 119.630  0.00  0.00     0.006 C 
ENDBRANCH   8   9
BRANCH   8  11
ATOM     11  C   LIG d   1      -1.340  78.743 119.731  0.00  0.00     0.028 C 
ATOM     12  C   LIG d   1      -0.808  80.100 119.244  0.00  0.00     0.006 C 
ENDBRANCH   8  11
ENDBRANCH   7   8
ENDBRANCH   1   7
BRANCH   6  13
ATOM     13  N   LIG d   1      -5.923  76.778 118.199  0.00  0.00    -0.311 N 
ATOM     14  C   LIG d   1      -6.865  77.695 117.985  0.00  0.00     0.210 C 
ATOM     15  C   LIG d   1      -7.960  77.757 119.054  0.00  0.00     0.109 C 
ATOM     16  O   LIG d   1      -6.914  78.441 116.996  0.00  0.00    -0.276 OA
ATOM     17  H   LIG d   1      -5.978  76.194 119.010  0.00  0.00     0.149 HD
ENDBRANCH   6  13
BRANCH   5  18
ATOM     18  N   LIG d   1      -5.920  74.929 115.766  0.00  0.00     0.381 N 
ATOM     19  H   LIG d   1      -6.528  75.723 115.788  0.00  0.00    -0.090 HD
ATOM     20  H   LIG d   1      -6.431  74.131 116.103  0.00  0.00    -0.090 HD
ATOM     21  H   LIG d   1      -5.609  74.765 114.834  0.00  0.00    -0.090 HD
ENDBRANCH   5  18
BRANCH   3  22
ATOM     22  C   LIG d   1      -1.154  74.669 116.153  0.00  0.00     0.382 C 
ATOM     23  O   LIG d   1      -1.028  74.181 115.004  0.00  0.00    -0.241 OA
ATOM     24  O   LIG d   1      -0.239  74.521 116.986  0.00  0.00    -0.241 OA
ENDBRANCH   3  22
TORSDOF 7
ENDMDL
