MODEL 1
REMARK VINA RESULT:      -5.1      0.000      0.000
REMARK  7 active torsions:
REMARK  status: ('A' for Active; 'I' for Inactive)
REMARK    1  A    between atoms: C_2  and  C_3 
REMARK    2  A    between atoms: C_3  and  O_6 
REMARK    3  A    between atoms: C_3  and  C_4 
REMARK    4  A    between atoms: C_7  and  O_6 
REMARK    5  A    between atoms: C_9  and  C_10 
REMARK    6  A    between atoms: N_15  and  C_14 
REMARK    7  A    between atoms: N_20  and  C_19 
REMARK       I    between atoms: C_22  and  N_20 
ROOT
ATOM      1  C   LIG d   1      -2.856  76.970 115.461  0.00  0.00     0.161 C 
ATOM      2  C   LIG d   1      -3.049  77.866 114.397  0.00  0.00     0.016 C 
ATOM      3  C   LIG d   1      -2.111  78.861 114.038  0.00  0.00     0.038 C 
ATOM      4  C   LIG d   1      -0.841  78.930 114.628  0.00  0.00     0.028 C 
ATOM      5  C   LIG d   1      -0.801  78.370 116.046  0.00  0.00    -0.047 C 
ATOM      6  C   LIG d   1      -1.428  76.958 116.046  0.00  0.00     0.091 C 
ENDROOT
BRANCH   1   7
ATOM      7  O   LIG d   1      -3.244  75.641 115.058  0.00  0.00    -0.368 OA
BRANCH   7   8
ATOM      8  C   LIG d   1      -4.353  75.054 115.781  0.00  0.00     0.119 C 
BRANCH   8   9
ATOM      9  C   LIG d   1      -5.411  74.631 114.743  0.00  0.00     0.028 C 
ATOM     10  C   LIG d   1      -6.104  75.837 114.086  0.00  0.00     0.006 C 
ENDBRANCH   8   9
BRANCH   8  11
ATOM     11  C   LIG d   1      -5.049  76.089 116.670  0.00  0.00     0.028 C 
ATOM     12  C   LIG d   1      -6.066  75.458 117.635  0.00  0.00     0.006 C 
ENDBRANCH   8  11
ENDBRANCH   7   8
ENDBRANCH   1   7
BRANCH   6  13
ATOM     13  N   LIG d   1      -1.505  76.371 117.409  0.00  0.00    -0.311 N 
ATOM     14  C   LIG d   1      -1.138  75.122 117.692  0.00  0.00     0.210 C 
ATOM     15  C   LIG d   1      -1.317  74.712 119.157  0.00  0.00     0.109 C 
ATOM     16  O   LIG d   1      -0.651  74.326 116.875  0.00  0.00    -0.276 OA
ATOM     17  H   LIG d   1      -1.860  76.958 118.139  0.00  0.00     0.149 HD
ENDBRANCH   6  13
BRANCH   5  18
ATOM     18  N   LIG d   1       0.607  78.378 116.488  0.00  0.00     0.381 N 
ATOM     19  H   LIG d   1       1.095  77.607 116.078  0.00  0.00    -0.090 HD
ATOM     20  H   LIG d   1       0.634  78.272 117.487  0.00  0.00    -0.090 HD
ATOM     21  H   LIG d   1       1.042  79.234 116.226  0.00  0.00    -0.090 HD
ENDBRANCH   5  18
BRANCH   3  22
ATOM     22  C   LIG d   1      -2.458  79.827 113.105  0.00  0.00     0.382 C 
ATOM     23  O   LIG d   1      -1.987  79.774 111.943  0.00  0.00    -0.241 OA
ATOM     24  O   LIG d   1      -3.199  80.776 113.423  0.00  0.00    -0.241 OA
ENDBRANCH   3  22
TORSDOF 7
ENDMDL
MODEL 2
REMARK VINA RESULT:      -4.8      1.397      1.841
REMARK  7 active torsions:
REMARK  status: ('A' for Active; 'I' for Inactive)
REMARK    1  A    between atoms: C_2  and  C_3 
REMARK    2  A    between atoms: C_3  and  O_6 
REMARK    3  A    between atoms: C_3  and  C_4 
REMARK    4  A    between atoms: C_7  and  O_6 
REMARK    5  A    between atoms: C_9  and  C_10 
REMARK    6  A    between atoms: N_15  and  C_14 
REMARK    7  A    between atoms: N_20  and  C_19 
REMARK       I    between atoms: C_22  and  N_20 
ROOT
ATOM      1  C   LIG d   1      -2.753  77.929 116.771  0.00  0.00     0.161 C 
ATOM      2  C   LIG d   1      -3.035  78.698 115.630  0.00  0.00     0.016 C 
ATOM      3  C   LIG d   1      -2.280  78.627 114.437  0.00  0.00     0.038 C 
ATOM      4  C   LIG d   1      -1.277  77.664 114.251  0.00  0.00     0.028 C 
ATOM      5  C   LIG d   1      -0.625  77.209 115.553  0.00  0.00    -0.047 C 
ATOM      6  C   LIG d   1      -1.732  76.794 116.549  0.00  0.00     0.091 C 
ENDROOT
BRANCH   1   7
ATOM      7  O   LIG d   1      -3.977  77.402 117.320  0.00  0.00    -0.368 OA
BRANCH   7   8
ATOM      8  C   LIG d   1      -5.045  77.152 116.373  0.00  0.00     0.119 C 
BRANCH   8   9
ATOM      9  C   LIG d   1      -6.372  77.523 117.063  0.00  0.00     0.028 C 
ATOM     10  C   LIG d   1      -7.571  76.760 116.476  0.00  0.00     0.006 C 
ENDBRANCH   8   9
BRANCH   8  11
ATOM     11  C   LIG d   1      -5.161  75.661 116.044  0.00  0.00     0.028 C 
ATOM     12  C   LIG d   1      -4.639  75.318 114.640  0.00  0.00     0.006 C 
ENDBRANCH   8  11
ENDBRANCH   7   8
ENDBRANCH   1   7
BRANCH   6  13
ATOM     13  N   LIG d   1      -1.185  76.415 117.878  0.00  0.00    -0.311 N 
ATOM     14  C   LIG d   1      -0.895  75.161 118.222  0.00  0.00     0.210 C 
ATOM     15  C   LIG d   1      -0.360  74.988 119.647  0.00  0.00     0.109 C 
ATOM     16  O   LIG d   1      -1.001  74.180 117.471  0.00  0.00    -0.276 OA
ATOM     17  H   LIG d   1      -1.038  77.153 118.539  0.00  0.00     0.149 HD
ENDBRANCH   6  13
BRANCH   5  18
ATOM     18  N   LIG d   1       0.302  76.109 115.227  0.00  0.00     0.381 N 
ATOM     19  H   LIG d   1      -0.046  75.595 114.442  0.00  0.00    -0.090 HD
ATOM     20  H   LIG d   1       0.357  75.486 116.013  0.00  0.00    -0.090 HD
ATOM     21  H   LIG d   1       1.205  76.475 115.020  0.00  0.00    -0.090 HD
ENDBRANCH   5  18
BRANCH   3  22
ATOM     22  C   LIG d   1      -2.500  79.552 113.428  0.00  0.00     0.382 C 
ATOM     23  O   LIG d   1      -2.007  79.366 112.289  0.00  0.00    -0.241 OA
ATOM     24  O   LIG d   1      -3.147  80.592 113.654  0.00  0.00    -0.241 OA
ENDBRANCH   3  22
TORSDOF 7
ENDMDL
MODEL 3
REMARK VINA RESULT:      -4.8      2.354      3.026
REMARK  7 active torsions:
REMARK  status: ('A' for Active; 'I' for Inactive)
REMARK    1  A    between atoms: C_2  and  C_3 
REMARK    2  A    between atoms: C_3  and  O_6 
REMARK    3  A    between atoms: C_3  and  C_4 
REMARK    4  A    between atoms: C_7  and  O_6 
REMARK    5  A    between atoms: C_9  and  C_10 
REMARK    6  A    between atoms: N_15  and  C_14 
REMARK    7  A    between atoms: N_20  and  C_19 
REMARK       I    between atoms: C_22  and  N_20 
ROOT
ATOM      1  C   LIG d   1      -2.994  78.629 116.241  0.00  0.00     0.161 C 
ATOM      2  C   LIG d   1      -3.099  79.465 115.117  0.00  0.00     0.016 C 
ATOM      3  C   LIG d   1      -2.373  79.256 113.922  0.00  0.00     0.038 C 
ATOM      4  C   LIG d   1      -1.601  78.103 113.715  0.00  0.00     0.028 C 
ATOM      5  C   LIG d   1      -1.068  77.491 115.006  0.00  0.00    -0.047 C 
ATOM      6  C   LIG d   1      -2.242  77.304 115.995  0.00  0.00     0.091 C 
ENDROOT
BRANCH   1   7
ATOM      7  O   LIG d   1      -4.305  78.368 116.780  0.00  0.00    -0.368 OA
BRANCH   7   8
ATOM      8  C   LIG d   1      -4.848  79.386 117.657  0.00  0.00     0.119 C 
BRANCH   8   9
ATOM      9  C   LIG d   1      -4.441  79.021 119.098  0.00  0.00     0.028 C 
ATOM     10  C   LIG d   1      -4.703  77.541 119.424  0.00  0.00     0.006 C 
ENDBRANCH   8   9
BRANCH   8  11
ATOM     11  C   LIG d   1      -6.379  79.368 117.651  0.00  0.00     0.028 C 
ATOM     12  C   LIG d   1      -6.993  80.768 117.806  0.00  0.00     0.006 C 
ENDBRANCH   8  11
ENDBRANCH   7   8
ENDBRANCH   1   7
BRANCH   6  13
ATOM     13  N   LIG d   1      -1.795  76.789 117.315  0.00  0.00    -0.311 N 
ATOM     14  C   LIG d   1      -1.847  75.502 117.656  0.00  0.00     0.210 C 
ATOM     15  C   LIG d   1      -1.355  75.188 119.072  0.00  0.00     0.109 C 
ATOM     16  O   LIG d   1      -2.225  74.588 116.908  0.00  0.00    -0.276 OA
ATOM     17  H   LIG d   1      -1.444  77.459 117.972  0.00  0.00     0.149 HD
ENDBRANCH   6  13
BRANCH   5  18
ATOM     18  N   LIG d   1      -0.400  76.223 114.656  0.00  0.00     0.381 N 
ATOM     19  H   LIG d   1       0.555  76.398 114.417  0.00  0.00    -0.090 HD
ATOM     20  H   LIG d   1      -0.858  75.825 113.855  0.00  0.00    -0.090 HD
ATOM     21  H   LIG d   1      -0.448  75.589 115.424  0.00  0.00    -0.090 HD
ENDBRANCH   5  18
BRANCH   3  22
ATOM     22  C   LIG d   1      -2.384  80.227 112.933  0.00  0.00     0.382 C 
ATOM     23  O   LIG d   1      -3.211  81.169 112.987  0.00  0.00    -0.241 OA
ATOM     24  O   LIG d   1      -1.606  80.150 111.963  0.00  0.00    -0.241 OA
ENDBRANCH   3  22
TORSDOF 7
ENDMDL
MODEL 4
REMARK VINA RESULT:      -4.8      1.593      4.710
REMARK  7 active torsions:
REMARK  status: ('A' for Active; 'I' for Inactive)
REMARK    1  A    between atoms: C_2  and  C_3 
REMARK    2  A    between atoms: C_3  and  O_6 
REMARK    3  A    between atoms: C_3  and  C_4 
REMARK    4  A    between atoms: C_7  and  O_6 
REMARK    5  A    between atoms: C_9  and  C_10 
REMARK    6  A    between atoms: N_15  and  C_14 
REMARK    7  A    between atoms: N_20  and  C_19 
REMARK       I    between atoms: C_22  and  N_20 
ROOT
ATOM      1  C   LIG d   1      -2.043  75.934 115.087  0.00  0.00     0.161 C 
ATOM      2  C   LIG d   1      -1.916  75.295 116.332  0.00  0.00     0.016 C 
ATOM      3  C   LIG d   1      -1.105  75.789 117.380  0.00  0.00     0.038 C 
ATOM      4  C   LIG d   1      -0.481  77.042 117.307  0.00  0.00     0.028 C 
ATOM      5  C   LIG d   1      -0.173  77.483 115.880  0.00  0.00    -0.047 C 
ATOM      6  C   LIG d   1      -1.457  77.360 115.028  0.00  0.00     0.091 C 
ENDROOT
BRANCH   1   7
ATOM      7  O   LIG d   1      -3.426  75.943 114.682  0.00  0.00    -0.368 OA
BRANCH   7   8
ATOM      8  C   LIG d   1      -4.388  75.544 115.689  0.00  0.00     0.119 C 
BRANCH   8   9
ATOM      9  C   LIG d   1      -5.389  74.584 115.018  0.00  0.00     0.028 C 
ATOM     10  C   LIG d   1      -6.538  74.182 115.959  0.00  0.00     0.006 C 
ENDBRANCH   8   9
BRANCH   8  11
ATOM     11  C   LIG d   1      -5.225  76.736 116.163  0.00  0.00     0.028 C 
ATOM     12  C   LIG d   1      -4.738  77.312 117.502  0.00  0.00     0.006 C 
ENDBRANCH   8  11
ENDBRANCH   7   8
ENDBRANCH   1   7
BRANCH   6  13
ATOM     13  N   LIG d   1      -1.223  77.692 113.599  0.00  0.00    -0.311 N 
ATOM     14  C   LIG d   1      -2.014  78.500 112.895  0.00  0.00     0.210 C 
ATOM     15  C   LIG d   1      -1.604  78.692 111.432  0.00  0.00     0.109 C 
ATOM     16  O   LIG d   1      -2.997  79.101 113.352  0.00  0.00    -0.276 OA
ATOM     17  H   LIG d   1      -0.429  77.271 113.157  0.00  0.00     0.149 HD
ENDBRANCH   6  13
BRANCH   5  18
ATOM     18  N   LIG d   1       0.349  78.862 115.942  0.00  0.00     0.381 N 
ATOM     19  H   LIG d   1       1.347  78.849 115.872  0.00  0.00    -0.090 HD
ATOM     20  H   LIG d   1       0.100  79.264 116.829  0.00  0.00    -0.090 HD
ATOM     21  H   LIG d   1      -0.036  79.406 115.202  0.00  0.00    -0.090 HD
ENDBRANCH   5  18
BRANCH   3  22
ATOM     22  C   LIG d   1      -0.881  75.005 118.502  0.00  0.00     0.382 C 
ATOM     23  O   LIG d   1      -1.592  75.157 119.525  0.00  0.00    -0.241 OA
ATOM     24  O   LIG d   1       0.051  74.180 118.520  0.00  0.00    -0.241 OA
ENDBRANCH   3  22
TORSDOF 7
ENDMDL
MODEL 5
REMARK VINA RESULT:      -4.3      1.720      2.249
REMARK  7 active torsions:
REMARK  status: ('A' for Active; 'I' for Inactive)
REMARK    1  A    between atoms: C_2  and  C_3 
REMARK    2  A    between atoms: C_3  and  O_6 
REMARK    3  A    between atoms: C_3  and  C_4 
REMARK    4  A    between atoms: C_7  and  O_6 
REMARK    5  A    between atoms: C_9  and  C_10 
REMARK    6  A    between atoms: N_15  and  C_14 
REMARK    7  A    between atoms: N_20  and  C_19 
REMARK       I    between atoms: C_22  and  N_20 
ROOT
ATOM      1  C   LIG d   1      -3.150  77.675 115.048  0.00  0.00     0.161 C 
ATOM      2  C   LIG d   1      -2.962  77.772 113.659  0.00  0.00     0.016 C 
ATOM      3  C   LIG d   1      -1.867  78.442 113.068  0.00  0.00     0.038 C 
ATOM      4  C   LIG d   1      -0.799  78.935 113.831  0.00  0.00     0.028 C 
ATOM      5  C   LIG d   1      -1.193  79.304 115.257  0.00  0.00    -0.047 C 
ATOM      6  C   LIG d   1      -1.937  78.110 115.897  0.00  0.00     0.091 C 
ENDROOT
BRANCH   1   7
ATOM      7  O   LIG d   1      -3.549  76.334 115.395  0.00  0.00    -0.368 OA
BRANCH   7   8
ATOM      8  C   LIG d   1      -4.940  76.156 115.757  0.00  0.00     0.119 C 
BRANCH   8   9
ATOM      9  C   LIG d   1      -4.979  75.644 117.210  0.00  0.00     0.028 C 
ATOM     10  C   LIG d   1      -5.779  76.572 118.139  0.00  0.00     0.006 C 
ENDBRANCH   8   9
BRANCH   8  11
ATOM     11  C   LIG d   1      -5.598  75.054 114.921  0.00  0.00     0.028 C 
ATOM     12  C   LIG d   1      -6.561  74.180 115.740  0.00  0.00     0.006 C 
ENDBRANCH   8  11
ENDBRANCH   7   8
ENDBRANCH   1   7
BRANCH   6  13
ATOM     13  N   LIG d   1      -2.432  78.417 117.264  0.00  0.00    -0.311 N 
ATOM     14  C   LIG d   1      -2.080  77.723 118.345  0.00  0.00     0.210 C 
ATOM     15  C   LIG d   1      -2.721  78.195 119.654  0.00  0.00     0.109 C 
ATOM     16  O   LIG d   1      -1.273  76.782 118.348  0.00  0.00    -0.276 OA
ATOM     17  H   LIG d   1      -3.068  79.186 117.357  0.00  0.00     0.149 HD
ENDBRANCH   6  13
BRANCH   5  18
ATOM     18  N   LIG d   1       0.040  79.672 115.980  0.00  0.00     0.381 N 
ATOM     19  H   LIG d   1       0.779  79.047 115.727  0.00  0.00    -0.090 HD
ATOM     20  H   LIG d   1      -0.124  79.583 116.967  0.00  0.00    -0.090 HD
ATOM     21  H   LIG d   1       0.297  80.609 115.761  0.00  0.00    -0.090 HD
ENDBRANCH   5  18
BRANCH   3  22
ATOM     22  C   LIG d   1      -1.853  78.661 111.698  0.00  0.00     0.382 C 
ATOM     23  O   LIG d   1      -1.295  79.683 111.232  0.00  0.00    -0.241 OA
ATOM     24  O   LIG d   1      -2.431  77.871 110.927  0.00  0.00    -0.241 OA
ENDBRANCH   3  22
TORSDOF 7
ENDMDL
MODEL 6
REMARK VINA RESULT:      -4.3      3.870      5.713
REMARK  7 active torsions:
REMARK  status: ('A' for Active; 'I' for Inactive)
REMARK    1  A    between atoms: C_2  and  C_3 
REMARK    2  A    between atoms: C_3  and  O_6 
REMARK    3  A    between atoms: C_3  and  C_4 
REMARK    4  A    between atoms: C_7  and  O_6 
REMARK    5  A    between atoms: C_9  and  C_10 
REMARK    6  A    between atoms: N_15  and  C_14 
REMARK    7  A    between atoms: N_20  and  C_19 
REMARK       I    between atoms: C_22  and  N_20 
ROOT
ATOM      1  C   LIG d   1      -4.441  78.941 117.211  0.00  0.00     0.161 C 
ATOM      2  C   LIG d   1      -5.329  79.954 117.612  0.00  0.00     0.016 C 
ATOM      3  C   LIG d   1      -6.728  79.770 117.706  0.00  0.00     0.038 C 
ATOM      4  C   LIG d   1      -7.322  78.509 117.549  0.00  0.00     0.028 C 
ATOM      5  C   LIG d   1      -6.523  77.571 116.650  0.00  0.00    -0.047 C 
ATOM      6  C   LIG d   1      -5.059  77.529 117.144  0.00  0.00     0.091 C 
ENDROOT
BRANCH   1   7
ATOM      7  O   LIG d   1      -3.282  78.940 118.068  0.00  0.00    -0.368 OA
BRANCH   7   8
ATOM      8  C   LIG d   1      -2.137  79.689 117.591  0.00  0.00     0.119 C 
BRANCH   8   9
ATOM      9  C   LIG d   1      -1.093  78.671 117.094  0.00  0.00     0.028 C 
ATOM     10  C   LIG d   1      -0.985  78.643 115.560  0.00  0.00     0.006 C 
ENDBRANCH   8   9
BRANCH   8  11
ATOM     11  C   LIG d   1      -1.452  80.447 118.733  0.00  0.00     0.028 C 
ATOM     12  C   LIG d   1      -2.450  81.174 119.648  0.00  0.00     0.006 C 
ENDBRANCH   8  11
ENDBRANCH   7   8
ENDBRANCH   1   7
BRANCH   6  13
ATOM     13  N   LIG d   1      -4.190  76.699 116.269  0.00  0.00    -0.311 N 
ATOM     14  C   LIG d   1      -3.278  75.848 116.737  0.00  0.00     0.210 C 
ATOM     15  C   LIG d   1      -2.475  75.106 115.664  0.00  0.00     0.109 C 
ATOM     16  O   LIG d   1      -3.081  75.613 117.939  0.00  0.00    -0.276 OA
ATOM     17  H   LIG d   1      -4.305  76.803 115.280  0.00  0.00     0.149 HD
ENDBRANCH   6  13
BRANCH   5  18
ATOM     18  N   LIG d   1      -7.183  76.252 116.685  0.00  0.00     0.381 N 
ATOM     19  H   LIG d   1      -8.167  76.361 116.541  0.00  0.00    -0.090 HD
ATOM     20  H   LIG d   1      -7.041  75.841 117.591  0.00  0.00    -0.090 HD
ATOM     21  H   LIG d   1      -6.801  75.660 115.981  0.00  0.00    -0.090 HD
ENDBRANCH   5  18
BRANCH   3  22
ATOM     22  C   LIG d   1      -7.552  80.864 117.920  0.00  0.00     0.382 C 
ATOM     23  O   LIG d   1      -7.994  81.101 119.070  0.00  0.00    -0.241 OA
ATOM     24  O   LIG d   1      -7.894  81.593 116.969  0.00  0.00    -0.241 OA
ENDBRANCH   3  22
TORSDOF 7
ENDMDL
MODEL 7
REMARK VINA RESULT:      -4.2      1.924      2.370
REMARK  7 active torsions:
REMARK  status: ('A' for Active; 'I' for Inactive)
REMARK    1  A    between atoms: C_2  and  C_3 
REMARK    2  A    between atoms: C_3  and  O_6 
REMARK    3  A    between atoms: C_3  and  C_4 
REMARK    4  A    between atoms: C_7  and  O_6 
REMARK    5  A    between atoms: C_9  and  C_10 
REMARK    6  A    between atoms: N_15  and  C_14 
REMARK    7  A    between atoms: N_20  and  C_19 
REMARK       I    between atoms: C_22  and  N_20 
ROOT
ATOM      1  C   LIG d   1      -2.867  77.511 116.520  0.00  0.00     0.161 C 
ATOM      2  C   LIG d   1      -3.214  78.016 115.256  0.00  0.00     0.016 C 
ATOM      3  C   LIG d   1      -2.390  77.890 114.114  0.00  0.00     0.038 C 
ATOM      4  C   LIG d   1      -1.222  77.113 114.125  0.00  0.00     0.028 C 
ATOM      5  C   LIG d   1      -0.577  77.008 115.503  0.00  0.00    -0.047 C 
ATOM      6  C   LIG d   1      -1.648  76.565 116.525  0.00  0.00     0.091 C 
ENDROOT
BRANCH   1   7
ATOM      7  O   LIG d   1      -4.007  76.864 117.118  0.00  0.00    -0.368 OA
BRANCH   7   8
ATOM      8  C   LIG d   1      -5.186  76.752 116.284  0.00  0.00     0.119 C 
BRANCH   8   9
ATOM      9  C   LIG d   1      -6.374  77.320 117.085  0.00  0.00     0.028 C 
ATOM     10  C   LIG d   1      -7.705  76.639 116.722  0.00  0.00     0.006 C 
ENDBRANCH   8   9
BRANCH   8  11
ATOM     11  C   LIG d   1      -5.542  75.286 116.016  0.00  0.00     0.028 C 
ATOM     12  C   LIG d   1      -5.134  74.822 114.609  0.00  0.00     0.006 C 
ENDBRANCH   8  11
ENDBRANCH   7   8
ENDBRANCH   1   7
BRANCH   6  13
ATOM     13  N   LIG d   1      -1.121  76.519 117.914  0.00  0.00    -0.311 N 
ATOM     14  C   LIG d   1      -0.508  77.547 118.500  0.00  0.00     0.210 C 
ATOM     15  C   LIG d   1      -0.024  77.281 119.929  0.00  0.00     0.109 C 
ATOM     16  O   LIG d   1      -0.349  78.663 117.984  0.00  0.00    -0.276 OA
ATOM     17  H   LIG d   1      -1.235  75.661 118.417  0.00  0.00     0.149 HD
ENDBRANCH   6  13
BRANCH   5  18
ATOM     18  N   LIG d   1       0.549  76.061 115.397  0.00  0.00     0.381 N 
ATOM     19  H   LIG d   1       0.696  75.816 114.438  0.00  0.00    -0.090 HD
ATOM     20  H   LIG d   1       0.319  75.225 115.904  0.00  0.00    -0.090 HD
ATOM     21  H   LIG d   1       1.375  76.470 115.774  0.00  0.00    -0.090 HD
ENDBRANCH   5  18
BRANCH   3  22
ATOM     22  C   LIG d   1      -2.712  78.578 112.954  0.00  0.00     0.382 C 
ATOM     23  O   LIG d   1      -2.978  79.804 113.006  0.00  0.00    -0.241 OA
ATOM     24  O   LIG d   1      -2.784  77.981 111.864  0.00  0.00    -0.241 OA
ENDBRANCH   3  22
TORSDOF 7
ENDMDL
MODEL 8
REMARK VINA RESULT:      -4.0      2.553      4.796
REMARK  7 active torsions:
REMARK  status: ('A' for Active; 'I' for Inactive)
REMARK    1  A    between atoms: C_2  and  C_3 
REMARK    2  A    between atoms: C_3  and  O_6 
REMARK    3  A    between atoms: C_3  and  C_4 
REMARK    4  A    between atoms: C_7  and  O_6 
REMARK    5  A    between atoms: C_9  and  C_10 
REMARK    6  A    between atoms: N_15  and  C_14 
REMARK    7  A    between atoms: N_20  and  C_19 
REMARK       I    between atoms: C_22  and  N_20 
ROOT
ATOM      1  C   LIG d   1      -2.100  78.307 117.251  0.00  0.00     0.161 C 
ATOM      2  C   LIG d   1      -2.851  77.363 116.531  0.00  0.00     0.016 C 
ATOM      3  C   LIG d   1      -2.741  77.183 115.133  0.00  0.00     0.038 C 
ATOM      4  C   LIG d   1      -1.756  77.835 114.377  0.00  0.00     0.028 C 
ATOM      5  C   LIG d   1      -1.315  79.167 114.976  0.00  0.00    -0.047 C 
ATOM      6  C   LIG d   1      -0.941  78.950 116.460  0.00  0.00     0.091 C 
ENDROOT
BRANCH   1   7
ATOM      7  O   LIG d   1      -1.607  77.714 118.468  0.00  0.00    -0.368 OA
BRANCH   7   8
ATOM      8  C   LIG d   1      -0.629  76.657 118.312  0.00  0.00     0.119 C 
BRANCH   8   9
ATOM      9  C   LIG d   1      -1.192  75.399 119.002  0.00  0.00     0.028 C 
ATOM     10  C   LIG d   1      -1.280  74.196 118.047  0.00  0.00     0.006 C 
ENDBRANCH   8   9
BRANCH   8  11
ATOM     11  C   LIG d   1       0.668  76.983 119.059  0.00  0.00     0.028 C 
ATOM     12  C   LIG d   1       1.904  76.335 118.417  0.00  0.00     0.006 C 
ENDBRANCH   8  11
ENDBRANCH   7   8
ENDBRANCH   1   7
BRANCH   6  13
ATOM     13  N   LIG d   1      -0.579  80.219 117.144  0.00  0.00    -0.311 N 
ATOM     14  C   LIG d   1       0.655  80.503 117.555  0.00  0.00     0.210 C 
ATOM     15  C   LIG d   1       0.807  81.857 118.256  0.00  0.00     0.109 C 
ATOM     16  O   LIG d   1       1.645  79.777 117.377  0.00  0.00    -0.276 OA
ATOM     17  H   LIG d   1      -1.316  80.879 117.301  0.00  0.00     0.149 HD
ENDBRANCH   6  13
BRANCH   5  18
ATOM     18  N   LIG d   1      -0.191  79.670 114.164  0.00  0.00     0.381 N 
ATOM     19  H   LIG d   1      -0.388  80.601 113.853  0.00  0.00    -0.090 HD
ATOM     20  H   LIG d   1      -0.086  79.083 113.355  0.00  0.00    -0.090 HD
ATOM     21  H   LIG d   1       0.648  79.662 114.701  0.00  0.00    -0.090 HD
ENDBRANCH   5  18
BRANCH   3  22
ATOM     22  C   LIG d   1      -3.650  76.372 114.471  0.00  0.00     0.382 C 
ATOM     23  O   LIG d   1      -4.385  76.854 113.576  0.00  0.00    -0.241 OA
ATOM     24  O   LIG d   1      -3.775  75.174 114.788  0.00  0.00    -0.241 OA
ENDBRANCH   3  22
TORSDOF 7
ENDMDL
MODEL 9
REMARK VINA RESULT:      -3.9      2.360      4.783
REMARK  7 active torsions:
REMARK  status: ('A' for Active; 'I' for Inactive)
REMARK    1  A    between atoms: C_2  and  C_3 
REMARK    2  A    between atoms: C_3  and  O_6 
REMARK    3  A    between atoms: C_3  and  C_4 
REMARK    4  A    between atoms: C_7  and  O_6 
REMARK    5  A    between atoms: C_9  and  C_10 
REMARK    6  A    between atoms: N_15  and  C_14 
REMARK    7  A    between atoms: N_20  and  C_19 
REMARK       I    between atoms: C_22  and  N_20 
ROOT
ATOM      1  C   LIG d   1      -0.139  78.127 116.143  0.00  0.00     0.161 C 
ATOM      2  C   LIG d   1      -0.716  78.994 115.201  0.00  0.00     0.016 C 
ATOM      3  C   LIG d   1      -1.928  78.717 114.529  0.00  0.00     0.038 C 
ATOM      4  C   LIG d   1      -2.729  77.616 114.867  0.00  0.00     0.028 C 
ATOM      5  C   LIG d   1      -1.939  76.450 115.453  0.00  0.00    -0.047 C 
ATOM      6  C   LIG d   1      -1.054  76.974 116.606  0.00  0.00     0.091 C 
ENDROOT
BRANCH   1   7
ATOM      7  O   LIG d   1       0.331  78.881 117.279  0.00  0.00    -0.368 OA
BRANCH   7   8
ATOM      8  C   LIG d   1       0.493  80.306 117.074  0.00  0.00     0.119 C 
BRANCH   8   9
ATOM      9  C   LIG d   1       2.006  80.599 117.041  0.00  0.00     0.028 C 
ATOM     10  C   LIG d   1       2.420  81.407 115.800  0.00  0.00     0.006 C 
ENDBRANCH   8   9
BRANCH   8  11
ATOM     11  C   LIG d   1      -0.049  81.105 118.263  0.00  0.00     0.028 C 
ATOM     12  C   LIG d   1      -1.427  80.613 118.732  0.00  0.00     0.006 C 
ENDBRANCH   8  11
ENDBRANCH   7   8
ENDBRANCH   1   7
BRANCH   6  13
ATOM     13  N   LIG d   1      -0.185  75.913 117.180  0.00  0.00    -0.311 N 
ATOM     14  C   LIG d   1      -0.504  75.212 118.267  0.00  0.00     0.210 C 
ATOM     15  C   LIG d   1       0.541  74.181 118.702  0.00  0.00     0.109 C 
ATOM     16  O   LIG d   1      -1.569  75.325 118.894  0.00  0.00    -0.276 OA
ATOM     17  H   LIG d   1       0.684  75.734 116.716  0.00  0.00     0.149 HD
ENDBRANCH   6  13
BRANCH   5  18
ATOM     18  N   LIG d   1      -2.910  75.428 115.887  0.00  0.00     0.381 N 
ATOM     19  H   LIG d   1      -3.841  75.746 115.705  0.00  0.00    -0.090 HD
ATOM     20  H   LIG d   1      -2.812  75.286 116.877  0.00  0.00    -0.090 HD
ATOM     21  H   LIG d   1      -2.744  74.573 115.404  0.00  0.00    -0.090 HD
ENDBRANCH   5  18
BRANCH   3  22
ATOM     22  C   LIG d   1      -2.331  79.526 113.477  0.00  0.00     0.382 C 
ATOM     23  O   LIG d   1      -3.105  80.491 113.690  0.00  0.00    -0.241 OA
ATOM     24  O   LIG d   1      -1.967  79.277 112.313  0.00  0.00    -0.241 OA
ENDBRANCH   3  22
TORSDOF 7
ENDMDL
