MODEL 1
REMARK VINA RESULT:      -5.5      0.000      0.000
REMARK  7 active torsions:
REMARK  status: ('A' for Active; 'I' for Inactive)
REMARK    1  A    between atoms: C_2  and  C_3 
REMARK    2  A    between atoms: C_3  and  O_6 
REMARK    3  A    between atoms: C_3  and  C_4 
REMARK    4  A    between atoms: C_7  and  O_6 
REMARK    5  A    between atoms: C_9  and  C_10 
REMARK    6  A    between atoms: N_15  and  C_14 
REMARK    7  A    between atoms: N_20  and  C_19 
REMARK       I    between atoms: C_22  and  N_20 
ROOT
ATOM      1  C   LIG d   1      -2.548  77.795 116.181  0.00  0.00     0.161 C 
ATOM      2  C   LIG d   1      -2.829  78.651 115.103  0.00  0.00     0.016 C 
ATOM      3  C   LIG d   1      -2.235  78.517 113.827  0.00  0.00     0.038 C 
ATOM      4  C   LIG d   1      -1.429  77.417 113.497  0.00  0.00     0.028 C 
ATOM      5  C   LIG d   1      -0.717  76.805 114.698  0.00  0.00    -0.047 C 
ATOM      6  C   LIG d   1      -1.757  76.524 115.807  0.00  0.00     0.091 C 
ENDROOT
BRANCH   1   7
ATOM      7  O   LIG d   1      -3.772  77.443 116.856  0.00  0.00    -0.368 OA
BRANCH   7   8
ATOM      8  C   LIG d   1      -4.954  77.343 116.023  0.00  0.00     0.119 C 
BRANCH   8   9
ATOM      9  C   LIG d   1      -6.137  77.914 116.829  0.00  0.00     0.028 C 
ATOM     10  C   LIG d   1      -5.930  79.389 117.210  0.00  0.00     0.006 C 
ENDBRANCH   8   9
BRANCH   8  11
ATOM     11  C   LIG d   1      -5.319  75.882 115.747  0.00  0.00     0.028 C 
ATOM     12  C   LIG d   1      -5.009  75.453 114.304  0.00  0.00     0.006 C 
ENDBRANCH   8  11
ENDBRANCH   7   8
ENDBRANCH   1   7
BRANCH   6  13
ATOM     13  N   LIG d   1      -1.132  76.002 117.051  0.00  0.00    -0.311 N 
ATOM     14  C   LIG d   1      -1.592  74.941 117.712  0.00  0.00     0.210 C 
ATOM     15  C   LIG d   1      -0.812  74.583 118.981  0.00  0.00     0.109 C 
ATOM     16  O   LIG d   1      -2.551  74.243 117.351  0.00  0.00    -0.276 OA
ATOM     17  H   LIG d   1      -0.330  76.489 117.398  0.00  0.00     0.149 HD
ENDBRANCH   6  13
BRANCH   5  18
ATOM     18  N   LIG d   1      -0.024  75.588 114.234  0.00  0.00     0.381 N 
ATOM     19  H   LIG d   1      -0.080  74.878 114.936  0.00  0.00    -0.090 HD
ATOM     20  H   LIG d   1       0.945  75.805 114.081  0.00  0.00    -0.090 HD
ATOM     21  H   LIG d   1      -0.437  75.262 113.388  0.00  0.00    -0.090 HD
ENDBRANCH   5  18
BRANCH   3  22
ATOM     22  C   LIG d   1      -2.413  79.511 112.877  0.00  0.00     0.382 C 
ATOM     23  O   LIG d   1      -3.080  80.536 113.160  0.00  0.00    -0.241 OA
ATOM     24  O   LIG d   1      -1.955  79.376 111.727  0.00  0.00    -0.241 OA
ENDBRANCH   3  22
TORSDOF 7
ENDMDL
MODEL 2
REMARK VINA RESULT:      -5.0      1.174      1.777
REMARK  7 active torsions:
REMARK  status: ('A' for Active; 'I' for Inactive)
REMARK    1  A    between atoms: C_2  and  C_3 
REMARK    2  A    between atoms: C_3  and  O_6 
REMARK    3  A    between atoms: C_3  and  C_4 
REMARK    4  A    between atoms: C_7  and  O_6 
REMARK    5  A    between atoms: C_9  and  C_10 
REMARK    6  A    between atoms: N_15  and  C_14 
REMARK    7  A    between atoms: N_20  and  C_19 
REMARK       I    between atoms: C_22  and  N_20 
ROOT
ATOM      1  C   LIG d   1      -2.600  77.931 116.059  0.00  0.00     0.161 C 
ATOM      2  C   LIG d   1      -2.833  78.788 114.971  0.00  0.00     0.016 C 
ATOM      3  C   LIG d   1      -2.216  78.628 113.709  0.00  0.00     0.038 C 
ATOM      4  C   LIG d   1      -1.436  77.504 113.402  0.00  0.00     0.028 C 
ATOM      5  C   LIG d   1      -0.768  76.879 114.622  0.00  0.00    -0.047 C 
ATOM      6  C   LIG d   1      -1.838  76.635 115.711  0.00  0.00     0.091 C 
ENDROOT
BRANCH   1   7
ATOM      7  O   LIG d   1      -3.847  77.619 116.711  0.00  0.00    -0.368 OA
BRANCH   7   8
ATOM      8  C   LIG d   1      -4.635  78.751 117.154  0.00  0.00     0.119 C 
BRANCH   8   9
ATOM      9  C   LIG d   1      -4.407  78.909 118.670  0.00  0.00     0.028 C 
ATOM     10  C   LIG d   1      -4.175  77.560 119.372  0.00  0.00     0.006 C 
ENDBRANCH   8   9
BRANCH   8  11
ATOM     11  C   LIG d   1      -6.135  78.482 116.996  0.00  0.00     0.028 C 
ATOM     12  C   LIG d   1      -7.005  79.646 117.497  0.00  0.00     0.006 C 
ENDBRANCH   8  11
ENDBRANCH   7   8
ENDBRANCH   1   7
BRANCH   6  13
ATOM     13  N   LIG d   1      -1.255  76.104 116.970  0.00  0.00    -0.311 N 
ATOM     14  C   LIG d   1      -1.747  75.049 117.618  0.00  0.00     0.210 C 
ATOM     15  C   LIG d   1      -1.007  74.680 118.907  0.00  0.00     0.109 C 
ATOM     16  O   LIG d   1      -2.707  74.366 117.230  0.00  0.00    -0.276 OA
ATOM     17  H   LIG d   1      -0.455  76.580 117.339  0.00  0.00     0.149 HD
ENDBRANCH   6  13
BRANCH   5  18
ATOM     18  N   LIG d   1      -0.100  75.640 114.180  0.00  0.00     0.381 N 
ATOM     19  H   LIG d   1      -0.674  75.167 113.511  0.00  0.00    -0.090 HD
ATOM     20  H   LIG d   1       0.023  75.036 114.973  0.00  0.00    -0.090 HD
ATOM     21  H   LIG d   1       0.785  75.855 113.776  0.00  0.00    -0.090 HD
ENDBRANCH   5  18
BRANCH   3  22
ATOM     22  C   LIG d   1      -2.346  79.621 112.750  0.00  0.00     0.382 C 
ATOM     23  O   LIG d   1      -3.074  80.618 112.974  0.00  0.00    -0.241 OA
ATOM     24  O   LIG d   1      -1.780  79.511 111.646  0.00  0.00    -0.241 OA
ENDBRANCH   3  22
TORSDOF 7
ENDMDL
MODEL 3
REMARK VINA RESULT:      -4.6      1.708      4.989
REMARK  7 active torsions:
REMARK  status: ('A' for Active; 'I' for Inactive)
REMARK    1  A    between atoms: C_2  and  C_3 
REMARK    2  A    between atoms: C_3  and  O_6 
REMARK    3  A    between atoms: C_3  and  C_4 
REMARK    4  A    between atoms: C_7  and  O_6 
REMARK    5  A    between atoms: C_9  and  C_10 
REMARK    6  A    between atoms: N_15  and  C_14 
REMARK    7  A    between atoms: N_20  and  C_19 
REMARK       I    between atoms: C_22  and  N_20 
ROOT
ATOM      1  C   LIG d   1      -3.076  75.863 115.361  0.00  0.00     0.161 C 
ATOM      2  C   LIG d   1      -2.952  75.257 116.623  0.00  0.00     0.016 C 
ATOM      3  C   LIG d   1      -1.868  75.497 117.498  0.00  0.00     0.038 C 
ATOM      4  C   LIG d   1      -0.904  76.482 117.233  0.00  0.00     0.028 C 
ATOM      5  C   LIG d   1      -0.712  76.755 115.745  0.00  0.00    -0.047 C 
ATOM      6  C   LIG d   1      -2.092  77.023 115.102  0.00  0.00     0.091 C 
ENDROOT
BRANCH   1   7
ATOM      7  O   LIG d   1      -4.433  76.303 115.162  0.00  0.00    -0.368 OA
BRANCH   7   8
ATOM      8  C   LIG d   1      -5.190  76.600 116.361  0.00  0.00     0.119 C 
BRANCH   8   9
ATOM      9  C   LIG d   1      -6.639  76.133 116.122  0.00  0.00     0.028 C 
ATOM     10  C   LIG d   1      -6.909  74.736 116.706  0.00  0.00     0.006 C 
ENDBRANCH   8   9
BRANCH   8  11
ATOM     11  C   LIG d   1      -5.285  78.110 116.600  0.00  0.00     0.028 C 
ATOM     12  C   LIG d   1      -4.343  78.597 117.712  0.00  0.00     0.006 C 
ENDBRANCH   8  11
ENDBRANCH   7   8
ENDBRANCH   1   7
BRANCH   6  13
ATOM     13  N   LIG d   1      -2.004  77.217 113.631  0.00  0.00    -0.311 N 
ATOM     14  C   LIG d   1      -2.348  78.349 113.019  0.00  0.00     0.210 C 
ATOM     15  C   LIG d   1      -2.199  78.331 111.494  0.00  0.00     0.109 C 
ATOM     16  O   LIG d   1      -2.732  79.377 113.597  0.00  0.00    -0.276 OA
ATOM     17  H   LIG d   1      -1.672  76.444 113.088  0.00  0.00     0.149 HD
ENDBRANCH   6  13
BRANCH   5  18
ATOM     18  N   LIG d   1       0.216  77.895 115.617  0.00  0.00     0.381 N 
ATOM     19  H   LIG d   1       1.075  77.686 116.086  0.00  0.00    -0.090 HD
ATOM     20  H   LIG d   1      -0.195  78.699 116.056  0.00  0.00    -0.090 HD
ATOM     21  H   LIG d   1       0.392  78.085 114.656  0.00  0.00    -0.090 HD
ENDBRANCH   5  18
BRANCH   3  22
ATOM     22  C   LIG d   1      -1.718  74.719 118.636  0.00  0.00     0.382 C 
ATOM     23  O   LIG d   1      -2.683  74.571 119.425  0.00  0.00    -0.241 OA
ATOM     24  O   LIG d   1      -0.619  74.201 118.907  0.00  0.00    -0.241 OA
ENDBRANCH   3  22
TORSDOF 7
ENDMDL
MODEL 4
REMARK VINA RESULT:      -4.5      1.474      2.103
REMARK  7 active torsions:
REMARK  status: ('A' for Active; 'I' for Inactive)
REMARK    1  A    between atoms: C_2  and  C_3 
REMARK    2  A    between atoms: C_3  and  O_6 
REMARK    3  A    between atoms: C_3  and  C_4 
REMARK    4  A    between atoms: C_7  and  O_6 
REMARK    5  A    between atoms: C_9  and  C_10 
REMARK    6  A    between atoms: N_15  and  C_14 
REMARK    7  A    between atoms: N_20  and  C_19 
REMARK       I    between atoms: C_22  and  N_20 
ROOT
ATOM      1  C   LIG d   1      -3.343  76.296 115.622  0.00  0.00     0.161 C 
ATOM      2  C   LIG d   1      -3.307  77.386 114.737  0.00  0.00     0.016 C 
ATOM      3  C   LIG d   1      -2.152  77.764 114.014  0.00  0.00     0.038 C 
ATOM      4  C   LIG d   1      -0.989  76.980 114.012  0.00  0.00     0.028 C 
ATOM      5  C   LIG d   1      -0.814  76.153 115.281  0.00  0.00    -0.047 C 
ATOM      6  C   LIG d   1      -2.116  75.363 115.548  0.00  0.00     0.091 C 
ENDROOT
BRANCH   1   7
ATOM      7  O   LIG d   1      -4.556  75.545 115.422  0.00  0.00    -0.368 OA
BRANCH   7   8
ATOM      8  C   LIG d   1      -5.575  75.698 116.441  0.00  0.00     0.119 C 
BRANCH   8   9
ATOM      9  C   LIG d   1      -6.394  74.393 116.477  0.00  0.00     0.028 C 
ATOM     10  C   LIG d   1      -7.821  74.610 117.007  0.00  0.00     0.006 C 
ENDBRANCH   8   9
BRANCH   8  11
ATOM     11  C   LIG d   1      -6.577  76.794 116.066  0.00  0.00     0.028 C 
ATOM     12  C   LIG d   1      -6.383  78.082 116.882  0.00  0.00     0.006 C 
ENDBRANCH   8  11
ENDBRANCH   7   8
ENDBRANCH   1   7
BRANCH   6  13
ATOM     13  N   LIG d   1      -2.061  74.592 116.817  0.00  0.00    -0.311 N 
ATOM     14  C   LIG d   1      -1.921  75.159 118.014  0.00  0.00     0.210 C 
ATOM     15  C   LIG d   1      -1.867  74.180 119.191  0.00  0.00     0.109 C 
ATOM     16  O   LIG d   1      -1.869  76.382 118.216  0.00  0.00    -0.276 OA
ATOM     17  H   LIG d   1      -2.127  73.595 116.749  0.00  0.00     0.149 HD
ENDBRANCH   6  13
BRANCH   5  18
ATOM     18  N   LIG d   1       0.361  75.282 115.087  0.00  0.00     0.381 N 
ATOM     19  H   LIG d   1       0.483  74.695 115.888  0.00  0.00    -0.090 HD
ATOM     20  H   LIG d   1       1.179  75.858 114.990  0.00  0.00    -0.090 HD
ATOM     21  H   LIG d   1       0.240  74.723 114.271  0.00  0.00    -0.090 HD
ENDBRANCH   5  18
BRANCH   3  22
ATOM     22  C   LIG d   1      -2.141  78.961 113.313  0.00  0.00     0.382 C 
ATOM     23  O   LIG d   1      -2.858  79.917 113.694  0.00  0.00    -0.241 OA
ATOM     24  O   LIG d   1      -1.458  79.080 112.278  0.00  0.00    -0.241 OA
ENDBRANCH   3  22
TORSDOF 7
ENDMDL
MODEL 5
REMARK VINA RESULT:      -4.4      2.168      4.888
REMARK  7 active torsions:
REMARK  status: ('A' for Active; 'I' for Inactive)
REMARK    1  A    between atoms: C_2  and  C_3 
REMARK    2  A    between atoms: C_3  and  O_6 
REMARK    3  A    between atoms: C_3  and  C_4 
REMARK    4  A    between atoms: C_7  and  O_6 
REMARK    5  A    between atoms: C_9  and  C_10 
REMARK    6  A    between atoms: N_15  and  C_14 
REMARK    7  A    between atoms: N_20  and  C_19 
REMARK       I    between atoms: C_22  and  N_20 
ROOT
ATOM      1  C   LIG d   1      -2.879  77.342 115.785  0.00  0.00     0.161 C 
ATOM      2  C   LIG d   1      -2.767  77.298 117.185  0.00  0.00     0.016 C 
ATOM      3  C   LIG d   1      -1.708  77.901 117.901  0.00  0.00     0.038 C 
ATOM      4  C   LIG d   1      -0.762  78.725 117.271  0.00  0.00     0.028 C 
ATOM      5  C   LIG d   1      -0.546  78.384 115.801  0.00  0.00    -0.047 C 
ATOM      6  C   LIG d   1      -1.918  78.330 115.091  0.00  0.00     0.091 C 
ENDROOT
BRANCH   1   7
ATOM      7  O   LIG d   1      -4.243  77.624 115.413  0.00  0.00    -0.368 OA
BRANCH   7   8
ATOM      8  C   LIG d   1      -5.263  76.867 116.109  0.00  0.00     0.119 C 
BRANCH   8   9
ATOM      9  C   LIG d   1      -6.069  76.093 115.048  0.00  0.00     0.028 C 
ATOM     10  C   LIG d   1      -5.171  75.474 113.964  0.00  0.00     0.006 C 
ENDBRANCH   8   9
BRANCH   8  11
ATOM     11  C   LIG d   1      -6.275  77.792 116.792  0.00  0.00     0.028 C 
ATOM     12  C   LIG d   1      -7.617  77.100 117.077  0.00  0.00     0.006 C 
ENDBRANCH   8  11
ENDBRANCH   7   8
ENDBRANCH   1   7
BRANCH   6  13
ATOM     13  N   LIG d   1      -1.804  77.920 113.667  0.00  0.00    -0.311 N 
ATOM     14  C   LIG d   1      -2.249  78.661 112.653  0.00  0.00     0.210 C 
ATOM     15  C   LIG d   1      -2.049  78.044 111.265  0.00  0.00     0.109 C 
ATOM     16  O   LIG d   1      -2.760  79.785 112.769  0.00  0.00    -0.276 OA
ATOM     17  H   LIG d   1      -1.373  77.036 113.480  0.00  0.00     0.149 HD
ENDBRANCH   6  13
BRANCH   5  18
ATOM     18  N   LIG d   1       0.357  79.404 115.236  0.00  0.00     0.381 N 
ATOM     19  H   LIG d   1       0.453  79.263 114.250  0.00  0.00    -0.090 HD
ATOM     20  H   LIG d   1       1.264  79.306 115.658  0.00  0.00    -0.090 HD
ATOM     21  H   LIG d   1      -0.003  80.316 115.414  0.00  0.00    -0.090 HD
ENDBRANCH   5  18
BRANCH   3  22
ATOM     22  C   LIG d   1      -1.564  77.650 119.257  0.00  0.00     0.382 C 
ATOM     23  O   LIG d   1      -0.445  77.795 119.806  0.00  0.00    -0.241 OA
ATOM     24  O   LIG d   1      -2.528  77.238 119.929  0.00  0.00    -0.241 OA
ENDBRANCH   3  22
TORSDOF 7
ENDMDL
MODEL 6
REMARK VINA RESULT:      -4.4      2.606      3.739
REMARK  7 active torsions:
REMARK  status: ('A' for Active; 'I' for Inactive)
REMARK    1  A    between atoms: C_2  and  C_3 
REMARK    2  A    between atoms: C_3  and  O_6 
REMARK    3  A    between atoms: C_3  and  C_4 
REMARK    4  A    between atoms: C_7  and  O_6 
REMARK    5  A    between atoms: C_9  and  C_10 
REMARK    6  A    between atoms: N_15  and  C_14 
REMARK    7  A    between atoms: N_20  and  C_19 
REMARK       I    between atoms: C_22  and  N_20 
ROOT
ATOM      1  C   LIG d   1      -2.101  78.369 116.111  0.00  0.00     0.161 C 
ATOM      2  C   LIG d   1      -3.255  77.672 115.717  0.00  0.00     0.016 C 
ATOM      3  C   LIG d   1      -3.226  76.385 115.133  0.00  0.00     0.038 C 
ATOM      4  C   LIG d   1      -2.041  75.639 115.041  0.00  0.00     0.028 C 
ATOM      5  C   LIG d   1      -0.787  76.503 114.962  0.00  0.00    -0.047 C 
ATOM      6  C   LIG d   1      -0.808  77.526 116.120  0.00  0.00     0.091 C 
ENDROOT
BRANCH   1   7
ATOM      7  O   LIG d   1      -2.312  78.976 117.401  0.00  0.00    -0.368 OA
BRANCH   7   8
ATOM      8  C   LIG d   1      -3.304  78.344 118.248  0.00  0.00     0.119 C 
BRANCH   8   9
ATOM      9  C   LIG d   1      -4.092  79.465 118.953  0.00  0.00     0.028 C 
ATOM     10  C   LIG d   1      -5.480  79.689 118.328  0.00  0.00     0.006 C 
ENDBRANCH   8   9
BRANCH   8  11
ATOM     11  C   LIG d   1      -2.645  77.542 119.374  0.00  0.00     0.028 C 
ATOM     12  C   LIG d   1      -2.771  76.023 119.175  0.00  0.00     0.006 C 
ENDBRANCH   8  11
ENDBRANCH   7   8
ENDBRANCH   1   7
BRANCH   6  13
ATOM     13  N   LIG d   1       0.342  78.466 116.068  0.00  0.00    -0.311 N 
ATOM     14  C   LIG d   1       1.185  78.650 117.082  0.00  0.00     0.210 C 
ATOM     15  C   LIG d   1       2.290  79.680 116.826  0.00  0.00     0.109 C 
ATOM     16  O   LIG d   1       1.141  78.036 118.159  0.00  0.00    -0.276 OA
ATOM     17  H   LIG d   1       0.470  78.983 115.220  0.00  0.00     0.149 HD
ENDBRANCH   6  13
BRANCH   5  18
ATOM     18  N   LIG d   1       0.379  75.600 115.009  0.00  0.00     0.381 N 
ATOM     19  H   LIG d   1       0.103  74.710 115.373  0.00  0.00    -0.090 HD
ATOM     20  H   LIG d   1       1.069  75.992 115.626  0.00  0.00    -0.090 HD
ATOM     21  H   LIG d   1       0.763  75.490 114.097  0.00  0.00    -0.090 HD
ENDBRANCH   5  18
BRANCH   3  22
ATOM     22  C   LIG d   1      -4.386  75.847 114.597  0.00  0.00     0.382 C 
ATOM     23  O   LIG d   1      -4.723  76.129 113.422  0.00  0.00    -0.241 OA
ATOM     24  O   LIG d   1      -5.123  75.119 115.289  0.00  0.00    -0.241 OA
ENDBRANCH   3  22
TORSDOF 7
ENDMDL
MODEL 7
REMARK VINA RESULT:      -4.3      2.204      2.599
REMARK  7 active torsions:
REMARK  status: ('A' for Active; 'I' for Inactive)
REMARK    1  A    between atoms: C_2  and  C_3 
REMARK    2  A    between atoms: C_3  and  O_6 
REMARK    3  A    between atoms: C_3  and  C_4 
REMARK    4  A    between atoms: C_7  and  O_6 
REMARK    5  A    between atoms: C_9  and  C_10 
REMARK    6  A    between atoms: N_15  and  C_14 
REMARK    7  A    between atoms: N_20  and  C_19 
REMARK       I    between atoms: C_22  and  N_20 
ROOT
ATOM      1  C   LIG d   1      -0.690  77.797 116.943  0.00  0.00     0.161 C 
ATOM      2  C   LIG d   1      -1.512  78.272 115.907  0.00  0.00     0.016 C 
ATOM      3  C   LIG d   1      -1.853  77.504 114.770  0.00  0.00     0.038 C 
ATOM      4  C   LIG d   1      -1.515  76.146 114.664  0.00  0.00     0.028 C 
ATOM      5  C   LIG d   1      -0.260  75.771 115.446  0.00  0.00    -0.047 C 
ATOM      6  C   LIG d   1      -0.403  76.282 116.898  0.00  0.00     0.091 C 
ENDROOT
BRANCH   1   7
ATOM      7  O   LIG d   1      -1.251  78.163 118.219  0.00  0.00    -0.368 OA
BRANCH   7   8
ATOM      8  C   LIG d   1      -2.688  78.348 118.254  0.00  0.00     0.119 C 
BRANCH   8   9
ATOM      9  C   LIG d   1      -2.978  79.543 119.183  0.00  0.00     0.028 C 
ATOM     10  C   LIG d   1      -4.468  79.922 119.203  0.00  0.00     0.006 C 
ENDBRANCH   8   9
BRANCH   8  11
ATOM     11  C   LIG d   1      -3.388  77.151 118.903  0.00  0.00     0.028 C 
ATOM     12  C   LIG d   1      -4.142  76.279 117.886  0.00  0.00     0.006 C 
ENDBRANCH   8  11
ENDBRANCH   7   8
ENDBRANCH   1   7
BRANCH   6  13
ATOM     13  N   LIG d   1       0.816  76.030 117.710  0.00  0.00    -0.311 N 
ATOM     14  C   LIG d   1       0.809  75.345 118.851  0.00  0.00     0.210 C 
ATOM     15  C   LIG d   1       2.172  75.219 119.539  0.00  0.00     0.109 C 
ATOM     16  O   LIG d   1      -0.191  74.801 119.343  0.00  0.00    -0.276 OA
ATOM     17  H   LIG d   1       1.678  76.409 117.368  0.00  0.00     0.149 HD
ENDBRANCH   6  13
BRANCH   5  18
ATOM     18  N   LIG d   1      -0.103  74.307 115.360  0.00  0.00     0.381 N 
ATOM     19  H   LIG d   1       0.799  74.043 115.703  0.00  0.00    -0.090 HD
ATOM     20  H   LIG d   1      -0.168  74.029 114.397  0.00  0.00    -0.090 HD
ATOM     21  H   LIG d   1      -0.814  73.856 115.892  0.00  0.00    -0.090 HD
ENDBRANCH   5  18
BRANCH   3  22
ATOM     22  C   LIG d   1      -2.506  78.105 113.705  0.00  0.00     0.382 C 
ATOM     23  O   LIG d   1      -2.612  79.354 113.659  0.00  0.00    -0.241 OA
ATOM     24  O   LIG d   1      -3.029  77.412 112.812  0.00  0.00    -0.241 OA
ENDBRANCH   3  22
TORSDOF 7
ENDMDL
MODEL 8
REMARK VINA RESULT:      -4.3      2.577      4.490
REMARK  7 active torsions:
REMARK  status: ('A' for Active; 'I' for Inactive)
REMARK    1  A    between atoms: C_2  and  C_3 
REMARK    2  A    between atoms: C_3  and  O_6 
REMARK    3  A    between atoms: C_3  and  C_4 
REMARK    4  A    between atoms: C_7  and  O_6 
REMARK    5  A    between atoms: C_9  and  C_10 
REMARK    6  A    between atoms: N_15  and  C_14 
REMARK    7  A    between atoms: N_20  and  C_19 
REMARK       I    between atoms: C_22  and  N_20 
ROOT
ATOM      1  C   LIG d   1      -1.467  75.730 115.552  0.00  0.00     0.161 C 
ATOM      2  C   LIG d   1      -2.664  75.828 114.823  0.00  0.00     0.016 C 
ATOM      3  C   LIG d   1      -3.945  75.762 115.418  0.00  0.00     0.038 C 
ATOM      4  C   LIG d   1      -4.116  75.744 116.810  0.00  0.00     0.028 C 
ATOM      5  C   LIG d   1      -2.935  75.136 117.558  0.00  0.00    -0.047 C 
ATOM      6  C   LIG d   1      -1.633  75.822 117.083  0.00  0.00     0.091 C 
ENDROOT
BRANCH   1   7
ATOM      7  O   LIG d   1      -0.530  76.722 115.089  0.00  0.00    -0.368 OA
BRANCH   7   8
ATOM      8  C   LIG d   1      -0.936  78.104 115.248  0.00  0.00     0.119 C 
BRANCH   8   9
ATOM      9  C   LIG d   1      -0.814  78.783 113.870  0.00  0.00     0.028 C 
ATOM     10  C   LIG d   1      -2.184  79.079 113.238  0.00  0.00     0.006 C 
ENDBRANCH   8   9
BRANCH   8  11
ATOM     11  C   LIG d   1       0.028  78.866 116.162  0.00  0.00     0.028 C 
ATOM     12  C   LIG d   1      -0.657  79.417 117.423  0.00  0.00     0.006 C 
ENDBRANCH   8  11
ENDBRANCH   7   8
ENDBRANCH   1   7
BRANCH   6  13
ATOM     13  N   LIG d   1      -0.421  75.227 117.704  0.00  0.00    -0.311 N 
ATOM     14  C   LIG d   1       0.140  75.699 118.816  0.00  0.00     0.210 C 
ATOM     15  C   LIG d   1       1.396  74.951 119.275  0.00  0.00     0.109 C 
ATOM     16  O   LIG d   1      -0.302  76.645 119.485  0.00  0.00    -0.276 OA
ATOM     17  H   LIG d   1      -0.014  74.436 117.244  0.00  0.00     0.149 HD
ENDBRANCH   6  13
BRANCH   5  18
ATOM     18  N   LIG d   1      -3.185  75.306 119.001  0.00  0.00     0.381 N 
ATOM     19  H   LIG d   1      -4.002  74.793 119.266  0.00  0.00    -0.090 HD
ATOM     20  H   LIG d   1      -3.349  76.280 119.190  0.00  0.00    -0.090 HD
ATOM     21  H   LIG d   1      -2.400  74.986 119.524  0.00  0.00    -0.090 HD
ENDBRANCH   5  18
BRANCH   3  22
ATOM     22  C   LIG d   1      -5.072  75.673 114.615  0.00  0.00     0.382 C 
ATOM     23  O   LIG d   1      -5.052  74.960 113.583  0.00  0.00    -0.241 OA
ATOM     24  O   LIG d   1      -6.094  76.332 114.885  0.00  0.00    -0.241 OA
ENDBRANCH   3  22
TORSDOF 7
ENDMDL
MODEL 9
REMARK VINA RESULT:      -4.3      2.507      4.033
REMARK  7 active torsions:
REMARK  status: ('A' for Active; 'I' for Inactive)
REMARK    1  A    between atoms: C_2  and  C_3 
REMARK    2  A    between atoms: C_3  and  O_6 
REMARK    3  A    between atoms: C_3  and  C_4 
REMARK    4  A    between atoms: C_7  and  O_6 
REMARK    5  A    between atoms: C_9  and  C_10 
REMARK    6  A    between atoms: N_15  and  C_14 
REMARK    7  A    between atoms: N_20  and  C_19 
REMARK       I    between atoms: C_22  and  N_20 
ROOT
ATOM      1  C   LIG d   1      -2.990  78.190 116.877  0.00  0.00     0.161 C 
ATOM      2  C   LIG d   1      -2.006  79.023 117.433  0.00  0.00     0.016 C 
ATOM      3  C   LIG d   1      -0.669  79.063 116.974  0.00  0.00     0.038 C 
ATOM      4  C   LIG d   1      -0.261  78.377 115.820  0.00  0.00     0.028 C 
ATOM      5  C   LIG d   1      -1.094  77.133 115.528  0.00  0.00    -0.047 C 
ATOM      6  C   LIG d   1      -2.592  77.517 115.546  0.00  0.00     0.091 C 
ENDROOT
BRANCH   1   7
ATOM      7  O   LIG d   1      -4.220  78.924 116.718  0.00  0.00    -0.368 OA
BRANCH   7   8
ATOM      8  C   LIG d   1      -5.287  78.588 117.638  0.00  0.00     0.119 C 
BRANCH   8   9
ATOM      9  C   LIG d   1      -6.441  77.989 116.811  0.00  0.00     0.028 C 
ATOM     10  C   LIG d   1      -6.703  76.513 117.153  0.00  0.00     0.006 C 
ENDBRANCH   8   9
BRANCH   8  11
ATOM     11  C   LIG d   1      -5.870  79.842 118.298  0.00  0.00     0.028 C 
ATOM     12  C   LIG d   1      -6.934  80.532 117.430  0.00  0.00     0.006 C 
ENDBRANCH   8  11
ENDBRANCH   7   8
ENDBRANCH   1   7
BRANCH   6  13
ATOM     13  N   LIG d   1      -3.480  76.341 115.353  0.00  0.00    -0.311 N 
ATOM     14  C   LIG d   1      -4.163  76.115 114.232  0.00  0.00     0.210 C 
ATOM     15  C   LIG d   1      -5.035  74.856 114.250  0.00  0.00     0.109 C 
ATOM     16  O   LIG d   1      -4.105  76.820 113.214  0.00  0.00    -0.276 OA
ATOM     17  H   LIG d   1      -3.562  75.700 116.118  0.00  0.00     0.149 HD
ENDBRANCH   6  13
BRANCH   5  18
ATOM     18  N   LIG d   1      -0.651  76.595 114.228  0.00  0.00     0.381 N 
ATOM     19  H   LIG d   1      -0.211  77.318 113.694  0.00  0.00    -0.090 HD
ATOM     20  H   LIG d   1      -1.455  76.273 113.719  0.00  0.00    -0.090 HD
ATOM     21  H   LIG d   1      -0.014  75.842 114.370  0.00  0.00    -0.090 HD
ENDBRANCH   5  18
BRANCH   3  22
ATOM     22  C   LIG d   1       0.285  79.764 117.695  0.00  0.00     0.382 C 
ATOM     23  O   LIG d   1       1.199  79.146 118.292  0.00  0.00    -0.241 OA
ATOM     24  O   LIG d   1       0.217  81.004 117.793  0.00  0.00    -0.241 OA
ENDBRANCH   3  22
TORSDOF 7
ENDMDL
