MODEL 1
REMARK VINA RESULT:      -4.9      0.000      0.000
REMARK  7 active torsions:
REMARK  status: ('A' for Active; 'I' for Inactive)
REMARK    1  A    between atoms: C_2  and  C_3 
REMARK    2  A    between atoms: C_3  and  O_6 
REMARK    3  A    between atoms: C_3  and  C_4 
REMARK    4  A    between atoms: C_7  and  O_6 
REMARK    5  A    between atoms: C_9  and  C_10 
REMARK    6  A    between atoms: N_15  and  C_14 
REMARK    7  A    between atoms: N_20  and  C_19 
REMARK       I    between atoms: C_22  and  N_20 
ROOT
ATOM      1  C   LIG d   1      -2.187  75.503 115.352  0.00  0.00     0.161 C 
ATOM      2  C   LIG d   1      -2.055  74.854 116.591  0.00  0.00     0.016 C 
ATOM      3  C   LIG d   1      -1.363  75.411 117.691  0.00  0.00     0.038 C 
ATOM      4  C   LIG d   1      -0.882  76.729 117.674  0.00  0.00     0.028 C 
ATOM      5  C   LIG d   1      -0.550  77.235 116.274  0.00  0.00    -0.047 C 
ATOM      6  C   LIG d   1      -1.764  76.987 115.350  0.00  0.00     0.091 C 
ENDROOT
BRANCH   1   7
ATOM      7  O   LIG d   1      -3.538  75.366 114.870  0.00  0.00    -0.368 OA
BRANCH   7   8
ATOM      8  C   LIG d   1      -4.560  75.181 115.881  0.00  0.00     0.119 C 
BRANCH   8   9
ATOM      9  C   LIG d   1      -5.589  74.180 115.321  0.00  0.00     0.028 C 
ATOM     10  C   LIG d   1      -6.934  74.245 116.064  0.00  0.00     0.006 C 
ENDBRANCH   8   9
BRANCH   8  11
ATOM     11  C   LIG d   1      -5.343  76.475 116.124  0.00  0.00     0.028 C 
ATOM     12  C   LIG d   1      -4.930  77.186 117.422  0.00  0.00     0.006 C 
ENDBRANCH   8  11
ENDBRANCH   7   8
ENDBRANCH   1   7
BRANCH   6  13
ATOM     13  N   LIG d   1      -1.493  77.376 113.942  0.00  0.00    -0.311 N 
ATOM     14  C   LIG d   1      -2.060  78.425 113.349  0.00  0.00     0.210 C 
ATOM     15  C   LIG d   1      -1.658  78.637 111.886  0.00  0.00     0.109 C 
ATOM     16  O   LIG d   1      -2.834  79.219 113.905  0.00  0.00    -0.276 OA
ATOM     17  H   LIG d   1      -0.853  76.804 113.426  0.00  0.00     0.149 HD
ENDBRANCH   6  13
BRANCH   5  18
ATOM     18  N   LIG d   1      -0.192  78.661 116.389  0.00  0.00     0.381 N 
ATOM     19  H   LIG d   1       0.157  78.994 115.512  0.00  0.00    -0.090 HD
ATOM     20  H   LIG d   1       0.535  78.760 117.076  0.00  0.00    -0.090 HD
ATOM     21  H   LIG d   1      -0.990  79.192 116.661  0.00  0.00    -0.090 HD
ENDBRANCH   5  18
BRANCH   3  22
ATOM     22  C   LIG d   1      -1.112  74.633 118.811  0.00  0.00     0.382 C 
ATOM     23  O   LIG d   1      -2.067  74.182 119.488  0.00  0.00    -0.241 OA
ATOM     24  O   LIG d   1       0.058  74.412 119.177  0.00  0.00    -0.241 OA
ENDBRANCH   3  22
TORSDOF 7
ENDMDL
MODEL 2
REMARK VINA RESULT:      -4.7      1.952      4.850
REMARK  7 active torsions:
REMARK  status: ('A' for Active; 'I' for Inactive)
REMARK    1  A    between atoms: C_2  and  C_3 
REMARK    2  A    between atoms: C_3  and  O_6 
REMARK    3  A    between atoms: C_3  and  C_4 
REMARK    4  A    between atoms: C_7  and  O_6 
REMARK    5  A    between atoms: C_9  and  C_10 
REMARK    6  A    between atoms: N_15  and  C_14 
REMARK    7  A    between atoms: N_20  and  C_19 
REMARK       I    between atoms: C_22  and  N_20 
ROOT
ATOM      1  C   LIG d   1      -2.751  76.710 116.851  0.00  0.00     0.161 C 
ATOM      2  C   LIG d   1      -2.838  77.630 115.793  0.00  0.00     0.016 C 
ATOM      3  C   LIG d   1      -2.057  77.540 114.618  0.00  0.00     0.038 C 
ATOM      4  C   LIG d   1      -1.238  76.432 114.354  0.00  0.00     0.028 C 
ATOM      5  C   LIG d   1      -0.738  75.735 115.615  0.00  0.00    -0.047 C 
ATOM      6  C   LIG d   1      -1.944  75.434 116.533  0.00  0.00     0.091 C 
ENDROOT
BRANCH   1   7
ATOM      7  O   LIG d   1      -4.073  76.366 117.309  0.00  0.00    -0.368 OA
BRANCH   7   8
ATOM      8  C   LIG d   1      -5.167  76.734 116.434  0.00  0.00     0.119 C 
BRANCH   8   9
ATOM      9  C   LIG d   1      -6.288  77.319 117.314  0.00  0.00     0.028 C 
ATOM     10  C   LIG d   1      -5.965  78.738 117.810  0.00  0.00     0.006 C 
ENDBRANCH   8   9
BRANCH   8  11
ATOM     11  C   LIG d   1      -5.781  75.503 115.761  0.00  0.00     0.028 C 
ATOM     12  C   LIG d   1      -5.444  75.412 114.264  0.00  0.00     0.006 C 
ENDBRANCH   8  11
ENDBRANCH   7   8
ENDBRANCH   1   7
BRANCH   6  13
ATOM     13  N   LIG d   1      -1.534  74.827 117.827  0.00  0.00    -0.311 N 
ATOM     14  C   LIG d   1      -0.663  75.396 118.660  0.00  0.00     0.210 C 
ATOM     15  C   LIG d   1      -0.365  74.593 119.930  0.00  0.00     0.109 C 
ATOM     16  O   LIG d   1      -0.134  76.503 118.482  0.00  0.00    -0.276 OA
ATOM     17  H   LIG d   1      -1.938  73.943 118.065  0.00  0.00     0.149 HD
ENDBRANCH   6  13
BRANCH   5  18
ATOM     18  N   LIG d   1      -0.012  74.521 115.196  0.00  0.00     0.381 N 
ATOM     19  H   LIG d   1      -0.393  73.722 115.660  0.00  0.00    -0.090 HD
ATOM     20  H   LIG d   1       0.952  74.611 115.462  0.00  0.00    -0.090 HD
ATOM     21  H   LIG d   1      -0.083  74.406 114.209  0.00  0.00    -0.090 HD
ENDBRANCH   5  18
BRANCH   3  22
ATOM     22  C   LIG d   1      -2.060  78.588 113.709  0.00  0.00     0.382 C 
ATOM     23  O   LIG d   1      -3.011  78.713 112.900  0.00  0.00    -0.241 OA
ATOM     24  O   LIG d   1      -1.103  79.383 113.658  0.00  0.00    -0.241 OA
ENDBRANCH   3  22
TORSDOF 7
ENDMDL
MODEL 3
REMARK VINA RESULT:      -4.6      2.440      5.252
REMARK  7 active torsions:
REMARK  status: ('A' for Active; 'I' for Inactive)
REMARK    1  A    between atoms: C_2  and  C_3 
REMARK    2  A    between atoms: C_3  and  O_6 
REMARK    3  A    between atoms: C_3  and  C_4 
REMARK    4  A    between atoms: C_7  and  O_6 
REMARK    5  A    between atoms: C_9  and  C_10 
REMARK    6  A    between atoms: N_15  and  C_14 
REMARK    7  A    between atoms: N_20  and  C_19 
REMARK       I    between atoms: C_22  and  N_20 
ROOT
ATOM      1  C   LIG d   1      -1.761  77.599 114.704  0.00  0.00     0.161 C 
ATOM      2  C   LIG d   1      -2.960  77.061 114.208  0.00  0.00     0.016 C 
ATOM      3  C   LIG d   1      -3.945  76.466 115.029  0.00  0.00     0.038 C 
ATOM      4  C   LIG d   1      -3.865  76.504 116.429  0.00  0.00     0.028 C 
ATOM      5  C   LIG d   1      -2.435  76.587 116.952  0.00  0.00    -0.047 C 
ATOM      6  C   LIG d   1      -1.706  77.749 116.239  0.00  0.00     0.091 C 
ENDROOT
BRANCH   1   7
ATOM      7  O   LIG d   1      -1.491  78.863 114.067  0.00  0.00    -0.368 OA
BRANCH   7   8
ATOM      8  C   LIG d   1      -2.307  79.181 112.913  0.00  0.00     0.119 C 
BRANCH   8   9
ATOM      9  C   LIG d   1      -1.433  78.984 111.659  0.00  0.00     0.028 C 
ATOM     10  C   LIG d   1      -1.928  77.829 110.774  0.00  0.00     0.006 C 
ENDBRANCH   8   9
BRANCH   8  11
ATOM     11  C   LIG d   1      -2.704  80.661 112.902  0.00  0.00     0.028 C 
ATOM     12  C   LIG d   1      -1.509  81.596 112.659  0.00  0.00     0.006 C 
ENDBRANCH   8  11
ENDBRANCH   7   8
ENDBRANCH   1   7
BRANCH   6  13
ATOM     13  N   LIG d   1      -0.276  77.847 116.631  0.00  0.00    -0.311 N 
ATOM     14  C   LIG d   1       0.177  78.705 117.544  0.00  0.00     0.210 C 
ATOM     15  C   LIG d   1       1.689  78.655 117.783  0.00  0.00     0.109 C 
ATOM     16  O   LIG d   1      -0.535  79.479 118.201  0.00  0.00    -0.276 OA
ATOM     17  H   LIG d   1       0.366  77.233 116.170  0.00  0.00     0.149 HD
ENDBRANCH   6  13
BRANCH   5  18
ATOM     18  N   LIG d   1      -2.505  76.760 118.415  0.00  0.00     0.381 N 
ATOM     19  H   LIG d   1      -1.685  76.376 118.841  0.00  0.00    -0.090 HD
ATOM     20  H   LIG d   1      -3.304  76.260 118.764  0.00  0.00    -0.090 HD
ATOM     21  H   LIG d   1      -2.584  77.727 118.641  0.00  0.00    -0.090 HD
ENDBRANCH   5  18
BRANCH   3  22
ATOM     22  C   LIG d   1      -5.006  75.788 114.448  0.00  0.00     0.382 C 
ATOM     23  O   LIG d   1      -6.022  76.420 114.070  0.00  0.00    -0.241 OA
ATOM     24  O   LIG d   1      -4.979  74.548 114.338  0.00  0.00    -0.241 OA
ENDBRANCH   3  22
TORSDOF 7
ENDMDL
MODEL 4
REMARK VINA RESULT:      -4.6      2.464      4.442
REMARK  7 active torsions:
REMARK  status: ('A' for Active; 'I' for Inactive)
REMARK    1  A    between atoms: C_2  and  C_3 
REMARK    2  A    between atoms: C_3  and  O_6 
REMARK    3  A    between atoms: C_3  and  C_4 
REMARK    4  A    between atoms: C_7  and  O_6 
REMARK    5  A    between atoms: C_9  and  C_10 
REMARK    6  A    between atoms: N_15  and  C_14 
REMARK    7  A    between atoms: N_20  and  C_19 
REMARK       I    between atoms: C_22  and  N_20 
ROOT
ATOM      1  C   LIG d   1      -2.711  78.000 116.553  0.00  0.00     0.161 C 
ATOM      2  C   LIG d   1      -3.737  77.148 116.110  0.00  0.00     0.016 C 
ATOM      3  C   LIG d   1      -3.499  75.891 115.509  0.00  0.00     0.038 C 
ATOM      4  C   LIG d   1      -2.215  75.329 115.449  0.00  0.00     0.028 C 
ATOM      5  C   LIG d   1      -1.099  76.369 115.426  0.00  0.00    -0.047 C 
ATOM      6  C   LIG d   1      -1.309  77.356 116.597  0.00  0.00     0.091 C 
ENDROOT
BRANCH   1   7
ATOM      7  O   LIG d   1      -3.052  78.545 117.843  0.00  0.00    -0.368 OA
BRANCH   7   8
ATOM      8  C   LIG d   1      -4.103  77.858 118.568  0.00  0.00     0.119 C 
BRANCH   8   9
ATOM      9  C   LIG d   1      -5.156  78.911 118.963  0.00  0.00     0.028 C 
ATOM     10  C   LIG d   1      -6.310  78.996 117.950  0.00  0.00     0.006 C 
ENDBRANCH   8   9
BRANCH   8  11
ATOM     11  C   LIG d   1      -3.585  77.286 119.890  0.00  0.00     0.028 C 
ATOM     12  C   LIG d   1      -2.617  76.109 119.692  0.00  0.00     0.006 C 
ENDBRANCH   8  11
ENDBRANCH   7   8
ENDBRANCH   1   7
BRANCH   6  13
ATOM     13  N   LIG d   1      -0.309  78.455 116.598  0.00  0.00    -0.311 N 
ATOM     14  C   LIG d   1       0.761  78.472 117.390  0.00  0.00     0.210 C 
ATOM     15  C   LIG d   1       1.653  79.709 117.246  0.00  0.00     0.109 C 
ATOM     16  O   LIG d   1       1.073  77.565 118.176  0.00  0.00    -0.276 OA
ATOM     17  H   LIG d   1      -0.468  79.217 115.968  0.00  0.00     0.149 HD
ENDBRANCH   6  13
BRANCH   5  18
ATOM     18  N   LIG d   1       0.185  75.647 115.501  0.00  0.00     0.381 N 
ATOM     19  H   LIG d   1       0.789  75.952 114.765  0.00  0.00    -0.090 HD
ATOM     20  H   LIG d   1       0.013  74.664 115.382  0.00  0.00    -0.090 HD
ATOM     21  H   LIG d   1       0.617  75.811 116.384  0.00  0.00    -0.090 HD
ENDBRANCH   5  18
BRANCH   3  22
ATOM     22  C   LIG d   1      -4.549  75.198 114.925  0.00  0.00     0.382 C 
ATOM     23  O   LIG d   1      -5.007  75.571 113.818  0.00  0.00    -0.241 OA
ATOM     24  O   LIG d   1      -5.073  74.233 115.512  0.00  0.00    -0.241 OA
ENDBRANCH   3  22
TORSDOF 7
ENDMDL
MODEL 5
REMARK VINA RESULT:      -4.5      2.648      3.865
REMARK  7 active torsions:
REMARK  status: ('A' for Active; 'I' for Inactive)
REMARK    1  A    between atoms: C_2  and  C_3 
REMARK    2  A    between atoms: C_3  and  O_6 
REMARK    3  A    between atoms: C_3  and  C_4 
REMARK    4  A    between atoms: C_7  and  O_6 
REMARK    5  A    between atoms: C_9  and  C_10 
REMARK    6  A    between atoms: N_15  and  C_14 
REMARK    7  A    between atoms: N_20  and  C_19 
REMARK       I    between atoms: C_22  and  N_20 
ROOT
ATOM      1  C   LIG d   1      -3.551  77.503 117.301  0.00  0.00     0.161 C 
ATOM      2  C   LIG d   1      -2.616  78.346 117.925  0.00  0.00     0.016 C 
ATOM      3  C   LIG d   1      -1.236  78.341 117.616  0.00  0.00     0.038 C 
ATOM      4  C   LIG d   1      -0.719  77.594 116.547  0.00  0.00     0.028 C 
ATOM      5  C   LIG d   1      -1.542  76.352 116.221  0.00  0.00    -0.047 C 
ATOM      6  C   LIG d   1      -3.023  76.761 116.056  0.00  0.00     0.091 C 
ENDROOT
BRANCH   1   7
ATOM      7  O   LIG d   1      -4.739  78.251 116.973  0.00  0.00    -0.368 OA
BRANCH   7   8
ATOM      8  C   LIG d   1      -5.836  78.150 117.914  0.00  0.00     0.119 C 
BRANCH   8   9
ATOM      9  C   LIG d   1      -6.868  77.173 117.319  0.00  0.00     0.028 C 
ATOM     10  C   LIG d   1      -8.057  76.929 118.264  0.00  0.00     0.006 C 
ENDBRANCH   8   9
BRANCH   8  11
ATOM     11  C   LIG d   1      -6.574  79.485 118.054  0.00  0.00     0.028 C 
ATOM     12  C   LIG d   1      -6.402  80.119 119.443  0.00  0.00     0.006 C 
ENDBRANCH   8  11
ENDBRANCH   7   8
ENDBRANCH   1   7
BRANCH   6  13
ATOM     13  N   LIG d   1      -3.911  75.593 115.818  0.00  0.00    -0.311 N 
ATOM     14  C   LIG d   1      -4.690  75.470 114.745  0.00  0.00     0.210 C 
ATOM     15  C   LIG d   1      -5.541  74.197 114.706  0.00  0.00     0.109 C 
ATOM     16  O   LIG d   1      -4.733  76.279 113.806  0.00  0.00    -0.276 OA
ATOM     17  H   LIG d   1      -3.915  74.874 116.515  0.00  0.00     0.149 HD
ENDBRANCH   6  13
BRANCH   5  18
ATOM     18  N   LIG d   1      -0.970  75.745 115.005  0.00  0.00     0.381 N 
ATOM     19  H   LIG d   1      -0.157  75.212 115.242  0.00  0.00    -0.090 HD
ATOM     20  H   LIG d   1      -0.694  76.477 114.375  0.00  0.00    -0.090 HD
ATOM     21  H   LIG d   1      -1.645  75.157 114.567  0.00  0.00    -0.090 HD
ENDBRANCH   5  18
BRANCH   3  22
ATOM     22  C   LIG d   1      -0.352  79.059 118.406  0.00  0.00     0.382 C 
ATOM     23  O   LIG d   1      -0.459  80.307 118.491  0.00  0.00    -0.241 OA
ATOM     24  O   LIG d   1       0.577  78.481 119.000  0.00  0.00    -0.241 OA
ENDBRANCH   3  22
TORSDOF 7
ENDMDL
MODEL 6
REMARK VINA RESULT:      -4.3      2.321      5.372
REMARK  7 active torsions:
REMARK  status: ('A' for Active; 'I' for Inactive)
REMARK    1  A    between atoms: C_2  and  C_3 
REMARK    2  A    between atoms: C_3  and  O_6 
REMARK    3  A    between atoms: C_3  and  C_4 
REMARK    4  A    between atoms: C_7  and  O_6 
REMARK    5  A    between atoms: C_9  and  C_10 
REMARK    6  A    between atoms: N_15  and  C_14 
REMARK    7  A    between atoms: N_20  and  C_19 
REMARK       I    between atoms: C_22  and  N_20 
ROOT
ATOM      1  C   LIG d   1      -2.050  77.484 114.857  0.00  0.00     0.161 C 
ATOM      2  C   LIG d   1      -3.209  76.809 114.438  0.00  0.00     0.016 C 
ATOM      3  C   LIG d   1      -3.993  76.004 115.296  0.00  0.00     0.038 C 
ATOM      4  C   LIG d   1      -3.755  75.941 116.677  0.00  0.00     0.028 C 
ATOM      5  C   LIG d   1      -2.300  76.203 117.053  0.00  0.00    -0.047 C 
ATOM      6  C   LIG d   1      -1.838  77.517 116.385  0.00  0.00     0.091 C 
ENDROOT
BRANCH   1   7
ATOM      7  O   LIG d   1      -2.045  78.822 114.321  0.00  0.00    -0.368 OA
BRANCH   7   8
ATOM      8  C   LIG d   1      -1.483  78.975 112.994  0.00  0.00     0.119 C 
BRANCH   8   9
ATOM      9  C   LIG d   1      -1.217  80.477 112.775  0.00  0.00     0.028 C 
ATOM     10  C   LIG d   1      -0.015  80.731 111.850  0.00  0.00     0.006 C 
ENDBRANCH   8   9
BRANCH   8  11
ATOM     11  C   LIG d   1      -2.493  78.580 111.913  0.00  0.00     0.028 C 
ATOM     12  C   LIG d   1      -1.879  77.686 110.823  0.00  0.00     0.006 C 
ENDBRANCH   8  11
ENDBRANCH   7   8
ENDBRANCH   1   7
BRANCH   6  13
ATOM     13  N   LIG d   1      -0.401  77.804 116.633  0.00  0.00    -0.311 N 
ATOM     14  C   LIG d   1       0.025  78.771 117.445  0.00  0.00     0.210 C 
ATOM     15  C   LIG d   1       1.547  78.910 117.542  0.00  0.00     0.109 C 
ATOM     16  O   LIG d   1      -0.714  79.505 118.118  0.00  0.00    -0.276 OA
ATOM     17  H   LIG d   1       0.268  77.236 116.151  0.00  0.00     0.149 HD
ENDBRANCH   6  13
BRANCH   5  18
ATOM     18  N   LIG d   1      -2.221  76.244 118.526  0.00  0.00     0.381 N 
ATOM     19  H   LIG d   1      -1.291  76.481 118.808  0.00  0.00    -0.090 HD
ATOM     20  H   LIG d   1      -2.438  75.332 118.888  0.00  0.00    -0.090 HD
ATOM     21  H   LIG d   1      -2.866  76.913 118.883  0.00  0.00    -0.090 HD
ENDBRANCH   5  18
BRANCH   3  22
ATOM     22  C   LIG d   1      -5.006  75.218 114.766  0.00  0.00     0.382 C 
ATOM     23  O   LIG d   1      -5.460  74.252 115.425  0.00  0.00    -0.241 OA
ATOM     24  O   LIG d   1      -5.440  75.437 113.620  0.00  0.00    -0.241 OA
ENDBRANCH   3  22
TORSDOF 7
ENDMDL
MODEL 7
REMARK VINA RESULT:      -4.1      2.659      3.782
REMARK  7 active torsions:
REMARK  status: ('A' for Active; 'I' for Inactive)
REMARK    1  A    between atoms: C_2  and  C_3 
REMARK    2  A    between atoms: C_3  and  O_6 
REMARK    3  A    between atoms: C_3  and  C_4 
REMARK    4  A    between atoms: C_7  and  O_6 
REMARK    5  A    between atoms: C_9  and  C_10 
REMARK    6  A    between atoms: N_15  and  C_14 
REMARK    7  A    between atoms: N_20  and  C_19 
REMARK       I    between atoms: C_22  and  N_20 
ROOT
ATOM      1  C   LIG d   1      -2.771  77.116 116.182  0.00  0.00     0.161 C 
ATOM      2  C   LIG d   1      -2.073  76.429 115.175  0.00  0.00     0.016 C 
ATOM      3  C   LIG d   1      -1.092  75.446 115.441  0.00  0.00     0.038 C 
ATOM      4  C   LIG d   1      -0.849  74.973 116.739  0.00  0.00     0.028 C 
ATOM      5  C   LIG d   1      -1.168  75.994 117.825  0.00  0.00    -0.047 C 
ATOM      6  C   LIG d   1      -2.598  76.535 117.601  0.00  0.00     0.091 C 
ENDROOT
BRANCH   1   7
ATOM      7  O   LIG d   1      -4.169  77.197 115.841  0.00  0.00    -0.368 OA
BRANCH   7   8
ATOM      8  C   LIG d   1      -5.031  76.199 116.441  0.00  0.00     0.119 C 
BRANCH   8   9
ATOM      9  C   LIG d   1      -5.428  75.204 115.334  0.00  0.00     0.028 C 
ATOM     10  C   LIG d   1      -5.519  75.870 113.951  0.00  0.00     0.006 C 
ENDBRANCH   8   9
BRANCH   8  11
ATOM     11  C   LIG d   1      -6.347  76.817 116.923  0.00  0.00     0.028 C 
ATOM     12  C   LIG d   1      -6.158  78.206 117.553  0.00  0.00     0.006 C 
ENDBRANCH   8  11
ENDBRANCH   7   8
ENDBRANCH   1   7
BRANCH   6  13
ATOM     13  N   LIG d   1      -2.960  77.601 118.571  0.00  0.00    -0.311 N 
ATOM     14  C   LIG d   1      -2.310  78.761 118.662  0.00  0.00     0.210 C 
ATOM     15  C   LIG d   1      -2.833  79.712 119.743  0.00  0.00     0.109 C 
ATOM     16  O   LIG d   1      -1.371  79.105 117.928  0.00  0.00    -0.276 OA
ATOM     17  H   LIG d   1      -3.730  77.419 119.184  0.00  0.00     0.149 HD
ENDBRANCH   6  13
BRANCH   5  18
ATOM     18  N   LIG d   1      -1.001  75.325 119.129  0.00  0.00     0.381 N 
ATOM     19  H   LIG d   1      -0.499  75.923 119.755  0.00  0.00    -0.090 HD
ATOM     20  H   LIG d   1      -0.464  74.486 118.997  0.00  0.00    -0.090 HD
ATOM     21  H   LIG d   1      -1.892  75.101 119.514  0.00  0.00    -0.090 HD
ENDBRANCH   5  18
BRANCH   3  22
ATOM     22  C   LIG d   1      -0.315  74.954 114.404  0.00  0.00     0.382 C 
ATOM     23  O   LIG d   1      -0.597  75.244 113.216  0.00  0.00    -0.241 OA
ATOM     24  O   LIG d   1       0.639  74.188 114.638  0.00  0.00    -0.241 OA
ENDBRANCH   3  22
TORSDOF 7
ENDMDL
MODEL 8
REMARK VINA RESULT:      -4.1      2.517      6.277
REMARK  7 active torsions:
REMARK  status: ('A' for Active; 'I' for Inactive)
REMARK    1  A    between atoms: C_2  and  C_3 
REMARK    2  A    between atoms: C_3  and  O_6 
REMARK    3  A    between atoms: C_3  and  C_4 
REMARK    4  A    between atoms: C_7  and  O_6 
REMARK    5  A    between atoms: C_9  and  C_10 
REMARK    6  A    between atoms: N_15  and  C_14 
REMARK    7  A    between atoms: N_20  and  C_19 
REMARK       I    between atoms: C_22  and  N_20 
ROOT
ATOM      1  C   LIG d   1      -1.202  77.474 115.905  0.00  0.00     0.161 C 
ATOM      2  C   LIG d   1      -1.410  78.058 114.644  0.00  0.00     0.016 C 
ATOM      3  C   LIG d   1      -2.482  77.707 113.792  0.00  0.00     0.038 C 
ATOM      4  C   LIG d   1      -3.512  76.850 114.209  0.00  0.00     0.028 C 
ATOM      5  C   LIG d   1      -3.075  75.853 115.276  0.00  0.00    -0.047 C 
ATOM      6  C   LIG d   1      -2.377  76.619 116.424  0.00  0.00     0.091 C 
ENDROOT
BRANCH   1   7
ATOM      7  O   LIG d   1      -0.862  78.493 116.866  0.00  0.00    -0.368 OA
BRANCH   7   8
ATOM      8  C   LIG d   1       0.474  78.426 117.421  0.00  0.00     0.119 C 
BRANCH   8   9
ATOM      9  C   LIG d   1       0.334  78.265 118.947  0.00  0.00     0.028 C 
ATOM     10  C   LIG d   1       1.266  77.179 119.510  0.00  0.00     0.006 C 
ENDBRANCH   8   9
BRANCH   8  11
ATOM     11  C   LIG d   1       1.228  79.744 117.219  0.00  0.00     0.028 C 
ATOM     12  C   LIG d   1       0.891  80.793 118.291  0.00  0.00     0.006 C 
ENDBRANCH   8  11
ENDBRANCH   7   8
ENDBRANCH   1   7
BRANCH   6  13
ATOM     13  N   LIG d   1      -1.844  75.709 117.471  0.00  0.00    -0.311 N 
ATOM     14  C   LIG d   1      -2.278  75.706 118.730  0.00  0.00     0.210 C 
ATOM     15  C   LIG d   1      -1.579  74.702 119.652  0.00  0.00     0.109 C 
ATOM     16  O   LIG d   1      -3.198  76.416 119.162  0.00  0.00    -0.276 OA
ATOM     17  H   LIG d   1      -1.116  75.077 117.198  0.00  0.00     0.149 HD
ENDBRANCH   6  13
BRANCH   5  18
ATOM     18  N   LIG d   1      -4.275  75.118 115.717  0.00  0.00     0.381 N 
ATOM     19  H   LIG d   1      -5.080  75.707 115.641  0.00  0.00    -0.090 HD
ATOM     20  H   LIG d   1      -4.162  74.860 116.682  0.00  0.00    -0.090 HD
ATOM     21  H   LIG d   1      -4.398  74.301 115.161  0.00  0.00    -0.090 HD
ENDBRANCH   5  18
BRANCH   3  22
ATOM     22  C   LIG d   1      -2.509  78.184 112.490  0.00  0.00     0.382 C 
ATOM     23  O   LIG d   1      -2.295  79.400 112.264  0.00  0.00    -0.241 OA
ATOM     24  O   LIG d   1      -2.789  77.424 111.544  0.00  0.00    -0.241 OA
ENDBRANCH   3  22
TORSDOF 7
ENDMDL
MODEL 9
REMARK VINA RESULT:      -4.1      2.920      5.399
REMARK  7 active torsions:
REMARK  status: ('A' for Active; 'I' for Inactive)
REMARK    1  A    between atoms: C_2  and  C_3 
REMARK    2  A    between atoms: C_3  and  O_6 
REMARK    3  A    between atoms: C_3  and  C_4 
REMARK    4  A    between atoms: C_7  and  O_6 
REMARK    5  A    between atoms: C_9  and  C_10 
REMARK    6  A    between atoms: N_15  and  C_14 
REMARK    7  A    between atoms: N_20  and  C_19 
REMARK       I    between atoms: C_22  and  N_20 
ROOT
ATOM      1  C   LIG d   1      -2.855  77.679 116.655  0.00  0.00     0.161 C 
ATOM      2  C   LIG d   1      -3.981  78.263 117.259  0.00  0.00     0.016 C 
ATOM      3  C   LIG d   1      -5.277  77.701 117.195  0.00  0.00     0.038 C 
ATOM      4  C   LIG d   1      -5.509  76.430 116.648  0.00  0.00     0.028 C 
ATOM      5  C   LIG d   1      -4.492  76.035 115.583  0.00  0.00    -0.047 C 
ATOM      6  C   LIG d   1      -3.068  76.237 116.149  0.00  0.00     0.091 C 
ENDROOT
BRANCH   1   7
ATOM      7  O   LIG d   1      -1.734  77.732 117.559  0.00  0.00    -0.368 OA
BRANCH   7   8
ATOM      8  C   LIG d   1      -2.030  78.133 118.919  0.00  0.00     0.119 C 
BRANCH   8   9
ATOM      9  C   LIG d   1      -1.244  79.429 119.202  0.00  0.00     0.028 C 
ATOM     10  C   LIG d   1      -2.118  80.516 119.850  0.00  0.00     0.006 C 
ENDBRANCH   8   9
BRANCH   8  11
ATOM     11  C   LIG d   1      -1.502  77.110 119.929  0.00  0.00     0.028 C 
ATOM     12  C   LIG d   1      -2.055  75.697 119.691  0.00  0.00     0.006 C 
ENDBRANCH   8  11
ENDBRANCH   7   8
ENDBRANCH   1   7
BRANCH   6  13
ATOM     13  N   LIG d   1      -2.012  75.953 115.142  0.00  0.00    -0.311 N 
ATOM     14  C   LIG d   1      -1.106  74.987 115.282  0.00  0.00     0.210 C 
ATOM     15  C   LIG d   1      -0.095  74.878 114.137  0.00  0.00     0.109 C 
ATOM     16  O   LIG d   1      -1.064  74.189 116.231  0.00  0.00    -0.276 OA
ATOM     17  H   LIG d   1      -1.992  76.533 114.327  0.00  0.00     0.149 HD
ENDBRANCH   6  13
BRANCH   5  18
ATOM     18  N   LIG d   1      -4.769  74.639 115.198  0.00  0.00     0.381 N 
ATOM     19  H   LIG d   1      -4.727  74.547 114.203  0.00  0.00    -0.090 HD
ATOM     20  H   LIG d   1      -5.697  74.397 115.498  0.00  0.00    -0.090 HD
ATOM     21  H   LIG d   1      -4.106  74.030 115.624  0.00  0.00    -0.090 HD
ENDBRANCH   5  18
BRANCH   3  22
ATOM     22  C   LIG d   1      -6.366  78.432 117.648  0.00  0.00     0.382 C 
ATOM     23  O   LIG d   1      -7.435  77.845 117.945  0.00  0.00    -0.241 OA
ATOM     24  O   LIG d   1      -6.307  79.674 117.721  0.00  0.00    -0.241 OA
ENDBRANCH   3  22
TORSDOF 7
ENDMDL
