MODEL 1
REMARK VINA RESULT:      -5.2      0.000      0.000
REMARK  7 active torsions:
REMARK  status: ('A' for Active; 'I' for Inactive)
REMARK    1  A    between atoms: C_2  and  C_3 
REMARK    2  A    between atoms: C_3  and  O_6 
REMARK    3  A    between atoms: C_3  and  C_4 
REMARK    4  A    between atoms: C_7  and  O_6 
REMARK    5  A    between atoms: C_9  and  C_10 
REMARK    6  A    between atoms: N_15  and  C_14 
REMARK    7  A    between atoms: N_20  and  C_19 
REMARK       I    between atoms: C_22  and  N_20 
ROOT
ATOM      1  C   LIG d   1      -1.912  75.981 114.789  0.00  0.00     0.161 C 
ATOM      2  C   LIG d   1      -1.765  75.484 116.095  0.00  0.00     0.016 C 
ATOM      3  C   LIG d   1      -1.150  76.211 117.140  0.00  0.00     0.038 C 
ATOM      4  C   LIG d   1      -0.772  77.554 116.986  0.00  0.00     0.028 C 
ATOM      5  C   LIG d   1      -0.441  77.929 115.546  0.00  0.00    -0.047 C 
ATOM      6  C   LIG d   1      -1.606  77.485 114.632  0.00  0.00     0.091 C 
ENDROOT
BRANCH   1   7
ATOM      7  O   LIG d   1      -3.235  75.684 114.300  0.00  0.00    -0.368 OA
BRANCH   7   8
ATOM      8  C   LIG d   1      -4.225  75.347 115.303  0.00  0.00     0.119 C 
BRANCH   8   9
ATOM      9  C   LIG d   1      -5.120  74.238 114.715  0.00  0.00     0.028 C 
ATOM     10  C   LIG d   1      -6.501  74.180 115.390  0.00  0.00     0.006 C 
ENDBRANCH   8   9
BRANCH   8  11
ATOM     11  C   LIG d   1      -5.165  76.525 115.576  0.00  0.00     0.028 C 
ATOM     12  C   LIG d   1      -4.890  77.206 116.925  0.00  0.00     0.006 C 
ENDBRANCH   8  11
ENDBRANCH   7   8
ENDBRANCH   1   7
BRANCH   6  13
ATOM     13  N   LIG d   1      -1.327  77.739 113.194  0.00  0.00    -0.311 N 
ATOM     14  C   LIG d   1      -2.136  78.442 112.403  0.00  0.00     0.210 C 
ATOM     15  C   LIG d   1      -1.671  78.567 110.949  0.00  0.00     0.109 C 
ATOM     16  O   LIG d   1      -3.179  79.001 112.775  0.00  0.00    -0.276 OA
ATOM     17  H   LIG d   1      -0.486  77.348 112.817  0.00  0.00     0.149 HD
ENDBRANCH   6  13
BRANCH   5  18
ATOM     18  N   LIG d   1      -0.199  79.383 115.508  0.00  0.00     0.381 N 
ATOM     19  H   LIG d   1      -0.655  79.782 114.712  0.00  0.00    -0.090 HD
ATOM     20  H   LIG d   1       0.789  79.546 115.421  0.00  0.00    -0.090 HD
ATOM     21  H   LIG d   1      -0.541  79.808 116.343  0.00  0.00    -0.090 HD
ENDBRANCH   5  18
BRANCH   3  22
ATOM     22  C   LIG d   1      -0.870  75.582 118.343  0.00  0.00     0.382 C 
ATOM     23  O   LIG d   1      -1.782  75.408 119.187  0.00  0.00    -0.241 OA
ATOM     24  O   LIG d   1       0.293  75.226 118.615  0.00  0.00    -0.241 OA
ENDBRANCH   3  22
TORSDOF 7
ENDMDL
MODEL 2
REMARK VINA RESULT:      -5.2      2.614      5.283
REMARK  7 active torsions:
REMARK  status: ('A' for Active; 'I' for Inactive)
REMARK    1  A    between atoms: C_2  and  C_3 
REMARK    2  A    between atoms: C_3  and  O_6 
REMARK    3  A    between atoms: C_3  and  C_4 
REMARK    4  A    between atoms: C_7  and  O_6 
REMARK    5  A    between atoms: C_9  and  C_10 
REMARK    6  A    between atoms: N_15  and  C_14 
REMARK    7  A    between atoms: N_20  and  C_19 
REMARK       I    between atoms: C_22  and  N_20 
ROOT
ATOM      1  C   LIG d   1      -2.778  78.473 115.489  0.00  0.00     0.161 C 
ATOM      2  C   LIG d   1      -2.920  79.631 114.707  0.00  0.00     0.016 C 
ATOM      3  C   LIG d   1      -2.429  79.742 113.386  0.00  0.00     0.038 C 
ATOM      4  C   LIG d   1      -1.892  78.643 112.699  0.00  0.00     0.028 C 
ATOM      5  C   LIG d   1      -1.272  77.597 113.620  0.00  0.00    -0.047 C 
ATOM      6  C   LIG d   1      -2.295  77.227 114.718  0.00  0.00     0.091 C 
ENDROOT
BRANCH   1   7
ATOM      7  O   LIG d   1      -4.016  78.190 116.172  0.00  0.00    -0.368 OA
BRANCH   7   8
ATOM      8  C   LIG d   1      -4.173  78.790 117.481  0.00  0.00     0.119 C 
BRANCH   8   9
ATOM      9  C   LIG d   1      -4.274  77.645 118.507  0.00  0.00     0.028 C 
ATOM     10  C   LIG d   1      -2.900  77.223 119.052  0.00  0.00     0.006 C 
ENDBRANCH   8   9
BRANCH   8  11
ATOM     11  C   LIG d   1      -5.498  79.551 117.590  0.00  0.00     0.028 C 
ATOM     12  C   LIG d   1      -6.722  78.650 117.361  0.00  0.00     0.006 C 
ENDBRANCH   8  11
ENDBRANCH   7   8
ENDBRANCH   1   7
BRANCH   6  13
ATOM     13  N   LIG d   1      -1.738  76.271 115.711  0.00  0.00    -0.311 N 
ATOM     14  C   LIG d   1      -2.239  75.055 115.919  0.00  0.00     0.210 C 
ATOM     15  C   LIG d   1      -1.527  74.239 117.003  0.00  0.00     0.109 C 
ATOM     16  O   LIG d   1      -3.185  74.562 115.286  0.00  0.00    -0.276 OA
ATOM     17  H   LIG d   1      -0.950  76.578 116.247  0.00  0.00     0.149 HD
ENDBRANCH   6  13
BRANCH   5  18
ATOM     18  N   LIG d   1      -0.877  76.447 112.785  0.00  0.00     0.381 N 
ATOM     19  H   LIG d   1      -0.176  75.912 113.257  0.00  0.00    -0.090 HD
ATOM     20  H   LIG d   1      -0.488  76.788 111.924  0.00  0.00    -0.090 HD
ATOM     21  H   LIG d   1      -1.670  75.875 112.596  0.00  0.00    -0.090 HD
ENDBRANCH   5  18
BRANCH   3  22
ATOM     22  C   LIG d   1      -2.436  80.975 112.751  0.00  0.00     0.382 C 
ATOM     23  O   LIG d   1      -1.354  81.564 112.513  0.00  0.00    -0.241 OA
ATOM     24  O   LIG d   1      -3.513  81.527 112.455  0.00  0.00    -0.241 OA
ENDBRANCH   3  22
TORSDOF 7
ENDMDL
MODEL 3
REMARK VINA RESULT:      -5.0      1.946      4.993
REMARK  7 active torsions:
REMARK  status: ('A' for Active; 'I' for Inactive)
REMARK    1  A    between atoms: C_2  and  C_3 
REMARK    2  A    between atoms: C_3  and  O_6 
REMARK    3  A    between atoms: C_3  and  C_4 
REMARK    4  A    between atoms: C_7  and  O_6 
REMARK    5  A    between atoms: C_9  and  C_10 
REMARK    6  A    between atoms: N_15  and  C_14 
REMARK    7  A    between atoms: N_20  and  C_19 
REMARK       I    between atoms: C_22  and  N_20 
ROOT
ATOM      1  C   LIG d   1      -2.405  78.128 116.394  0.00  0.00     0.161 C 
ATOM      2  C   LIG d   1      -2.757  79.042 115.387  0.00  0.00     0.016 C 
ATOM      3  C   LIG d   1      -2.270  78.965 114.061  0.00  0.00     0.038 C 
ATOM      4  C   LIG d   1      -1.512  77.873 113.612  0.00  0.00     0.028 C 
ATOM      5  C   LIG d   1      -0.717  77.191 114.720  0.00  0.00    -0.047 C 
ATOM      6  C   LIG d   1      -1.668  76.867 115.894  0.00  0.00     0.091 C 
ENDROOT
BRANCH   1   7
ATOM      7  O   LIG d   1      -3.576  77.757 117.148  0.00  0.00    -0.368 OA
BRANCH   7   8
ATOM      8  C   LIG d   1      -4.792  77.566 116.384  0.00  0.00     0.119 C 
BRANCH   8   9
ATOM      9  C   LIG d   1      -5.954  78.153 117.208  0.00  0.00     0.028 C 
ATOM     10  C   LIG d   1      -7.207  77.261 117.176  0.00  0.00     0.006 C 
ENDBRANCH   8   9
BRANCH   8  11
ATOM     11  C   LIG d   1      -5.121  76.079 116.222  0.00  0.00     0.028 C 
ATOM     12  C   LIG d   1      -4.948  75.584 114.778  0.00  0.00     0.006 C 
ENDBRANCH   8  11
ENDBRANCH   7   8
ENDBRANCH   1   7
BRANCH   6  13
ATOM     13  N   LIG d   1      -0.955  76.274 117.055  0.00  0.00    -0.311 N 
ATOM     14  C   LIG d   1      -1.251  75.080 117.566  0.00  0.00     0.210 C 
ATOM     15  C   LIG d   1      -0.406  74.666 118.775  0.00  0.00     0.109 C 
ATOM     16  O   LIG d   1      -2.112  74.311 117.113  0.00  0.00    -0.276 OA
ATOM     17  H   LIG d   1      -0.220  76.817 117.465  0.00  0.00     0.149 HD
ENDBRANCH   6  13
BRANCH   5  18
ATOM     18  N   LIG d   1      -0.084  75.991 114.141  0.00  0.00     0.381 N 
ATOM     19  H   LIG d   1      -0.502  75.168 114.527  0.00  0.00    -0.090 HD
ATOM     20  H   LIG d   1       0.892  75.991 114.379  0.00  0.00    -0.090 HD
ATOM     21  H   LIG d   1      -0.192  75.994 113.150  0.00  0.00    -0.090 HD
ENDBRANCH   5  18
BRANCH   3  22
ATOM     22  C   LIG d   1      -2.508  80.009 113.180  0.00  0.00     0.382 C 
ATOM     23  O   LIG d   1      -2.115  79.928 111.991  0.00  0.00    -0.241 OA
ATOM     24  O   LIG d   1      -3.070  81.049 113.571  0.00  0.00    -0.241 OA
ENDBRANCH   3  22
TORSDOF 7
ENDMDL
MODEL 4
REMARK VINA RESULT:      -4.9      1.801      5.024
REMARK  7 active torsions:
REMARK  status: ('A' for Active; 'I' for Inactive)
REMARK    1  A    between atoms: C_2  and  C_3 
REMARK    2  A    between atoms: C_3  and  O_6 
REMARK    3  A    between atoms: C_3  and  C_4 
REMARK    4  A    between atoms: C_7  and  O_6 
REMARK    5  A    between atoms: C_9  and  C_10 
REMARK    6  A    between atoms: N_15  and  C_14 
REMARK    7  A    between atoms: N_20  and  C_19 
REMARK       I    between atoms: C_22  and  N_20 
ROOT
ATOM      1  C   LIG d   1      -3.612  76.805 115.004  0.00  0.00     0.161 C 
ATOM      2  C   LIG d   1      -3.735  77.308 113.699  0.00  0.00     0.016 C 
ATOM      3  C   LIG d   1      -2.628  77.599 112.869  0.00  0.00     0.038 C 
ATOM      4  C   LIG d   1      -1.317  77.263 113.237  0.00  0.00     0.028 C 
ATOM      5  C   LIG d   1      -1.103  77.220 114.746  0.00  0.00    -0.047 C 
ATOM      6  C   LIG d   1      -2.194  76.327 115.382  0.00  0.00     0.091 C 
ENDROOT
BRANCH   1   7
ATOM      7  O   LIG d   1      -4.569  75.747 115.213  0.00  0.00    -0.368 OA
BRANCH   7   8
ATOM      8  C   LIG d   1      -5.869  76.153 115.707  0.00  0.00     0.119 C 
BRANCH   8   9
ATOM      9  C   LIG d   1      -5.664  76.753 117.112  0.00  0.00     0.028 C 
ATOM     10  C   LIG d   1      -6.119  78.220 117.196  0.00  0.00     0.006 C 
ENDBRANCH   8   9
BRANCH   8  11
ATOM     11  C   LIG d   1      -6.789  74.946 115.912  0.00  0.00     0.028 C 
ATOM     12  C   LIG d   1      -7.900  75.211 116.940  0.00  0.00     0.006 C 
ENDBRANCH   8  11
ENDBRANCH   7   8
ENDBRANCH   1   7
BRANCH   6  13
ATOM     13  N   LIG d   1      -2.109  76.298 116.865  0.00  0.00    -0.311 N 
ATOM     14  C   LIG d   1      -1.668  75.247 117.554  0.00  0.00     0.210 C 
ATOM     15  C   LIG d   1      -1.681  75.419 119.076  0.00  0.00     0.109 C 
ATOM     16  O   LIG d   1      -1.236  74.200 117.048  0.00  0.00    -0.276 OA
ATOM     17  H   LIG d   1      -2.409  77.118 117.355  0.00  0.00     0.149 HD
ENDBRANCH   6  13
BRANCH   5  18
ATOM     18  N   LIG d   1       0.264  76.723 114.989  0.00  0.00     0.381 N 
ATOM     19  H   LIG d   1       0.318  76.309 115.898  0.00  0.00    -0.090 HD
ATOM     20  H   LIG d   1       0.902  77.499 114.957  0.00  0.00    -0.090 HD
ATOM     21  H   LIG d   1       0.512  76.052 114.295  0.00  0.00    -0.090 HD
ENDBRANCH   5  18
BRANCH   3  22
ATOM     22  C   LIG d   1      -2.824  78.271 111.672  0.00  0.00     0.382 C 
ATOM     23  O   LIG d   1      -3.611  77.805 110.813  0.00  0.00    -0.241 OA
ATOM     24  O   LIG d   1      -2.191  79.314 111.422  0.00  0.00    -0.241 OA
ENDBRANCH   3  22
TORSDOF 7
ENDMDL
MODEL 5
REMARK VINA RESULT:      -4.9      1.556      4.716
REMARK  7 active torsions:
REMARK  status: ('A' for Active; 'I' for Inactive)
REMARK    1  A    between atoms: C_2  and  C_3 
REMARK    2  A    between atoms: C_3  and  O_6 
REMARK    3  A    between atoms: C_3  and  C_4 
REMARK    4  A    between atoms: C_7  and  O_6 
REMARK    5  A    between atoms: C_9  and  C_10 
REMARK    6  A    between atoms: N_15  and  C_14 
REMARK    7  A    between atoms: N_20  and  C_19 
REMARK       I    between atoms: C_22  and  N_20 
ROOT
ATOM      1  C   LIG d   1      -2.941  77.227 114.892  0.00  0.00     0.161 C 
ATOM      2  C   LIG d   1      -3.007  77.311 113.491  0.00  0.00     0.016 C 
ATOM      3  C   LIG d   1      -2.171  78.152 112.721  0.00  0.00     0.038 C 
ATOM      4  C   LIG d   1      -1.102  78.858 113.292  0.00  0.00     0.028 C 
ATOM      5  C   LIG d   1      -1.316  79.195 114.764  0.00  0.00    -0.047 C 
ATOM      6  C   LIG d   1      -1.707  77.906 115.522  0.00  0.00     0.091 C 
ENDROOT
BRANCH   1   7
ATOM      7  O   LIG d   1      -3.018  75.847 115.303  0.00  0.00    -0.368 OA
BRANCH   7   8
ATOM      8  C   LIG d   1      -4.198  75.471 116.055  0.00  0.00     0.119 C 
BRANCH   8   9
ATOM      9  C   LIG d   1      -4.916  74.361 115.264  0.00  0.00     0.028 C 
ATOM     10  C   LIG d   1      -5.907  74.924 114.231  0.00  0.00     0.006 C 
ENDBRANCH   8   9
BRANCH   8  11
ATOM     11  C   LIG d   1      -5.200  76.627 116.133  0.00  0.00     0.028 C 
ATOM     12  C   LIG d   1      -5.491  77.066 117.577  0.00  0.00     0.006 C 
ENDBRANCH   8  11
ENDBRANCH   7   8
ENDBRANCH   1   7
BRANCH   6  13
ATOM     13  N   LIG d   1      -2.016  78.162 116.953  0.00  0.00    -0.311 N 
ATOM     14  C   LIG d   1      -1.509  77.442 117.953  0.00  0.00     0.210 C 
ATOM     15  C   LIG d   1      -1.974  77.861 119.351  0.00  0.00     0.109 C 
ATOM     16  O   LIG d   1      -0.694  76.518 117.816  0.00  0.00    -0.276 OA
ATOM     17  H   LIG d   1      -2.645  78.914 117.157  0.00  0.00     0.149 HD
ENDBRANCH   6  13
BRANCH   5  18
ATOM     18  N   LIG d   1      -0.072  79.807 115.266  0.00  0.00     0.381 N 
ATOM     19  H   LIG d   1      -0.181  80.800 115.322  0.00  0.00    -0.090 HD
ATOM     20  H   LIG d   1       0.672  79.607 114.621  0.00  0.00    -0.090 HD
ATOM     21  H   LIG d   1       0.150  79.439 116.165  0.00  0.00    -0.090 HD
ENDBRANCH   5  18
BRANCH   3  22
ATOM     22  C   LIG d   1      -2.427  78.323 111.369  0.00  0.00     0.382 C 
ATOM     23  O   LIG d   1      -1.652  79.017 110.668  0.00  0.00    -0.241 OA
ATOM     24  O   LIG d   1      -3.447  77.830 110.852  0.00  0.00    -0.241 OA
ENDBRANCH   3  22
TORSDOF 7
ENDMDL
MODEL 6
REMARK VINA RESULT:      -4.8      1.817      4.884
REMARK  7 active torsions:
REMARK  status: ('A' for Active; 'I' for Inactive)
REMARK    1  A    between atoms: C_2  and  C_3 
REMARK    2  A    between atoms: C_3  and  O_6 
REMARK    3  A    between atoms: C_3  and  C_4 
REMARK    4  A    between atoms: C_7  and  O_6 
REMARK    5  A    between atoms: C_9  and  C_10 
REMARK    6  A    between atoms: N_15  and  C_14 
REMARK    7  A    between atoms: N_20  and  C_19 
REMARK       I    between atoms: C_22  and  N_20 
ROOT
ATOM      1  C   LIG d   1      -3.494  76.945 115.213  0.00  0.00     0.161 C 
ATOM      2  C   LIG d   1      -3.695  77.411 113.903  0.00  0.00     0.016 C 
ATOM      3  C   LIG d   1      -2.642  77.626 112.984  0.00  0.00     0.038 C 
ATOM      4  C   LIG d   1      -1.322  77.243 113.265  0.00  0.00     0.028 C 
ATOM      5  C   LIG d   1      -0.997  77.238 114.755  0.00  0.00    -0.047 C 
ATOM      6  C   LIG d   1      -2.073  76.416 115.501  0.00  0.00     0.091 C 
ENDROOT
BRANCH   1   7
ATOM      7  O   LIG d   1      -4.477  75.939 115.530  0.00  0.00    -0.368 OA
BRANCH   7   8
ATOM      8  C   LIG d   1      -5.411  76.271 116.586  0.00  0.00     0.119 C 
BRANCH   8   9
ATOM      9  C   LIG d   1      -6.830  76.203 115.988  0.00  0.00     0.028 C 
ATOM     10  C   LIG d   1      -7.780  75.335 116.829  0.00  0.00     0.006 C 
ENDBRANCH   8   9
BRANCH   8  11
ATOM     11  C   LIG d   1      -5.236  77.720 117.050  0.00  0.00     0.028 C 
ATOM     12  C   LIG d   1      -5.162  77.851 118.580  0.00  0.00     0.006 C 
ENDBRANCH   8  11
ENDBRANCH   7   8
ENDBRANCH   1   7
BRANCH   6  13
ATOM     13  N   LIG d   1      -1.878  76.431 116.974  0.00  0.00    -0.311 N 
ATOM     14  C   LIG d   1      -1.903  75.333 117.728  0.00  0.00     0.210 C 
ATOM     15  C   LIG d   1      -1.700  75.574 119.227  0.00  0.00     0.109 C 
ATOM     16  O   LIG d   1      -2.043  74.180 117.294  0.00  0.00    -0.276 OA
ATOM     17  H   LIG d   1      -1.727  77.322 117.405  0.00  0.00     0.149 HD
ENDBRANCH   6  13
BRANCH   5  18
ATOM     18  N   LIG d   1       0.362  76.689 114.913  0.00  0.00     0.381 N 
ATOM     19  H   LIG d   1       1.035  77.345 114.570  0.00  0.00    -0.090 HD
ATOM     20  H   LIG d   1       0.438  75.847 114.370  0.00  0.00    -0.090 HD
ATOM     21  H   LIG d   1       0.541  76.491 115.873  0.00  0.00    -0.090 HD
ENDBRANCH   5  18
BRANCH   3  22
ATOM     22  C   LIG d   1      -2.900  78.267 111.782  0.00  0.00     0.382 C 
ATOM     23  O   LIG d   1      -2.403  79.397 111.555  0.00  0.00    -0.241 OA
ATOM     24  O   LIG d   1      -3.658  77.750 110.940  0.00  0.00    -0.241 OA
ENDBRANCH   3  22
TORSDOF 7
ENDMDL
MODEL 7
REMARK VINA RESULT:      -4.7      2.785      5.079
REMARK  7 active torsions:
REMARK  status: ('A' for Active; 'I' for Inactive)
REMARK    1  A    between atoms: C_2  and  C_3 
REMARK    2  A    between atoms: C_3  and  O_6 
REMARK    3  A    between atoms: C_3  and  C_4 
REMARK    4  A    between atoms: C_7  and  O_6 
REMARK    5  A    between atoms: C_9  and  C_10 
REMARK    6  A    between atoms: N_15  and  C_14 
REMARK    7  A    between atoms: N_20  and  C_19 
REMARK       I    between atoms: C_22  and  N_20 
ROOT
ATOM      1  C   LIG d   1      -1.621  79.531 114.438  0.00  0.00     0.161 C 
ATOM      2  C   LIG d   1      -2.461  78.485 114.854  0.00  0.00     0.016 C 
ATOM      3  C   LIG d   1      -3.016  77.533 113.968  0.00  0.00     0.038 C 
ATOM      4  C   LIG d   1      -2.644  77.473 112.617  0.00  0.00     0.028 C 
ATOM      5  C   LIG d   1      -2.192  78.816 112.052  0.00  0.00    -0.047 C 
ATOM      6  C   LIG d   1      -1.115  79.415 112.985  0.00  0.00     0.091 C 
ENDROOT
BRANCH   1   7
ATOM      7  O   LIG d   1      -0.510  79.656 115.347  0.00  0.00    -0.368 OA
BRANCH   7   8
ATOM      8  C   LIG d   1      -0.569  78.840 116.542  0.00  0.00     0.119 C 
BRANCH   8   9
ATOM      9  C   LIG d   1      -0.391  79.777 117.753  0.00  0.00     0.028 C 
ATOM     10  C   LIG d   1      -1.588  79.724 118.717  0.00  0.00     0.006 C 
ENDBRANCH   8   9
BRANCH   8  11
ATOM     11  C   LIG d   1       0.609  77.863 116.609  0.00  0.00     0.028 C 
ATOM     12  C   LIG d   1       1.791  78.411 117.424  0.00  0.00     0.006 C 
ENDBRANCH   8  11
ENDBRANCH   7   8
ENDBRANCH   1   7
BRANCH   6  13
ATOM     13  N   LIG d   1      -0.679  80.768 112.551  0.00  0.00    -0.311 N 
ATOM     14  C   LIG d   1      -1.527  81.753 112.260  0.00  0.00     0.210 C 
ATOM     15  C   LIG d   1      -0.869  83.063 111.814  0.00  0.00     0.109 C 
ATOM     16  O   LIG d   1      -2.761  81.677 112.361  0.00  0.00    -0.276 OA
ATOM     17  H   LIG d   1       0.306  80.927 112.473  0.00  0.00     0.149 HD
ENDBRANCH   6  13
BRANCH   5  18
ATOM     18  N   LIG d   1      -1.704  78.581 110.680  0.00  0.00     0.381 N 
ATOM     19  H   LIG d   1      -1.244  79.401 110.340  0.00  0.00    -0.090 HD
ATOM     20  H   LIG d   1      -2.489  78.389 110.084  0.00  0.00    -0.090 HD
ATOM     21  H   LIG d   1      -1.074  77.809 110.670  0.00  0.00    -0.090 HD
ENDBRANCH   5  18
BRANCH   3  22
ATOM     22  C   LIG d   1      -3.985  76.652 114.424  0.00  0.00     0.382 C 
ATOM     23  O   LIG d   1      -5.021  77.092 114.979  0.00  0.00    -0.241 OA
ATOM     24  O   LIG d   1      -3.816  75.422 114.328  0.00  0.00    -0.241 OA
ENDBRANCH   3  22
TORSDOF 7
ENDMDL
MODEL 8
REMARK VINA RESULT:      -4.6      2.806      3.941
REMARK  7 active torsions:
REMARK  status: ('A' for Active; 'I' for Inactive)
REMARK    1  A    between atoms: C_2  and  C_3 
REMARK    2  A    between atoms: C_3  and  O_6 
REMARK    3  A    between atoms: C_3  and  C_4 
REMARK    4  A    between atoms: C_7  and  O_6 
REMARK    5  A    between atoms: C_9  and  C_10 
REMARK    6  A    between atoms: N_15  and  C_14 
REMARK    7  A    between atoms: N_20  and  C_19 
REMARK       I    between atoms: C_22  and  N_20 
ROOT
ATOM      1  C   LIG d   1      -3.926  77.767 116.794  0.00  0.00     0.161 C 
ATOM      2  C   LIG d   1      -3.069  78.736 117.340  0.00  0.00     0.016 C 
ATOM      3  C   LIG d   1      -1.719  78.891 116.948  0.00  0.00     0.038 C 
ATOM      4  C   LIG d   1      -1.175  78.182 115.867  0.00  0.00     0.028 C 
ATOM      5  C   LIG d   1      -1.855  76.839 115.620  0.00  0.00    -0.047 C 
ATOM      6  C   LIG d   1      -3.383  77.058 115.536  0.00  0.00     0.091 C 
ENDROOT
BRANCH   1   7
ATOM      7  O   LIG d   1      -5.215  78.352 116.522  0.00  0.00    -0.368 OA
BRANCH   7   8
ATOM      8  C   LIG d   1      -6.258  78.074 117.488  0.00  0.00     0.119 C 
BRANCH   8   9
ATOM      9  C   LIG d   1      -7.239  77.080 116.836  0.00  0.00     0.028 C 
ATOM     10  C   LIG d   1      -7.856  76.109 117.858  0.00  0.00     0.006 C 
ENDBRANCH   8   9
BRANCH   8  11
ATOM     11  C   LIG d   1      -7.089  79.325 117.787  0.00  0.00     0.028 C 
ATOM     12  C   LIG d   1      -6.257  80.617 117.741  0.00  0.00     0.006 C 
ENDBRANCH   8  11
ENDBRANCH   7   8
ENDBRANCH   1   7
BRANCH   6  13
ATOM     13  N   LIG d   1      -4.130  75.783 115.379  0.00  0.00    -0.311 N 
ATOM     14  C   LIG d   1      -5.080  75.598 114.465  0.00  0.00     0.210 C 
ATOM     15  C   LIG d   1      -5.739  74.215 114.488  0.00  0.00     0.109 C 
ATOM     16  O   LIG d   1      -5.418  76.436 113.616  0.00  0.00    -0.276 OA
ATOM     17  H   LIG d   1      -3.898  75.038 116.007  0.00  0.00     0.149 HD
ENDBRANCH   6  13
BRANCH   5  18
ATOM     18  N   LIG d   1      -1.283  76.271 114.385  0.00  0.00     0.381 N 
ATOM     19  H   LIG d   1      -1.408  76.912 113.627  0.00  0.00    -0.090 HD
ATOM     20  H   LIG d   1      -1.770  75.421 114.162  0.00  0.00    -0.090 HD
ATOM     21  H   LIG d   1      -0.313  76.083 114.513  0.00  0.00    -0.090 HD
ENDBRANCH   5  18
BRANCH   3  22
ATOM     22  C   LIG d   1      -0.888  79.737 117.667  0.00  0.00     0.382 C 
ATOM     23  O   LIG d   1      -1.092  79.926 118.890  0.00  0.00    -0.241 OA
ATOM     24  O   LIG d   1       0.037  80.347 117.097  0.00  0.00    -0.241 OA
ENDBRANCH   3  22
TORSDOF 7
ENDMDL
MODEL 9
REMARK VINA RESULT:      -4.5      1.543      1.972
REMARK  7 active torsions:
REMARK  status: ('A' for Active; 'I' for Inactive)
REMARK    1  A    between atoms: C_2  and  C_3 
REMARK    2  A    between atoms: C_3  and  O_6 
REMARK    3  A    between atoms: C_3  and  C_4 
REMARK    4  A    between atoms: C_7  and  O_6 
REMARK    5  A    between atoms: C_9  and  C_10 
REMARK    6  A    between atoms: N_15  and  C_14 
REMARK    7  A    between atoms: N_20  and  C_19 
REMARK       I    between atoms: C_22  and  N_20 
ROOT
ATOM      1  C   LIG d   1      -3.572  76.892 115.796  0.00  0.00     0.161 C 
ATOM      2  C   LIG d   1      -3.205  76.109 116.903  0.00  0.00     0.016 C 
ATOM      3  C   LIG d   1      -1.943  76.197 117.534  0.00  0.00     0.038 C 
ATOM      4  C   LIG d   1      -1.011  77.188 117.192  0.00  0.00     0.028 C 
ATOM      5  C   LIG d   1      -1.138  77.668 115.751  0.00  0.00    -0.047 C 
ATOM      6  C   LIG d   1      -2.610  78.056 115.479  0.00  0.00     0.091 C 
ENDROOT
BRANCH   1   7
ATOM      7  O   LIG d   1      -4.915  77.386 115.970  0.00  0.00    -0.368 OA
BRANCH   7   8
ATOM      8  C   LIG d   1      -5.961  76.641 115.300  0.00  0.00     0.119 C 
BRANCH   8   9
ATOM      9  C   LIG d   1      -6.693  75.807 116.369  0.00  0.00     0.028 C 
ATOM     10  C   LIG d   1      -8.060  76.404 116.744  0.00  0.00     0.006 C 
ENDBRANCH   8   9
BRANCH   8  11
ATOM     11  C   LIG d   1      -5.376  75.619 114.320  0.00  0.00     0.028 C 
ATOM     12  C   LIG d   1      -5.822  74.180 114.622  0.00  0.00     0.006 C 
ENDBRANCH   8  11
ENDBRANCH   7   8
ENDBRANCH   1   7
BRANCH   6  13
ATOM     13  N   LIG d   1      -2.839  78.457 114.067  0.00  0.00    -0.311 N 
ATOM     14  C   LIG d   1      -2.552  77.675 113.027  0.00  0.00     0.210 C 
ATOM     15  C   LIG d   1      -2.848  78.290 111.655  0.00  0.00     0.109 C 
ATOM     16  O   LIG d   1      -2.112  76.519 113.111  0.00  0.00    -0.276 OA
ATOM     17  H   LIG d   1      -3.222  79.368 113.908  0.00  0.00     0.149 HD
ENDBRANCH   6  13
BRANCH   5  18
ATOM     18  N   LIG d   1      -0.201  78.793 115.571  0.00  0.00     0.381 N 
ATOM     19  H   LIG d   1      -0.490  79.568 116.134  0.00  0.00    -0.090 HD
ATOM     20  H   LIG d   1      -0.218  79.080 114.608  0.00  0.00    -0.090 HD
ATOM     21  H   LIG d   1       0.721  78.513 115.826  0.00  0.00    -0.090 HD
ENDBRANCH   5  18
BRANCH   3  22
ATOM     22  C   LIG d   1      -1.588  75.261 118.493  0.00  0.00     0.382 C 
ATOM     23  O   LIG d   1      -1.750  75.518 119.711  0.00  0.00    -0.241 OA
ATOM     24  O   LIG d   1      -1.066  74.181 118.159  0.00  0.00    -0.241 OA
ENDBRANCH   3  22
TORSDOF 7
ENDMDL
