MODEL 1
REMARK VINA RESULT:      -5.4      0.000      0.000
REMARK  7 active torsions:
REMARK  status: ('A' for Active; 'I' for Inactive)
REMARK    1  A    between atoms: C_2  and  C_3 
REMARK    2  A    between atoms: C_3  and  O_6 
REMARK    3  A    between atoms: C_3  and  C_4 
REMARK    4  A    between atoms: C_7  and  O_6 
REMARK    5  A    between atoms: C_9  and  C_10 
REMARK    6  A    between atoms: N_15  and  C_14 
REMARK    7  A    between atoms: N_20  and  C_19 
REMARK       I    between atoms: C_22  and  N_20 
ROOT
ATOM      1  C   LIG d   1      -1.622  80.666 112.052  0.00  0.00     0.161 C 
ATOM      2  C   LIG d   1      -2.511  79.644 112.423  0.00  0.00     0.016 C 
ATOM      3  C   LIG d   1      -2.469  78.340 111.879  0.00  0.00     0.038 C 
ATOM      4  C   LIG d   1      -1.431  77.924 111.031  0.00  0.00     0.028 C 
ATOM      5  C   LIG d   1      -0.804  79.065 110.237  0.00  0.00    -0.047 C 
ATOM      6  C   LIG d   1      -0.415  80.200 111.211  0.00  0.00     0.091 C 
ENDROOT
BRANCH   1   7
ATOM      7  O   LIG d   1      -1.173  81.373 113.225  0.00  0.00    -0.368 OA
BRANCH   7   8
ATOM      8  C   LIG d   1       0.044  80.883 113.837  0.00  0.00     0.119 C 
BRANCH   8   9
ATOM      9  C   LIG d   1      -0.314  80.395 115.254  0.00  0.00     0.028 C 
ATOM     10  C   LIG d   1      -0.604  78.885 115.299  0.00  0.00     0.006 C 
ENDBRANCH   8   9
BRANCH   8  11
ATOM     11  C   LIG d   1       1.059  82.011 114.042  0.00  0.00     0.028 C 
ATOM     12  C   LIG d   1       0.554  83.368 113.526  0.00  0.00     0.006 C 
ENDBRANCH   8  11
ENDBRANCH   7   8
ENDBRANCH   1   7
BRANCH   6  13
ATOM     13  N   LIG d   1       0.129  81.390 110.507  0.00  0.00    -0.311 N 
ATOM     14  C   LIG d   1       1.431  81.603 110.326  0.00  0.00     0.210 C 
ATOM     15  C   LIG d   1       1.778  82.902 109.592  0.00  0.00     0.109 C 
ATOM     16  O   LIG d   1       2.331  80.824 110.675  0.00  0.00    -0.276 OA
ATOM     17  H   LIG d   1      -0.532  82.059 110.163  0.00  0.00     0.149 HD
ENDBRANCH   6  13
BRANCH   5  18
ATOM     18  N   LIG d   1       0.351  78.514 109.502  0.00  0.00     0.381 N 
ATOM     19  H   LIG d   1       1.015  78.136 110.148  0.00  0.00    -0.090 HD
ATOM     20  H   LIG d   1       0.795  79.256 108.991  0.00  0.00    -0.090 HD
ATOM     21  H   LIG d   1       0.047  77.803 108.873  0.00  0.00    -0.090 HD
ENDBRANCH   5  18
BRANCH   3  22
ATOM     22  C   LIG d   1      -3.494  77.447 112.151  0.00  0.00     0.382 C 
ATOM     23  O   LIG d   1      -4.596  77.561 111.562  0.00  0.00    -0.241 OA
ATOM     24  O   LIG d   1      -3.347  76.558 113.010  0.00  0.00    -0.241 OA
ENDBRANCH   3  22
TORSDOF 7
ENDMDL
MODEL 2
REMARK VINA RESULT:      -4.9      3.801      6.653
REMARK  7 active torsions:
REMARK  status: ('A' for Active; 'I' for Inactive)
REMARK    1  A    between atoms: C_2  and  C_3 
REMARK    2  A    between atoms: C_3  and  O_6 
REMARK    3  A    between atoms: C_3  and  C_4 
REMARK    4  A    between atoms: C_7  and  O_6 
REMARK    5  A    between atoms: C_9  and  C_10 
REMARK    6  A    between atoms: N_15  and  C_14 
REMARK    7  A    between atoms: N_20  and  C_19 
REMARK       I    between atoms: C_22  and  N_20 
ROOT
ATOM      1  C   LIG d   1      -2.952  76.717 114.670  0.00  0.00     0.161 C 
ATOM      2  C   LIG d   1      -3.086  76.937 113.290  0.00  0.00     0.016 C 
ATOM      3  C   LIG d   1      -2.220  77.772 112.546  0.00  0.00     0.038 C 
ATOM      4  C   LIG d   1      -1.062  78.327 113.110  0.00  0.00     0.028 C 
ATOM      5  C   LIG d   1      -1.164  78.542 114.616  0.00  0.00    -0.047 C 
ATOM      6  C   LIG d   1      -1.629  77.226 115.280  0.00  0.00     0.091 C 
ENDROOT
BRANCH   1   7
ATOM      7  O   LIG d   1      -3.132  75.317 114.962  0.00  0.00    -0.368 OA
BRANCH   7   8
ATOM      8  C   LIG d   1      -4.373  74.956 115.616  0.00  0.00     0.119 C 
BRANCH   8   9
ATOM      9  C   LIG d   1      -5.373  74.546 114.518  0.00  0.00     0.028 C 
ATOM     10  C   LIG d   1      -6.414  75.642 114.232  0.00  0.00     0.006 C 
ENDBRANCH   8   9
BRANCH   8  11
ATOM     11  C   LIG d   1      -5.008  76.165 116.311  0.00  0.00     0.028 C 
ATOM     12  C   LIG d   1      -5.060  76.013 117.840  0.00  0.00     0.006 C 
ENDBRANCH   8  11
ENDBRANCH   7   8
ENDBRANCH   1   7
BRANCH   6  13
ATOM     13  N   LIG d   1      -1.836  77.372 116.745  0.00  0.00    -0.311 N 
ATOM     14  C   LIG d   1      -1.265  76.578 117.649  0.00  0.00     0.210 C 
ATOM     15  C   LIG d   1      -1.627  76.890 119.104  0.00  0.00     0.109 C 
ATOM     16  O   LIG d   1      -0.467  75.666 117.386  0.00  0.00    -0.276 OA
ATOM     17  H   LIG d   1      -2.444  78.107 117.048  0.00  0.00     0.149 HD
ENDBRANCH   6  13
BRANCH   5  18
ATOM     18  N   LIG d   1       0.156  78.995 115.092  0.00  0.00     0.381 N 
ATOM     19  H   LIG d   1       0.165  79.993 115.169  0.00  0.00    -0.090 HD
ATOM     20  H   LIG d   1       0.854  78.725 114.422  0.00  0.00    -0.090 HD
ATOM     21  H   LIG d   1       0.359  78.585 115.977  0.00  0.00    -0.090 HD
ENDBRANCH   5  18
BRANCH   3  22
ATOM     22  C   LIG d   1      -2.532  78.090 111.233  0.00  0.00     0.382 C 
ATOM     23  O   LIG d   1      -1.846  78.939 110.615  0.00  0.00    -0.241 OA
ATOM     24  O   LIG d   1      -3.517  77.572 110.674  0.00  0.00    -0.241 OA
ENDBRANCH   3  22
TORSDOF 7
ENDMDL
MODEL 3
REMARK VINA RESULT:      -4.9      1.473      1.784
REMARK  7 active torsions:
REMARK  status: ('A' for Active; 'I' for Inactive)
REMARK    1  A    between atoms: C_2  and  C_3 
REMARK    2  A    between atoms: C_3  and  O_6 
REMARK    3  A    between atoms: C_3  and  C_4 
REMARK    4  A    between atoms: C_7  and  O_6 
REMARK    5  A    between atoms: C_9  and  C_10 
REMARK    6  A    between atoms: N_15  and  C_14 
REMARK    7  A    between atoms: N_20  and  C_19 
REMARK       I    between atoms: C_22  and  N_20 
ROOT
ATOM      1  C   LIG d   1      -0.772  80.199 113.150  0.00  0.00     0.161 C 
ATOM      2  C   LIG d   1      -1.385  79.151 113.857  0.00  0.00     0.016 C 
ATOM      3  C   LIG d   1      -1.922  78.002 113.232  0.00  0.00     0.038 C 
ATOM      4  C   LIG d   1      -1.747  77.751 111.863  0.00  0.00     0.028 C 
ATOM      5  C   LIG d   1      -1.578  79.019 111.032  0.00  0.00    -0.047 C 
ATOM      6  C   LIG d   1      -0.472  79.892 111.668  0.00  0.00     0.091 C 
ENDROOT
BRANCH   1   7
ATOM      7  O   LIG d   1       0.432  80.608 113.830  0.00  0.00    -0.368 OA
BRANCH   7   8
ATOM      8  C   LIG d   1       0.392  81.907 114.471  0.00  0.00     0.119 C 
BRANCH   8   9
ATOM      9  C   LIG d   1       0.197  81.672 115.982  0.00  0.00     0.028 C 
ATOM     10  C   LIG d   1       0.266  82.978 116.792  0.00  0.00     0.006 C 
ENDBRANCH   8   9
BRANCH   8  11
ATOM     11  C   LIG d   1      -0.833  82.711 114.025  0.00  0.00     0.028 C 
ATOM     12  C   LIG d   1      -0.459  84.004 113.284  0.00  0.00     0.006 C 
ENDBRANCH   8  11
ENDBRANCH   7   8
ENDBRANCH   1   7
BRANCH   6  13
ATOM     13  N   LIG d   1      -0.301  81.190 110.966  0.00  0.00    -0.311 N 
ATOM     14  C   LIG d   1       0.880  81.654 110.561  0.00  0.00     0.210 C 
ATOM     15  C   LIG d   1       0.836  83.023 109.874  0.00  0.00     0.109 C 
ATOM     16  O   LIG d   1       1.956  81.048 110.676  0.00  0.00    -0.276 OA
ATOM     17  H   LIG d   1      -1.126  81.733 110.803  0.00  0.00     0.149 HD
ENDBRANCH   6  13
BRANCH   5  18
ATOM     18  N   LIG d   1      -1.267  78.608 109.650  0.00  0.00     0.381 N 
ATOM     19  H   LIG d   1      -1.668  79.258 109.005  0.00  0.00    -0.090 HD
ATOM     20  H   LIG d   1      -1.673  77.704 109.481  0.00  0.00    -0.090 HD
ATOM     21  H   LIG d   1      -0.280  78.566 109.521  0.00  0.00    -0.090 HD
ENDBRANCH   5  18
BRANCH   3  22
ATOM     22  C   LIG d   1      -2.680  77.108 113.974  0.00  0.00     0.382 C 
ATOM     23  O   LIG d   1      -3.483  76.336 113.396  0.00  0.00    -0.241 OA
ATOM     24  O   LIG d   1      -2.602  77.093 115.217  0.00  0.00    -0.241 OA
ENDBRANCH   3  22
TORSDOF 7
ENDMDL
MODEL 4
REMARK VINA RESULT:      -4.9      4.384      7.160
REMARK  7 active torsions:
REMARK  status: ('A' for Active; 'I' for Inactive)
REMARK    1  A    between atoms: C_2  and  C_3 
REMARK    2  A    between atoms: C_3  and  O_6 
REMARK    3  A    between atoms: C_3  and  C_4 
REMARK    4  A    between atoms: C_7  and  O_6 
REMARK    5  A    between atoms: C_9  and  C_10 
REMARK    6  A    between atoms: N_15  and  C_14 
REMARK    7  A    between atoms: N_20  and  C_19 
REMARK       I    between atoms: C_22  and  N_20 
ROOT
ATOM      1  C   LIG d   1      -1.922  75.137 115.430  0.00  0.00     0.161 C 
ATOM      2  C   LIG d   1      -1.520  74.802 116.733  0.00  0.00     0.016 C 
ATOM      3  C   LIG d   1      -0.942  75.728 117.632  0.00  0.00     0.038 C 
ATOM      4  C   LIG d   1      -0.866  77.097 117.338  0.00  0.00     0.028 C 
ATOM      5  C   LIG d   1      -0.796  77.393 115.844  0.00  0.00    -0.047 C 
ATOM      6  C   LIG d   1      -1.949  76.651 115.131  0.00  0.00     0.091 C 
ENDROOT
BRANCH   1   7
ATOM      7  O   LIG d   1      -3.207  74.548 115.149  0.00  0.00    -0.368 OA
BRANCH   7   8
ATOM      8  C   LIG d   1      -4.360  75.397 115.369  0.00  0.00     0.119 C 
BRANCH   8   9
ATOM      9  C   LIG d   1      -5.004  74.967 116.701  0.00  0.00     0.028 C 
ATOM     10  C   LIG d   1      -4.899  76.055 117.783  0.00  0.00     0.006 C 
ENDBRANCH   8   9
BRANCH   8  11
ATOM     11  C   LIG d   1      -5.436  75.164 114.304  0.00  0.00     0.028 C 
ATOM     12  C   LIG d   1      -6.673  76.055 114.502  0.00  0.00     0.006 C 
ENDBRANCH   8  11
ENDBRANCH   7   8
ENDBRANCH   1   7
BRANCH   6  13
ATOM     13  N   LIG d   1      -1.905  76.819 113.655  0.00  0.00    -0.311 N 
ATOM     14  C   LIG d   1      -2.535  77.799 113.009  0.00  0.00     0.210 C 
ATOM     15  C   LIG d   1      -2.374  77.777 111.486  0.00  0.00     0.109 C 
ATOM     16  O   LIG d   1      -3.184  78.703 113.556  0.00  0.00    -0.276 OA
ATOM     17  H   LIG d   1      -1.374  76.147 113.136  0.00  0.00     0.149 HD
ENDBRANCH   6  13
BRANCH   5  18
ATOM     18  N   LIG d   1      -0.860  78.857 115.676  0.00  0.00     0.381 N 
ATOM     19  H   LIG d   1      -0.340  79.128 114.866  0.00  0.00    -0.090 HD
ATOM     20  H   LIG d   1      -0.443  79.295 116.479  0.00  0.00    -0.090 HD
ATOM     21  H   LIG d   1      -1.808  79.149 115.585  0.00  0.00    -0.090 HD
ENDBRANCH   5  18
BRANCH   3  22
ATOM     22  C   LIG d   1      -0.396  75.278 118.825  0.00  0.00     0.382 C 
ATOM     23  O   LIG d   1       0.223  74.188 118.860  0.00  0.00    -0.241 OA
ATOM     24  O   LIG d   1      -0.553  75.929 119.876  0.00  0.00    -0.241 OA
ENDBRANCH   3  22
TORSDOF 7
ENDMDL
MODEL 5
REMARK VINA RESULT:      -4.6      2.586      5.039
REMARK  7 active torsions:
REMARK  status: ('A' for Active; 'I' for Inactive)
REMARK    1  A    between atoms: C_2  and  C_3 
REMARK    2  A    between atoms: C_3  and  O_6 
REMARK    3  A    between atoms: C_3  and  C_4 
REMARK    4  A    between atoms: C_7  and  O_6 
REMARK    5  A    between atoms: C_9  and  C_10 
REMARK    6  A    between atoms: N_15  and  C_14 
REMARK    7  A    between atoms: N_20  and  C_19 
REMARK       I    between atoms: C_22  and  N_20 
ROOT
ATOM      1  C   LIG d   1      -0.533  79.416 114.549  0.00  0.00     0.161 C 
ATOM      2  C   LIG d   1      -0.665  80.691 113.975  0.00  0.00     0.016 C 
ATOM      3  C   LIG d   1      -1.212  80.913 112.690  0.00  0.00     0.038 C 
ATOM      4  C   LIG d   1      -1.808  79.882 111.949  0.00  0.00     0.028 C 
ATOM      5  C   LIG d   1      -1.244  78.502 112.271  0.00  0.00    -0.047 C 
ATOM      6  C   LIG d   1      -1.279  78.290 113.802  0.00  0.00     0.091 C 
ENDROOT
BRANCH   1   7
ATOM      7  O   LIG d   1      -0.943  79.457 115.930  0.00  0.00    -0.368 OA
BRANCH   7   8
ATOM      8  C   LIG d   1       0.115  79.335 116.912  0.00  0.00     0.119 C 
BRANCH   8   9
ATOM      9  C   LIG d   1      -0.063  77.976 117.618  0.00  0.00     0.028 C 
ATOM     10  C   LIG d   1       1.138  77.040 117.400  0.00  0.00     0.006 C 
ENDBRANCH   8   9
BRANCH   8  11
ATOM     11  C   LIG d   1      -0.026  80.387 118.017  0.00  0.00     0.028 C 
ATOM     12  C   LIG d   1       0.093  81.825 117.488  0.00  0.00     0.006 C 
ENDBRANCH   8  11
ENDBRANCH   7   8
ENDBRANCH   1   7
BRANCH   6  13
ATOM     13  N   LIG d   1      -0.667  76.998 114.209  0.00  0.00    -0.311 N 
ATOM     14  C   LIG d   1      -1.377  75.903 114.474  0.00  0.00     0.210 C 
ATOM     15  C   LIG d   1      -0.551  74.684 114.896  0.00  0.00     0.109 C 
ATOM     16  O   LIG d   1      -2.610  75.816 114.368  0.00  0.00    -0.276 OA
ATOM     17  H   LIG d   1       0.330  76.971 114.289  0.00  0.00     0.149 HD
ENDBRANCH   6  13
BRANCH   5  18
ATOM     18  N   LIG d   1      -2.047  77.509 111.531  0.00  0.00     0.381 N 
ATOM     19  H   LIG d   1      -2.754  77.975 110.998  0.00  0.00    -0.090 HD
ATOM     20  H   LIG d   1      -2.498  76.900 112.191  0.00  0.00    -0.090 HD
ATOM     21  H   LIG d   1      -1.460  76.979 110.926  0.00  0.00    -0.090 HD
ENDBRANCH   5  18
BRANCH   3  22
ATOM     22  C   LIG d   1      -1.131  82.174 112.117  0.00  0.00     0.382 C 
ATOM     23  O   LIG d   1      -0.887  82.291 110.892  0.00  0.00    -0.241 OA
ATOM     24  O   LIG d   1      -1.255  83.196 112.819  0.00  0.00    -0.241 OA
ENDBRANCH   3  22
TORSDOF 7
ENDMDL
MODEL 6
REMARK VINA RESULT:      -4.4      2.668      5.348
REMARK  7 active torsions:
REMARK  status: ('A' for Active; 'I' for Inactive)
REMARK    1  A    between atoms: C_2  and  C_3 
REMARK    2  A    between atoms: C_3  and  O_6 
REMARK    3  A    between atoms: C_3  and  C_4 
REMARK    4  A    between atoms: C_7  and  O_6 
REMARK    5  A    between atoms: C_9  and  C_10 
REMARK    6  A    between atoms: N_15  and  C_14 
REMARK    7  A    between atoms: N_20  and  C_19 
REMARK       I    between atoms: C_22  and  N_20 
ROOT
ATOM      1  C   LIG d   1      -0.912  78.882 114.401  0.00  0.00     0.161 C 
ATOM      2  C   LIG d   1      -0.447  79.957 113.625  0.00  0.00     0.016 C 
ATOM      3  C   LIG d   1      -0.920  80.239 112.323  0.00  0.00     0.038 C 
ATOM      4  C   LIG d   1      -2.006  79.550 111.764  0.00  0.00     0.028 C 
ATOM      5  C   LIG d   1      -2.171  78.134 112.307  0.00  0.00    -0.047 C 
ATOM      6  C   LIG d   1      -2.175  78.187 113.852  0.00  0.00     0.091 C 
ENDROOT
BRANCH   1   7
ATOM      7  O   LIG d   1      -1.130  79.317 115.758  0.00  0.00    -0.368 OA
BRANCH   7   8
ATOM      8  C   LIG d   1      -0.087  78.988 116.708  0.00  0.00     0.119 C 
BRANCH   8   9
ATOM      9  C   LIG d   1      -0.587  77.797 117.549  0.00  0.00     0.028 C 
ATOM     10  C   LIG d   1       0.113  76.479 117.175  0.00  0.00     0.006 C 
ENDBRANCH   8   9
BRANCH   8  11
ATOM     11  C   LIG d   1       0.136  80.126 117.709  0.00  0.00     0.028 C 
ATOM     12  C   LIG d   1       0.217  81.504 117.034  0.00  0.00     0.006 C 
ENDBRANCH   8  11
ENDBRANCH   7   8
ENDBRANCH   1   7
BRANCH   6  13
ATOM     13  N   LIG d   1      -2.248  76.835 114.465  0.00  0.00    -0.311 N 
ATOM     14  C   LIG d   1      -3.381  76.289 114.902  0.00  0.00     0.210 C 
ATOM     15  C   LIG d   1      -3.230  74.894 115.519  0.00  0.00     0.109 C 
ATOM     16  O   LIG d   1      -4.501  76.813 114.809  0.00  0.00    -0.276 OA
ATOM     17  H   LIG d   1      -1.390  76.327 114.551  0.00  0.00     0.149 HD
ENDBRANCH   6  13
BRANCH   5  18
ATOM     18  N   LIG d   1      -3.417  77.583 111.743  0.00  0.00     0.381 N 
ATOM     19  H   LIG d   1      -3.868  77.002 112.422  0.00  0.00    -0.090 HD
ATOM     20  H   LIG d   1      -3.190  77.017 110.945  0.00  0.00    -0.090 HD
ATOM     21  H   LIG d   1      -4.026  78.323 111.472  0.00  0.00    -0.090 HD
ENDBRANCH   5  18
BRANCH   3  22
ATOM     22  C   LIG d   1      -0.277  81.194 111.550  0.00  0.00     0.382 C 
ATOM     23  O   LIG d   1       0.961  81.116 111.359  0.00  0.00    -0.241 OA
ATOM     24  O   LIG d   1      -0.911  82.156 111.079  0.00  0.00    -0.241 OA
ENDBRANCH   3  22
TORSDOF 7
ENDMDL
MODEL 7
REMARK VINA RESULT:      -4.4      3.653      6.011
REMARK  7 active torsions:
REMARK  status: ('A' for Active; 'I' for Inactive)
REMARK    1  A    between atoms: C_2  and  C_3 
REMARK    2  A    between atoms: C_3  and  O_6 
REMARK    3  A    between atoms: C_3  and  C_4 
REMARK    4  A    between atoms: C_7  and  O_6 
REMARK    5  A    between atoms: C_9  and  C_10 
REMARK    6  A    between atoms: N_15  and  C_14 
REMARK    7  A    between atoms: N_20  and  C_19 
REMARK       I    between atoms: C_22  and  N_20 
ROOT
ATOM      1  C   LIG d   1      -1.926  77.177 114.677  0.00  0.00     0.161 C 
ATOM      2  C   LIG d   1      -2.203  77.105 113.302  0.00  0.00     0.016 C 
ATOM      3  C   LIG d   1      -1.820  78.104 112.377  0.00  0.00     0.038 C 
ATOM      4  C   LIG d   1      -0.995  79.178 112.745  0.00  0.00     0.028 C 
ATOM      5  C   LIG d   1      -1.114  79.556 114.218  0.00  0.00    -0.047 C 
ATOM      6  C   LIG d   1      -0.931  78.285 115.079  0.00  0.00     0.091 C 
ENDROOT
BRANCH   1   7
ATOM      7  O   LIG d   1      -1.466  75.895 115.150  0.00  0.00    -0.368 OA
BRANCH   7   8
ATOM      8  C   LIG d   1      -2.217  75.313 116.244  0.00  0.00     0.119 C 
BRANCH   8   9
ATOM      9  C   LIG d   1      -1.360  74.180 116.842  0.00  0.00     0.028 C 
ATOM     10  C   LIG d   1      -0.661  74.600 118.147  0.00  0.00     0.006 C 
ENDBRANCH   8   9
BRANCH   8  11
ATOM     11  C   LIG d   1      -3.495  74.633 115.743  0.00  0.00     0.028 C 
ATOM     12  C   LIG d   1      -4.733  75.006 116.573  0.00  0.00     0.006 C 
ENDBRANCH   8  11
ENDBRANCH   7   8
ENDBRANCH   1   7
BRANCH   6  13
ATOM     13  N   LIG d   1      -1.116  78.552 116.529  0.00  0.00    -0.311 N 
ATOM     14  C   LIG d   1      -0.213  78.232 117.455  0.00  0.00     0.210 C 
ATOM     15  C   LIG d   1      -0.611  78.576 118.893  0.00  0.00     0.109 C 
ATOM     16  O   LIG d   1       0.894  77.725 117.217  0.00  0.00    -0.276 OA
ATOM     17  H   LIG d   1      -1.973  78.989 116.807  0.00  0.00     0.149 HD
ENDBRANCH   6  13
BRANCH   5  18
ATOM     18  N   LIG d   1      -0.103  80.593 114.495  0.00  0.00     0.381 N 
ATOM     19  H   LIG d   1       0.786  80.303 114.139  0.00  0.00    -0.090 HD
ATOM     20  H   LIG d   1      -0.022  80.711 115.489  0.00  0.00    -0.090 HD
ATOM     21  H   LIG d   1      -0.373  81.454 114.072  0.00  0.00    -0.090 HD
ENDBRANCH   5  18
BRANCH   3  22
ATOM     22  C   LIG d   1      -2.297  78.056 111.076  0.00  0.00     0.382 C 
ATOM     23  O   LIG d   1      -1.666  78.629 110.156  0.00  0.00    -0.241 OA
ATOM     24  O   LIG d   1      -3.373  77.485 110.819  0.00  0.00    -0.241 OA
ENDBRANCH   3  22
TORSDOF 7
ENDMDL
MODEL 8
REMARK VINA RESULT:      -4.4      3.602      6.334
REMARK  7 active torsions:
REMARK  status: ('A' for Active; 'I' for Inactive)
REMARK    1  A    between atoms: C_2  and  C_3 
REMARK    2  A    between atoms: C_3  and  O_6 
REMARK    3  A    between atoms: C_3  and  C_4 
REMARK    4  A    between atoms: C_7  and  O_6 
REMARK    5  A    between atoms: C_9  and  C_10 
REMARK    6  A    between atoms: N_15  and  C_14 
REMARK    7  A    between atoms: N_20  and  C_19 
REMARK       I    between atoms: C_22  and  N_20 
ROOT
ATOM      1  C   LIG d   1      -2.149  77.944 114.859  0.00  0.00     0.161 C 
ATOM      2  C   LIG d   1      -2.403  78.695 113.699  0.00  0.00     0.016 C 
ATOM      3  C   LIG d   1      -1.576  79.755 113.262  0.00  0.00     0.038 C 
ATOM      4  C   LIG d   1      -0.347  80.039 113.877  0.00  0.00     0.028 C 
ATOM      5  C   LIG d   1      -0.299  79.638 115.347  0.00  0.00    -0.047 C 
ATOM      6  C   LIG d   1      -0.755  78.167 115.481  0.00  0.00     0.091 C 
ENDROOT
BRANCH   1   7
ATOM      7  O   LIG d   1      -2.361  76.544 114.591  0.00  0.00    -0.368 OA
BRANCH   7   8
ATOM      8  C   LIG d   1      -3.406  75.898 115.359  0.00  0.00     0.119 C 
BRANCH   8   9
ATOM      9  C   LIG d   1      -2.795  74.640 116.005  0.00  0.00     0.028 C 
ATOM     10  C   LIG d   1      -1.354  74.379 115.535  0.00  0.00     0.006 C 
ENDBRANCH   8   9
BRANCH   8  11
ATOM     11  C   LIG d   1      -4.528  75.385 114.452  0.00  0.00     0.028 C 
ATOM     12  C   LIG d   1      -5.923  75.567 115.070  0.00  0.00     0.006 C 
ENDBRANCH   8  11
ENDBRANCH   7   8
ENDBRANCH   1   7
BRANCH   6  13
ATOM     13  N   LIG d   1      -0.818  77.720 116.897  0.00  0.00    -0.311 N 
ATOM     14  C   LIG d   1       0.188  77.105 117.517  0.00  0.00     0.210 C 
ATOM     15  C   LIG d   1      -0.092  76.711 118.971  0.00  0.00     0.109 C 
ATOM     16  O   LIG d   1       1.298  76.878 117.011  0.00  0.00    -0.276 OA
ATOM     17  H   LIG d   1      -1.670  77.892 117.393  0.00  0.00     0.149 HD
ENDBRANCH   6  13
BRANCH   5  18
ATOM     18  N   LIG d   1       1.078  79.862 115.825  0.00  0.00     0.381 N 
ATOM     19  H   LIG d   1       1.328  79.152 116.484  0.00  0.00    -0.090 HD
ATOM     20  H   LIG d   1       1.120  80.752 116.290  0.00  0.00    -0.090 HD
ATOM     21  H   LIG d   1       1.712  79.851 115.057  0.00  0.00    -0.090 HD
ENDBRANCH   5  18
BRANCH   3  22
ATOM     22  C   LIG d   1      -1.995  80.569 112.221  0.00  0.00     0.382 C 
ATOM     23  O   LIG d   1      -3.088  81.180 112.304  0.00  0.00    -0.241 OA
ATOM     24  O   LIG d   1      -1.315  80.666 111.181  0.00  0.00    -0.241 OA
ENDBRANCH   3  22
TORSDOF 7
ENDMDL
MODEL 9
REMARK VINA RESULT:      -4.3      3.240      5.582
REMARK  7 active torsions:
REMARK  status: ('A' for Active; 'I' for Inactive)
REMARK    1  A    between atoms: C_2  and  C_3 
REMARK    2  A    between atoms: C_3  and  O_6 
REMARK    3  A    between atoms: C_3  and  C_4 
REMARK    4  A    between atoms: C_7  and  O_6 
REMARK    5  A    between atoms: C_9  and  C_10 
REMARK    6  A    between atoms: N_15  and  C_14 
REMARK    7  A    between atoms: N_20  and  C_19 
REMARK       I    between atoms: C_22  and  N_20 
ROOT
ATOM      1  C   LIG d   1       0.789  80.825 114.764  0.00  0.00     0.161 C 
ATOM      2  C   LIG d   1       0.509  81.835 113.828  0.00  0.00     0.016 C 
ATOM      3  C   LIG d   1      -0.644  81.839 113.009  0.00  0.00     0.038 C 
ATOM      4  C   LIG d   1      -1.677  80.905 113.178  0.00  0.00     0.028 C 
ATOM      5  C   LIG d   1      -1.204  79.578 113.763  0.00  0.00    -0.047 C 
ATOM      6  C   LIG d   1      -0.381  79.858 115.041  0.00  0.00     0.091 C 
ENDROOT
BRANCH   1   7
ATOM      7  O   LIG d   1       1.254  81.415 115.994  0.00  0.00    -0.368 OA
BRANCH   7   8
ATOM      8  C   LIG d   1       0.263  82.131 116.772  0.00  0.00     0.119 C 
BRANCH   8   9
ATOM      9  C   LIG d   1       0.641  83.625 116.738  0.00  0.00     0.028 C 
ATOM     10  C   LIG d   1      -0.502  84.507 116.208  0.00  0.00     0.006 C 
ENDBRANCH   8   9
BRANCH   8  11
ATOM     11  C   LIG d   1       0.319  81.732 118.249  0.00  0.00     0.028 C 
ATOM     12  C   LIG d   1      -0.893  80.894 118.686  0.00  0.00     0.006 C 
ENDBRANCH   8  11
ENDBRANCH   7   8
ENDBRANCH   1   7
BRANCH   6  13
ATOM     13  N   LIG d   1       0.191  78.618 115.629  0.00  0.00    -0.311 N 
ATOM     14  C   LIG d   1      -0.454  77.863 116.516  0.00  0.00     0.210 C 
ATOM     15  C   LIG d   1       0.324  76.639 117.011  0.00  0.00     0.109 C 
ATOM     16  O   LIG d   1      -1.610  78.072 116.916  0.00  0.00    -0.276 OA
ATOM     17  H   LIG d   1       1.112  78.357 115.337  0.00  0.00     0.149 HD
ENDBRANCH   6  13
BRANCH   5  18
ATOM     18  N   LIG d   1      -2.399  78.751 114.014  0.00  0.00     0.381 N 
ATOM     19  H   LIG d   1      -2.278  77.847 113.603  0.00  0.00    -0.090 HD
ATOM     20  H   LIG d   1      -3.194  79.189 113.584  0.00  0.00    -0.090 HD
ATOM     21  H   LIG d   1      -2.551  78.660 114.995  0.00  0.00    -0.090 HD
ENDBRANCH   5  18
BRANCH   3  22
ATOM     22  C   LIG d   1      -0.752  82.762 111.980  0.00  0.00     0.382 C 
ATOM     23  O   LIG d   1      -0.839  83.986 112.243  0.00  0.00    -0.241 OA
ATOM     24  O   LIG d   1      -0.810  82.383 110.795  0.00  0.00    -0.241 OA
ENDBRANCH   3  22
TORSDOF 7
ENDMDL
