MODEL 1
REMARK VINA RESULT:      -5.0      0.000      0.000
REMARK  7 active torsions:
REMARK  status: ('A' for Active; 'I' for Inactive)
REMARK    1  A    between atoms: C_2  and  C_3 
REMARK    2  A    between atoms: C_3  and  O_6 
REMARK    3  A    between atoms: C_3  and  C_4 
REMARK    4  A    between atoms: C_7  and  O_6 
REMARK    5  A    between atoms: C_9  and  C_10 
REMARK    6  A    between atoms: N_15  and  C_14 
REMARK    7  A    between atoms: N_20  and  C_19 
REMARK       I    between atoms: C_22  and  N_20 
ROOT
ATOM      1  C   LIG d   1      -1.398  81.048 113.816  0.00  0.00     0.161 C 
ATOM      2  C   LIG d   1      -1.175  82.326 113.275  0.00  0.00     0.016 C 
ATOM      3  C   LIG d   1      -0.503  82.546 112.050  0.00  0.00     0.038 C 
ATOM      4  C   LIG d   1      -0.140  81.488 111.204  0.00  0.00     0.028 C 
ATOM      5  C   LIG d   1       0.107  80.177 111.943  0.00  0.00    -0.047 C 
ATOM      6  C   LIG d   1      -1.107  79.879 112.853  0.00  0.00     0.091 C 
ENDROOT
BRANCH   1   7
ATOM      7  O   LIG d   1      -2.745  80.960 114.319  0.00  0.00    -0.368 OA
BRANCH   7   8
ATOM      8  C   LIG d   1      -2.885  80.906 115.760  0.00  0.00     0.119 C 
BRANCH   8   9
ATOM      9  C   LIG d   1      -1.468  80.939 116.364  0.00  0.00     0.028 C 
ATOM     10  C   LIG d   1      -1.422  81.680 117.711  0.00  0.00     0.006 C 
ENDBRANCH   8   9
BRANCH   8  11
ATOM     11  C   LIG d   1      -3.487  79.572 116.212  0.00  0.00     0.028 C 
ATOM     12  C   LIG d   1      -4.555  79.740 117.305  0.00  0.00     0.006 C 
ENDBRANCH   8  11
ENDBRANCH   7   8
ENDBRANCH   1   7
BRANCH   6  13
ATOM     13  N   LIG d   1      -0.911  78.657 113.676  0.00  0.00    -0.311 N 
ATOM     14  C   LIG d   1      -1.685  77.577 113.580  0.00  0.00     0.210 C 
ATOM     15  C   LIG d   1      -1.322  76.435 114.534  0.00  0.00     0.109 C 
ATOM     16  O   LIG d   1      -2.617  77.443 112.772  0.00  0.00    -0.276 OA
ATOM     17  H   LIG d   1      -0.158  78.667 114.335  0.00  0.00     0.149 HD
ENDBRANCH   6  13
BRANCH   5  18
ATOM     18  N   LIG d   1       0.342  79.131 110.930  0.00  0.00     0.381 N 
ATOM     19  H   LIG d   1      -0.516  78.660 110.725  0.00  0.00    -0.090 HD
ATOM     20  H   LIG d   1       0.990  78.459 111.301  0.00  0.00    -0.090 HD
ATOM     21  H   LIG d   1       0.713  79.538 110.099  0.00  0.00    -0.090 HD
ENDBRANCH   5  18
BRANCH   3  22
ATOM     22  C   LIG d   1      -0.153  83.836 111.681  0.00  0.00     0.382 C 
ATOM     23  O   LIG d   1      -0.703  84.375 110.690  0.00  0.00    -0.241 OA
ATOM     24  O   LIG d   1       0.737  84.450 112.298  0.00  0.00    -0.241 OA
ENDBRANCH   3  22
TORSDOF 7
ENDMDL
MODEL 2
REMARK VINA RESULT:      -5.0      1.617      2.374
REMARK  7 active torsions:
REMARK  status: ('A' for Active; 'I' for Inactive)
REMARK    1  A    between atoms: C_2  and  C_3 
REMARK    2  A    between atoms: C_3  and  O_6 
REMARK    3  A    between atoms: C_3  and  C_4 
REMARK    4  A    between atoms: C_7  and  O_6 
REMARK    5  A    between atoms: C_9  and  C_10 
REMARK    6  A    between atoms: N_15  and  C_14 
REMARK    7  A    between atoms: N_20  and  C_19 
REMARK       I    between atoms: C_22  and  N_20 
ROOT
ATOM      1  C   LIG d   1      -2.385  80.521 115.079  0.00  0.00     0.161 C 
ATOM      2  C   LIG d   1      -1.885  81.634 114.383  0.00  0.00     0.016 C 
ATOM      3  C   LIG d   1      -1.238  81.542 113.130  0.00  0.00     0.038 C 
ATOM      4  C   LIG d   1      -1.181  80.339 112.411  0.00  0.00     0.028 C 
ATOM      5  C   LIG d   1      -1.225  79.100 113.299  0.00  0.00    -0.047 C 
ATOM      6  C   LIG d   1      -2.431  79.214 114.260  0.00  0.00     0.091 C 
ENDROOT
BRANCH   1   7
ATOM      7  O   LIG d   1      -3.689  80.823 115.613  0.00  0.00    -0.368 OA
BRANCH   7   8
ATOM      8  C   LIG d   1      -3.869  80.581 117.030  0.00  0.00     0.119 C 
BRANCH   8   9
ATOM      9  C   LIG d   1      -4.848  81.645 117.561  0.00  0.00     0.028 C 
ATOM     10  C   LIG d   1      -6.199  81.042 117.984  0.00  0.00     0.006 C 
ENDBRANCH   8   9
BRANCH   8  11
ATOM     11  C   LIG d   1      -2.567  80.806 117.804  0.00  0.00     0.028 C 
ATOM     12  C   LIG d   1      -2.654  81.983 118.788  0.00  0.00     0.006 C 
ENDBRANCH   8  11
ENDBRANCH   7   8
ENDBRANCH   1   7
BRANCH   6  13
ATOM     13  N   LIG d   1      -2.499  78.083 115.221  0.00  0.00    -0.311 N 
ATOM     14  C   LIG d   1      -3.285  77.021 115.050  0.00  0.00     0.210 C 
ATOM     15  C   LIG d   1      -3.217  75.979 116.170  0.00  0.00     0.109 C 
ATOM     16  O   LIG d   1      -4.009  76.829 114.061  0.00  0.00    -0.276 OA
ATOM     17  H   LIG d   1      -1.921  78.142 116.036  0.00  0.00     0.149 HD
ENDBRANCH   6  13
BRANCH   5  18
ATOM     18  N   LIG d   1      -1.298  77.921 112.416  0.00  0.00     0.381 N 
ATOM     19  H   LIG d   1      -0.567  77.962 111.735  0.00  0.00    -0.090 HD
ATOM     20  H   LIG d   1      -2.179  77.930 111.934  0.00  0.00    -0.090 HD
ATOM     21  H   LIG d   1      -1.214  77.087 112.954  0.00  0.00    -0.090 HD
ENDBRANCH   5  18
BRANCH   3  22
ATOM     22  C   LIG d   1      -0.603  82.656 112.600  0.00  0.00     0.382 C 
ATOM     23  O   LIG d   1      -0.926  83.081 111.465  0.00  0.00    -0.241 OA
ATOM     24  O   LIG d   1       0.318  83.215 113.225  0.00  0.00    -0.241 OA
ENDBRANCH   3  22
TORSDOF 7
ENDMDL
MODEL 3
REMARK VINA RESULT:      -4.9      1.639      2.034
REMARK  7 active torsions:
REMARK  status: ('A' for Active; 'I' for Inactive)
REMARK    1  A    between atoms: C_2  and  C_3 
REMARK    2  A    between atoms: C_3  and  O_6 
REMARK    3  A    between atoms: C_3  and  C_4 
REMARK    4  A    between atoms: C_7  and  O_6 
REMARK    5  A    between atoms: C_9  and  C_10 
REMARK    6  A    between atoms: N_15  and  C_14 
REMARK    7  A    between atoms: N_20  and  C_19 
REMARK       I    between atoms: C_22  and  N_20 
ROOT
ATOM      1  C   LIG d   1      -0.252  79.821 115.102  0.00  0.00     0.161 C 
ATOM      2  C   LIG d   1      -0.217  81.121 114.571  0.00  0.00     0.016 C 
ATOM      3  C   LIG d   1      -0.776  81.465 113.319  0.00  0.00     0.038 C 
ATOM      4  C   LIG d   1      -1.546  80.558 112.576  0.00  0.00     0.028 C 
ATOM      5  C   LIG d   1      -1.180  79.101 112.833  0.00  0.00    -0.047 C 
ATOM      6  C   LIG d   1      -1.185  78.843 114.357  0.00  0.00     0.091 C 
ENDROOT
BRANCH   1   7
ATOM      7  O   LIG d   1      -0.595  79.873 116.501  0.00  0.00    -0.368 OA
BRANCH   7   8
ATOM      8  C   LIG d   1      -1.158  81.123 116.973  0.00  0.00     0.119 C 
BRANCH   8   9
ATOM      9  C   LIG d   1      -0.281  81.613 118.141  0.00  0.00     0.028 C 
ATOM     10  C   LIG d   1      -0.069  83.137 118.116  0.00  0.00     0.006 C 
ENDBRANCH   8   9
BRANCH   8  11
ATOM     11  C   LIG d   1      -2.552  80.915 117.572  0.00  0.00     0.028 C 
ATOM     12  C   LIG d   1      -3.664  80.925 116.511  0.00  0.00     0.006 C 
ENDBRANCH   8  11
ENDBRANCH   7   8
ENDBRANCH   1   7
BRANCH   6  13
ATOM     13  N   LIG d   1      -0.755  77.462 114.700  0.00  0.00    -0.311 N 
ATOM     14  C   LIG d   1      -1.601  76.441 114.826  0.00  0.00     0.210 C 
ATOM     15  C   LIG d   1      -0.952  75.106 115.204  0.00  0.00     0.109 C 
ATOM     16  O   LIG d   1      -2.824  76.507 114.629  0.00  0.00    -0.276 OA
ATOM     17  H   LIG d   1       0.224  77.312 114.847  0.00  0.00     0.149 HD
ENDBRANCH   6  13
BRANCH   5  18
ATOM     18  N   LIG d   1      -2.149  78.262 112.102  0.00  0.00     0.381 N 
ATOM     19  H   LIG d   1      -2.855  77.935 112.731  0.00  0.00    -0.090 HD
ATOM     20  H   LIG d   1      -1.669  77.465 111.724  0.00  0.00    -0.090 HD
ATOM     21  H   LIG d   1      -2.567  78.788 111.366  0.00  0.00    -0.090 HD
ENDBRANCH   5  18
BRANCH   3  22
ATOM     22  C   LIG d   1      -0.532  82.719 112.780  0.00  0.00     0.382 C 
ATOM     23  O   LIG d   1      -1.253  83.152 111.848  0.00  0.00    -0.241 OA
ATOM     24  O   LIG d   1       0.427  83.405 113.182  0.00  0.00    -0.241 OA
ENDBRANCH   3  22
TORSDOF 7
ENDMDL
MODEL 4
REMARK VINA RESULT:      -4.7      2.455      3.305
REMARK  7 active torsions:
REMARK  status: ('A' for Active; 'I' for Inactive)
REMARK    1  A    between atoms: C_2  and  C_3 
REMARK    2  A    between atoms: C_3  and  O_6 
REMARK    3  A    between atoms: C_3  and  C_4 
REMARK    4  A    between atoms: C_7  and  O_6 
REMARK    5  A    between atoms: C_9  and  C_10 
REMARK    6  A    between atoms: N_15  and  C_14 
REMARK    7  A    between atoms: N_20  and  C_19 
REMARK       I    between atoms: C_22  and  N_20 
ROOT
ATOM      1  C   LIG d   1      -0.816  80.113 116.278  0.00  0.00     0.161 C 
ATOM      2  C   LIG d   1      -1.419  81.041 115.412  0.00  0.00     0.016 C 
ATOM      3  C   LIG d   1      -1.928  80.700 114.138  0.00  0.00     0.038 C 
ATOM      4  C   LIG d   1      -2.004  79.369 113.702  0.00  0.00     0.028 C 
ATOM      5  C   LIG d   1      -0.949  78.465 114.330  0.00  0.00    -0.047 C 
ATOM      6  C   LIG d   1      -0.991  78.637 115.866  0.00  0.00     0.091 C 
ENDROOT
BRANCH   1   7
ATOM      7  O   LIG d   1      -1.293  80.318 117.622  0.00  0.00    -0.368 OA
BRANCH   7   8
ATOM      8  C   LIG d   1      -2.221  81.415 117.810  0.00  0.00     0.119 C 
BRANCH   8   9
ATOM      9  C   LIG d   1      -1.726  82.240 119.013  0.00  0.00     0.028 C 
ATOM     10  C   LIG d   1      -0.667  83.281 118.615  0.00  0.00     0.006 C 
ENDBRANCH   8   9
BRANCH   8  11
ATOM     11  C   LIG d   1      -3.609  80.907 118.209  0.00  0.00     0.028 C 
ATOM     12  C   LIG d   1      -4.737  81.546 117.384  0.00  0.00     0.006 C 
ENDBRANCH   8  11
ENDBRANCH   7   8
ENDBRANCH   1   7
BRANCH   6  13
ATOM     13  N   LIG d   1       0.066  77.850 116.553  0.00  0.00    -0.311 N 
ATOM     14  C   LIG d   1      -0.116  76.607 116.997  0.00  0.00     0.210 C 
ATOM     15  C   LIG d   1       1.098  75.985 117.694  0.00  0.00     0.109 C 
ATOM     16  O   LIG d   1      -1.157  75.950 116.850  0.00  0.00    -0.276 OA
ATOM     17  H   LIG d   1       0.953  78.296 116.686  0.00  0.00     0.149 HD
ENDBRANCH   6  13
BRANCH   5  18
ATOM     18  N   LIG d   1      -1.231  77.083 113.895  0.00  0.00     0.381 N 
ATOM     19  H   LIG d   1      -0.668  76.442 114.419  0.00  0.00    -0.090 HD
ATOM     20  H   LIG d   1      -0.990  76.993 112.924  0.00  0.00    -0.090 HD
ATOM     21  H   LIG d   1      -2.196  76.874 114.027  0.00  0.00    -0.090 HD
ENDBRANCH   5  18
BRANCH   3  22
ATOM     22  C   LIG d   1      -2.330  81.702 113.268  0.00  0.00     0.382 C 
ATOM     23  O   LIG d   1      -3.417  82.300 113.460  0.00  0.00    -0.241 OA
ATOM     24  O   LIG d   1      -1.642  81.986 112.269  0.00  0.00    -0.241 OA
ENDBRANCH   3  22
TORSDOF 7
ENDMDL
MODEL 5
REMARK VINA RESULT:      -4.6      1.849      5.093
REMARK  7 active torsions:
REMARK  status: ('A' for Active; 'I' for Inactive)
REMARK    1  A    between atoms: C_2  and  C_3 
REMARK    2  A    between atoms: C_3  and  O_6 
REMARK    3  A    between atoms: C_3  and  C_4 
REMARK    4  A    between atoms: C_7  and  O_6 
REMARK    5  A    between atoms: C_9  and  C_10 
REMARK    6  A    between atoms: N_15  and  C_14 
REMARK    7  A    between atoms: N_20  and  C_19 
REMARK       I    between atoms: C_22  and  N_20 
ROOT
ATOM      1  C   LIG d   1      -2.021  80.767 114.461  0.00  0.00     0.161 C 
ATOM      2  C   LIG d   1      -2.497  79.518 114.895  0.00  0.00     0.016 C 
ATOM      3  C   LIG d   1      -2.427  78.343 114.112  0.00  0.00     0.038 C 
ATOM      4  C   LIG d   1      -1.734  78.306 112.892  0.00  0.00     0.028 C 
ATOM      5  C   LIG d   1      -1.678  79.656 112.186  0.00  0.00    -0.047 C 
ATOM      6  C   LIG d   1      -1.162  80.721 113.180  0.00  0.00     0.091 C 
ENDROOT
BRANCH   1   7
ATOM      7  O   LIG d   1      -1.296  81.410 115.528  0.00  0.00    -0.368 OA
BRANCH   7   8
ATOM      8  C   LIG d   1      -0.235  80.634 116.137  0.00  0.00     0.119 C 
BRANCH   8   9
ATOM      9  C   LIG d   1      -0.382  80.769 117.665  0.00  0.00     0.028 C 
ATOM     10  C   LIG d   1      -1.604  81.612 118.065  0.00  0.00     0.006 C 
ENDBRANCH   8   9
BRANCH   8  11
ATOM     11  C   LIG d   1       1.142  81.218 115.809  0.00  0.00     0.028 C 
ATOM     12  C   LIG d   1       1.105  82.736 115.572  0.00  0.00     0.006 C 
ENDBRANCH   8  11
ENDBRANCH   7   8
ENDBRANCH   1   7
BRANCH   6  13
ATOM     13  N   LIG d   1      -1.156  82.087 112.594  0.00  0.00    -0.311 N 
ATOM     14  C   LIG d   1      -0.079  82.645 112.045  0.00  0.00     0.210 C 
ATOM     15  C   LIG d   1      -0.284  84.068 111.518  0.00  0.00     0.109 C 
ATOM     16  O   LIG d   1       1.019  82.083 111.914  0.00  0.00    -0.276 OA
ATOM     17  H   LIG d   1      -2.014  82.603 112.630  0.00  0.00     0.149 HD
ENDBRANCH   6  13
BRANCH   5  18
ATOM     18  N   LIG d   1      -0.812  79.503 111.001  0.00  0.00     0.381 N 
ATOM     19  H   LIG d   1      -1.274  78.943 110.314  0.00  0.00    -0.090 HD
ATOM     20  H   LIG d   1       0.033  79.034 111.275  0.00  0.00    -0.090 HD
ATOM     21  H   LIG d   1      -0.595  80.398 110.620  0.00  0.00    -0.090 HD
ENDBRANCH   5  18
BRANCH   3  22
ATOM     22  C   LIG d   1      -3.089  77.199 114.529  0.00  0.00     0.382 C 
ATOM     23  O   LIG d   1      -2.759  76.080 114.066  0.00  0.00    -0.241 OA
ATOM     24  O   LIG d   1      -4.041  77.276 115.328  0.00  0.00    -0.241 OA
ENDBRANCH   3  22
TORSDOF 7
ENDMDL
MODEL 6
REMARK VINA RESULT:      -4.6      3.126      5.467
REMARK  7 active torsions:
REMARK  status: ('A' for Active; 'I' for Inactive)
REMARK    1  A    between atoms: C_2  and  C_3 
REMARK    2  A    between atoms: C_3  and  O_6 
REMARK    3  A    between atoms: C_3  and  C_4 
REMARK    4  A    between atoms: C_7  and  O_6 
REMARK    5  A    between atoms: C_9  and  C_10 
REMARK    6  A    between atoms: N_15  and  C_14 
REMARK    7  A    between atoms: N_20  and  C_19 
REMARK       I    between atoms: C_22  and  N_20 
ROOT
ATOM      1  C   LIG d   1      -2.741  77.996 115.407  0.00  0.00     0.161 C 
ATOM      2  C   LIG d   1      -2.461  78.826 114.309  0.00  0.00     0.016 C 
ATOM      3  C   LIG d   1      -2.504  80.238 114.369  0.00  0.00     0.038 C 
ATOM      4  C   LIG d   1      -2.686  80.923 115.580  0.00  0.00     0.028 C 
ATOM      5  C   LIG d   1      -3.472  80.126 116.615  0.00  0.00    -0.047 C 
ATOM      6  C   LIG d   1      -2.832  78.727 116.763  0.00  0.00     0.091 C 
ENDROOT
BRANCH   1   7
ATOM      7  O   LIG d   1      -1.772  76.932 115.475  0.00  0.00    -0.368 OA
BRANCH   7   8
ATOM      8  C   LIG d   1      -2.094  75.728 114.735  0.00  0.00     0.119 C 
BRANCH   8   9
ATOM      9  C   LIG d   1      -3.398  75.157 115.325  0.00  0.00     0.028 C 
ATOM     10  C   LIG d   1      -4.414  74.769 114.238  0.00  0.00     0.006 C 
ENDBRANCH   8   9
BRANCH   8  11
ATOM     11  C   LIG d   1      -1.039  74.640 114.955  0.00  0.00     0.028 C 
ATOM     12  C   LIG d   1      -0.952  74.181 116.419  0.00  0.00     0.006 C 
ENDBRANCH   8  11
ENDBRANCH   7   8
ENDBRANCH   1   7
BRANCH   6  13
ATOM     13  N   LIG d   1      -3.590  77.852 117.695  0.00  0.00    -0.311 N 
ATOM     14  C   LIG d   1      -3.019  77.161 118.680  0.00  0.00     0.210 C 
ATOM     15  C   LIG d   1      -3.981  76.306 119.512  0.00  0.00     0.109 C 
ATOM     16  O   LIG d   1      -1.813  77.199 118.964  0.00  0.00    -0.276 OA
ATOM     17  H   LIG d   1      -4.580  77.787 117.556  0.00  0.00     0.149 HD
ENDBRANCH   6  13
BRANCH   5  18
ATOM     18  N   LIG d   1      -3.467  80.900 117.871  0.00  0.00     0.381 N 
ATOM     19  H   LIG d   1      -2.544  80.916 118.255  0.00  0.00    -0.090 HD
ATOM     20  H   LIG d   1      -4.076  80.450 118.532  0.00  0.00    -0.090 HD
ATOM     21  H   LIG d   1      -3.780  81.830 117.699  0.00  0.00    -0.090 HD
ENDBRANCH   5  18
BRANCH   3  22
ATOM     22  C   LIG d   1      -2.405  80.979 113.201  0.00  0.00     0.382 C 
ATOM     23  O   LIG d   1      -1.405  80.845 112.456  0.00  0.00    -0.241 OA
ATOM     24  O   LIG d   1      -3.283  81.812 112.906  0.00  0.00    -0.241 OA
ENDBRANCH   3  22
TORSDOF 7
ENDMDL
MODEL 7
REMARK VINA RESULT:      -4.5      2.355      3.641
REMARK  7 active torsions:
REMARK  status: ('A' for Active; 'I' for Inactive)
REMARK    1  A    between atoms: C_2  and  C_3 
REMARK    2  A    between atoms: C_3  and  O_6 
REMARK    3  A    between atoms: C_3  and  C_4 
REMARK    4  A    between atoms: C_7  and  O_6 
REMARK    5  A    between atoms: C_9  and  C_10 
REMARK    6  A    between atoms: N_15  and  C_14 
REMARK    7  A    between atoms: N_20  and  C_19 
REMARK       I    between atoms: C_22  and  N_20 
ROOT
ATOM      1  C   LIG d   1      -2.942  79.800 115.957  0.00  0.00     0.161 C 
ATOM      2  C   LIG d   1      -2.623  80.740 114.962  0.00  0.00     0.016 C 
ATOM      3  C   LIG d   1      -1.767  80.458 113.872  0.00  0.00     0.038 C 
ATOM      4  C   LIG d   1      -1.289  79.164 113.620  0.00  0.00     0.028 C 
ATOM      5  C   LIG d   1      -1.176  78.304 114.874  0.00  0.00    -0.047 C 
ATOM      6  C   LIG d   1      -2.519  78.351 115.637  0.00  0.00     0.091 C 
ENDROOT
BRANCH   1   7
ATOM      7  O   LIG d   1      -4.352  79.858 116.249  0.00  0.00    -0.368 OA
BRANCH   7   8
ATOM      8  C   LIG d   1      -4.708  80.208 117.609  0.00  0.00     0.119 C 
BRANCH   8   9
ATOM      9  C   LIG d   1      -5.965  79.398 117.982  0.00  0.00     0.028 C 
ATOM     10  C   LIG d   1      -6.035  78.051 117.243  0.00  0.00     0.006 C 
ENDBRANCH   8   9
BRANCH   8  11
ATOM     11  C   LIG d   1      -5.126  81.677 117.716  0.00  0.00     0.028 C 
ATOM     12  C   LIG d   1      -6.643  81.854 117.886  0.00  0.00     0.006 C 
ENDBRANCH   8  11
ENDBRANCH   7   8
ENDBRANCH   1   7
BRANCH   6  13
ATOM     13  N   LIG d   1      -2.468  77.604 116.921  0.00  0.00    -0.311 N 
ATOM     14  C   LIG d   1      -2.841  76.331 117.044  0.00  0.00     0.210 C 
ATOM     15  C   LIG d   1      -2.727  75.759 118.461  0.00  0.00     0.109 C 
ATOM     16  O   LIG d   1      -3.224  75.613 116.109  0.00  0.00    -0.276 OA
ATOM     17  H   LIG d   1      -2.140  78.102 117.726  0.00  0.00     0.149 HD
ENDBRANCH   6  13
BRANCH   5  18
ATOM     18  N   LIG d   1      -0.800  76.943 114.449  0.00  0.00     0.381 N 
ATOM     19  H   LIG d   1      -0.408  76.971 113.529  0.00  0.00    -0.090 HD
ATOM     20  H   LIG d   1      -1.625  76.371 114.423  0.00  0.00    -0.090 HD
ATOM     21  H   LIG d   1      -0.140  76.556 115.088  0.00  0.00    -0.090 HD
ENDBRANCH   5  18
BRANCH   3  22
ATOM     22  C   LIG d   1      -1.348  81.488 113.044  0.00  0.00     0.382 C 
ATOM     23  O   LIG d   1      -2.181  82.317 112.603  0.00  0.00    -0.241 OA
ATOM     24  O   LIG d   1      -0.156  81.574 112.695  0.00  0.00    -0.241 OA
ENDBRANCH   3  22
TORSDOF 7
ENDMDL
MODEL 8
REMARK VINA RESULT:      -4.4      2.463      3.593
REMARK  7 active torsions:
REMARK  status: ('A' for Active; 'I' for Inactive)
REMARK    1  A    between atoms: C_2  and  C_3 
REMARK    2  A    between atoms: C_3  and  O_6 
REMARK    3  A    between atoms: C_3  and  C_4 
REMARK    4  A    between atoms: C_7  and  O_6 
REMARK    5  A    between atoms: C_9  and  C_10 
REMARK    6  A    between atoms: N_15  and  C_14 
REMARK    7  A    between atoms: N_20  and  C_19 
REMARK       I    between atoms: C_22  and  N_20 
ROOT
ATOM      1  C   LIG d   1      -2.080  79.671 116.451  0.00  0.00     0.161 C 
ATOM      2  C   LIG d   1      -2.361  80.621 115.455  0.00  0.00     0.016 C 
ATOM      3  C   LIG d   1      -2.252  80.352 114.071  0.00  0.00     0.038 C 
ATOM      4  C   LIG d   1      -1.999  79.061 113.584  0.00  0.00     0.028 C 
ATOM      5  C   LIG d   1      -1.214  78.190 114.559  0.00  0.00    -0.047 C 
ATOM      6  C   LIG d   1      -1.910  78.226 115.938  0.00  0.00     0.091 C 
ENDROOT
BRANCH   1   7
ATOM      7  O   LIG d   1      -3.093  79.724 117.475  0.00  0.00    -0.368 OA
BRANCH   7   8
ATOM      8  C   LIG d   1      -4.418  79.286 117.084  0.00  0.00     0.119 C 
BRANCH   8   9
ATOM      9  C   LIG d   1      -5.433  80.245 117.736  0.00  0.00     0.028 C 
ATOM     10  C   LIG d   1      -4.973  81.711 117.684  0.00  0.00     0.006 C 
ENDBRANCH   8   9
BRANCH   8  11
ATOM     11  C   LIG d   1      -4.740  77.903 117.657  0.00  0.00     0.028 C 
ATOM     12  C   LIG d   1      -5.409  76.974 116.632  0.00  0.00     0.006 C 
ENDBRANCH   8  11
ENDBRANCH   7   8
ENDBRANCH   1   7
BRANCH   6  13
ATOM     13  N   LIG d   1      -1.160  77.467 116.972  0.00  0.00    -0.311 N 
ATOM     14  C   LIG d   1      -1.389  76.184 117.250  0.00  0.00     0.210 C 
ATOM     15  C   LIG d   1      -0.517  75.599 118.365  0.00  0.00     0.109 C 
ATOM     16  O   LIG d   1      -2.208  75.467 116.656  0.00  0.00    -0.276 OA
ATOM     17  H   LIG d   1      -0.455  77.963 117.481  0.00  0.00     0.149 HD
ENDBRANCH   6  13
BRANCH   5  18
ATOM     18  N   LIG d   1      -1.140  76.833 113.984  0.00  0.00     0.381 N 
ATOM     19  H   LIG d   1      -0.517  76.830 113.201  0.00  0.00    -0.090 HD
ATOM     20  H   LIG d   1      -2.054  76.567 113.660  0.00  0.00    -0.090 HD
ATOM     21  H   LIG d   1      -0.823  76.187 114.673  0.00  0.00    -0.090 HD
ENDBRANCH   5  18
BRANCH   3  22
ATOM     22  C   LIG d   1      -2.358  81.391 113.159  0.00  0.00     0.382 C 
ATOM     23  O   LIG d   1      -3.479  81.896 112.911  0.00  0.00    -0.241 OA
ATOM     24  O   LIG d   1      -1.352  81.800 112.548  0.00  0.00    -0.241 OA
ENDBRANCH   3  22
TORSDOF 7
ENDMDL
MODEL 9
REMARK VINA RESULT:      -4.3      2.104      2.888
REMARK  7 active torsions:
REMARK  status: ('A' for Active; 'I' for Inactive)
REMARK    1  A    between atoms: C_2  and  C_3 
REMARK    2  A    between atoms: C_3  and  O_6 
REMARK    3  A    between atoms: C_3  and  C_4 
REMARK    4  A    between atoms: C_7  and  O_6 
REMARK    5  A    between atoms: C_9  and  C_10 
REMARK    6  A    between atoms: N_15  and  C_14 
REMARK    7  A    between atoms: N_20  and  C_19 
REMARK       I    between atoms: C_22  and  N_20 
ROOT
ATOM      1  C   LIG d   1      -0.381  79.759 115.195  0.00  0.00     0.161 C 
ATOM      2  C   LIG d   1      -0.329  81.062 114.670  0.00  0.00     0.016 C 
ATOM      3  C   LIG d   1      -0.792  81.399 113.378  0.00  0.00     0.038 C 
ATOM      4  C   LIG d   1      -1.483  80.479 112.574  0.00  0.00     0.028 C 
ATOM      5  C   LIG d   1      -1.110  79.028 112.858  0.00  0.00    -0.047 C 
ATOM      6  C   LIG d   1      -1.232  78.766 114.376  0.00  0.00     0.091 C 
ENDROOT
BRANCH   1   7
ATOM      7  O   LIG d   1      -0.837  79.801 116.562  0.00  0.00    -0.368 OA
BRANCH   7   8
ATOM      8  C   LIG d   1       0.179  79.620 117.578  0.00  0.00     0.119 C 
BRANCH   8   9
ATOM      9  C   LIG d   1      -0.053  78.240 118.224  0.00  0.00     0.028 C 
ATOM     10  C   LIG d   1       1.037  77.224 117.846  0.00  0.00     0.006 C 
ENDBRANCH   8   9
BRANCH   8  11
ATOM     11  C   LIG d   1       0.017  80.633 118.716  0.00  0.00     0.028 C 
ATOM     12  C   LIG d   1      -0.597  81.961 118.247  0.00  0.00     0.006 C 
ENDBRANCH   8  11
ENDBRANCH   7   8
ENDBRANCH   1   7
BRANCH   6  13
ATOM     13  N   LIG d   1      -0.804  77.393 114.751  0.00  0.00    -0.311 N 
ATOM     14  C   LIG d   1      -1.647  76.367 114.862  0.00  0.00     0.210 C 
ATOM     15  C   LIG d   1      -1.001  75.042 115.279  0.00  0.00     0.109 C 
ATOM     16  O   LIG d   1      -2.863  76.422 114.625  0.00  0.00    -0.276 OA
ATOM     17  H   LIG d   1       0.171  77.252 114.930  0.00  0.00     0.149 HD
ENDBRANCH   6  13
BRANCH   5  18
ATOM     18  N   LIG d   1      -2.001  78.173 112.050  0.00  0.00     0.381 N 
ATOM     19  H   LIG d   1      -1.673  77.228 112.070  0.00  0.00    -0.090 HD
ATOM     20  H   LIG d   1      -1.983  78.494 111.098  0.00  0.00    -0.090 HD
ATOM     21  H   LIG d   1      -2.930  78.217 112.406  0.00  0.00    -0.090 HD
ENDBRANCH   5  18
BRANCH   3  22
ATOM     22  C   LIG d   1      -0.531  82.659 112.861  0.00  0.00     0.382 C 
ATOM     23  O   LIG d   1       0.405  83.348 113.333  0.00  0.00    -0.241 OA
ATOM     24  O   LIG d   1      -1.247  83.133 111.960  0.00  0.00    -0.241 OA
ENDBRANCH   3  22
TORSDOF 7
ENDMDL
