MODEL 1
REMARK VINA RESULT:      -5.1      0.000      0.000
REMARK  7 active torsions:
REMARK  status: ('A' for Active; 'I' for Inactive)
REMARK    1  A    between atoms: C_2  and  C_3 
REMARK    2  A    between atoms: C_3  and  O_6 
REMARK    3  A    between atoms: C_3  and  C_4 
REMARK    4  A    between atoms: C_7  and  O_6 
REMARK    5  A    between atoms: C_9  and  C_10 
REMARK    6  A    between atoms: N_15  and  C_14 
REMARK    7  A    between atoms: N_20  and  C_19 
REMARK       I    between atoms: C_22  and  N_20 
ROOT
ATOM      1  C   LIG d   1      -1.276  81.207 112.042  0.00  0.00     0.161 C 
ATOM      2  C   LIG d   1      -1.996  80.096 112.511  0.00  0.00     0.016 C 
ATOM      3  C   LIG d   1      -1.806  78.783 112.024  0.00  0.00     0.038 C 
ATOM      4  C   LIG d   1      -0.769  78.465 111.134  0.00  0.00     0.028 C 
ATOM      5  C   LIG d   1      -0.346  79.637 110.254  0.00  0.00    -0.047 C 
ATOM      6  C   LIG d   1      -0.063  80.863 111.152  0.00  0.00     0.091 C 
ENDROOT
BRANCH   1   7
ATOM      7  O   LIG d   1      -0.864  82.028 113.153  0.00  0.00    -0.368 OA
BRANCH   7   8
ATOM      8  C   LIG d   1       0.416  81.701 113.747  0.00  0.00     0.119 C 
BRANCH   8   9
ATOM      9  C   LIG d   1       0.141  80.837 114.993  0.00  0.00     0.028 C 
ATOM     10  C   LIG d   1       0.805  79.452 114.906  0.00  0.00     0.006 C 
ENDBRANCH   8   9
BRANCH   8  11
ATOM     11  C   LIG d   1       1.124  82.954 114.271  0.00  0.00     0.028 C 
ATOM     12  C   LIG d   1       0.564  84.251 113.666  0.00  0.00     0.006 C 
ENDBRANCH   8  11
ENDBRANCH   7   8
ENDBRANCH   1   7
BRANCH   6  13
ATOM     13  N   LIG d   1       0.275  82.076 110.363  0.00  0.00    -0.311 N 
ATOM     14  C   LIG d   1       1.468  82.668 110.405  0.00  0.00     0.210 C 
ATOM     15  C   LIG d   1       1.599  83.919 109.530  0.00  0.00     0.109 C 
ATOM     16  O   LIG d   1       2.439  82.258 111.058  0.00  0.00    -0.276 OA
ATOM     17  H   LIG d   1      -0.445  82.458 109.782  0.00  0.00     0.149 HD
ENDBRANCH   6  13
BRANCH   5  18
ATOM     18  N   LIG d   1       0.831  79.207 109.475  0.00  0.00     0.381 N 
ATOM     19  H   LIG d   1       0.594  79.155 108.504  0.00  0.00    -0.090 HD
ATOM     20  H   LIG d   1       1.106  78.290 109.781  0.00  0.00    -0.090 HD
ATOM     21  H   LIG d   1       1.581  79.849 109.608  0.00  0.00    -0.090 HD
ENDBRANCH   5  18
BRANCH   3  22
ATOM     22  C   LIG d   1      -2.685  77.778 112.396  0.00  0.00     0.382 C 
ATOM     23  O   LIG d   1      -2.349  76.944 113.272  0.00  0.00    -0.241 OA
ATOM     24  O   LIG d   1      -3.792  77.667 111.836  0.00  0.00    -0.241 OA
ENDBRANCH   3  22
TORSDOF 7
ENDMDL
MODEL 2
REMARK VINA RESULT:      -4.9      2.690      5.179
REMARK  7 active torsions:
REMARK  status: ('A' for Active; 'I' for Inactive)
REMARK    1  A    between atoms: C_2  and  C_3 
REMARK    2  A    between atoms: C_3  and  O_6 
REMARK    3  A    between atoms: C_3  and  C_4 
REMARK    4  A    between atoms: C_7  and  O_6 
REMARK    5  A    between atoms: C_9  and  C_10 
REMARK    6  A    between atoms: N_15  and  C_14 
REMARK    7  A    between atoms: N_20  and  C_19 
REMARK       I    between atoms: C_22  and  N_20 
ROOT
ATOM      1  C   LIG d   1       0.047  79.325 114.219  0.00  0.00     0.161 C 
ATOM      2  C   LIG d   1      -0.239  80.624 113.768  0.00  0.00     0.016 C 
ATOM      3  C   LIG d   1      -1.004  80.895 112.610  0.00  0.00     0.038 C 
ATOM      4  C   LIG d   1      -1.666  79.879 111.905  0.00  0.00     0.028 C 
ATOM      5  C   LIG d   1      -0.992  78.516 112.030  0.00  0.00    -0.047 C 
ATOM      6  C   LIG d   1      -0.759  78.207 113.526  0.00  0.00     0.091 C 
ENDROOT
BRANCH   1   7
ATOM      7  O   LIG d   1      -0.126  79.255 115.649  0.00  0.00    -0.368 OA
BRANCH   7   8
ATOM      8  C   LIG d   1       1.089  79.189 116.435  0.00  0.00     0.119 C 
BRANCH   8   9
ATOM      9  C   LIG d   1       1.122  77.810 117.121  0.00  0.00     0.028 C 
ATOM     10  C   LIG d   1      -0.249  77.401 117.686  0.00  0.00     0.006 C 
ENDBRANCH   8   9
BRANCH   8  11
ATOM     11  C   LIG d   1       1.069  80.209 117.578  0.00  0.00     0.028 C 
ATOM     12  C   LIG d   1      -0.135  81.162 117.505  0.00  0.00     0.006 C 
ENDBRANCH   8  11
ENDBRANCH   7   8
ENDBRANCH   1   7
BRANCH   6  13
ATOM     13  N   LIG d   1      -0.028  76.930 113.733  0.00  0.00    -0.311 N 
ATOM     14  C   LIG d   1      -0.555  75.876 114.355  0.00  0.00     0.210 C 
ATOM     15  C   LIG d   1       0.377  74.666 114.480  0.00  0.00     0.109 C 
ATOM     16  O   LIG d   1      -1.716  75.817 114.786  0.00  0.00    -0.276 OA
ATOM     17  H   LIG d   1       0.910  76.880 113.387  0.00  0.00     0.149 HD
ENDBRANCH   6  13
BRANCH   5  18
ATOM     18  N   LIG d   1      -1.860  77.527 111.363  0.00  0.00     0.381 N 
ATOM     19  H   LIG d   1      -2.396  77.975 110.646  0.00  0.00    -0.090 HD
ATOM     20  H   LIG d   1      -2.496  77.145 112.040  0.00  0.00    -0.090 HD
ATOM     21  H   LIG d   1      -1.306  76.799 110.968  0.00  0.00    -0.090 HD
ENDBRANCH   5  18
BRANCH   3  22
ATOM     22  C   LIG d   1      -1.079  82.191 112.124  0.00  0.00     0.382 C 
ATOM     23  O   LIG d   1      -1.425  83.127 112.885  0.00  0.00    -0.241 OA
ATOM     24  O   LIG d   1      -0.849  82.430 110.923  0.00  0.00    -0.241 OA
ENDBRANCH   3  22
TORSDOF 7
ENDMDL
MODEL 3
REMARK VINA RESULT:      -4.9      4.652      7.326
REMARK  7 active torsions:
REMARK  status: ('A' for Active; 'I' for Inactive)
REMARK    1  A    between atoms: C_2  and  C_3 
REMARK    2  A    between atoms: C_3  and  O_6 
REMARK    3  A    between atoms: C_3  and  C_4 
REMARK    4  A    between atoms: C_7  and  O_6 
REMARK    5  A    between atoms: C_9  and  C_10 
REMARK    6  A    between atoms: N_15  and  C_14 
REMARK    7  A    between atoms: N_20  and  C_19 
REMARK       I    between atoms: C_22  and  N_20 
ROOT
ATOM      1  C   LIG d   1      -2.355  75.620 115.137  0.00  0.00     0.161 C 
ATOM      2  C   LIG d   1      -2.280  75.169 116.465  0.00  0.00     0.016 C 
ATOM      3  C   LIG d   1      -1.533  75.827 117.470  0.00  0.00     0.038 C 
ATOM      4  C   LIG d   1      -0.929  77.073 117.247  0.00  0.00     0.028 C 
ATOM      5  C   LIG d   1      -0.556  77.314 115.788  0.00  0.00    -0.047 C 
ATOM      6  C   LIG d   1      -1.793  77.037 114.903  0.00  0.00     0.091 C 
ENDROOT
BRANCH   1   7
ATOM      7  O   LIG d   1      -3.715  75.536 114.668  0.00  0.00    -0.368 OA
BRANCH   7   8
ATOM      8  C   LIG d   1      -4.733  75.386 115.689  0.00  0.00     0.119 C 
BRANCH   8   9
ATOM      9  C   LIG d   1      -5.794  74.410 115.144  0.00  0.00     0.028 C 
ATOM     10  C   LIG d   1      -6.945  74.180 116.138  0.00  0.00     0.006 C 
ENDBRANCH   8   9
BRANCH   8  11
ATOM     11  C   LIG d   1      -5.478  76.702 115.931  0.00  0.00     0.028 C 
ATOM     12  C   LIG d   1      -5.182  77.309 117.311  0.00  0.00     0.006 C 
ENDBRANCH   8  11
ENDBRANCH   7   8
ENDBRANCH   1   7
BRANCH   6  13
ATOM     13  N   LIG d   1      -1.492  77.168 113.453  0.00  0.00    -0.311 N 
ATOM     14  C   LIG d   1      -2.201  77.931 112.623  0.00  0.00     0.210 C 
ATOM     15  C   LIG d   1      -1.734  77.908 111.164  0.00  0.00     0.109 C 
ATOM     16  O   LIG d   1      -3.153  78.650 112.963  0.00  0.00    -0.276 OA
ATOM     17  H   LIG d   1      -0.717  76.643 113.099  0.00  0.00     0.149 HD
ENDBRANCH   6  13
BRANCH   5  18
ATOM     18  N   LIG d   1      -0.064  78.700 115.677  0.00  0.00     0.381 N 
ATOM     19  H   LIG d   1      -0.234  79.189 116.533  0.00  0.00    -0.090 HD
ATOM     20  H   LIG d   1      -0.567  79.166 114.942  0.00  0.00    -0.090 HD
ATOM     21  H   LIG d   1       0.912  78.700 115.474  0.00  0.00    -0.090 HD
ENDBRANCH   5  18
BRANCH   3  22
ATOM     22  C   LIG d   1      -1.353  75.217 118.702  0.00  0.00     0.382 C 
ATOM     23  O   LIG d   1      -2.054  75.566 119.682  0.00  0.00    -0.241 OA
ATOM     24  O   LIG d   1      -0.467  74.355 118.856  0.00  0.00    -0.241 OA
ENDBRANCH   3  22
TORSDOF 7
ENDMDL
MODEL 4
REMARK VINA RESULT:      -4.7      2.656      5.230
REMARK  7 active torsions:
REMARK  status: ('A' for Active; 'I' for Inactive)
REMARK    1  A    between atoms: C_2  and  C_3 
REMARK    2  A    between atoms: C_3  and  O_6 
REMARK    3  A    between atoms: C_3  and  C_4 
REMARK    4  A    between atoms: C_7  and  O_6 
REMARK    5  A    between atoms: C_9  and  C_10 
REMARK    6  A    between atoms: N_15  and  C_14 
REMARK    7  A    between atoms: N_20  and  C_19 
REMARK       I    between atoms: C_22  and  N_20 
ROOT
ATOM      1  C   LIG d   1       0.957  80.731 114.055  0.00  0.00     0.161 C 
ATOM      2  C   LIG d   1       0.626  81.919 113.383  0.00  0.00     0.016 C 
ATOM      3  C   LIG d   1      -0.525  82.060 112.574  0.00  0.00     0.038 C 
ATOM      4  C   LIG d   1      -1.509  81.063 112.504  0.00  0.00     0.028 C 
ATOM      5  C   LIG d   1      -0.970  79.660 112.762  0.00  0.00    -0.047 C 
ATOM      6  C   LIG d   1      -0.161  79.668 114.080  0.00  0.00     0.091 C 
ENDROOT
BRANCH   1   7
ATOM      7  O   LIG d   1       1.392  81.033 115.396  0.00  0.00    -0.368 OA
BRANCH   7   8
ATOM      8  C   LIG d   1       0.366  81.496 116.309  0.00  0.00     0.119 C 
BRANCH   8   9
ATOM      9  C   LIG d   1       0.837  82.844 116.888  0.00  0.00     0.028 C 
ATOM     10  C   LIG d   1       0.015  84.031 116.356  0.00  0.00     0.006 C 
ENDBRANCH   8   9
BRANCH   8  11
ATOM     11  C   LIG d   1       0.231  80.562 117.515  0.00  0.00     0.028 C 
ATOM     12  C   LIG d   1      -0.858  81.016 118.501  0.00  0.00     0.006 C 
ENDBRANCH   8  11
ENDBRANCH   7   8
ENDBRANCH   1   7
BRANCH   6  13
ATOM     13  N   LIG d   1       0.472  78.354 114.364  0.00  0.00    -0.311 N 
ATOM     14  C   LIG d   1      -0.087  77.421 115.133  0.00  0.00     0.210 C 
ATOM     15  C   LIG d   1       0.744  76.147 115.312  0.00  0.00     0.109 C 
ATOM     16  O   LIG d   1      -1.207  77.515 115.657  0.00  0.00    -0.276 OA
ATOM     17  H   LIG d   1       1.369  78.182 113.953  0.00  0.00     0.149 HD
ENDBRANCH   6  13
BRANCH   5  18
ATOM     18  N   LIG d   1      -2.121  78.739 112.796  0.00  0.00     0.381 N 
ATOM     19  H   LIG d   1      -2.962  79.240 112.591  0.00  0.00    -0.090 HD
ATOM     20  H   LIG d   1      -2.201  78.352 113.720  0.00  0.00    -0.090 HD
ATOM     21  H   LIG d   1      -1.992  78.008 112.132  0.00  0.00    -0.090 HD
ENDBRANCH   5  18
BRANCH   3  22
ATOM     22  C   LIG d   1      -0.681  83.195 111.793  0.00  0.00     0.382 C 
ATOM     23  O   LIG d   1      -0.903  84.304 112.336  0.00  0.00    -0.241 OA
ATOM     24  O   LIG d   1      -0.646  83.116 110.550  0.00  0.00    -0.241 OA
ENDBRANCH   3  22
TORSDOF 7
ENDMDL
MODEL 5
REMARK VINA RESULT:      -4.6      1.394      2.175
REMARK  7 active torsions:
REMARK  status: ('A' for Active; 'I' for Inactive)
REMARK    1  A    between atoms: C_2  and  C_3 
REMARK    2  A    between atoms: C_3  and  O_6 
REMARK    3  A    between atoms: C_3  and  C_4 
REMARK    4  A    between atoms: C_7  and  O_6 
REMARK    5  A    between atoms: C_9  and  C_10 
REMARK    6  A    between atoms: N_15  and  C_14 
REMARK    7  A    between atoms: N_20  and  C_19 
REMARK       I    between atoms: C_22  and  N_20 
ROOT
ATOM      1  C   LIG d   1      -0.455  80.208 113.056  0.00  0.00     0.161 C 
ATOM      2  C   LIG d   1      -0.813  78.995 113.666  0.00  0.00     0.016 C 
ATOM      3  C   LIG d   1      -1.089  77.812 112.943  0.00  0.00     0.038 C 
ATOM      4  C   LIG d   1      -0.878  77.722 111.559  0.00  0.00     0.028 C 
ATOM      5  C   LIG d   1      -1.004  79.061 110.840  0.00  0.00    -0.047 C 
ATOM      6  C   LIG d   1      -0.112  80.101 111.555  0.00  0.00     0.091 C 
ENDROOT
BRANCH   1   7
ATOM      7  O   LIG d   1       0.635  80.816 113.777  0.00  0.00    -0.368 OA
BRANCH   7   8
ATOM      8  C   LIG d   1       0.268  81.778 114.795  0.00  0.00     0.119 C 
BRANCH   8   9
ATOM      9  C   LIG d   1       0.794  83.154 114.343  0.00  0.00     0.028 C 
ATOM     10  C   LIG d   1      -0.324  84.061 113.800  0.00  0.00     0.006 C 
ENDBRANCH   8   9
BRANCH   8  11
ATOM     11  C   LIG d   1       0.980  81.487 116.120  0.00  0.00     0.028 C 
ATOM     12  C   LIG d   1       0.004  81.161 117.262  0.00  0.00     0.006 C 
ENDBRANCH   8  11
ENDBRANCH   7   8
ENDBRANCH   1   7
BRANCH   6  13
ATOM     13  N   LIG d   1      -0.242  81.460 110.966  0.00  0.00    -0.311 N 
ATOM     14  C   LIG d   1       0.801  82.244 110.696  0.00  0.00     0.210 C 
ATOM     15  C   LIG d   1       0.444  83.614 110.110  0.00  0.00     0.109 C 
ATOM     16  O   LIG d   1       1.988  81.922 110.856  0.00  0.00    -0.276 OA
ATOM     17  H   LIG d   1      -1.168  81.788 110.775  0.00  0.00     0.149 HD
ENDBRANCH   6  13
BRANCH   5  18
ATOM     18  N   LIG d   1      -0.626  78.847 109.430  0.00  0.00     0.381 N 
ATOM     19  H   LIG d   1      -0.099  78.000 109.346  0.00  0.00    -0.090 HD
ATOM     20  H   LIG d   1      -0.046  79.610 109.130  0.00  0.00    -0.090 HD
ATOM     21  H   LIG d   1      -1.442  78.796 108.862  0.00  0.00    -0.090 HD
ENDBRANCH   5  18
BRANCH   3  22
ATOM     22  C   LIG d   1      -1.620  76.712 113.601  0.00  0.00     0.382 C 
ATOM     23  O   LIG d   1      -0.859  75.821 114.048  0.00  0.00    -0.241 OA
ATOM     24  O   LIG d   1      -2.853  76.579 113.713  0.00  0.00    -0.241 OA
ENDBRANCH   3  22
TORSDOF 7
ENDMDL
MODEL 6
REMARK VINA RESULT:      -4.5      2.355      5.504
REMARK  7 active torsions:
REMARK  status: ('A' for Active; 'I' for Inactive)
REMARK    1  A    between atoms: C_2  and  C_3 
REMARK    2  A    between atoms: C_3  and  O_6 
REMARK    3  A    between atoms: C_3  and  C_4 
REMARK    4  A    between atoms: C_7  and  O_6 
REMARK    5  A    between atoms: C_9  and  C_10 
REMARK    6  A    between atoms: N_15  and  C_14 
REMARK    7  A    between atoms: N_20  and  C_19 
REMARK       I    between atoms: C_22  and  N_20 
ROOT
ATOM      1  C   LIG d   1      -0.644  81.770 112.687  0.00  0.00     0.161 C 
ATOM      2  C   LIG d   1       0.231  82.642 113.355  0.00  0.00     0.016 C 
ATOM      3  C   LIG d   1       1.162  82.215 114.329  0.00  0.00     0.038 C 
ATOM      4  C   LIG d   1       1.388  80.856 114.594  0.00  0.00     0.028 C 
ATOM      5  C   LIG d   1       0.176  79.974 114.309  0.00  0.00    -0.047 C 
ATOM      6  C   LIG d   1      -0.336  80.271 112.881  0.00  0.00     0.091 C 
ENDROOT
BRANCH   1   7
ATOM      7  O   LIG d   1      -0.681  82.096 111.283  0.00  0.00    -0.368 OA
BRANCH   7   8
ATOM      8  C   LIG d   1       0.598  82.365 110.657  0.00  0.00     0.119 C 
BRANCH   8   9
ATOM      9  C   LIG d   1       0.460  83.684 109.872  0.00  0.00     0.028 C 
ATOM     10  C   LIG d   1       1.626  84.651 110.139  0.00  0.00     0.006 C 
ENDBRANCH   8   9
BRANCH   8  11
ATOM     11  C   LIG d   1       0.940  81.303 109.609  0.00  0.00     0.028 C 
ATOM     12  C   LIG d   1       2.440  80.972 109.563  0.00  0.00     0.006 C 
ENDBRANCH   8  11
ENDBRANCH   7   8
ENDBRANCH   1   7
BRANCH   6  13
ATOM     13  N   LIG d   1      -1.570  79.512 112.553  0.00  0.00    -0.311 N 
ATOM     14  C   LIG d   1      -1.625  78.574 111.608  0.00  0.00     0.210 C 
ATOM     15  C   LIG d   1      -3.001  77.928 111.417  0.00  0.00     0.109 C 
ATOM     16  O   LIG d   1      -0.658  78.194 110.932  0.00  0.00    -0.276 OA
ATOM     17  H   LIG d   1      -2.395  79.734 113.075  0.00  0.00     0.149 HD
ENDBRANCH   6  13
BRANCH   5  18
ATOM     18  N   LIG d   1       0.592  78.571 114.495  0.00  0.00     0.381 N 
ATOM     19  H   LIG d   1       1.035  78.465 115.386  0.00  0.00    -0.090 HD
ATOM     20  H   LIG d   1       1.257  78.332 113.781  0.00  0.00    -0.090 HD
ATOM     21  H   LIG d   1      -0.200  77.970 114.436  0.00  0.00    -0.090 HD
ENDBRANCH   5  18
BRANCH   3  22
ATOM     22  C   LIG d   1       1.852  83.155 115.080  0.00  0.00     0.382 C 
ATOM     23  O   LIG d   1       2.143  84.267 114.578  0.00  0.00    -0.241 OA
ATOM     24  O   LIG d   1       2.226  82.888 116.238  0.00  0.00    -0.241 OA
ENDBRANCH   3  22
TORSDOF 7
ENDMDL
MODEL 7
REMARK VINA RESULT:      -4.4      5.113      7.312
REMARK  7 active torsions:
REMARK  status: ('A' for Active; 'I' for Inactive)
REMARK    1  A    between atoms: C_2  and  C_3 
REMARK    2  A    between atoms: C_3  and  O_6 
REMARK    3  A    between atoms: C_3  and  C_4 
REMARK    4  A    between atoms: C_7  and  O_6 
REMARK    5  A    between atoms: C_9  and  C_10 
REMARK    6  A    between atoms: N_15  and  C_14 
REMARK    7  A    between atoms: N_20  and  C_19 
REMARK       I    between atoms: C_22  and  N_20 
ROOT
ATOM      1  C   LIG d   1      -2.705  75.516 115.787  0.00  0.00     0.161 C 
ATOM      2  C   LIG d   1      -3.934  75.520 115.107  0.00  0.00     0.016 C 
ATOM      3  C   LIG d   1      -5.064  76.246 115.547  0.00  0.00     0.038 C 
ATOM      4  C   LIG d   1      -4.996  77.144 116.623  0.00  0.00     0.028 C 
ATOM      5  C   LIG d   1      -3.918  76.788 117.641  0.00  0.00    -0.047 C 
ATOM      6  C   LIG d   1      -2.578  76.576 116.900  0.00  0.00     0.091 C 
ENDROOT
BRANCH   1   7
ATOM      7  O   LIG d   1      -1.624  75.648 114.843  0.00  0.00    -0.368 OA
BRANCH   7   8
ATOM      8  C   LIG d   1      -1.289  77.000 114.443  0.00  0.00     0.119 C 
BRANCH   8   9
ATOM      9  C   LIG d   1      -1.413  77.073 112.909  0.00  0.00     0.028 C 
ATOM     10  C   LIG d   1      -2.683  77.816 112.457  0.00  0.00     0.006 C 
ENDBRANCH   8   9
BRANCH   8  11
ATOM     11  C   LIG d   1       0.176  77.325 114.747  0.00  0.00     0.028 C 
ATOM     12  C   LIG d   1       0.438  78.834 114.876  0.00  0.00     0.006 C 
ENDBRANCH   8  11
ENDBRANCH   7   8
ENDBRANCH   1   7
BRANCH   6  13
ATOM     13  N   LIG d   1      -1.488  76.142 117.812  0.00  0.00    -0.311 N 
ATOM     14  C   LIG d   1      -0.619  76.984 118.369  0.00  0.00     0.210 C 
ATOM     15  C   LIG d   1       0.438  76.326 119.262  0.00  0.00     0.109 C 
ATOM     16  O   LIG d   1      -0.643  78.217 118.235  0.00  0.00    -0.276 OA
ATOM     17  H   LIG d   1      -1.415  75.162 118.002  0.00  0.00     0.149 HD
ENDBRANCH   6  13
BRANCH   5  18
ATOM     18  N   LIG d   1      -3.864  77.878 118.633  0.00  0.00     0.381 N 
ATOM     19  H   LIG d   1      -4.789  78.210 118.822  0.00  0.00    -0.090 HD
ATOM     20  H   LIG d   1      -3.328  78.638 118.253  0.00  0.00    -0.090 HD
ATOM     21  H   LIG d   1      -3.442  77.553 119.475  0.00  0.00    -0.090 HD
ENDBRANCH   5  18
BRANCH   3  22
ATOM     22  C   LIG d   1      -6.291  76.047 114.933  0.00  0.00     0.382 C 
ATOM     23  O   LIG d   1      -6.375  76.058 113.681  0.00  0.00    -0.241 OA
ATOM     24  O   LIG d   1      -7.323  75.901 115.615  0.00  0.00    -0.241 OA
ENDBRANCH   3  22
TORSDOF 7
ENDMDL
MODEL 8
REMARK VINA RESULT:      -4.3      2.135      3.309
REMARK  7 active torsions:
REMARK  status: ('A' for Active; 'I' for Inactive)
REMARK    1  A    between atoms: C_2  and  C_3 
REMARK    2  A    between atoms: C_3  and  O_6 
REMARK    3  A    between atoms: C_3  and  C_4 
REMARK    4  A    between atoms: C_7  and  O_6 
REMARK    5  A    between atoms: C_9  and  C_10 
REMARK    6  A    between atoms: N_15  and  C_14 
REMARK    7  A    between atoms: N_20  and  C_19 
REMARK       I    between atoms: C_22  and  N_20 
ROOT
ATOM      1  C   LIG d   1       0.158  79.620 114.486  0.00  0.00     0.161 C 
ATOM      2  C   LIG d   1      -0.365  78.434 113.944  0.00  0.00     0.016 C 
ATOM      3  C   LIG d   1      -0.982  78.365 112.674  0.00  0.00     0.038 C 
ATOM      4  C   LIG d   1      -0.981  79.453 111.789  0.00  0.00     0.028 C 
ATOM      5  C   LIG d   1      -0.914  80.805 112.492  0.00  0.00    -0.047 C 
ATOM      6  C   LIG d   1       0.267  80.793 113.490  0.00  0.00     0.091 C 
ENDROOT
BRANCH   1   7
ATOM      7  O   LIG d   1       1.439  79.357 115.092  0.00  0.00    -0.368 OA
BRANCH   7   8
ATOM      8  C   LIG d   1       1.487  79.428 116.538  0.00  0.00     0.119 C 
BRANCH   8   9
ATOM      9  C   LIG d   1       1.726  77.999 117.064  0.00  0.00     0.028 C 
ATOM     10  C   LIG d   1       0.424  77.315 117.514  0.00  0.00     0.006 C 
ENDBRANCH   8   9
BRANCH   8  11
ATOM     11  C   LIG d   1       0.136  79.854 117.120  0.00  0.00     0.028 C 
ATOM     12  C   LIG d   1       0.189  81.229 117.806  0.00  0.00     0.006 C 
ENDBRANCH   8  11
ENDBRANCH   7   8
ENDBRANCH   1   7
BRANCH   6  13
ATOM     13  N   LIG d   1       0.354  82.048 114.280  0.00  0.00    -0.311 N 
ATOM     14  C   LIG d   1       1.161  83.059 113.965  0.00  0.00     0.210 C 
ATOM     15  C   LIG d   1       1.110  84.252 114.925  0.00  0.00     0.109 C 
ATOM     16  O   LIG d   1       1.892  83.095 112.964  0.00  0.00    -0.276 OA
ATOM     17  H   LIG d   1      -0.228  82.117 115.092  0.00  0.00     0.149 HD
ENDBRANCH   6  13
BRANCH   5  18
ATOM     18  N   LIG d   1      -0.781  81.842 111.451  0.00  0.00     0.381 N 
ATOM     19  H   LIG d   1      -1.383  82.612 111.662  0.00  0.00    -0.090 HD
ATOM     20  H   LIG d   1      -1.062  81.454 110.568  0.00  0.00    -0.090 HD
ATOM     21  H   LIG d   1       0.164  82.154 111.400  0.00  0.00    -0.090 HD
ENDBRANCH   5  18
BRANCH   3  22
ATOM     22  C   LIG d   1      -1.643  77.207 112.293  0.00  0.00     0.382 C 
ATOM     23  O   LIG d   1      -1.073  76.377 111.544  0.00  0.00    -0.241 OA
ATOM     24  O   LIG d   1      -2.817  77.002 112.654  0.00  0.00    -0.241 OA
ENDBRANCH   3  22
TORSDOF 7
ENDMDL
MODEL 9
REMARK VINA RESULT:      -4.2      2.730      5.263
REMARK  7 active torsions:
REMARK  status: ('A' for Active; 'I' for Inactive)
REMARK    1  A    between atoms: C_2  and  C_3 
REMARK    2  A    between atoms: C_3  and  O_6 
REMARK    3  A    between atoms: C_3  and  C_4 
REMARK    4  A    between atoms: C_7  and  O_6 
REMARK    5  A    between atoms: C_9  and  C_10 
REMARK    6  A    between atoms: N_15  and  C_14 
REMARK    7  A    between atoms: N_20  and  C_19 
REMARK       I    between atoms: C_22  and  N_20 
ROOT
ATOM      1  C   LIG d   1       1.180  80.399 114.303  0.00  0.00     0.161 C 
ATOM      2  C   LIG d   1       0.970  81.313 113.257  0.00  0.00     0.016 C 
ATOM      3  C   LIG d   1      -0.049  81.167 112.288  0.00  0.00     0.038 C 
ATOM      4  C   LIG d   1      -1.030  80.169 112.389  0.00  0.00     0.028 C 
ATOM      5  C   LIG d   1      -0.558  78.929 113.141  0.00  0.00    -0.047 C 
ATOM      6  C   LIG d   1       0.052  79.365 114.494  0.00  0.00     0.091 C 
ENDROOT
BRANCH   1   7
ATOM      7  O   LIG d   1       1.421  81.111 115.533  0.00  0.00    -0.368 OA
BRANCH   7   8
ATOM      8  C   LIG d   1       0.266  81.735 116.145  0.00  0.00     0.119 C 
BRANCH   8   9
ATOM      9  C   LIG d   1       0.619  83.213 116.400  0.00  0.00     0.028 C 
ATOM     10  C   LIG d   1      -0.045  84.159 115.385  0.00  0.00     0.006 C 
ENDBRANCH   8   9
BRANCH   8  11
ATOM     11  C   LIG d   1      -0.020  81.142 117.528  0.00  0.00     0.028 C 
ATOM     12  C   LIG d   1      -0.793  82.106 118.441  0.00  0.00     0.006 C 
ENDBRANCH   8  11
ENDBRANCH   7   8
ENDBRANCH   1   7
BRANCH   6  13
ATOM     13  N   LIG d   1       0.615  78.220 115.256  0.00  0.00    -0.311 N 
ATOM     14  C   LIG d   1      -0.060  77.564 116.199  0.00  0.00     0.210 C 
ATOM     15  C   LIG d   1       0.714  76.428 116.876  0.00  0.00     0.109 C 
ATOM     16  O   LIG d   1      -1.237  77.793 116.515  0.00  0.00    -0.276 OA
ATOM     17  H   LIG d   1       1.554  77.947 115.041  0.00  0.00     0.149 HD
ENDBRANCH   6  13
BRANCH   5  18
ATOM     18  N   LIG d   1      -1.717  78.031 113.292  0.00  0.00     0.381 N 
ATOM     19  H   LIG d   1      -2.130  77.857 112.397  0.00  0.00    -0.090 HD
ATOM     20  H   LIG d   1      -2.403  78.479 113.874  0.00  0.00    -0.090 HD
ATOM     21  H   LIG d   1      -1.431  77.171 113.706  0.00  0.00    -0.090 HD
ENDBRANCH   5  18
BRANCH   3  22
ATOM     22  C   LIG d   1      -0.071  82.002 111.181  0.00  0.00     0.382 C 
ATOM     23  O   LIG d   1       0.831  81.916 110.314  0.00  0.00    -0.241 OA
ATOM     24  O   LIG d   1      -0.956  82.870 111.062  0.00  0.00    -0.241 OA
ENDBRANCH   3  22
TORSDOF 7
ENDMDL
