MODEL 1
REMARK VINA RESULT:      -5.1      0.000      0.000
REMARK  7 active torsions:
REMARK  status: ('A' for Active; 'I' for Inactive)
REMARK    1  A    between atoms: C_2  and  C_3 
REMARK    2  A    between atoms: C_3  and  O_6 
REMARK    3  A    between atoms: C_3  and  C_4 
REMARK    4  A    between atoms: C_7  and  O_6 
REMARK    5  A    between atoms: C_9  and  C_10 
REMARK    6  A    between atoms: N_15  and  C_14 
REMARK    7  A    between atoms: N_20  and  C_19 
REMARK       I    between atoms: C_22  and  N_20 
ROOT
ATOM      1  C   LIG d   1      -1.625  75.263 115.650  0.00  0.00     0.161 C 
ATOM      2  C   LIG d   1      -1.184  74.793 116.899  0.00  0.00     0.016 C 
ATOM      3  C   LIG d   1      -0.561  75.617 117.864  0.00  0.00     0.038 C 
ATOM      4  C   LIG d   1      -0.472  77.008 117.706  0.00  0.00     0.028 C 
ATOM      5  C   LIG d   1      -0.448  77.451 116.247  0.00  0.00    -0.047 C 
ATOM      6  C   LIG d   1      -1.637  76.799 115.505  0.00  0.00     0.091 C 
ENDROOT
BRANCH   1   7
ATOM      7  O   LIG d   1      -2.928  74.722 115.357  0.00  0.00    -0.368 OA
BRANCH   7   8
ATOM      8  C   LIG d   1      -4.053  75.605 115.591  0.00  0.00     0.119 C 
BRANCH   8   9
ATOM      9  C   LIG d   1      -4.625  75.266 116.982  0.00  0.00     0.028 C 
ATOM     10  C   LIG d   1      -4.405  76.399 117.998  0.00  0.00     0.006 C 
ENDBRANCH   8   9
BRANCH   8  11
ATOM     11  C   LIG d   1      -5.192  75.329 114.606  0.00  0.00     0.028 C 
ATOM     12  C   LIG d   1      -6.505  76.023 115.004  0.00  0.00     0.006 C 
ENDBRANCH   8  11
ENDBRANCH   7   8
ENDBRANCH   1   7
BRANCH   6  13
ATOM     13  N   LIG d   1      -1.640  77.113 114.052  0.00  0.00    -0.311 N 
ATOM     14  C   LIG d   1      -2.333  78.119 113.521  0.00  0.00     0.210 C 
ATOM     15  C   LIG d   1      -2.212  78.255 112.000  0.00  0.00     0.109 C 
ATOM     16  O   LIG d   1      -3.010  78.931 114.169  0.00  0.00    -0.276 OA
ATOM     17  H   LIG d   1      -1.092  76.523 113.457  0.00  0.00     0.149 HD
ENDBRANCH   6  13
BRANCH   5  18
ATOM     18  N   LIG d   1      -0.494  78.925 116.229  0.00  0.00     0.381 N 
ATOM     19  H   LIG d   1       0.312  79.283 115.756  0.00  0.00    -0.090 HD
ATOM     20  H   LIG d   1      -0.480  79.263 117.175  0.00  0.00    -0.090 HD
ATOM     21  H   LIG d   1      -1.322  79.235 115.770  0.00  0.00    -0.090 HD
ENDBRANCH   5  18
BRANCH   3  22
ATOM     22  C   LIG d   1       0.017  75.043 118.987  0.00  0.00     0.382 C 
ATOM     23  O   LIG d   1       1.227  75.253 119.245  0.00  0.00    -0.241 OA
ATOM     24  O   LIG d   1      -0.644  74.283 119.719  0.00  0.00    -0.241 OA
ENDBRANCH   3  22
TORSDOF 7
ENDMDL
MODEL 2
REMARK VINA RESULT:      -4.9      2.117      4.860
REMARK  7 active torsions:
REMARK  status: ('A' for Active; 'I' for Inactive)
REMARK    1  A    between atoms: C_2  and  C_3 
REMARK    2  A    between atoms: C_3  and  O_6 
REMARK    3  A    between atoms: C_3  and  C_4 
REMARK    4  A    between atoms: C_7  and  O_6 
REMARK    5  A    between atoms: C_9  and  C_10 
REMARK    6  A    between atoms: N_15  and  C_14 
REMARK    7  A    between atoms: N_20  and  C_19 
REMARK       I    between atoms: C_22  and  N_20 
ROOT
ATOM      1  C   LIG d   1      -2.691  77.554 117.156  0.00  0.00     0.161 C 
ATOM      2  C   LIG d   1      -3.639  76.709 116.555  0.00  0.00     0.016 C 
ATOM      3  C   LIG d   1      -3.839  76.633 115.158  0.00  0.00     0.038 C 
ATOM      4  C   LIG d   1      -2.994  77.291 114.251  0.00  0.00     0.028 C 
ATOM      5  C   LIG d   1      -2.348  78.547 114.827  0.00  0.00    -0.047 C 
ATOM      6  C   LIG d   1      -1.685  78.196 116.178  0.00  0.00     0.091 C 
ENDROOT
BRANCH   1   7
ATOM      7  O   LIG d   1      -1.994  76.843 118.198  0.00  0.00    -0.368 OA
BRANCH   7   8
ATOM      8  C   LIG d   1      -1.935  75.402 118.057  0.00  0.00     0.119 C 
BRANCH   8   9
ATOM      9  C   LIG d   1      -1.674  74.810 119.456  0.00  0.00     0.028 C 
ATOM     10  C   LIG d   1      -0.173  74.668 119.761  0.00  0.00     0.006 C 
ENDBRANCH   8   9
BRANCH   8  11
ATOM     11  C   LIG d   1      -0.737  74.973 117.205  0.00  0.00     0.028 C 
ATOM     12  C   LIG d   1      -1.149  74.180 115.954  0.00  0.00     0.006 C 
ENDBRANCH   8  11
ENDBRANCH   7   8
ENDBRANCH   1   7
BRANCH   6  13
ATOM     13  N   LIG d   1      -1.102  79.387 116.850  0.00  0.00    -0.311 N 
ATOM     14  C   LIG d   1       0.130  79.414 117.354  0.00  0.00     0.210 C 
ATOM     15  C   LIG d   1       0.526  80.735 118.022  0.00  0.00     0.109 C 
ATOM     16  O   LIG d   1       0.944  78.481 117.283  0.00  0.00    -0.276 OA
ATOM     17  H   LIG d   1      -1.683  80.199 116.924  0.00  0.00     0.149 HD
ENDBRANCH   6  13
BRANCH   5  18
ATOM     18  N   LIG d   1      -1.390  79.054 113.827  0.00  0.00     0.381 N 
ATOM     19  H   LIG d   1      -1.364  80.054 113.859  0.00  0.00    -0.090 HD
ATOM     20  H   LIG d   1      -1.697  78.775 112.912  0.00  0.00    -0.090 HD
ATOM     21  H   LIG d   1      -0.482  78.685 114.007  0.00  0.00    -0.090 HD
ENDBRANCH   5  18
BRANCH   3  22
ATOM     22  C   LIG d   1      -4.919  75.924 114.655  0.00  0.00     0.382 C 
ATOM     23  O   LIG d   1      -6.044  76.473 114.568  0.00  0.00    -0.241 OA
ATOM     24  O   LIG d   1      -4.793  74.728 114.330  0.00  0.00    -0.241 OA
ENDBRANCH   3  22
TORSDOF 7
ENDMDL
MODEL 3
REMARK VINA RESULT:      -4.9      3.156      5.308
REMARK  7 active torsions:
REMARK  status: ('A' for Active; 'I' for Inactive)
REMARK    1  A    between atoms: C_2  and  C_3 
REMARK    2  A    between atoms: C_3  and  O_6 
REMARK    3  A    between atoms: C_3  and  C_4 
REMARK    4  A    between atoms: C_7  and  O_6 
REMARK    5  A    between atoms: C_9  and  C_10 
REMARK    6  A    between atoms: N_15  and  C_14 
REMARK    7  A    between atoms: N_20  and  C_19 
REMARK       I    between atoms: C_22  and  N_20 
ROOT
ATOM      1  C   LIG d   1      -4.473  77.635 116.697  0.00  0.00     0.161 C 
ATOM      2  C   LIG d   1      -5.792  78.085 116.873  0.00  0.00     0.016 C 
ATOM      3  C   LIG d   1      -6.124  79.266 117.576  0.00  0.00     0.038 C 
ATOM      4  C   LIG d   1      -5.143  80.162 118.025  0.00  0.00     0.028 C 
ATOM      5  C   LIG d   1      -3.801  79.498 118.312  0.00  0.00    -0.047 C 
ATOM      6  C   LIG d   1      -3.384  78.658 117.083  0.00  0.00     0.091 C 
ENDROOT
BRANCH   1   7
ATOM      7  O   LIG d   1      -4.285  77.192 115.338  0.00  0.00    -0.368 OA
BRANCH   7   8
ATOM      8  C   LIG d   1      -4.114  75.765 115.151  0.00  0.00     0.119 C 
BRANCH   8   9
ATOM      9  C   LIG d   1      -5.486  75.181 114.763  0.00  0.00     0.028 C 
ATOM     10  C   LIG d   1      -6.136  74.396 115.915  0.00  0.00     0.006 C 
ENDBRANCH   8   9
BRANCH   8  11
ATOM     11  C   LIG d   1      -3.735  75.073 116.464  0.00  0.00     0.028 C 
ATOM     12  C   LIG d   1      -2.344  74.421 116.413  0.00  0.00     0.006 C 
ENDBRANCH   8  11
ENDBRANCH   7   8
ENDBRANCH   1   7
BRANCH   6  13
ATOM     13  N   LIG d   1      -2.122  77.907 117.312  0.00  0.00    -0.311 N 
ATOM     14  C   LIG d   1      -0.928  78.340 116.911  0.00  0.00     0.210 C 
ATOM     15  C   LIG d   1       0.240  77.402 117.230  0.00  0.00     0.109 C 
ATOM     16  O   LIG d   1      -0.722  79.426 116.350  0.00  0.00    -0.276 OA
ATOM     17  H   LIG d   1      -2.194  77.029 117.788  0.00  0.00     0.149 HD
ENDBRANCH   6  13
BRANCH   5  18
ATOM     18  N   LIG d   1      -2.836  80.565 118.637  0.00  0.00     0.381 N 
ATOM     19  H   LIG d   1      -2.000  80.163 119.012  0.00  0.00    -0.090 HD
ATOM     20  H   LIG d   1      -3.238  81.165 119.335  0.00  0.00    -0.090 HD
ATOM     21  H   LIG d   1      -2.621  81.092 117.819  0.00  0.00    -0.090 HD
ENDBRANCH   5  18
BRANCH   3  22
ATOM     22  C   LIG d   1      -7.451  79.539 117.872  0.00  0.00     0.382 C 
ATOM     23  O   LIG d   1      -8.060  78.845 118.721  0.00  0.00    -0.241 OA
ATOM     24  O   LIG d   1      -8.060  80.443 117.268  0.00  0.00    -0.241 OA
ENDBRANCH   3  22
TORSDOF 7
ENDMDL
MODEL 4
REMARK VINA RESULT:      -4.9      2.450      5.175
REMARK  7 active torsions:
REMARK  status: ('A' for Active; 'I' for Inactive)
REMARK    1  A    between atoms: C_2  and  C_3 
REMARK    2  A    between atoms: C_3  and  O_6 
REMARK    3  A    between atoms: C_3  and  C_4 
REMARK    4  A    between atoms: C_7  and  O_6 
REMARK    5  A    between atoms: C_9  and  C_10 
REMARK    6  A    between atoms: N_15  and  C_14 
REMARK    7  A    between atoms: N_20  and  C_19 
REMARK       I    between atoms: C_22  and  N_20 
ROOT
ATOM      1  C   LIG d   1      -1.961  77.904 115.508  0.00  0.00     0.161 C 
ATOM      2  C   LIG d   1      -3.173  77.386 115.021  0.00  0.00     0.016 C 
ATOM      3  C   LIG d   1      -3.554  76.031 115.164  0.00  0.00     0.038 C 
ATOM      4  C   LIG d   1      -2.810  75.131 115.941  0.00  0.00     0.028 C 
ATOM      5  C   LIG d   1      -1.329  75.483 116.027  0.00  0.00    -0.047 C 
ATOM      6  C   LIG d   1      -1.189  76.962 116.455  0.00  0.00     0.091 C 
ENDROOT
BRANCH   1   7
ATOM      7  O   LIG d   1      -2.195  79.175 116.146  0.00  0.00    -0.368 OA
BRANCH   7   8
ATOM      8  C   LIG d   1      -2.406  79.139 117.579  0.00  0.00     0.119 C 
BRANCH   8   9
ATOM      9  C   LIG d   1      -3.886  79.484 117.837  0.00  0.00     0.028 C 
ATOM     10  C   LIG d   1      -4.702  78.263 118.295  0.00  0.00     0.006 C 
ENDBRANCH   8   9
BRANCH   8  11
ATOM     11  C   LIG d   1      -1.605  80.235 118.288  0.00  0.00     0.028 C 
ATOM     12  C   LIG d   1      -2.495  81.213 119.071  0.00  0.00     0.006 C 
ENDBRANCH   8  11
ENDBRANCH   7   8
ENDBRANCH   1   7
BRANCH   6  13
ATOM     13  N   LIG d   1       0.227  77.412 116.481  0.00  0.00    -0.311 N 
ATOM     14  C   LIG d   1       0.978  77.405 117.581  0.00  0.00     0.210 C 
ATOM     15  C   LIG d   1       2.405  77.930 117.393  0.00  0.00     0.109 C 
ATOM     16  O   LIG d   1       0.608  76.983 118.687  0.00  0.00    -0.276 OA
ATOM     17  H   LIG d   1       0.617  77.741 115.620  0.00  0.00     0.149 HD
ENDBRANCH   6  13
BRANCH   5  18
ATOM     18  N   LIG d   1      -0.702  74.544 116.976  0.00  0.00     0.381 N 
ATOM     19  H   LIG d   1      -0.751  73.613 116.614  0.00  0.00    -0.090 HD
ATOM     20  H   LIG d   1      -1.208  74.572 117.844  0.00  0.00    -0.090 HD
ATOM     21  H   LIG d   1       0.249  74.799 117.130  0.00  0.00    -0.090 HD
ENDBRANCH   5  18
BRANCH   3  22
ATOM     22  C   LIG d   1      -4.669  75.556 114.492  0.00  0.00     0.382 C 
ATOM     23  O   LIG d   1      -5.376  76.343 113.816  0.00  0.00    -0.241 OA
ATOM     24  O   LIG d   1      -5.004  74.360 114.589  0.00  0.00    -0.241 OA
ENDBRANCH   3  22
TORSDOF 7
ENDMDL
MODEL 5
REMARK VINA RESULT:      -4.6      2.077      5.099
REMARK  7 active torsions:
REMARK  status: ('A' for Active; 'I' for Inactive)
REMARK    1  A    between atoms: C_2  and  C_3 
REMARK    2  A    between atoms: C_3  and  O_6 
REMARK    3  A    between atoms: C_3  and  C_4 
REMARK    4  A    between atoms: C_7  and  O_6 
REMARK    5  A    between atoms: C_9  and  C_10 
REMARK    6  A    between atoms: N_15  and  C_14 
REMARK    7  A    between atoms: N_20  and  C_19 
REMARK       I    between atoms: C_22  and  N_20 
ROOT
ATOM      1  C   LIG d   1      -2.863  77.977 116.591  0.00  0.00     0.161 C 
ATOM      2  C   LIG d   1      -3.135  78.597 115.361  0.00  0.00     0.016 C 
ATOM      3  C   LIG d   1      -2.482  78.254 114.155  0.00  0.00     0.038 C 
ATOM      4  C   LIG d   1      -1.614  77.156 114.068  0.00  0.00     0.028 C 
ATOM      5  C   LIG d   1      -0.927  76.821 115.388  0.00  0.00    -0.047 C 
ATOM      6  C   LIG d   1      -2.000  76.701 116.495  0.00  0.00     0.091 C 
ENDROOT
BRANCH   1   7
ATOM      7  O   LIG d   1      -4.097  77.696 117.281  0.00  0.00    -0.368 OA
BRANCH   7   8
ATOM      8  C   LIG d   1      -5.289  77.644 116.458  0.00  0.00     0.119 C 
BRANCH   8   9
ATOM      9  C   LIG d   1      -6.399  78.411 117.203  0.00  0.00     0.028 C 
ATOM     10  C   LIG d   1      -5.989  79.855 117.540  0.00  0.00     0.006 C 
ENDBRANCH   8   9
BRANCH   8  11
ATOM     11  C   LIG d   1      -5.809  76.210 116.321  0.00  0.00     0.028 C 
ATOM     12  C   LIG d   1      -5.274  75.500 115.067  0.00  0.00     0.006 C 
ENDBRANCH   8  11
ENDBRANCH   7   8
ENDBRANCH   1   7
BRANCH   6  13
ATOM     13  N   LIG d   1      -1.406  76.458 117.836  0.00  0.00    -0.311 N 
ATOM     14  C   LIG d   1      -1.156  75.242 118.317  0.00  0.00     0.210 C 
ATOM     15  C   LIG d   1      -0.561  75.215 119.729  0.00  0.00     0.109 C 
ATOM     16  O   LIG d   1      -1.342  74.184 117.697  0.00  0.00    -0.276 OA
ATOM     17  H   LIG d   1      -1.195  77.262 118.394  0.00  0.00     0.149 HD
ENDBRANCH   6  13
BRANCH   5  18
ATOM     18  N   LIG d   1      -0.161  75.576 115.189  0.00  0.00     0.381 N 
ATOM     19  H   LIG d   1       0.752  75.674 115.585  0.00  0.00    -0.090 HD
ATOM     20  H   LIG d   1      -0.061  75.411 114.203  0.00  0.00    -0.090 HD
ATOM     21  H   LIG d   1      -0.636  74.811 115.615  0.00  0.00    -0.090 HD
ENDBRANCH   5  18
BRANCH   3  22
ATOM     22  C   LIG d   1      -2.665  79.040 113.027  0.00  0.00     0.382 C 
ATOM     23  O   LIG d   1      -3.302  78.588 112.045  0.00  0.00    -0.241 OA
ATOM     24  O   LIG d   1      -2.163  80.178 112.961  0.00  0.00    -0.241 OA
ENDBRANCH   3  22
TORSDOF 7
ENDMDL
MODEL 6
REMARK VINA RESULT:      -4.4      2.629      5.702
REMARK  7 active torsions:
REMARK  status: ('A' for Active; 'I' for Inactive)
REMARK    1  A    between atoms: C_2  and  C_3 
REMARK    2  A    between atoms: C_3  and  O_6 
REMARK    3  A    between atoms: C_3  and  C_4 
REMARK    4  A    between atoms: C_7  and  O_6 
REMARK    5  A    between atoms: C_9  and  C_10 
REMARK    6  A    between atoms: N_15  and  C_14 
REMARK    7  A    between atoms: N_20  and  C_19 
REMARK       I    between atoms: C_22  and  N_20 
ROOT
ATOM      1  C   LIG d   1      -0.865  78.075 116.911  0.00  0.00     0.161 C 
ATOM      2  C   LIG d   1      -1.519  78.618 115.792  0.00  0.00     0.016 C 
ATOM      3  C   LIG d   1      -1.903  77.851 114.668  0.00  0.00     0.038 C 
ATOM      4  C   LIG d   1      -1.794  76.453 114.652  0.00  0.00     0.028 C 
ATOM      5  C   LIG d   1      -0.680  75.922 115.548  0.00  0.00    -0.047 C 
ATOM      6  C   LIG d   1      -0.837  76.533 116.959  0.00  0.00     0.091 C 
ENDROOT
BRANCH   1   7
ATOM      7  O   LIG d   1      -1.444  78.604 118.120  0.00  0.00    -0.368 OA
BRANCH   7   8
ATOM      8  C   LIG d   1      -2.201  79.831 117.980  0.00  0.00     0.119 C 
BRANCH   8   9
ATOM      9  C   LIG d   1      -1.490  80.911 118.817  0.00  0.00     0.028 C 
ATOM     10  C   LIG d   1      -2.475  81.922 119.430  0.00  0.00     0.006 C 
ENDBRANCH   8   9
BRANCH   8  11
ATOM     11  C   LIG d   1      -3.599  79.697 118.593  0.00  0.00     0.028 C 
ATOM     12  C   LIG d   1      -4.703  79.557 117.533  0.00  0.00     0.006 C 
ENDBRANCH   8  11
ENDBRANCH   7   8
ENDBRANCH   1   7
BRANCH   6  13
ATOM     13  N   LIG d   1       0.262  76.131 117.875  0.00  0.00    -0.311 N 
ATOM     14  C   LIG d   1       0.086  75.322 118.919  0.00  0.00     0.210 C 
ATOM     15  C   LIG d   1       1.347  75.052 119.746  0.00  0.00     0.109 C 
ATOM     16  O   LIG d   1      -0.986  74.777 119.219  0.00  0.00    -0.276 OA
ATOM     17  H   LIG d   1       1.172  76.503 117.687  0.00  0.00     0.149 HD
ENDBRANCH   6  13
BRANCH   5  18
ATOM     18  N   LIG d   1      -0.768  74.449 115.542  0.00  0.00     0.381 N 
ATOM     19  H   LIG d   1      -1.596  74.158 116.022  0.00  0.00    -0.090 HD
ATOM     20  H   LIG d   1       0.027  74.074 116.029  0.00  0.00    -0.090 HD
ATOM     21  H   LIG d   1      -0.782  74.112 114.605  0.00  0.00    -0.090 HD
ENDBRANCH   5  18
BRANCH   3  22
ATOM     22  C   LIG d   1      -2.368  78.489 113.527  0.00  0.00     0.382 C 
ATOM     23  O   LIG d   1      -2.371  77.884 112.428  0.00  0.00    -0.241 OA
ATOM     24  O   LIG d   1      -2.742  79.676 113.576  0.00  0.00    -0.241 OA
ENDBRANCH   3  22
TORSDOF 7
ENDMDL
MODEL 7
REMARK VINA RESULT:      -4.4      3.364      4.519
REMARK  7 active torsions:
REMARK  status: ('A' for Active; 'I' for Inactive)
REMARK    1  A    between atoms: C_2  and  C_3 
REMARK    2  A    between atoms: C_3  and  O_6 
REMARK    3  A    between atoms: C_3  and  C_4 
REMARK    4  A    between atoms: C_7  and  O_6 
REMARK    5  A    between atoms: C_9  and  C_10 
REMARK    6  A    between atoms: N_15  and  C_14 
REMARK    7  A    between atoms: N_20  and  C_19 
REMARK       I    between atoms: C_22  and  N_20 
ROOT
ATOM      1  C   LIG d   1      -3.833  78.431 117.292  0.00  0.00     0.161 C 
ATOM      2  C   LIG d   1      -2.939  79.344 117.876  0.00  0.00     0.016 C 
ATOM      3  C   LIG d   1      -1.581  79.454 117.496  0.00  0.00     0.038 C 
ATOM      4  C   LIG d   1      -1.060  78.758 116.395  0.00  0.00     0.028 C 
ATOM      5  C   LIG d   1      -1.795  77.455 116.099  0.00  0.00    -0.047 C 
ATOM      6  C   LIG d   1      -3.311  77.742 116.014  0.00  0.00     0.091 C 
ENDROOT
BRANCH   1   7
ATOM      7  O   LIG d   1      -5.093  79.080 117.033  0.00  0.00    -0.368 OA
BRANCH   7   8
ATOM      8  C   LIG d   1      -5.644  79.861 118.122  0.00  0.00     0.119 C 
BRANCH   8   9
ATOM      9  C   LIG d   1      -6.665  78.972 118.858  0.00  0.00     0.028 C 
ATOM     10  C   LIG d   1      -6.006  78.083 119.927  0.00  0.00     0.006 C 
ENDBRANCH   8   9
BRANCH   8  11
ATOM     11  C   LIG d   1      -6.449  81.056 117.600  0.00  0.00     0.028 C 
ATOM     12  C   LIG d   1      -6.760  82.088 118.695  0.00  0.00     0.006 C 
ENDBRANCH   8  11
ENDBRANCH   7   8
ENDBRANCH   1   7
BRANCH   6  13
ATOM     13  N   LIG d   1      -4.112  76.507 115.810  0.00  0.00    -0.311 N 
ATOM     14  C   LIG d   1      -4.495  76.071 114.611  0.00  0.00     0.210 C 
ATOM     15  C   LIG d   1      -5.330  74.787 114.627  0.00  0.00     0.109 C 
ATOM     16  O   LIG d   1      -4.195  76.607 113.534  0.00  0.00    -0.276 OA
ATOM     17  H   LIG d   1      -4.373  75.992 116.628  0.00  0.00     0.149 HD
ENDBRANCH   6  13
BRANCH   5  18
ATOM     18  N   LIG d   1      -1.239  76.904 114.849  0.00  0.00     0.381 N 
ATOM     19  H   LIG d   1      -1.984  76.639 114.235  0.00  0.00    -0.090 HD
ATOM     20  H   LIG d   1      -0.702  76.084 115.065  0.00  0.00    -0.090 HD
ATOM     21  H   LIG d   1      -0.660  77.583 114.405  0.00  0.00    -0.090 HD
ENDBRANCH   5  18
BRANCH   3  22
ATOM     22  C   LIG d   1      -0.719  80.238 118.248  0.00  0.00     0.382 C 
ATOM     23  O   LIG d   1       0.145  80.945 117.676  0.00  0.00    -0.241 OA
ATOM     24  O   LIG d   1      -0.765  80.212 119.492  0.00  0.00    -0.241 OA
ENDBRANCH   3  22
TORSDOF 7
ENDMDL
MODEL 8
REMARK VINA RESULT:      -4.4      1.299      1.857
REMARK  7 active torsions:
REMARK  status: ('A' for Active; 'I' for Inactive)
REMARK    1  A    between atoms: C_2  and  C_3 
REMARK    2  A    between atoms: C_3  and  O_6 
REMARK    3  A    between atoms: C_3  and  C_4 
REMARK    4  A    between atoms: C_7  and  O_6 
REMARK    5  A    between atoms: C_9  and  C_10 
REMARK    6  A    between atoms: N_15  and  C_14 
REMARK    7  A    between atoms: N_20  and  C_19 
REMARK       I    between atoms: C_22  and  N_20 
ROOT
ATOM      1  C   LIG d   1      -2.240  76.425 115.673  0.00  0.00     0.161 C 
ATOM      2  C   LIG d   1      -2.065  75.802 116.920  0.00  0.00     0.016 C 
ATOM      3  C   LIG d   1      -1.228  76.316 117.937  0.00  0.00     0.038 C 
ATOM      4  C   LIG d   1      -0.623  77.577 117.832  0.00  0.00     0.028 C 
ATOM      5  C   LIG d   1      -0.366  78.007 116.391  0.00  0.00    -0.047 C 
ATOM      6  C   LIG d   1      -1.674  77.858 115.582  0.00  0.00     0.091 C 
ENDROOT
BRANCH   1   7
ATOM      7  O   LIG d   1      -3.635  76.413 115.312  0.00  0.00    -0.368 OA
BRANCH   7   8
ATOM      8  C   LIG d   1      -4.577  76.555 116.403  0.00  0.00     0.119 C 
BRANCH   8   9
ATOM      9  C   LIG d   1      -5.898  75.894 115.964  0.00  0.00     0.028 C 
ATOM     10  C   LIG d   1      -5.998  75.741 114.437  0.00  0.00     0.006 C 
ENDBRANCH   8   9
BRANCH   8  11
ATOM     11  C   LIG d   1      -4.923  78.026 116.652  0.00  0.00     0.028 C 
ATOM     12  C   LIG d   1      -6.362  78.223 117.155  0.00  0.00     0.006 C 
ENDBRANCH   8  11
ENDBRANCH   7   8
ENDBRANCH   1   7
BRANCH   6  13
ATOM     13  N   LIG d   1      -1.490  78.178 114.143  0.00  0.00    -0.311 N 
ATOM     14  C   LIG d   1      -2.247  79.054 113.484  0.00  0.00     0.210 C 
ATOM     15  C   LIG d   1      -1.901  79.220 112.001  0.00  0.00     0.109 C 
ATOM     16  O   LIG d   1      -3.151  79.732 113.994  0.00  0.00    -0.276 OA
ATOM     17  H   LIG d   1      -0.758  77.696 113.658  0.00  0.00     0.149 HD
ENDBRANCH   6  13
BRANCH   5  18
ATOM     18  N   LIG d   1       0.140  79.393 116.423  0.00  0.00     0.381 N 
ATOM     19  H   LIG d   1      -0.445  79.979 115.862  0.00  0.00    -0.090 HD
ATOM     20  H   LIG d   1       1.067  79.409 116.037  0.00  0.00    -0.090 HD
ATOM     21  H   LIG d   1       0.157  79.728 117.361  0.00  0.00    -0.090 HD
ENDBRANCH   5  18
BRANCH   3  22
ATOM     22  C   LIG d   1      -0.959  75.548 119.059  0.00  0.00     0.382 C 
ATOM     23  O   LIG d   1      -1.807  74.719 119.471  0.00  0.00    -0.241 OA
ATOM     24  O   LIG d   1       0.103  75.703 119.691  0.00  0.00    -0.241 OA
ENDBRANCH   3  22
TORSDOF 7
ENDMDL
MODEL 9
REMARK VINA RESULT:      -4.2      2.489      3.445
REMARK  7 active torsions:
REMARK  status: ('A' for Active; 'I' for Inactive)
REMARK    1  A    between atoms: C_2  and  C_3 
REMARK    2  A    between atoms: C_3  and  O_6 
REMARK    3  A    between atoms: C_3  and  C_4 
REMARK    4  A    between atoms: C_7  and  O_6 
REMARK    5  A    between atoms: C_9  and  C_10 
REMARK    6  A    between atoms: N_15  and  C_14 
REMARK    7  A    between atoms: N_20  and  C_19 
REMARK       I    between atoms: C_22  and  N_20 
ROOT
ATOM      1  C   LIG d   1      -2.715  76.914 118.135  0.00  0.00     0.161 C 
ATOM      2  C   LIG d   1      -1.560  77.230 118.869  0.00  0.00     0.016 C 
ATOM      3  C   LIG d   1      -0.258  77.213 118.317  0.00  0.00     0.038 C 
ATOM      4  C   LIG d   1      -0.037  77.024 116.944  0.00  0.00     0.028 C 
ATOM      5  C   LIG d   1      -1.127  76.203 116.263  0.00  0.00    -0.047 C 
ATOM      6  C   LIG d   1      -2.505  76.813 116.609  0.00  0.00     0.091 C 
ENDROOT
BRANCH   1   7
ATOM      7  O   LIG d   1      -3.759  77.861 118.435  0.00  0.00    -0.368 OA
BRANCH   7   8
ATOM      8  C   LIG d   1      -3.666  79.145 117.770  0.00  0.00     0.119 C 
BRANCH   8   9
ATOM      9  C   LIG d   1      -3.563  80.226 118.864  0.00  0.00     0.028 C 
ATOM     10  C   LIG d   1      -2.194  80.928 118.868  0.00  0.00     0.006 C 
ENDBRANCH   8   9
BRANCH   8  11
ATOM     11  C   LIG d   1      -4.949  79.469 117.000  0.00  0.00     0.028 C 
ATOM     12  C   LIG d   1      -6.094  78.492 117.313  0.00  0.00     0.006 C 
ENDBRANCH   8  11
ENDBRANCH   7   8
ENDBRANCH   1   7
BRANCH   6  13
ATOM     13  N   LIG d   1      -3.632  76.021 116.052  0.00  0.00    -0.311 N 
ATOM     14  C   LIG d   1      -4.212  76.293 114.884  0.00  0.00     0.210 C 
ATOM     15  C   LIG d   1      -5.369  75.364 114.505  0.00  0.00     0.109 C 
ATOM     16  O   LIG d   1      -3.857  77.196 114.111  0.00  0.00    -0.276 OA
ATOM     17  H   LIG d   1      -3.963  75.251 116.599  0.00  0.00     0.149 HD
ENDBRANCH   6  13
BRANCH   5  18
ATOM     18  N   LIG d   1      -0.844  76.200 114.815  0.00  0.00     0.381 N 
ATOM     19  H   LIG d   1      -1.698  76.295 114.303  0.00  0.00    -0.090 HD
ATOM     20  H   LIG d   1      -0.423  75.322 114.568  0.00  0.00    -0.090 HD
ATOM     21  H   LIG d   1      -0.226  76.948 114.587  0.00  0.00    -0.090 HD
ENDBRANCH   5  18
BRANCH   3  22
ATOM     22  C   LIG d   1       0.843  77.348 119.148  0.00  0.00     0.382 C 
ATOM     23  O   LIG d   1       1.739  76.469 119.150  0.00  0.00    -0.241 OA
ATOM     24  O   LIG d   1       0.931  78.314 119.929  0.00  0.00    -0.241 OA
ENDBRANCH   3  22
TORSDOF 7
ENDMDL
