MODEL 1
REMARK VINA RESULT:      -4.9      0.000      0.000
REMARK  7 active torsions:
REMARK  status: ('A' for Active; 'I' for Inactive)
REMARK    1  A    between atoms: C_2  and  C_3 
REMARK    2  A    between atoms: C_3  and  O_6 
REMARK    3  A    between atoms: C_3  and  C_4 
REMARK    4  A    between atoms: C_7  and  O_6 
REMARK    5  A    between atoms: C_9  and  C_10 
REMARK    6  A    between atoms: N_15  and  C_14 
REMARK    7  A    between atoms: N_20  and  C_19 
REMARK       I    between atoms: C_22  and  N_20 
ROOT
ATOM      1  C   LIG d   1      -2.567  77.874 114.149  0.00  0.00     0.161 C 
ATOM      2  C   LIG d   1      -2.780  78.873 113.184  0.00  0.00     0.016 C 
ATOM      3  C   LIG d   1      -1.989  80.041 113.085  0.00  0.00     0.038 C 
ATOM      4  C   LIG d   1      -0.829  80.218 113.854  0.00  0.00     0.028 C 
ATOM      5  C   LIG d   1      -0.865  79.474 115.185  0.00  0.00    -0.047 C 
ATOM      6  C   LIG d   1      -1.238  77.997 114.925  0.00  0.00     0.091 C 
ENDROOT
BRANCH   1   7
ATOM      7  O   LIG d   1      -2.671  76.573 113.537  0.00  0.00    -0.368 OA
BRANCH   7   8
ATOM      8  C   LIG d   1      -3.639  75.669 114.124  0.00  0.00     0.119 C 
BRANCH   8   9
ATOM      9  C   LIG d   1      -3.083  74.239 113.978  0.00  0.00     0.028 C 
ATOM     10  C   LIG d   1      -1.555  74.183 114.141  0.00  0.00     0.006 C 
ENDBRANCH   8   9
BRANCH   8  11
ATOM     11  C   LIG d   1      -4.954  75.675 113.340  0.00  0.00     0.028 C 
ATOM     12  C   LIG d   1      -6.191  75.679 114.253  0.00  0.00     0.006 C 
ENDBRANCH   8  11
ENDBRANCH   7   8
ENDBRANCH   1   7
BRANCH   6  13
ATOM     13  N   LIG d   1      -1.378  77.218 116.182  0.00  0.00    -0.311 N 
ATOM     14  C   LIG d   1      -0.392  76.494 116.709  0.00  0.00     0.210 C 
ATOM     15  C   LIG d   1      -0.754  75.751 118.000  0.00  0.00     0.109 C 
ATOM     16  O   LIG d   1       0.757  76.422 116.248  0.00  0.00    -0.276 OA
ATOM     17  H   LIG d   1      -2.269  77.245 116.639  0.00  0.00     0.149 HD
ENDBRANCH   6  13
BRANCH   5  18
ATOM     18  N   LIG d   1       0.456  79.634 115.820  0.00  0.00     0.381 N 
ATOM     19  H   LIG d   1       1.123  79.944 115.142  0.00  0.00    -0.090 HD
ATOM     20  H   LIG d   1       0.757  78.742 116.173  0.00  0.00    -0.090 HD
ATOM     21  H   LIG d   1       0.399  80.292 116.566  0.00  0.00    -0.090 HD
ENDBRANCH   5  18
BRANCH   3  22
ATOM     22  C   LIG d   1      -2.380  81.065 112.236  0.00  0.00     0.382 C 
ATOM     23  O   LIG d   1      -3.442  81.693 112.459  0.00  0.00    -0.241 OA
ATOM     24  O   LIG d   1      -1.706  81.339 111.225  0.00  0.00    -0.241 OA
ENDBRANCH   3  22
TORSDOF 7
ENDMDL
MODEL 2
REMARK VINA RESULT:      -4.8      2.917      4.571
REMARK  7 active torsions:
REMARK  status: ('A' for Active; 'I' for Inactive)
REMARK    1  A    between atoms: C_2  and  C_3 
REMARK    2  A    between atoms: C_3  and  O_6 
REMARK    3  A    between atoms: C_3  and  C_4 
REMARK    4  A    between atoms: C_7  and  O_6 
REMARK    5  A    between atoms: C_9  and  C_10 
REMARK    6  A    between atoms: N_15  and  C_14 
REMARK    7  A    between atoms: N_20  and  C_19 
REMARK       I    between atoms: C_22  and  N_20 
ROOT
ATOM      1  C   LIG d   1      -2.781  80.936 114.586  0.00  0.00     0.161 C 
ATOM      2  C   LIG d   1      -2.450  82.006 113.738  0.00  0.00     0.016 C 
ATOM      3  C   LIG d   1      -1.810  81.839 112.489  0.00  0.00     0.038 C 
ATOM      4  C   LIG d   1      -1.590  80.571 111.931  0.00  0.00     0.028 C 
ATOM      5  C   LIG d   1      -1.449  79.467 112.973  0.00  0.00    -0.047 C 
ATOM      6  C   LIG d   1      -2.650  79.538 113.945  0.00  0.00     0.091 C 
ENDROOT
BRANCH   1   7
ATOM      7  O   LIG d   1      -4.109  81.122 115.113  0.00  0.00    -0.368 OA
BRANCH   7   8
ATOM      8  C   LIG d   1      -4.198  81.793 116.394  0.00  0.00     0.119 C 
BRANCH   8   9
ATOM      9  C   LIG d   1      -2.994  81.337 117.240  0.00  0.00     0.028 C 
ATOM     10  C   LIG d   1      -2.638  82.344 118.347  0.00  0.00     0.006 C 
ENDBRANCH   8   9
BRANCH   8  11
ATOM     11  C   LIG d   1      -5.436  81.343 117.175  0.00  0.00     0.028 C 
ATOM     12  C   LIG d   1      -5.705  79.835 117.047  0.00  0.00     0.006 C 
ENDBRANCH   8  11
ENDBRANCH   7   8
ENDBRANCH   1   7
BRANCH   6  13
ATOM     13  N   LIG d   1      -2.547  78.546 115.046  0.00  0.00    -0.311 N 
ATOM     14  C   LIG d   1      -3.387  77.522 115.191  0.00  0.00     0.210 C 
ATOM     15  C   LIG d   1      -3.114  76.630 116.407  0.00  0.00     0.109 C 
ATOM     16  O   LIG d   1      -4.311  77.250 114.411  0.00  0.00    -0.276 OA
ATOM     17  H   LIG d   1      -1.806  78.673 115.708  0.00  0.00     0.149 HD
ENDBRANCH   6  13
BRANCH   5  18
ATOM     18  N   LIG d   1      -1.363  78.182 112.253  0.00  0.00     0.381 N 
ATOM     19  H   LIG d   1      -0.452  78.078 111.855  0.00  0.00    -0.090 HD
ATOM     20  H   LIG d   1      -2.036  78.183 111.507  0.00  0.00    -0.090 HD
ATOM     21  H   LIG d   1      -1.549  77.429 112.878  0.00  0.00    -0.090 HD
ENDBRANCH   5  18
BRANCH   3  22
ATOM     22  C   LIG d   1      -1.345  82.950 111.801  0.00  0.00     0.382 C 
ATOM     23  O   LIG d   1      -1.121  84.020 112.418  0.00  0.00    -0.241 OA
ATOM     24  O   LIG d   1      -1.189  82.910 110.566  0.00  0.00    -0.241 OA
ENDBRANCH   3  22
TORSDOF 7
ENDMDL
MODEL 3
REMARK VINA RESULT:      -4.7      1.060      1.775
REMARK  7 active torsions:
REMARK  status: ('A' for Active; 'I' for Inactive)
REMARK    1  A    between atoms: C_2  and  C_3 
REMARK    2  A    between atoms: C_3  and  O_6 
REMARK    3  A    between atoms: C_3  and  C_4 
REMARK    4  A    between atoms: C_7  and  O_6 
REMARK    5  A    between atoms: C_9  and  C_10 
REMARK    6  A    between atoms: N_15  and  C_14 
REMARK    7  A    between atoms: N_20  and  C_19 
REMARK       I    between atoms: C_22  and  N_20 
ROOT
ATOM      1  C   LIG d   1      -2.524  77.131 114.480  0.00  0.00     0.161 C 
ATOM      2  C   LIG d   1      -2.830  78.009 113.427  0.00  0.00     0.016 C 
ATOM      3  C   LIG d   1      -2.127  79.213 113.190  0.00  0.00     0.038 C 
ATOM      4  C   LIG d   1      -0.966  79.547 113.903  0.00  0.00     0.028 C 
ATOM      5  C   LIG d   1      -0.919  78.941 115.302  0.00  0.00    -0.047 C 
ATOM      6  C   LIG d   1      -1.191  77.423 115.200  0.00  0.00     0.091 C 
ENDROOT
BRANCH   1   7
ATOM      7  O   LIG d   1      -2.549  75.770 114.003  0.00  0.00    -0.368 OA
BRANCH   7   8
ATOM      8  C   LIG d   1      -3.610  74.932 114.523  0.00  0.00     0.119 C 
BRANCH   8   9
ATOM      9  C   LIG d   1      -4.720  74.877 113.455  0.00  0.00     0.028 C 
ATOM     10  C   LIG d   1      -6.013  75.571 113.917  0.00  0.00     0.006 C 
ENDBRANCH   8   9
BRANCH   8  11
ATOM     11  C   LIG d   1      -4.264  75.562 115.756  0.00  0.00     0.028 C 
ATOM     12  C   LIG d   1      -4.118  74.695 117.016  0.00  0.00     0.006 C 
ENDBRANCH   8  11
ENDBRANCH   7   8
ENDBRANCH   1   7
BRANCH   6  13
ATOM     13  N   LIG d   1      -1.246  76.766 116.532  0.00  0.00    -0.311 N 
ATOM     14  C   LIG d   1      -0.184  76.227 117.128  0.00  0.00     0.210 C 
ATOM     15  C   LIG d   1      -0.465  75.583 118.490  0.00  0.00     0.109 C 
ATOM     16  O   LIG d   1       0.969  76.249 116.674  0.00  0.00    -0.276 OA
ATOM     17  H   LIG d   1      -2.138  76.732 116.987  0.00  0.00     0.149 HD
ENDBRANCH   6  13
BRANCH   5  18
ATOM     18  N   LIG d   1       0.402  79.254 115.879  0.00  0.00     0.381 N 
ATOM     19  H   LIG d   1       0.925  78.411 116.005  0.00  0.00    -0.090 HD
ATOM     20  H   LIG d   1       0.270  79.681 116.779  0.00  0.00    -0.090 HD
ATOM     21  H   LIG d   1       0.898  79.875 115.278  0.00  0.00    -0.090 HD
ENDBRANCH   5  18
BRANCH   3  22
ATOM     22  C   LIG d   1      -2.609  80.117 112.255  0.00  0.00     0.382 C 
ATOM     23  O   LIG d   1      -2.048  80.222 111.138  0.00  0.00    -0.241 OA
ATOM     24  O   LIG d   1      -3.569  80.860 112.532  0.00  0.00    -0.241 OA
ENDBRANCH   3  22
TORSDOF 7
ENDMDL
MODEL 4
REMARK VINA RESULT:      -4.7      2.950      4.525
REMARK  7 active torsions:
REMARK  status: ('A' for Active; 'I' for Inactive)
REMARK    1  A    between atoms: C_2  and  C_3 
REMARK    2  A    between atoms: C_3  and  O_6 
REMARK    3  A    between atoms: C_3  and  C_4 
REMARK    4  A    between atoms: C_7  and  O_6 
REMARK    5  A    between atoms: C_9  and  C_10 
REMARK    6  A    between atoms: N_15  and  C_14 
REMARK    7  A    between atoms: N_20  and  C_19 
REMARK       I    between atoms: C_22  and  N_20 
ROOT
ATOM      1  C   LIG d   1      -2.789  80.454 114.823  0.00  0.00     0.161 C 
ATOM      2  C   LIG d   1      -2.381  81.748 114.459  0.00  0.00     0.016 C 
ATOM      3  C   LIG d   1      -1.690  82.038 113.259  0.00  0.00     0.038 C 
ATOM      4  C   LIG d   1      -1.492  81.067 112.266  0.00  0.00     0.028 C 
ATOM      5  C   LIG d   1      -1.440  79.644 112.810  0.00  0.00    -0.047 C 
ATOM      6  C   LIG d   1      -2.680  79.402 113.701  0.00  0.00     0.091 C 
ENDROOT
BRANCH   1   7
ATOM      7  O   LIG d   1      -4.132  80.494 115.344  0.00  0.00    -0.368 OA
BRANCH   7   8
ATOM      8  C   LIG d   1      -4.273  80.241 116.764  0.00  0.00     0.119 C 
BRANCH   8   9
ATOM      9  C   LIG d   1      -5.622  79.527 116.975  0.00  0.00     0.028 C 
ATOM     10  C   LIG d   1      -5.575  78.048 116.556  0.00  0.00     0.006 C 
ENDBRANCH   8   9
BRANCH   8  11
ATOM     11  C   LIG d   1      -4.378  81.549 117.555  0.00  0.00     0.028 C 
ATOM     12  C   LIG d   1      -3.170  81.788 118.474  0.00  0.00     0.006 C 
ENDBRANCH   8  11
ENDBRANCH   7   8
ENDBRANCH   1   7
BRANCH   6  13
ATOM     13  N   LIG d   1      -2.664  78.061 114.342  0.00  0.00    -0.311 N 
ATOM     14  C   LIG d   1      -3.256  76.990 113.816  0.00  0.00     0.210 C 
ATOM     15  C   LIG d   1      -3.136  75.710 114.649  0.00  0.00     0.109 C 
ATOM     16  O   LIG d   1      -3.841  76.970 112.723  0.00  0.00    -0.276 OA
ATOM     17  H   LIG d   1      -2.184  77.979 115.217  0.00  0.00     0.149 HD
ENDBRANCH   6  13
BRANCH   5  18
ATOM     18  N   LIG d   1      -1.368  78.728 111.657  0.00  0.00     0.381 N 
ATOM     19  H   LIG d   1      -0.623  79.006 111.049  0.00  0.00    -0.090 HD
ATOM     20  H   LIG d   1      -2.230  78.782 111.144  0.00  0.00    -0.090 HD
ATOM     21  H   LIG d   1      -1.219  77.794 111.971  0.00  0.00    -0.090 HD
ENDBRANCH   5  18
BRANCH   3  22
ATOM     22  C   LIG d   1      -1.154  83.301 113.063  0.00  0.00     0.382 C 
ATOM     23  O   LIG d   1      -1.336  83.897 111.973  0.00  0.00    -0.241 OA
ATOM     24  O   LIG d   1      -0.454  83.834 113.944  0.00  0.00    -0.241 OA
ENDBRANCH   3  22
TORSDOF 7
ENDMDL
MODEL 5
REMARK VINA RESULT:      -4.5      2.236      3.165
REMARK  7 active torsions:
REMARK  status: ('A' for Active; 'I' for Inactive)
REMARK    1  A    between atoms: C_2  and  C_3 
REMARK    2  A    between atoms: C_3  and  O_6 
REMARK    3  A    between atoms: C_3  and  C_4 
REMARK    4  A    between atoms: C_7  and  O_6 
REMARK    5  A    between atoms: C_9  and  C_10 
REMARK    6  A    between atoms: N_15  and  C_14 
REMARK    7  A    between atoms: N_20  and  C_19 
REMARK       I    between atoms: C_22  and  N_20 
ROOT
ATOM      1  C   LIG d   1      -3.328  77.090 115.933  0.00  0.00     0.161 C 
ATOM      2  C   LIG d   1      -3.465  77.605 114.633  0.00  0.00     0.016 C 
ATOM      3  C   LIG d   1      -2.417  77.615 113.684  0.00  0.00     0.038 C 
ATOM      4  C   LIG d   1      -1.195  76.968 113.924  0.00  0.00     0.028 C 
ATOM      5  C   LIG d   1      -0.837  76.878 115.403  0.00  0.00    -0.047 C 
ATOM      6  C   LIG d   1      -2.037  76.281 116.174  0.00  0.00     0.091 C 
ENDROOT
BRANCH   1   7
ATOM      7  O   LIG d   1      -4.485  76.300 116.270  0.00  0.00    -0.368 OA
BRANCH   7   8
ATOM      8  C   LIG d   1      -5.749  76.759 115.731  0.00  0.00     0.119 C 
BRANCH   8   9
ATOM      9  C   LIG d   1      -6.635  77.177 116.921  0.00  0.00     0.028 C 
ATOM     10  C   LIG d   1      -6.739  76.076 117.990  0.00  0.00     0.006 C 
ENDBRANCH   8   9
BRANCH   8  11
ATOM     11  C   LIG d   1      -6.507  75.620 115.042  0.00  0.00     0.028 C 
ATOM     12  C   LIG d   1      -5.576  74.515 114.520  0.00  0.00     0.006 C 
ENDBRANCH   8  11
ENDBRANCH   7   8
ENDBRANCH   1   7
BRANCH   6  13
ATOM     13  N   LIG d   1      -1.802  76.236 117.641  0.00  0.00    -0.311 N 
ATOM     14  C   LIG d   1      -1.232  75.204 118.261  0.00  0.00     0.210 C 
ATOM     15  C   LIG d   1      -1.103  75.353 119.780  0.00  0.00     0.109 C 
ATOM     16  O   LIG d   1      -0.792  74.193 117.693  0.00  0.00    -0.276 OA
ATOM     17  H   LIG d   1      -2.100  77.028 118.175  0.00  0.00     0.149 HD
ENDBRANCH   6  13
BRANCH   5  18
ATOM     18  N   LIG d   1       0.387  76.063 115.517  0.00  0.00     0.381 N 
ATOM     19  H   LIG d   1       0.768  76.149 116.438  0.00  0.00    -0.090 HD
ATOM     20  H   LIG d   1       1.067  76.404 114.861  0.00  0.00    -0.090 HD
ATOM     21  H   LIG d   1       0.179  75.107 115.324  0.00  0.00    -0.090 HD
ENDBRANCH   5  18
BRANCH   3  22
ATOM     22  C   LIG d   1      -2.571  78.311 112.496  0.00  0.00     0.382 C 
ATOM     23  O   LIG d   1      -3.449  77.958 111.672  0.00  0.00    -0.241 OA
ATOM     24  O   LIG d   1      -1.815  79.261 112.217  0.00  0.00    -0.241 OA
ENDBRANCH   3  22
TORSDOF 7
ENDMDL
MODEL 6
REMARK VINA RESULT:      -4.5      2.152      4.793
REMARK  7 active torsions:
REMARK  status: ('A' for Active; 'I' for Inactive)
REMARK    1  A    between atoms: C_2  and  C_3 
REMARK    2  A    between atoms: C_3  and  O_6 
REMARK    3  A    between atoms: C_3  and  C_4 
REMARK    4  A    between atoms: C_7  and  O_6 
REMARK    5  A    between atoms: C_9  and  C_10 
REMARK    6  A    between atoms: N_15  and  C_14 
REMARK    7  A    between atoms: N_20  and  C_19 
REMARK       I    between atoms: C_22  and  N_20 
ROOT
ATOM      1  C   LIG d   1      -1.880  76.611 114.343  0.00  0.00     0.161 C 
ATOM      2  C   LIG d   1      -3.105  76.409 113.686  0.00  0.00     0.016 C 
ATOM      3  C   LIG d   1      -4.160  75.639 114.227  0.00  0.00     0.038 C 
ATOM      4  C   LIG d   1      -4.118  75.139 115.537  0.00  0.00     0.028 C 
ATOM      5  C   LIG d   1      -2.702  74.892 116.045  0.00  0.00    -0.047 C 
ATOM      6  C   LIG d   1      -1.858  76.167 115.821  0.00  0.00     0.091 C 
ENDROOT
BRANCH   1   7
ATOM      7  O   LIG d   1      -1.487  77.993 114.230  0.00  0.00    -0.368 OA
BRANCH   7   8
ATOM      8  C   LIG d   1      -2.538  78.929 113.887  0.00  0.00     0.119 C 
BRANCH   8   9
ATOM      9  C   LIG d   1      -2.026  79.792 112.718  0.00  0.00     0.028 C 
ATOM     10  C   LIG d   1      -2.936  81.001 112.438  0.00  0.00     0.006 C 
ENDBRANCH   8   9
BRANCH   8  11
ATOM     11  C   LIG d   1      -2.804  79.912 115.031  0.00  0.00     0.028 C 
ATOM     12  C   LIG d   1      -3.892  79.420 115.999  0.00  0.00     0.006 C 
ENDBRANCH   8  11
ENDBRANCH   7   8
ENDBRANCH   1   7
BRANCH   6  13
ATOM     13  N   LIG d   1      -0.436  75.982 116.214  0.00  0.00    -0.311 N 
ATOM     14  C   LIG d   1       0.041  76.309 117.414  0.00  0.00     0.210 C 
ATOM     15  C   LIG d   1       1.540  76.055 117.604  0.00  0.00     0.109 C 
ATOM     16  O   LIG d   1      -0.641  76.754 118.349  0.00  0.00    -0.276 OA
ATOM     17  H   LIG d   1       0.181  75.598 115.526  0.00  0.00     0.149 HD
ENDBRANCH   6  13
BRANCH   5  18
ATOM     18  N   LIG d   1      -2.799  74.505 117.466  0.00  0.00     0.381 N 
ATOM     19  H   LIG d   1      -3.761  74.445 117.735  0.00  0.00    -0.090 HD
ATOM     20  H   LIG d   1      -2.359  75.213 118.026  0.00  0.00    -0.090 HD
ATOM     21  H   LIG d   1      -2.351  73.628 117.612  0.00  0.00    -0.090 HD
ENDBRANCH   5  18
BRANCH   3  22
ATOM     22  C   LIG d   1      -5.257  75.327 113.438  0.00  0.00     0.382 C 
ATOM     23  O   LIG d   1      -5.288  74.243 112.807  0.00  0.00    -0.241 OA
ATOM     24  O   LIG d   1      -6.196  76.136 113.314  0.00  0.00    -0.241 OA
ENDBRANCH   3  22
TORSDOF 7
ENDMDL
MODEL 7
REMARK VINA RESULT:      -4.4      2.017      2.642
REMARK  7 active torsions:
REMARK  status: ('A' for Active; 'I' for Inactive)
REMARK    1  A    between atoms: C_2  and  C_3 
REMARK    2  A    between atoms: C_3  and  O_6 
REMARK    3  A    between atoms: C_3  and  C_4 
REMARK    4  A    between atoms: C_7  and  O_6 
REMARK    5  A    between atoms: C_9  and  C_10 
REMARK    6  A    between atoms: N_15  and  C_14 
REMARK    7  A    between atoms: N_20  and  C_19 
REMARK       I    between atoms: C_22  and  N_20 
ROOT
ATOM      1  C   LIG d   1      -2.950  77.649 114.697  0.00  0.00     0.161 C 
ATOM      2  C   LIG d   1      -2.754  78.458 113.566  0.00  0.00     0.016 C 
ATOM      3  C   LIG d   1      -2.817  79.871 113.599  0.00  0.00     0.038 C 
ATOM      4  C   LIG d   1      -2.932  80.579 114.805  0.00  0.00     0.028 C 
ATOM      5  C   LIG d   1      -3.638  79.793 115.905  0.00  0.00    -0.047 C 
ATOM      6  C   LIG d   1      -2.966  78.408 116.041  0.00  0.00     0.091 C 
ENDROOT
BRANCH   1   7
ATOM      7  O   LIG d   1      -1.960  76.601 114.726  0.00  0.00    -0.368 OA
BRANCH   7   8
ATOM      8  C   LIG d   1      -2.353  75.338 114.134  0.00  0.00     0.119 C 
BRANCH   8   9
ATOM      9  C   LIG d   1      -3.749  74.984 114.683  0.00  0.00     0.028 C 
ATOM     10  C   LIG d   1      -4.724  74.556 113.573  0.00  0.00     0.006 C 
ENDBRANCH   8   9
BRANCH   8  11
ATOM     11  C   LIG d   1      -1.436  74.200 114.592  0.00  0.00     0.028 C 
ATOM     12  C   LIG d   1      -1.225  74.180 116.115  0.00  0.00     0.006 C 
ENDBRANCH   8  11
ENDBRANCH   7   8
ENDBRANCH   1   7
BRANCH   6  13
ATOM     13  N   LIG d   1      -3.649  77.542 117.038  0.00  0.00    -0.311 N 
ATOM     14  C   LIG d   1      -3.009  76.907 118.018  0.00  0.00     0.210 C 
ATOM     15  C   LIG d   1      -3.900  76.051 118.923  0.00  0.00     0.109 C 
ATOM     16  O   LIG d   1      -1.792  76.997 118.242  0.00  0.00    -0.276 OA
ATOM     17  H   LIG d   1      -4.641  77.439 116.948  0.00  0.00     0.149 HD
ENDBRANCH   6  13
BRANCH   5  18
ATOM     18  N   LIG d   1      -3.566  80.594 117.141  0.00  0.00     0.381 N 
ATOM     19  H   LIG d   1      -4.115  81.424 117.039  0.00  0.00    -0.090 HD
ATOM     20  H   LIG d   1      -2.611  80.866 117.298  0.00  0.00    -0.090 HD
ATOM     21  H   LIG d   1      -3.898  80.060 117.913  0.00  0.00    -0.090 HD
ENDBRANCH   5  18
BRANCH   3  22
ATOM     22  C   LIG d   1      -2.805  80.587 112.413  0.00  0.00     0.382 C 
ATOM     23  O   LIG d   1      -3.375  81.703 112.348  0.00  0.00    -0.241 OA
ATOM     24  O   LIG d   1      -2.269  80.112 111.393  0.00  0.00    -0.241 OA
ENDBRANCH   3  22
TORSDOF 7
ENDMDL
MODEL 8
REMARK VINA RESULT:      -4.4      3.082      6.517
REMARK  7 active torsions:
REMARK  status: ('A' for Active; 'I' for Inactive)
REMARK    1  A    between atoms: C_2  and  C_3 
REMARK    2  A    between atoms: C_3  and  O_6 
REMARK    3  A    between atoms: C_3  and  C_4 
REMARK    4  A    between atoms: C_7  and  O_6 
REMARK    5  A    between atoms: C_9  and  C_10 
REMARK    6  A    between atoms: N_15  and  C_14 
REMARK    7  A    between atoms: N_20  and  C_19 
REMARK       I    between atoms: C_22  and  N_20 
ROOT
ATOM      1  C   LIG d   1      -1.554  81.557 113.526  0.00  0.00     0.161 C 
ATOM      2  C   LIG d   1      -1.846  80.396 112.790  0.00  0.00     0.016 C 
ATOM      3  C   LIG d   1      -2.444  79.247 113.356  0.00  0.00     0.038 C 
ATOM      4  C   LIG d   1      -2.932  79.236 114.671  0.00  0.00     0.028 C 
ATOM      5  C   LIG d   1      -2.205  80.207 115.595  0.00  0.00    -0.047 C 
ATOM      6  C   LIG d   1      -2.180  81.604 114.935  0.00  0.00     0.091 C 
ENDROOT
BRANCH   1   7
ATOM      7  O   LIG d   1      -1.935  82.723 112.769  0.00  0.00    -0.368 OA
BRANCH   7   8
ATOM      8  C   LIG d   1      -0.851  83.576 112.324  0.00  0.00     0.119 C 
BRANCH   8   9
ATOM      9  C   LIG d   1      -0.798  83.491 110.786  0.00  0.00     0.028 C 
ATOM     10  C   LIG d   1       0.184  82.416 110.291  0.00  0.00     0.006 C 
ENDBRANCH   8   9
BRANCH   8  11
ATOM     11  C   LIG d   1       0.504  83.051 112.806  0.00  0.00     0.028 C 
ATOM     12  C   LIG d   1       1.252  84.059 113.694  0.00  0.00     0.006 C 
ENDBRANCH   8  11
ENDBRANCH   7   8
ENDBRANCH   1   7
BRANCH   6  13
ATOM     13  N   LIG d   1      -1.414  82.596 115.735  0.00  0.00    -0.311 N 
ATOM     14  C   LIG d   1      -1.875  83.808 116.036  0.00  0.00     0.210 C 
ATOM     15  C   LIG d   1      -0.916  84.680 116.853  0.00  0.00     0.109 C 
ATOM     16  O   LIG d   1      -3.000  84.233 115.732  0.00  0.00    -0.276 OA
ATOM     17  H   LIG d   1      -0.504  82.322 116.049  0.00  0.00     0.149 HD
ENDBRANCH   6  13
BRANCH   5  18
ATOM     18  N   LIG d   1      -2.903  80.193 116.895  0.00  0.00     0.381 N 
ATOM     19  H   LIG d   1      -3.258  81.106 117.098  0.00  0.00    -0.090 HD
ATOM     20  H   LIG d   1      -2.247  79.943 117.613  0.00  0.00    -0.090 HD
ATOM     21  H   LIG d   1      -3.651  79.535 116.873  0.00  0.00    -0.090 HD
ENDBRANCH   5  18
BRANCH   3  22
ATOM     22  C   LIG d   1      -2.523  78.078 112.615  0.00  0.00     0.382 C 
ATOM     23  O   LIG d   1      -3.477  77.902 111.820  0.00  0.00    -0.241 OA
ATOM     24  O   LIG d   1      -1.675  77.177 112.763  0.00  0.00    -0.241 OA
ENDBRANCH   3  22
TORSDOF 7
ENDMDL
MODEL 9
REMARK VINA RESULT:      -4.4      3.158      6.638
REMARK  7 active torsions:
REMARK  status: ('A' for Active; 'I' for Inactive)
REMARK    1  A    between atoms: C_2  and  C_3 
REMARK    2  A    between atoms: C_3  and  O_6 
REMARK    3  A    between atoms: C_3  and  C_4 
REMARK    4  A    between atoms: C_7  and  O_6 
REMARK    5  A    between atoms: C_9  and  C_10 
REMARK    6  A    between atoms: N_15  and  C_14 
REMARK    7  A    between atoms: N_20  and  C_19 
REMARK       I    between atoms: C_22  and  N_20 
ROOT
ATOM      1  C   LIG d   1      -2.280  80.976 114.007  0.00  0.00     0.161 C 
ATOM      2  C   LIG d   1      -2.673  79.687 114.403  0.00  0.00     0.016 C 
ATOM      3  C   LIG d   1      -2.566  78.550 113.569  0.00  0.00     0.038 C 
ATOM      4  C   LIG d   1      -1.913  78.600 112.329  0.00  0.00     0.028 C 
ATOM      5  C   LIG d   1      -1.953  79.978 111.678  0.00  0.00    -0.047 C 
ATOM      6  C   LIG d   1      -1.463  81.030 112.699  0.00  0.00     0.091 C 
ENDROOT
BRANCH   1   7
ATOM      7  O   LIG d   1      -1.556  81.616 115.077  0.00  0.00    -0.368 OA
BRANCH   7   8
ATOM      8  C   LIG d   1      -2.349  82.071 116.201  0.00  0.00     0.119 C 
BRANCH   8   9
ATOM      9  C   LIG d   1      -2.407  83.609 116.133  0.00  0.00     0.028 C 
ATOM     10  C   LIG d   1      -1.264  84.203 115.292  0.00  0.00     0.006 C 
ENDBRANCH   8   9
BRANCH   8  11
ATOM     11  C   LIG d   1      -1.665  81.749 117.532  0.00  0.00     0.028 C 
ATOM     12  C   LIG d   1      -2.071  82.712 118.659  0.00  0.00     0.006 C 
ENDBRANCH   8  11
ENDBRANCH   7   8
ENDBRANCH   1   7
BRANCH   6  13
ATOM     13  N   LIG d   1      -1.550  82.417 112.171  0.00  0.00    -0.311 N 
ATOM     14  C   LIG d   1      -0.533  83.041 111.579  0.00  0.00     0.210 C 
ATOM     15  C   LIG d   1      -0.829  84.474 111.126  0.00  0.00     0.109 C 
ATOM     16  O   LIG d   1       0.576  82.532 111.357  0.00  0.00    -0.276 OA
ATOM     17  H   LIG d   1      -2.424  82.892 112.281  0.00  0.00     0.149 HD
ENDBRANCH   6  13
BRANCH   5  18
ATOM     18  N   LIG d   1      -1.120  79.922 110.462  0.00  0.00     0.381 N 
ATOM     19  H   LIG d   1      -1.657  80.209 109.669  0.00  0.00    -0.090 HD
ATOM     20  H   LIG d   1      -0.824  78.973 110.315  0.00  0.00    -0.090 HD
ATOM     21  H   LIG d   1      -0.324  80.513 110.565  0.00  0.00    -0.090 HD
ENDBRANCH   5  18
BRANCH   3  22
ATOM     22  C   LIG d   1      -3.151  77.355 113.958  0.00  0.00     0.382 C 
ATOM     23  O   LIG d   1      -2.659  76.264 113.581  0.00  0.00    -0.241 OA
ATOM     24  O   LIG d   1      -4.191  77.354 114.644  0.00  0.00    -0.241 OA
ENDBRANCH   3  22
TORSDOF 7
ENDMDL
