MODEL 1
REMARK VINA RESULT:      -5.5      0.000      0.000
REMARK  7 active torsions:
REMARK  status: ('A' for Active; 'I' for Inactive)
REMARK    1  A    between atoms: C_2  and  C_3 
REMARK    2  A    between atoms: C_3  and  O_6 
REMARK    3  A    between atoms: C_3  and  C_4 
REMARK    4  A    between atoms: C_7  and  O_6 
REMARK    5  A    between atoms: C_9  and  C_10 
REMARK    6  A    between atoms: N_15  and  C_14 
REMARK    7  A    between atoms: N_20  and  C_19 
REMARK       I    between atoms: C_22  and  N_20 
ROOT
ATOM      1  C   LIG d   1      -1.342  81.238 112.179  0.00  0.00     0.161 C 
ATOM      2  C   LIG d   1      -2.139  80.159 112.596  0.00  0.00     0.016 C 
ATOM      3  C   LIG d   1      -2.067  78.870 112.020  0.00  0.00     0.038 C 
ATOM      4  C   LIG d   1      -1.080  78.531 111.083  0.00  0.00     0.028 C 
ATOM      5  C   LIG d   1      -0.584  79.720 110.268  0.00  0.00    -0.047 C 
ATOM      6  C   LIG d   1      -0.182  80.858 111.234  0.00  0.00     0.091 C 
ENDROOT
BRANCH   1   7
ATOM      7  O   LIG d   1      -0.840  81.948 113.328  0.00  0.00    -0.368 OA
BRANCH   7   8
ATOM      8  C   LIG d   1       0.576  81.804 113.598  0.00  0.00     0.119 C 
BRANCH   8   9
ATOM      9  C   LIG d   1       0.718  81.019 114.917  0.00  0.00     0.028 C 
ATOM     10  C   LIG d   1       1.930  81.479 115.745  0.00  0.00     0.006 C 
ENDBRANCH   8   9
BRANCH   8  11
ATOM     11  C   LIG d   1       1.235  83.161 113.860  0.00  0.00     0.028 C 
ATOM     12  C   LIG d   1       0.326  84.345 113.496  0.00  0.00     0.006 C 
ENDBRANCH   8  11
ENDBRANCH   7   8
ENDBRANCH   1   7
BRANCH   6  13
ATOM     13  N   LIG d   1       0.235  82.091 110.516  0.00  0.00    -0.311 N 
ATOM     14  C   LIG d   1       1.490  82.330 110.140  0.00  0.00     0.210 C 
ATOM     15  C   LIG d   1       1.708  83.670 109.430  0.00  0.00     0.109 C 
ATOM     16  O   LIG d   1       2.438  81.546 110.298  0.00  0.00    -0.276 OA
ATOM     17  H   LIG d   1      -0.476  82.767 110.319  0.00  0.00     0.149 HD
ENDBRANCH   6  13
BRANCH   5  18
ATOM     18  N   LIG d   1       0.536  79.251 109.430  0.00  0.00     0.381 N 
ATOM     19  H   LIG d   1       0.760  79.944 108.745  0.00  0.00    -0.090 HD
ATOM     20  H   LIG d   1       0.255  78.413 108.952  0.00  0.00    -0.090 HD
ATOM     21  H   LIG d   1       1.333  79.066 109.999  0.00  0.00    -0.090 HD
ENDBRANCH   5  18
BRANCH   3  22
ATOM     22  C   LIG d   1      -3.016  77.915 112.353  0.00  0.00     0.382 C 
ATOM     23  O   LIG d   1      -3.038  77.430 113.509  0.00  0.00    -0.241 OA
ATOM     24  O   LIG d   1      -3.821  77.501 111.498  0.00  0.00    -0.241 OA
ENDBRANCH   3  22
TORSDOF 7
ENDMDL
MODEL 2
REMARK VINA RESULT:      -5.3      4.509      7.685
REMARK  7 active torsions:
REMARK  status: ('A' for Active; 'I' for Inactive)
REMARK    1  A    between atoms: C_2  and  C_3 
REMARK    2  A    between atoms: C_3  and  O_6 
REMARK    3  A    between atoms: C_3  and  C_4 
REMARK    4  A    between atoms: C_7  and  O_6 
REMARK    5  A    between atoms: C_9  and  C_10 
REMARK    6  A    between atoms: N_15  and  C_14 
REMARK    7  A    between atoms: N_20  and  C_19 
REMARK       I    between atoms: C_22  and  N_20 
ROOT
ATOM      1  C   LIG d   1      -3.224  76.373 114.717  0.00  0.00     0.161 C 
ATOM      2  C   LIG d   1      -3.446  77.341 113.723  0.00  0.00     0.016 C 
ATOM      3  C   LIG d   1      -2.408  77.937 112.972  0.00  0.00     0.038 C 
ATOM      4  C   LIG d   1      -1.080  77.493 113.059  0.00  0.00     0.028 C 
ATOM      5  C   LIG d   1      -0.737  76.871 114.408  0.00  0.00    -0.047 C 
ATOM      6  C   LIG d   1      -1.793  75.795 114.748  0.00  0.00     0.091 C 
ENDROOT
BRANCH   1   7
ATOM      7  O   LIG d   1      -4.190  75.311 114.590  0.00  0.00    -0.368 OA
BRANCH   7   8
ATOM      8  C   LIG d   1      -5.451  75.511 115.275  0.00  0.00     0.119 C 
BRANCH   8   9
ATOM      9  C   LIG d   1      -5.165  76.352 116.534  0.00  0.00     0.028 C 
ATOM     10  C   LIG d   1      -6.131  77.540 116.679  0.00  0.00     0.006 C 
ENDBRANCH   8   9
BRANCH   8  11
ATOM     11  C   LIG d   1      -6.020  74.187 115.793  0.00  0.00     0.028 C 
ATOM     12  C   LIG d   1      -7.352  74.362 116.539  0.00  0.00     0.006 C 
ENDBRANCH   8  11
ENDBRANCH   7   8
ENDBRANCH   1   7
BRANCH   6  13
ATOM     13  N   LIG d   1      -1.580  75.196 116.092  0.00  0.00    -0.311 N 
ATOM     14  C   LIG d   1      -1.550  75.909 117.216  0.00  0.00     0.210 C 
ATOM     15  C   LIG d   1      -1.297  75.097 118.490  0.00  0.00     0.109 C 
ATOM     16  O   LIG d   1      -1.741  77.132 117.283  0.00  0.00    -0.276 OA
ATOM     17  H   LIG d   1      -1.447  74.204 116.133  0.00  0.00     0.149 HD
ENDBRANCH   6  13
BRANCH   5  18
ATOM     18  N   LIG d   1       0.631  76.328 114.314  0.00  0.00     0.381 N 
ATOM     19  H   LIG d   1       1.225  76.788 114.975  0.00  0.00    -0.090 HD
ATOM     20  H   LIG d   1       0.989  76.506 113.391  0.00  0.00    -0.090 HD
ATOM     21  H   LIG d   1       0.622  75.348 114.490  0.00  0.00    -0.090 HD
ENDBRANCH   5  18
BRANCH   3  22
ATOM     22  C   LIG d   1      -2.688  79.018 112.150  0.00  0.00     0.382 C 
ATOM     23  O   LIG d   1      -2.044  79.180 111.086  0.00  0.00    -0.241 OA
ATOM     24  O   LIG d   1      -3.547  79.857 112.481  0.00  0.00    -0.241 OA
ENDBRANCH   3  22
TORSDOF 7
ENDMDL
MODEL 3
REMARK VINA RESULT:      -4.8      4.761      7.337
REMARK  7 active torsions:
REMARK  status: ('A' for Active; 'I' for Inactive)
REMARK    1  A    between atoms: C_2  and  C_3 
REMARK    2  A    between atoms: C_3  and  O_6 
REMARK    3  A    between atoms: C_3  and  C_4 
REMARK    4  A    between atoms: C_7  and  O_6 
REMARK    5  A    between atoms: C_9  and  C_10 
REMARK    6  A    between atoms: N_15  and  C_14 
REMARK    7  A    between atoms: N_20  and  C_19 
REMARK       I    between atoms: C_22  and  N_20 
ROOT
ATOM      1  C   LIG d   1      -1.612  75.743 115.436  0.00  0.00     0.161 C 
ATOM      2  C   LIG d   1      -1.545  75.385 116.793  0.00  0.00     0.016 C 
ATOM      3  C   LIG d   1      -0.834  76.133 117.760  0.00  0.00     0.038 C 
ATOM      4  C   LIG d   1      -0.265  77.380 117.462  0.00  0.00     0.028 C 
ATOM      5  C   LIG d   1       0.123  77.533 115.995  0.00  0.00    -0.047 C 
ATOM      6  C   LIG d   1      -1.090  77.159 115.114  0.00  0.00     0.091 C 
ENDROOT
BRANCH   1   7
ATOM      7  O   LIG d   1      -2.962  75.585 114.956  0.00  0.00    -0.368 OA
BRANCH   7   8
ATOM      8  C   LIG d   1      -3.996  75.524 115.969  0.00  0.00     0.119 C 
BRANCH   8   9
ATOM      9  C   LIG d   1      -5.146  74.667 115.406  0.00  0.00     0.028 C 
ATOM     10  C   LIG d   1      -5.709  75.231 114.091  0.00  0.00     0.006 C 
ENDBRANCH   8   9
BRANCH   8  11
ATOM     11  C   LIG d   1      -4.607  76.905 116.225  0.00  0.00     0.028 C 
ATOM     12  C   LIG d   1      -4.497  77.343 117.694  0.00  0.00     0.006 C 
ENDBRANCH   8  11
ENDBRANCH   7   8
ENDBRANCH   1   7
BRANCH   6  13
ATOM     13  N   LIG d   1      -0.771  77.201 113.663  0.00  0.00    -0.311 N 
ATOM     14  C   LIG d   1      -1.537  77.812 112.761  0.00  0.00     0.210 C 
ATOM     15  C   LIG d   1      -1.036  77.718 111.316  0.00  0.00     0.109 C 
ATOM     16  O   LIG d   1      -2.568  78.449 113.024  0.00  0.00    -0.276 OA
ATOM     17  H   LIG d   1       0.064  76.735 113.366  0.00  0.00     0.149 HD
ENDBRANCH   6  13
BRANCH   5  18
ATOM     18  N   LIG d   1       0.575  78.924 115.797  0.00  0.00     0.381 N 
ATOM     19  H   LIG d   1      -0.217  79.524 115.681  0.00  0.00    -0.090 HD
ATOM     20  H   LIG d   1       1.130  78.969 114.961  0.00  0.00    -0.090 HD
ATOM     21  H   LIG d   1       1.115  79.222 116.579  0.00  0.00    -0.090 HD
ENDBRANCH   5  18
BRANCH   3  22
ATOM     22  C   LIG d   1      -0.655  75.614 119.034  0.00  0.00     0.382 C 
ATOM     23  O   LIG d   1       0.340  75.959 119.716  0.00  0.00    -0.241 OA
ATOM     24  O   LIG d   1      -1.451  74.772 119.491  0.00  0.00    -0.241 OA
ENDBRANCH   3  22
TORSDOF 7
ENDMDL
MODEL 4
REMARK VINA RESULT:      -4.5      2.312      5.011
REMARK  7 active torsions:
REMARK  status: ('A' for Active; 'I' for Inactive)
REMARK    1  A    between atoms: C_2  and  C_3 
REMARK    2  A    between atoms: C_3  and  O_6 
REMARK    3  A    between atoms: C_3  and  C_4 
REMARK    4  A    between atoms: C_7  and  O_6 
REMARK    5  A    between atoms: C_9  and  C_10 
REMARK    6  A    between atoms: N_15  and  C_14 
REMARK    7  A    between atoms: N_20  and  C_19 
REMARK       I    between atoms: C_22  and  N_20 
ROOT
ATOM      1  C   LIG d   1       0.393  81.355 112.665  0.00  0.00     0.161 C 
ATOM      2  C   LIG d   1       0.508  80.595 113.841  0.00  0.00     0.016 C 
ATOM      3  C   LIG d   1       0.942  81.131 115.075  0.00  0.00     0.038 C 
ATOM      4  C   LIG d   1       1.148  82.507 115.254  0.00  0.00     0.028 C 
ATOM      5  C   LIG d   1       1.531  83.234 113.970  0.00  0.00    -0.047 C 
ATOM      6  C   LIG d   1       0.507  82.880 112.868  0.00  0.00     0.091 C 
ENDROOT
BRANCH   1   7
ATOM      7  O   LIG d   1      -0.838  81.029 111.991  0.00  0.00    -0.368 OA
BRANCH   7   8
ATOM      8  C   LIG d   1      -1.179  79.622 111.930  0.00  0.00     0.119 C 
BRANCH   8   9
ATOM      9  C   LIG d   1      -0.905  79.141 110.492  0.00  0.00     0.028 C 
ATOM     10  C   LIG d   1       0.178  79.977 109.790  0.00  0.00     0.006 C 
ENDBRANCH   8   9
BRANCH   8  11
ATOM     11  C   LIG d   1      -2.678  79.402 112.153  0.00  0.00     0.028 C 
ATOM     12  C   LIG d   1      -3.183  78.084 111.546  0.00  0.00     0.006 C 
ENDBRANCH   8  11
ENDBRANCH   7   8
ENDBRANCH   1   7
BRANCH   6  13
ATOM     13  N   LIG d   1       0.855  83.484 111.555  0.00  0.00    -0.311 N 
ATOM     14  C   LIG d   1      -0.020  84.137 110.793  0.00  0.00     0.210 C 
ATOM     15  C   LIG d   1       0.542  84.663 109.469  0.00  0.00     0.109 C 
ATOM     16  O   LIG d   1      -1.201  84.358 111.103  0.00  0.00    -0.276 OA
ATOM     17  H   LIG d   1       1.800  83.379 111.241  0.00  0.00     0.149 HD
ENDBRANCH   6  13
BRANCH   5  18
ATOM     18  N   LIG d   1       1.580  84.677 114.273  0.00  0.00     0.381 N 
ATOM     19  H   LIG d   1       2.531  84.982 114.317  0.00  0.00    -0.090 HD
ATOM     20  H   LIG d   1       1.155  84.836 115.170  0.00  0.00    -0.090 HD
ATOM     21  H   LIG d   1       1.091  85.189 113.571  0.00  0.00    -0.090 HD
ENDBRANCH   5  18
BRANCH   3  22
ATOM     22  C   LIG d   1       1.213  80.280 116.136  0.00  0.00     0.382 C 
ATOM     23  O   LIG d   1       0.515  79.253 116.310  0.00  0.00    -0.241 OA
ATOM     24  O   LIG d   1       2.119  80.552 116.948  0.00  0.00    -0.241 OA
ENDBRANCH   3  22
TORSDOF 7
ENDMDL
MODEL 5
REMARK VINA RESULT:      -4.4      1.717      2.541
REMARK  7 active torsions:
REMARK  status: ('A' for Active; 'I' for Inactive)
REMARK    1  A    between atoms: C_2  and  C_3 
REMARK    2  A    between atoms: C_3  and  O_6 
REMARK    3  A    between atoms: C_3  and  C_4 
REMARK    4  A    between atoms: C_7  and  O_6 
REMARK    5  A    between atoms: C_9  and  C_10 
REMARK    6  A    between atoms: N_15  and  C_14 
REMARK    7  A    between atoms: N_20  and  C_19 
REMARK       I    between atoms: C_22  and  N_20 
ROOT
ATOM      1  C   LIG d   1       0.017  80.787 113.136  0.00  0.00     0.161 C 
ATOM      2  C   LIG d   1      -0.437  79.571 113.673  0.00  0.00     0.016 C 
ATOM      3  C   LIG d   1      -0.846  78.475 112.880  0.00  0.00     0.038 C 
ATOM      4  C   LIG d   1      -0.683  78.466 111.486  0.00  0.00     0.028 C 
ATOM      5  C   LIG d   1      -0.701  79.859 110.866  0.00  0.00    -0.047 C 
ATOM      6  C   LIG d   1       0.306  80.757 111.620  0.00  0.00     0.091 C 
ENDROOT
BRANCH   1   7
ATOM      7  O   LIG d   1       1.181  81.236 113.859  0.00  0.00    -0.368 OA
BRANCH   7   8
ATOM      8  C   LIG d   1       0.932  82.107 114.990  0.00  0.00     0.119 C 
BRANCH   8   9
ATOM      9  C   LIG d   1       1.072  83.560 114.495  0.00  0.00     0.028 C 
ATOM     10  C   LIG d   1      -0.256  84.332 114.559  0.00  0.00     0.006 C 
ENDBRANCH   8   9
BRANCH   8  11
ATOM     11  C   LIG d   1       2.005  81.940 116.069  0.00  0.00     0.028 C 
ATOM     12  C   LIG d   1       1.498  81.175 117.302  0.00  0.00     0.006 C 
ENDBRANCH   8  11
ENDBRANCH   7   8
ENDBRANCH   1   7
BRANCH   6  13
ATOM     13  N   LIG d   1       0.291  82.161 111.132  0.00  0.00    -0.311 N 
ATOM     14  C   LIG d   1      -0.792  82.935 111.159  0.00  0.00     0.210 C 
ATOM     15  C   LIG d   1      -0.596  84.343 110.588  0.00  0.00     0.109 C 
ATOM     16  O   LIG d   1      -1.889  82.600 111.631  0.00  0.00    -0.276 OA
ATOM     17  H   LIG d   1       1.147  82.523 110.760  0.00  0.00     0.149 HD
ENDBRANCH   6  13
BRANCH   5  18
ATOM     18  N   LIG d   1      -0.384  79.713 109.433  0.00  0.00     0.381 N 
ATOM     19  H   LIG d   1      -1.173  79.332 108.949  0.00  0.00    -0.090 HD
ATOM     20  H   LIG d   1       0.386  79.075 109.333  0.00  0.00    -0.090 HD
ATOM     21  H   LIG d   1      -0.144  80.598 109.045  0.00  0.00    -0.090 HD
ENDBRANCH   5  18
BRANCH   3  22
ATOM     22  C   LIG d   1      -1.461  77.385 113.478  0.00  0.00     0.382 C 
ATOM     23  O   LIG d   1      -2.712  77.341 113.562  0.00  0.00    -0.241 OA
ATOM     24  O   LIG d   1      -0.779  76.468 113.973  0.00  0.00    -0.241 OA
ENDBRANCH   3  22
TORSDOF 7
ENDMDL
MODEL 6
REMARK VINA RESULT:      -4.2      5.445      7.383
REMARK  7 active torsions:
REMARK  status: ('A' for Active; 'I' for Inactive)
REMARK    1  A    between atoms: C_2  and  C_3 
REMARK    2  A    between atoms: C_3  and  O_6 
REMARK    3  A    between atoms: C_3  and  C_4 
REMARK    4  A    between atoms: C_7  and  O_6 
REMARK    5  A    between atoms: C_9  and  C_10 
REMARK    6  A    between atoms: N_15  and  C_14 
REMARK    7  A    between atoms: N_20  and  C_19 
REMARK       I    between atoms: C_22  and  N_20 
ROOT
ATOM      1  C   LIG d   1      -1.996  76.056 116.281  0.00  0.00     0.161 C 
ATOM      2  C   LIG d   1      -3.001  75.721 115.359  0.00  0.00     0.016 C 
ATOM      3  C   LIG d   1      -4.359  76.077 115.525  0.00  0.00     0.038 C 
ATOM      4  C   LIG d   1      -4.782  76.929 116.556  0.00  0.00     0.028 C 
ATOM      5  C   LIG d   1      -3.888  76.875 117.791  0.00  0.00    -0.047 C 
ATOM      6  C   LIG d   1      -2.419  77.080 117.355  0.00  0.00     0.091 C 
ENDROOT
BRANCH   1   7
ATOM      7  O   LIG d   1      -0.825  76.521 115.580  0.00  0.00    -0.368 OA
BRANCH   7   8
ATOM      8  C   LIG d   1      -0.759  76.202 114.168  0.00  0.00     0.119 C 
BRANCH   8   9
ATOM      9  C   LIG d   1       0.509  75.354 113.944  0.00  0.00     0.028 C 
ATOM     10  C   LIG d   1       0.681  74.934 112.475  0.00  0.00     0.006 C 
ENDBRANCH   8   9
BRANCH   8  11
ATOM     11  C   LIG d   1      -0.560  77.462 113.321  0.00  0.00     0.028 C 
ATOM     12  C   LIG d   1      -1.847  77.913 112.613  0.00  0.00     0.006 C 
ENDBRANCH   8  11
ENDBRANCH   7   8
ENDBRANCH   1   7
BRANCH   6  13
ATOM     13  N   LIG d   1      -1.468  76.958 118.492  0.00  0.00    -0.311 N 
ATOM     14  C   LIG d   1      -0.478  77.820 118.715  0.00  0.00     0.210 C 
ATOM     15  C   LIG d   1       0.398  77.498 119.930  0.00  0.00     0.109 C 
ATOM     16  O   LIG d   1      -0.262  78.838 118.041  0.00  0.00    -0.276 OA
ATOM     17  H   LIG d   1      -1.591  76.177 119.107  0.00  0.00     0.149 HD
ENDBRANCH   6  13
BRANCH   5  18
ATOM     18  N   LIG d   1      -4.362  77.909 118.730  0.00  0.00     0.381 N 
ATOM     19  H   LIG d   1      -4.534  77.499 119.626  0.00  0.00    -0.090 HD
ATOM     20  H   LIG d   1      -5.226  78.289 118.386  0.00  0.00    -0.090 HD
ATOM     21  H   LIG d   1      -3.682  78.632 118.813  0.00  0.00    -0.090 HD
ENDBRANCH   5  18
BRANCH   3  22
ATOM     22  C   LIG d   1      -5.318  75.546 114.675  0.00  0.00     0.382 C 
ATOM     23  O   LIG d   1      -5.019  74.601 113.906  0.00  0.00    -0.241 OA
ATOM     24  O   LIG d   1      -6.464  76.031 114.635  0.00  0.00    -0.241 OA
ENDBRANCH   3  22
TORSDOF 7
ENDMDL
MODEL 7
REMARK VINA RESULT:      -4.1      6.287      8.094
REMARK  7 active torsions:
REMARK  status: ('A' for Active; 'I' for Inactive)
REMARK    1  A    between atoms: C_2  and  C_3 
REMARK    2  A    between atoms: C_3  and  O_6 
REMARK    3  A    between atoms: C_3  and  C_4 
REMARK    4  A    between atoms: C_7  and  O_6 
REMARK    5  A    between atoms: C_9  and  C_10 
REMARK    6  A    between atoms: N_15  and  C_14 
REMARK    7  A    between atoms: N_20  and  C_19 
REMARK       I    between atoms: C_22  and  N_20 
ROOT
ATOM      1  C   LIG d   1      -3.496  76.453 117.219  0.00  0.00     0.161 C 
ATOM      2  C   LIG d   1      -2.239  76.322 116.607  0.00  0.00     0.016 C 
ATOM      3  C   LIG d   1      -2.069  76.076 115.225  0.00  0.00     0.038 C 
ATOM      4  C   LIG d   1      -3.149  76.096 114.330  0.00  0.00     0.028 C 
ATOM      5  C   LIG d   1      -4.478  75.723 114.976  0.00  0.00    -0.047 C 
ATOM      6  C   LIG d   1      -4.681  76.588 116.241  0.00  0.00     0.091 C 
ENDROOT
BRANCH   1   7
ATOM      7  O   LIG d   1      -3.477  77.562 118.140  0.00  0.00    -0.368 OA
BRANCH   7   8
ATOM      8  C   LIG d   1      -2.221  77.804 118.821  0.00  0.00     0.119 C 
BRANCH   8   9
ATOM      9  C   LIG d   1      -2.085  76.743 119.930  0.00  0.00     0.028 C 
ATOM     10  C   LIG d   1      -0.705  76.062 119.924  0.00  0.00     0.006 C 
ENDBRANCH   8   9
BRANCH   8  11
ATOM     11  C   LIG d   1      -2.233  79.152 119.548  0.00  0.00     0.028 C 
ATOM     12  C   LIG d   1      -0.883  79.883 119.468  0.00  0.00     0.006 C 
ENDBRANCH   8  11
ENDBRANCH   7   8
ENDBRANCH   1   7
BRANCH   6  13
ATOM     13  N   LIG d   1      -5.919  76.229 116.981  0.00  0.00    -0.311 N 
ATOM     14  C   LIG d   1      -6.877  77.105 117.276  0.00  0.00     0.210 C 
ATOM     15  C   LIG d   1      -8.059  76.530 118.063  0.00  0.00     0.109 C 
ATOM     16  O   LIG d   1      -6.876  78.297 116.934  0.00  0.00    -0.276 OA
ATOM     17  H   LIG d   1      -6.017  75.275 117.270  0.00  0.00     0.149 HD
ENDBRANCH   6  13
BRANCH   5  18
ATOM     18  N   LIG d   1      -5.535  75.917 113.966  0.00  0.00     0.381 N 
ATOM     19  H   LIG d   1      -6.427  75.698 114.363  0.00  0.00    -0.090 HD
ATOM     20  H   LIG d   1      -5.370  75.292 113.197  0.00  0.00    -0.090 HD
ATOM     21  H   LIG d   1      -5.530  76.860 113.644  0.00  0.00    -0.090 HD
ENDBRANCH   5  18
BRANCH   3  22
ATOM     22  C   LIG d   1      -0.810  75.767 114.731  0.00  0.00     0.382 C 
ATOM     23  O   LIG d   1      -0.414  74.577 114.724  0.00  0.00    -0.241 OA
ATOM     24  O   LIG d   1      -0.048  76.669 114.335  0.00  0.00    -0.241 OA
ENDBRANCH   3  22
TORSDOF 7
ENDMDL
MODEL 8
REMARK VINA RESULT:      -4.0      2.673      5.760
REMARK  7 active torsions:
REMARK  status: ('A' for Active; 'I' for Inactive)
REMARK    1  A    between atoms: C_2  and  C_3 
REMARK    2  A    between atoms: C_3  and  O_6 
REMARK    3  A    between atoms: C_3  and  C_4 
REMARK    4  A    between atoms: C_7  and  O_6 
REMARK    5  A    between atoms: C_9  and  C_10 
REMARK    6  A    between atoms: N_15  and  C_14 
REMARK    7  A    between atoms: N_20  and  C_19 
REMARK       I    between atoms: C_22  and  N_20 
ROOT
ATOM      1  C   LIG d   1      -0.399  80.811 112.765  0.00  0.00     0.161 C 
ATOM      2  C   LIG d   1      -0.519  81.724 111.704  0.00  0.00     0.016 C 
ATOM      3  C   LIG d   1       0.100  82.995 111.699  0.00  0.00     0.038 C 
ATOM      4  C   LIG d   1       1.009  83.382 112.694  0.00  0.00     0.028 C 
ATOM      5  C   LIG d   1       0.767  82.697 114.035  0.00  0.00    -0.047 C 
ATOM      6  C   LIG d   1       0.678  81.170 113.810  0.00  0.00     0.091 C 
ENDROOT
BRANCH   1   7
ATOM      7  O   LIG d   1      -0.172  79.486 112.246  0.00  0.00    -0.368 OA
BRANCH   7   8
ATOM      8  C   LIG d   1      -1.259  78.542 112.410  0.00  0.00     0.119 C 
BRANCH   8   9
ATOM      9  C   LIG d   1      -0.639  77.181 112.782  0.00  0.00     0.028 C 
ATOM     10  C   LIG d   1      -0.497  76.998 114.302  0.00  0.00     0.006 C 
ENDBRANCH   8   9
BRANCH   8  11
ATOM     11  C   LIG d   1      -1.994  78.304 111.087  0.00  0.00     0.028 C 
ATOM     12  C   LIG d   1      -3.464  77.902 111.287  0.00  0.00     0.006 C 
ENDBRANCH   8  11
ENDBRANCH   7   8
ENDBRANCH   1   7
BRANCH   6  13
ATOM     13  N   LIG d   1       0.359  80.431 115.059  0.00  0.00    -0.311 N 
ATOM     14  C   LIG d   1       1.258  80.167 116.005  0.00  0.00     0.210 C 
ATOM     15  C   LIG d   1       0.723  79.375 117.202  0.00  0.00     0.109 C 
ATOM     16  O   LIG d   1       2.440  80.542 115.982  0.00  0.00    -0.276 OA
ATOM     17  H   LIG d   1      -0.585  80.117 115.174  0.00  0.00     0.149 HD
ENDBRANCH   6  13
BRANCH   5  18
ATOM     18  N   LIG d   1       1.866  83.085 114.939  0.00  0.00     0.381 N 
ATOM     19  H   LIG d   1       2.596  82.403 114.897  0.00  0.00    -0.090 HD
ATOM     20  H   LIG d   1       1.517  83.116 115.881  0.00  0.00    -0.090 HD
ATOM     21  H   LIG d   1       2.222  83.979 114.679  0.00  0.00    -0.090 HD
ENDBRANCH   5  18
BRANCH   3  22
ATOM     22  C   LIG d   1      -0.221  83.911 110.708  0.00  0.00     0.382 C 
ATOM     23  O   LIG d   1       0.677  84.362 109.957  0.00  0.00    -0.241 OA
ATOM     24  O   LIG d   1      -1.389  84.325 110.585  0.00  0.00    -0.241 OA
ENDBRANCH   3  22
TORSDOF 7
ENDMDL
MODEL 9
REMARK VINA RESULT:      -3.9      2.263      5.408
REMARK  7 active torsions:
REMARK  status: ('A' for Active; 'I' for Inactive)
REMARK    1  A    between atoms: C_2  and  C_3 
REMARK    2  A    between atoms: C_3  and  O_6 
REMARK    3  A    between atoms: C_3  and  C_4 
REMARK    4  A    between atoms: C_7  and  O_6 
REMARK    5  A    between atoms: C_9  and  C_10 
REMARK    6  A    between atoms: N_15  and  C_14 
REMARK    7  A    between atoms: N_20  and  C_19 
REMARK       I    between atoms: C_22  and  N_20 
ROOT
ATOM      1  C   LIG d   1      -0.350  81.920 112.129  0.00  0.00     0.161 C 
ATOM      2  C   LIG d   1       0.445  82.717 112.969  0.00  0.00     0.016 C 
ATOM      3  C   LIG d   1       1.045  82.238 114.156  0.00  0.00     0.038 C 
ATOM      4  C   LIG d   1       1.015  80.880 114.507  0.00  0.00     0.028 C 
ATOM      5  C   LIG d   1      -0.198  80.139 113.955  0.00  0.00    -0.047 C 
ATOM      6  C   LIG d   1      -0.303  80.409 112.436  0.00  0.00     0.091 C 
ENDROOT
BRANCH   1   7
ATOM      7  O   LIG d   1      -0.001  82.162 110.751  0.00  0.00    -0.368 OA
BRANCH   7   8
ATOM      8  C   LIG d   1       1.374  82.547 110.501  0.00  0.00     0.119 C 
BRANCH   8   9
ATOM      9  C   LIG d   1       1.355  83.670 109.446  0.00  0.00     0.028 C 
ATOM     10  C   LIG d   1       0.212  84.672 109.677  0.00  0.00     0.006 C 
ENDBRANCH   8   9
BRANCH   8  11
ATOM     11  C   LIG d   1       2.164  81.402 109.860  0.00  0.00     0.028 C 
ATOM     12  C   LIG d   1       1.271  80.228 109.430  0.00  0.00     0.006 C 
ENDBRANCH   8  11
ENDBRANCH   7   8
ENDBRANCH   1   7
BRANCH   6  13
ATOM     13  N   LIG d   1      -1.511  79.788 111.832  0.00  0.00    -0.311 N 
ATOM     14  C   LIG d   1      -1.588  78.499 111.506  0.00  0.00     0.210 C 
ATOM     15  C   LIG d   1      -2.917  78.070 110.877  0.00  0.00     0.109 C 
ATOM     16  O   LIG d   1      -0.694  77.664 111.708  0.00  0.00    -0.276 OA
ATOM     17  H   LIG d   1      -2.295  80.388 111.663  0.00  0.00     0.149 HD
ENDBRANCH   6  13
BRANCH   5  18
ATOM     18  N   LIG d   1      -0.032  78.709 114.278  0.00  0.00     0.381 N 
ATOM     19  H   LIG d   1       0.288  78.214 113.469  0.00  0.00    -0.090 HD
ATOM     20  H   LIG d   1      -0.923  78.331 114.547  0.00  0.00    -0.090 HD
ATOM     21  H   LIG d   1       0.621  78.602 115.022  0.00  0.00    -0.090 HD
ENDBRANCH   5  18
BRANCH   3  22
ATOM     22  C   LIG d   1       1.651  83.130 115.028  0.00  0.00     0.382 C 
ATOM     23  O   LIG d   1       2.266  82.703 116.035  0.00  0.00    -0.241 OA
ATOM     24  O   LIG d   1       1.552  84.358 114.845  0.00  0.00    -0.241 OA
ENDBRANCH   3  22
TORSDOF 7
ENDMDL
