MODEL 1
REMARK VINA RESULT:      -5.0      0.000      0.000
REMARK  7 active torsions:
REMARK  status: ('A' for Active; 'I' for Inactive)
REMARK    1  A    between atoms: C_2  and  C_3 
REMARK    2  A    between atoms: C_3  and  O_6 
REMARK    3  A    between atoms: C_3  and  C_4 
REMARK    4  A    between atoms: C_7  and  O_6 
REMARK    5  A    between atoms: C_9  and  C_10 
REMARK    6  A    between atoms: N_15  and  C_14 
REMARK    7  A    between atoms: N_20  and  C_19 
REMARK       I    between atoms: C_22  and  N_20 
ROOT
ATOM      1  C   LIG d   1      -0.664  80.099 114.806  0.00  0.00     0.161 C 
ATOM      2  C   LIG d   1      -0.672  81.332 114.133  0.00  0.00     0.016 C 
ATOM      3  C   LIG d   1      -1.148  81.494 112.812  0.00  0.00     0.038 C 
ATOM      4  C   LIG d   1      -1.794  80.456 112.124  0.00  0.00     0.028 C 
ATOM      5  C   LIG d   1      -1.354  79.066 112.573  0.00  0.00    -0.047 C 
ATOM      6  C   LIG d   1      -1.466  78.978 114.113  0.00  0.00     0.091 C 
ENDROOT
BRANCH   1   7
ATOM      7  O   LIG d   1      -1.123  80.279 116.161  0.00  0.00    -0.368 OA
BRANCH   7   8
ATOM      8  C   LIG d   1      -2.082  81.344 116.373  0.00  0.00     0.119 C 
BRANCH   8   9
ATOM      9  C   LIG d   1      -1.699  82.057 117.684  0.00  0.00     0.028 C 
ATOM     10  C   LIG d   1      -0.419  82.898 117.543  0.00  0.00     0.006 C 
ENDBRANCH   8   9
BRANCH   8  11
ATOM     11  C   LIG d   1      -3.489  80.788 116.609  0.00  0.00     0.028 C 
ATOM     12  C   LIG d   1      -4.088  81.233 117.953  0.00  0.00     0.006 C 
ENDBRANCH   8  11
ENDBRANCH   7   8
ENDBRANCH   1   7
BRANCH   6  13
ATOM     13  N   LIG d   1      -0.975  77.679 114.643  0.00  0.00    -0.311 N 
ATOM     14  C   LIG d   1      -1.746  76.601 114.771  0.00  0.00     0.210 C 
ATOM     15  C   LIG d   1      -1.046  75.371 115.358  0.00  0.00     0.109 C 
ATOM     16  O   LIG d   1      -2.935  76.537 114.425  0.00  0.00    -0.276 OA
ATOM     17  H   LIG d   1      -0.013  77.634 114.919  0.00  0.00     0.149 HD
ENDBRANCH   6  13
BRANCH   5  18
ATOM     18  N   LIG d   1      -2.202  78.083 111.875  0.00  0.00     0.381 N 
ATOM     19  H   LIG d   1      -1.778  77.178 111.919  0.00  0.00    -0.090 HD
ATOM     20  H   LIG d   1      -2.279  78.348 110.909  0.00  0.00    -0.090 HD
ATOM     21  H   LIG d   1      -3.106  78.055 112.292  0.00  0.00    -0.090 HD
ENDBRANCH   5  18
BRANCH   3  22
ATOM     22  C   LIG d   1      -0.945  82.696 112.151  0.00  0.00     0.382 C 
ATOM     23  O   LIG d   1      -0.969  83.775 112.790  0.00  0.00    -0.241 OA
ATOM     24  O   LIG d   1      -0.783  82.718 110.916  0.00  0.00    -0.241 OA
ENDBRANCH   3  22
TORSDOF 7
ENDMDL
MODEL 2
REMARK VINA RESULT:      -4.9      1.898      4.737
REMARK  7 active torsions:
REMARK  status: ('A' for Active; 'I' for Inactive)
REMARK    1  A    between atoms: C_2  and  C_3 
REMARK    2  A    between atoms: C_3  and  O_6 
REMARK    3  A    between atoms: C_3  and  C_4 
REMARK    4  A    between atoms: C_7  and  O_6 
REMARK    5  A    between atoms: C_9  and  C_10 
REMARK    6  A    between atoms: N_15  and  C_14 
REMARK    7  A    between atoms: N_20  and  C_19 
REMARK       I    between atoms: C_22  and  N_20 
ROOT
ATOM      1  C   LIG d   1      -1.888  80.697 114.465  0.00  0.00     0.161 C 
ATOM      2  C   LIG d   1      -2.410  79.477 114.926  0.00  0.00     0.016 C 
ATOM      3  C   LIG d   1      -2.415  78.291 114.156  0.00  0.00     0.038 C 
ATOM      4  C   LIG d   1      -1.757  78.208 112.920  0.00  0.00     0.028 C 
ATOM      5  C   LIG d   1      -1.656  79.546 112.195  0.00  0.00    -0.047 C 
ATOM      6  C   LIG d   1      -1.066  80.597 113.163  0.00  0.00     0.091 C 
ENDROOT
BRANCH   1   7
ATOM      7  O   LIG d   1      -1.106  81.318 115.505  0.00  0.00    -0.368 OA
BRANCH   7   8
ATOM      8  C   LIG d   1      -1.821  82.215 116.390  0.00  0.00     0.119 C 
BRANCH   8   9
ATOM      9  C   LIG d   1      -2.145  83.493 115.591  0.00  0.00     0.028 C 
ATOM     10  C   LIG d   1      -0.908  84.383 115.383  0.00  0.00     0.006 C 
ENDBRANCH   8   9
BRANCH   8  11
ATOM     11  C   LIG d   1      -0.934  82.676 117.551  0.00  0.00     0.028 C 
ATOM     12  C   LIG d   1      -0.906  81.672 118.714  0.00  0.00     0.006 C 
ENDBRANCH   8  11
ENDBRANCH   7   8
ENDBRANCH   1   7
BRANCH   6  13
ATOM     13  N   LIG d   1      -1.012  81.955 112.560  0.00  0.00    -0.311 N 
ATOM     14  C   LIG d   1       0.076  82.456 111.978  0.00  0.00     0.210 C 
ATOM     15  C   LIG d   1      -0.077  83.881 111.439  0.00  0.00     0.109 C 
ATOM     16  O   LIG d   1       1.144  81.842 111.827  0.00  0.00    -0.276 OA
ATOM     17  H   LIG d   1      -1.844  82.509 112.610  0.00  0.00     0.149 HD
ENDBRANCH   6  13
BRANCH   5  18
ATOM     18  N   LIG d   1      -0.829  79.340 110.991  0.00  0.00     0.381 N 
ATOM     19  H   LIG d   1      -0.074  79.996 110.983  0.00  0.00    -0.090 HD
ATOM     20  H   LIG d   1      -1.396  79.500 110.177  0.00  0.00    -0.090 HD
ATOM     21  H   LIG d   1      -0.472  78.410 110.978  0.00  0.00    -0.090 HD
ENDBRANCH   5  18
BRANCH   3  22
ATOM     22  C   LIG d   1      -3.118  77.184 114.604  0.00  0.00     0.382 C 
ATOM     23  O   LIG d   1      -3.994  76.660 113.873  0.00  0.00    -0.241 OA
ATOM     24  O   LIG d   1      -2.920  76.729 115.746  0.00  0.00    -0.241 OA
ENDBRANCH   3  22
TORSDOF 7
ENDMDL
MODEL 3
REMARK VINA RESULT:      -4.9      1.483      1.910
REMARK  7 active torsions:
REMARK  status: ('A' for Active; 'I' for Inactive)
REMARK    1  A    between atoms: C_2  and  C_3 
REMARK    2  A    between atoms: C_3  and  O_6 
REMARK    3  A    between atoms: C_3  and  C_4 
REMARK    4  A    between atoms: C_7  and  O_6 
REMARK    5  A    between atoms: C_9  and  C_10 
REMARK    6  A    between atoms: N_15  and  C_14 
REMARK    7  A    between atoms: N_20  and  C_19 
REMARK       I    between atoms: C_22  and  N_20 
ROOT
ATOM      1  C   LIG d   1      -0.874  81.050 114.779  0.00  0.00     0.161 C 
ATOM      2  C   LIG d   1      -0.672  82.364 114.327  0.00  0.00     0.016 C 
ATOM      3  C   LIG d   1      -0.583  82.712 112.959  0.00  0.00     0.038 C 
ATOM      4  C   LIG d   1      -0.843  81.784 111.940  0.00  0.00     0.028 C 
ATOM      5  C   LIG d   1      -0.552  80.343 112.345  0.00  0.00    -0.047 C 
ATOM      6  C   LIG d   1      -1.270  80.042 113.680  0.00  0.00     0.091 C 
ENDROOT
BRANCH   1   7
ATOM      7  O   LIG d   1      -1.849  81.042 115.841  0.00  0.00    -0.368 OA
BRANCH   7   8
ATOM      8  C   LIG d   1      -1.350  80.718 117.161  0.00  0.00     0.119 C 
BRANCH   8   9
ATOM      9  C   LIG d   1      -1.416  82.002 118.010  0.00  0.00     0.028 C 
ATOM     10  C   LIG d   1      -0.078  82.761 118.031  0.00  0.00     0.006 C 
ENDBRANCH   8   9
BRANCH   8  11
ATOM     11  C   LIG d   1       0.133  80.335 117.119  0.00  0.00     0.028 C 
ATOM     12  C   LIG d   1       0.397  78.915 117.643  0.00  0.00     0.006 C 
ENDBRANCH   8  11
ENDBRANCH   7   8
ENDBRANCH   1   7
BRANCH   6  13
ATOM     13  N   LIG d   1      -0.970  78.679 114.190  0.00  0.00    -0.311 N 
ATOM     14  C   LIG d   1      -1.741  77.619 113.950  0.00  0.00     0.210 C 
ATOM     15  C   LIG d   1      -1.260  76.312 114.587  0.00  0.00     0.109 C 
ATOM     16  O   LIG d   1      -2.760  77.632 113.244  0.00  0.00    -0.276 OA
ATOM     17  H   LIG d   1      -0.144  78.572 114.747  0.00  0.00     0.149 HD
ENDBRANCH   6  13
BRANCH   5  18
ATOM     18  N   LIG d   1      -0.996  79.471 111.240  0.00  0.00     0.381 N 
ATOM     19  H   LIG d   1      -0.200  79.077 110.779  0.00  0.00    -0.090 HD
ATOM     20  H   LIG d   1      -1.504  80.025 110.573  0.00  0.00    -0.090 HD
ATOM     21  H   LIG d   1      -1.579  78.745 111.592  0.00  0.00    -0.090 HD
ENDBRANCH   5  18
BRANCH   3  22
ATOM     22  C   LIG d   1      -0.192  83.993 112.600  0.00  0.00     0.382 C 
ATOM     23  O   LIG d   1       0.504  84.680 113.386  0.00  0.00    -0.241 OA
ATOM     24  O   LIG d   1      -0.564  84.487 111.518  0.00  0.00    -0.241 OA
ENDBRANCH   3  22
TORSDOF 7
ENDMDL
MODEL 4
REMARK VINA RESULT:      -4.7      3.649      6.498
REMARK  7 active torsions:
REMARK  status: ('A' for Active; 'I' for Inactive)
REMARK    1  A    between atoms: C_2  and  C_3 
REMARK    2  A    between atoms: C_3  and  O_6 
REMARK    3  A    between atoms: C_3  and  C_4 
REMARK    4  A    between atoms: C_7  and  O_6 
REMARK    5  A    between atoms: C_9  and  C_10 
REMARK    6  A    between atoms: N_15  and  C_14 
REMARK    7  A    between atoms: N_20  and  C_19 
REMARK       I    between atoms: C_22  and  N_20 
ROOT
ATOM      1  C   LIG d   1      -4.433  78.608 116.560  0.00  0.00     0.161 C 
ATOM      2  C   LIG d   1      -4.099  77.402 115.920  0.00  0.00     0.016 C 
ATOM      3  C   LIG d   1      -4.991  76.312 115.799  0.00  0.00     0.038 C 
ATOM      4  C   LIG d   1      -6.338  76.411 116.179  0.00  0.00     0.028 C 
ATOM      5  C   LIG d   1      -6.581  77.432 117.286  0.00  0.00    -0.047 C 
ATOM      6  C   LIG d   1      -5.932  78.775 116.882  0.00  0.00     0.091 C 
ENDROOT
BRANCH   1   7
ATOM      7  O   LIG d   1      -3.961  79.723 115.777  0.00  0.00    -0.368 OA
BRANCH   7   8
ATOM      8  C   LIG d   1      -2.745  80.358 116.242  0.00  0.00     0.119 C 
BRANCH   8   9
ATOM      9  C   LIG d   1      -3.040  81.862 116.403  0.00  0.00     0.028 C 
ATOM     10  C   LIG d   1      -1.781  82.674 116.748  0.00  0.00     0.006 C 
ENDBRANCH   8   9
BRANCH   8  11
ATOM     11  C   LIG d   1      -1.635  80.274 115.189  0.00  0.00     0.028 C 
ATOM     12  C   LIG d   1      -2.176  80.295 113.751  0.00  0.00     0.006 C 
ENDBRANCH   8  11
ENDBRANCH   7   8
ENDBRANCH   1   7
BRANCH   6  13
ATOM     13  N   LIG d   1      -6.051  79.805 117.947  0.00  0.00    -0.311 N 
ATOM     14  C   LIG d   1      -6.465  81.050 117.719  0.00  0.00     0.210 C 
ATOM     15  C   LIG d   1      -6.495  81.957 118.953  0.00  0.00     0.109 C 
ATOM     16  O   LIG d   1      -6.841  81.480 116.619  0.00  0.00    -0.276 OA
ATOM     17  H   LIG d   1      -5.796  79.532 118.876  0.00  0.00     0.149 HD
ENDBRANCH   6  13
BRANCH   5  18
ATOM     18  N   LIG d   1      -8.039  77.531 117.487  0.00  0.00     0.381 N 
ATOM     19  H   LIG d   1      -8.238  78.217 118.188  0.00  0.00    -0.090 HD
ATOM     20  H   LIG d   1      -8.385  76.644 117.808  0.00  0.00    -0.090 HD
ATOM     21  H   LIG d   1      -8.485  77.781 116.632  0.00  0.00    -0.090 HD
ENDBRANCH   5  18
BRANCH   3  22
ATOM     22  C   LIG d   1      -4.528  75.093 115.329  0.00  0.00     0.382 C 
ATOM     23  O   LIG d   1      -3.704  74.432 116.006  0.00  0.00    -0.241 OA
ATOM     24  O   LIG d   1      -4.889  74.667 114.215  0.00  0.00    -0.241 OA
ENDBRANCH   3  22
TORSDOF 7
ENDMDL
MODEL 5
REMARK VINA RESULT:      -4.7      1.799      2.401
REMARK  7 active torsions:
REMARK  status: ('A' for Active; 'I' for Inactive)
REMARK    1  A    between atoms: C_2  and  C_3 
REMARK    2  A    between atoms: C_3  and  O_6 
REMARK    3  A    between atoms: C_3  and  C_4 
REMARK    4  A    between atoms: C_7  and  O_6 
REMARK    5  A    between atoms: C_9  and  C_10 
REMARK    6  A    between atoms: N_15  and  C_14 
REMARK    7  A    between atoms: N_20  and  C_19 
REMARK       I    between atoms: C_22  and  N_20 
ROOT
ATOM      1  C   LIG d   1      -2.794  79.708 115.325  0.00  0.00     0.161 C 
ATOM      2  C   LIG d   1      -2.517  81.007 114.867  0.00  0.00     0.016 C 
ATOM      3  C   LIG d   1      -1.967  81.282 113.594  0.00  0.00     0.038 C 
ATOM      4  C   LIG d   1      -1.794  80.280 112.628  0.00  0.00     0.028 C 
ATOM      5  C   LIG d   1      -1.588  78.892 113.225  0.00  0.00    -0.047 C 
ATOM      6  C   LIG d   1      -2.716  78.610 114.243  0.00  0.00     0.091 C 
ENDROOT
BRANCH   1   7
ATOM      7  O   LIG d   1      -4.081  79.682 115.973  0.00  0.00    -0.368 OA
BRANCH   7   8
ATOM      8  C   LIG d   1      -4.163  80.355 117.254  0.00  0.00     0.119 C 
BRANCH   8   9
ATOM      9  C   LIG d   1      -4.478  79.287 118.319  0.00  0.00     0.028 C 
ATOM     10  C   LIG d   1      -4.987  77.974 117.700  0.00  0.00     0.006 C 
ENDBRANCH   8   9
BRANCH   8  11
ATOM     11  C   LIG d   1      -5.343  81.331 117.295  0.00  0.00     0.028 C 
ATOM     12  C   LIG d   1      -5.853  81.588 118.722  0.00  0.00     0.006 C 
ENDBRANCH   8  11
ENDBRANCH   7   8
ENDBRANCH   1   7
BRANCH   6  13
ATOM     13  N   LIG d   1      -2.543  77.307 114.936  0.00  0.00    -0.311 N 
ATOM     14  C   LIG d   1      -3.404  76.297 114.825  0.00  0.00     0.210 C 
ATOM     15  C   LIG d   1      -3.046  75.050 115.640  0.00  0.00     0.109 C 
ATOM     16  O   LIG d   1      -4.414  76.305 114.105  0.00  0.00    -0.276 OA
ATOM     17  H   LIG d   1      -1.734  77.204 115.517  0.00  0.00     0.149 HD
ENDBRANCH   6  13
BRANCH   5  18
ATOM     18  N   LIG d   1      -1.560  77.926 112.110  0.00  0.00     0.381 N 
ATOM     19  H   LIG d   1      -0.642  77.539 112.020  0.00  0.00    -0.090 HD
ATOM     20  H   LIG d   1      -1.784  78.408 111.258  0.00  0.00    -0.090 HD
ATOM     21  H   LIG d   1      -2.221  77.199 112.273  0.00  0.00    -0.090 HD
ENDBRANCH   5  18
BRANCH   3  22
ATOM     22  C   LIG d   1      -1.544  82.568 113.291  0.00  0.00     0.382 C 
ATOM     23  O   LIG d   1      -1.529  83.449 114.184  0.00  0.00    -0.241 OA
ATOM     24  O   LIG d   1      -1.220  82.869 112.127  0.00  0.00    -0.241 OA
ENDBRANCH   3  22
TORSDOF 7
ENDMDL
MODEL 6
REMARK VINA RESULT:      -4.4      2.236      5.234
REMARK  7 active torsions:
REMARK  status: ('A' for Active; 'I' for Inactive)
REMARK    1  A    between atoms: C_2  and  C_3 
REMARK    2  A    between atoms: C_3  and  O_6 
REMARK    3  A    between atoms: C_3  and  C_4 
REMARK    4  A    between atoms: C_7  and  O_6 
REMARK    5  A    between atoms: C_9  and  C_10 
REMARK    6  A    between atoms: N_15  and  C_14 
REMARK    7  A    between atoms: N_20  and  C_19 
REMARK       I    between atoms: C_22  and  N_20 
ROOT
ATOM      1  C   LIG d   1      -3.047  78.266 115.683  0.00  0.00     0.161 C 
ATOM      2  C   LIG d   1      -3.952  77.193 115.752  0.00  0.00     0.016 C 
ATOM      3  C   LIG d   1      -3.587  75.850 115.507  0.00  0.00     0.038 C 
ATOM      4  C   LIG d   1      -2.250  75.467 115.323  0.00  0.00     0.028 C 
ATOM      5  C   LIG d   1      -1.376  76.575 114.746  0.00  0.00    -0.047 C 
ATOM      6  C   LIG d   1      -1.563  77.854 115.593  0.00  0.00     0.091 C 
ENDROOT
BRANCH   1   7
ATOM      7  O   LIG d   1      -3.255  79.152 116.800  0.00  0.00    -0.368 OA
BRANCH   7   8
ATOM      8  C   LIG d   1      -3.877  80.425 116.497  0.00  0.00     0.119 C 
BRANCH   8   9
ATOM      9  C   LIG d   1      -2.835  81.527 116.769  0.00  0.00     0.028 C 
ATOM     10  C   LIG d   1      -2.816  82.601 115.668  0.00  0.00     0.006 C 
ENDBRANCH   8   9
BRANCH   8  11
ATOM     11  C   LIG d   1      -5.038  80.719 117.452  0.00  0.00     0.028 C 
ATOM     12  C   LIG d   1      -6.193  79.716 117.313  0.00  0.00     0.006 C 
ENDBRANCH   8  11
ENDBRANCH   7   8
ENDBRANCH   1   7
BRANCH   6  13
ATOM     13  N   LIG d   1      -0.808  79.011 115.046  0.00  0.00    -0.311 N 
ATOM     14  C   LIG d   1      -1.180  79.681 113.957  0.00  0.00     0.210 C 
ATOM     15  C   LIG d   1      -0.248  80.828 113.553  0.00  0.00     0.109 C 
ATOM     16  O   LIG d   1      -2.210  79.453 113.304  0.00  0.00    -0.276 OA
ATOM     17  H   LIG d   1       0.024  79.284 115.532  0.00  0.00     0.149 HD
ENDBRANCH   6  13
BRANCH   5  18
ATOM     18  N   LIG d   1       0.015  76.086 114.735  0.00  0.00     0.381 N 
ATOM     19  H   LIG d   1       0.386  76.139 113.808  0.00  0.00    -0.090 HD
ATOM     20  H   LIG d   1       0.023  75.123 115.023  0.00  0.00    -0.090 HD
ATOM     21  H   LIG d   1       0.573  76.630 115.356  0.00  0.00    -0.090 HD
ENDBRANCH   5  18
BRANCH   3  22
ATOM     22  C   LIG d   1      -4.571  74.878 115.405  0.00  0.00     0.382 C 
ATOM     23  O   LIG d   1      -5.069  74.606 114.286  0.00  0.00    -0.241 OA
ATOM     24  O   LIG d   1      -4.997  74.301 116.423  0.00  0.00    -0.241 OA
ENDBRANCH   3  22
TORSDOF 7
ENDMDL
MODEL 7
REMARK VINA RESULT:      -4.4      2.157      2.999
REMARK  7 active torsions:
REMARK  status: ('A' for Active; 'I' for Inactive)
REMARK    1  A    between atoms: C_2  and  C_3 
REMARK    2  A    between atoms: C_3  and  O_6 
REMARK    3  A    between atoms: C_3  and  C_4 
REMARK    4  A    between atoms: C_7  and  O_6 
REMARK    5  A    between atoms: C_9  and  C_10 
REMARK    6  A    between atoms: N_15  and  C_14 
REMARK    7  A    between atoms: N_20  and  C_19 
REMARK       I    between atoms: C_22  and  N_20 
ROOT
ATOM      1  C   LIG d   1      -2.518  78.988 116.458  0.00  0.00     0.161 C 
ATOM      2  C   LIG d   1      -2.652  80.284 115.934  0.00  0.00     0.016 C 
ATOM      3  C   LIG d   1      -2.391  80.608 114.583  0.00  0.00     0.038 C 
ATOM      4  C   LIG d   1      -2.122  79.621 113.623  0.00  0.00     0.028 C 
ATOM      5  C   LIG d   1      -1.483  78.366 114.207  0.00  0.00    -0.047 C 
ATOM      6  C   LIG d   1      -2.334  77.879 115.402  0.00  0.00     0.091 C 
ENDROOT
BRANCH   1   7
ATOM      7  O   LIG d   1      -3.641  78.687 117.310  0.00  0.00    -0.368 OA
BRANCH   7   8
ATOM      8  C   LIG d   1      -4.932  79.158 116.852  0.00  0.00     0.119 C 
BRANCH   8   9
ATOM      9  C   LIG d   1      -5.429  80.207 117.866  0.00  0.00     0.028 C 
ATOM     10  C   LIG d   1      -5.975  81.471 117.182  0.00  0.00     0.006 C 
ENDBRANCH   8   9
BRANCH   8  11
ATOM     11  C   LIG d   1      -5.977  78.038 116.882  0.00  0.00     0.028 C 
ATOM     12  C   LIG d   1      -5.661  76.902 115.897  0.00  0.00     0.006 C 
ENDBRANCH   8  11
ENDBRANCH   7   8
ENDBRANCH   1   7
BRANCH   6  13
ATOM     13  N   LIG d   1      -1.733  76.703 116.084  0.00  0.00    -0.311 N 
ATOM     14  C   LIG d   1      -2.028  75.443 115.770  0.00  0.00     0.210 C 
ATOM     15  C   LIG d   1      -1.311  74.382 116.610  0.00  0.00     0.109 C 
ATOM     16  O   LIG d   1      -2.791  75.103 114.853  0.00  0.00    -0.276 OA
ATOM     17  H   LIG d   1      -1.079  76.887 116.819  0.00  0.00     0.149 HD
ENDBRANCH   6  13
BRANCH   5  18
ATOM     18  N   LIG d   1      -1.385  77.370 113.123  0.00  0.00     0.381 N 
ATOM     19  H   LIG d   1      -2.296  77.175 112.758  0.00  0.00    -0.090 HD
ATOM     20  H   LIG d   1      -1.006  76.518 113.498  0.00  0.00    -0.090 HD
ATOM     21  H   LIG d   1      -0.795  77.713 112.397  0.00  0.00    -0.090 HD
ENDBRANCH   5  18
BRANCH   3  22
ATOM     22  C   LIG d   1      -2.358  81.937 114.188  0.00  0.00     0.382 C 
ATOM     23  O   LIG d   1      -1.930  82.814 114.976  0.00  0.00    -0.241 OA
ATOM     24  O   LIG d   1      -2.792  82.275 113.071  0.00  0.00    -0.241 OA
ENDBRANCH   3  22
TORSDOF 7
ENDMDL
MODEL 8
REMARK VINA RESULT:      -4.3      3.501      4.899
REMARK  7 active torsions:
REMARK  status: ('A' for Active; 'I' for Inactive)
REMARK    1  A    between atoms: C_2  and  C_3 
REMARK    2  A    between atoms: C_3  and  O_6 
REMARK    3  A    between atoms: C_3  and  C_4 
REMARK    4  A    between atoms: C_7  and  O_6 
REMARK    5  A    between atoms: C_9  and  C_10 
REMARK    6  A    between atoms: N_15  and  C_14 
REMARK    7  A    between atoms: N_20  and  C_19 
REMARK       I    between atoms: C_22  and  N_20 
ROOT
ATOM      1  C   LIG d   1      -2.418  78.822 116.287  0.00  0.00     0.161 C 
ATOM      2  C   LIG d   1      -3.494  78.019 115.873  0.00  0.00     0.016 C 
ATOM      3  C   LIG d   1      -3.340  76.695 115.402  0.00  0.00     0.038 C 
ATOM      4  C   LIG d   1      -2.108  76.027 115.455  0.00  0.00     0.028 C 
ATOM      5  C   LIG d   1      -0.907  76.966 115.392  0.00  0.00    -0.047 C 
ATOM      6  C   LIG d   1      -1.079  78.073 116.456  0.00  0.00     0.091 C 
ENDROOT
BRANCH   1   7
ATOM      7  O   LIG d   1      -2.763  79.513 117.503  0.00  0.00    -0.368 OA
BRANCH   7   8
ATOM      8  C   LIG d   1      -3.156  80.900 117.360  0.00  0.00     0.119 C 
BRANCH   8   9
ATOM      9  C   LIG d   1      -2.051  81.763 117.999  0.00  0.00     0.028 C 
ATOM     10  C   LIG d   1      -1.355  82.678 116.978  0.00  0.00     0.006 C 
ENDBRANCH   8   9
BRANCH   8  11
ATOM     11  C   LIG d   1      -4.424  81.206 118.161  0.00  0.00     0.028 C 
ATOM     12  C   LIG d   1      -5.651  81.444 117.267  0.00  0.00     0.006 C 
ENDBRANCH   8  11
ENDBRANCH   7   8
ENDBRANCH   1   7
BRANCH   6  13
ATOM     13  N   LIG d   1       0.010  79.082 116.406  0.00  0.00    -0.311 N 
ATOM     14  C   LIG d   1       0.707  79.463 117.475  0.00  0.00     0.210 C 
ATOM     15  C   LIG d   1       1.772  80.531 117.207  0.00  0.00     0.109 C 
ATOM     16  O   LIG d   1       0.565  78.996 118.615  0.00  0.00    -0.276 OA
ATOM     17  H   LIG d   1       0.213  79.491 115.514  0.00  0.00     0.149 HD
ENDBRANCH   6  13
BRANCH   5  18
ATOM     18  N   LIG d   1       0.306  76.152 115.595  0.00  0.00     0.381 N 
ATOM     19  H   LIG d   1       1.082  76.747 115.807  0.00  0.00    -0.090 HD
ATOM     20  H   LIG d   1       0.512  75.656 114.745  0.00  0.00    -0.090 HD
ATOM     21  H   LIG d   1       0.162  75.505 116.339  0.00  0.00    -0.090 HD
ENDBRANCH   5  18
BRANCH   3  22
ATOM     22  C   LIG d   1      -4.421  76.038 114.833  0.00  0.00     0.382 C 
ATOM     23  O   LIG d   1      -5.523  76.627 114.720  0.00  0.00    -0.241 OA
ATOM     24  O   LIG d   1      -4.320  74.851 114.471  0.00  0.00    -0.241 OA
ENDBRANCH   3  22
TORSDOF 7
ENDMDL
MODEL 9
REMARK VINA RESULT:      -4.3      4.098      6.219
REMARK  7 active torsions:
REMARK  status: ('A' for Active; 'I' for Inactive)
REMARK    1  A    between atoms: C_2  and  C_3 
REMARK    2  A    between atoms: C_3  and  O_6 
REMARK    3  A    between atoms: C_3  and  C_4 
REMARK    4  A    between atoms: C_7  and  O_6 
REMARK    5  A    between atoms: C_9  and  C_10 
REMARK    6  A    between atoms: N_15  and  C_14 
REMARK    7  A    between atoms: N_20  and  C_19 
REMARK       I    between atoms: C_22  and  N_20 
ROOT
ATOM      1  C   LIG d   1      -4.084  77.147 118.146  0.00  0.00     0.161 C 
ATOM      2  C   LIG d   1      -4.990  78.204 117.960  0.00  0.00     0.016 C 
ATOM      3  C   LIG d   1      -4.798  79.237 117.014  0.00  0.00     0.038 C 
ATOM      4  C   LIG d   1      -3.753  79.200 116.078  0.00  0.00     0.028 C 
ATOM      5  C   LIG d   1      -2.535  78.419 116.561  0.00  0.00    -0.047 C 
ATOM      6  C   LIG d   1      -2.995  77.030 117.059  0.00  0.00     0.091 C 
ENDROOT
BRANCH   1   7
ATOM      7  O   LIG d   1      -4.802  75.904 118.271  0.00  0.00    -0.368 OA
BRANCH   7   8
ATOM      8  C   LIG d   1      -5.911  75.713 117.359  0.00  0.00     0.119 C 
BRANCH   8   9
ATOM      9  C   LIG d   1      -7.131  75.281 118.196  0.00  0.00     0.028 C 
ATOM     10  C   LIG d   1      -8.058  74.323 117.430  0.00  0.00     0.006 C 
ENDBRANCH   8   9
BRANCH   8  11
ATOM     11  C   LIG d   1      -5.648  74.551 116.396  0.00  0.00     0.028 C 
ATOM     12  C   LIG d   1      -5.439  75.014 114.946  0.00  0.00     0.006 C 
ENDBRANCH   8  11
ENDBRANCH   7   8
ENDBRANCH   1   7
BRANCH   6  13
ATOM     13  N   LIG d   1      -1.877  76.232 117.626  0.00  0.00    -0.311 N 
ATOM     14  C   LIG d   1      -1.530  75.029 117.172  0.00  0.00     0.210 C 
ATOM     15  C   LIG d   1      -0.361  74.371 117.912  0.00  0.00     0.109 C 
ATOM     16  O   LIG d   1      -2.057  74.459 116.205  0.00  0.00    -0.276 OA
ATOM     17  H   LIG d   1      -1.374  76.633 118.394  0.00  0.00     0.149 HD
ENDBRANCH   6  13
BRANCH   5  18
ATOM     18  N   LIG d   1      -1.581  78.344 115.439  0.00  0.00     0.381 N 
ATOM     19  H   LIG d   1      -0.795  77.783 115.700  0.00  0.00    -0.090 HD
ATOM     20  H   LIG d   1      -1.252  79.270 115.229  0.00  0.00    -0.090 HD
ATOM     21  H   LIG d   1      -2.026  77.953 114.638  0.00  0.00    -0.090 HD
ENDBRANCH   5  18
BRANCH   3  22
ATOM     22  C   LIG d   1      -5.634  80.342 117.024  0.00  0.00     0.382 C 
ATOM     23  O   LIG d   1      -6.879  80.187 117.046  0.00  0.00    -0.241 OA
ATOM     24  O   LIG d   1      -5.161  81.493 116.965  0.00  0.00    -0.241 OA
ENDBRANCH   3  22
TORSDOF 7
ENDMDL
