MODEL 1
REMARK VINA RESULT:      -5.3      0.000      0.000
REMARK  7 active torsions:
REMARK  status: ('A' for Active; 'I' for Inactive)
REMARK    1  A    between atoms: C_2  and  C_3 
REMARK    2  A    between atoms: C_3  and  O_6 
REMARK    3  A    between atoms: C_3  and  C_4 
REMARK    4  A    between atoms: C_7  and  O_6 
REMARK    5  A    between atoms: C_9  and  C_10 
REMARK    6  A    between atoms: N_15  and  C_14 
REMARK    7  A    between atoms: N_20  and  C_19 
REMARK       I    between atoms: C_22  and  N_20 
ROOT
ATOM      1  C   LIG d   1      -2.474  78.029 114.598  0.00  0.00     0.161 C 
ATOM      2  C   LIG d   1      -2.809  79.069 113.715  0.00  0.00     0.016 C 
ATOM      3  C   LIG d   1      -1.967  80.175 113.461  0.00  0.00     0.038 C 
ATOM      4  C   LIG d   1      -0.658  80.241 113.960  0.00  0.00     0.028 C 
ATOM      5  C   LIG d   1      -0.464  79.463 115.257  0.00  0.00    -0.047 C 
ATOM      6  C   LIG d   1      -1.003  78.027 115.066  0.00  0.00     0.091 C 
ENDROOT
BRANCH   1   7
ATOM      7  O   LIG d   1      -2.813  76.758 114.008  0.00  0.00    -0.368 OA
BRANCH   7   8
ATOM      8  C   LIG d   1      -3.982  76.095 114.550  0.00  0.00     0.119 C 
BRANCH   8   9
ATOM      9  C   LIG d   1      -3.546  74.690 115.006  0.00  0.00     0.028 C 
ATOM     10  C   LIG d   1      -3.754  74.472 116.515  0.00  0.00     0.006 C 
ENDBRANCH   8   9
BRANCH   8  11
ATOM     11  C   LIG d   1      -5.041  75.861 113.469  0.00  0.00     0.028 C 
ATOM     12  C   LIG d   1      -6.419  75.509 114.052  0.00  0.00     0.006 C 
ENDBRANCH   8  11
ENDBRANCH   7   8
ENDBRANCH   1   7
BRANCH   6  13
ATOM     13  N   LIG d   1      -0.929  77.223 116.314  0.00  0.00    -0.311 N 
ATOM     14  C   LIG d   1      -0.344  76.029 116.383  0.00  0.00     0.210 C 
ATOM     15  C   LIG d   1      -0.398  75.362 117.761  0.00  0.00     0.109 C 
ATOM     16  O   LIG d   1       0.241  75.473 115.442  0.00  0.00    -0.276 OA
ATOM     17  H   LIG d   1      -1.352  77.613 117.133  0.00  0.00     0.149 HD
ENDBRANCH   6  13
BRANCH   5  18
ATOM     18  N   LIG d   1       0.972  79.502 115.590  0.00  0.00     0.381 N 
ATOM     19  H   LIG d   1       1.352  80.396 115.348  0.00  0.00    -0.090 HD
ATOM     20  H   LIG d   1       1.450  78.801 115.052  0.00  0.00    -0.090 HD
ATOM     21  H   LIG d   1       1.102  79.330 116.563  0.00  0.00    -0.090 HD
ENDBRANCH   5  18
BRANCH   3  22
ATOM     22  C   LIG d   1      -2.448  81.251 112.730  0.00  0.00     0.382 C 
ATOM     23  O   LIG d   1      -3.628  81.242 112.303  0.00  0.00    -0.241 OA
ATOM     24  O   LIG d   1      -1.704  82.212 112.456  0.00  0.00    -0.241 OA
ENDBRANCH   3  22
TORSDOF 7
ENDMDL
MODEL 2
REMARK VINA RESULT:      -5.2      0.747      1.559
REMARK  7 active torsions:
REMARK  status: ('A' for Active; 'I' for Inactive)
REMARK    1  A    between atoms: C_2  and  C_3 
REMARK    2  A    between atoms: C_3  and  O_6 
REMARK    3  A    between atoms: C_3  and  C_4 
REMARK    4  A    between atoms: C_7  and  O_6 
REMARK    5  A    between atoms: C_9  and  C_10 
REMARK    6  A    between atoms: N_15  and  C_14 
REMARK    7  A    between atoms: N_20  and  C_19 
REMARK       I    between atoms: C_22  and  N_20 
ROOT
ATOM      1  C   LIG d   1      -2.518  77.561 114.689  0.00  0.00     0.161 C 
ATOM      2  C   LIG d   1      -2.997  78.693 114.007  0.00  0.00     0.016 C 
ATOM      3  C   LIG d   1      -2.277  79.906 113.912  0.00  0.00     0.038 C 
ATOM      4  C   LIG d   1      -0.955  80.022 114.366  0.00  0.00     0.028 C 
ATOM      5  C   LIG d   1      -0.620  79.065 115.506  0.00  0.00    -0.047 C 
ATOM      6  C   LIG d   1      -1.031  77.633 115.095  0.00  0.00     0.091 C 
ENDROOT
BRANCH   1   7
ATOM      7  O   LIG d   1      -2.767  76.377 113.905  0.00  0.00    -0.368 OA
BRANCH   7   8
ATOM      8  C   LIG d   1      -3.812  75.500 114.391  0.00  0.00     0.119 C 
BRANCH   8   9
ATOM      9  C   LIG d   1      -5.063  75.746 113.525  0.00  0.00     0.028 C 
ATOM     10  C   LIG d   1      -6.362  75.343 114.242  0.00  0.00     0.006 C 
ENDBRANCH   8   9
BRANCH   8  11
ATOM     11  C   LIG d   1      -4.229  75.867 115.818  0.00  0.00     0.028 C 
ATOM     12  C   LIG d   1      -3.849  74.789 116.846  0.00  0.00     0.006 C 
ENDBRANCH   8  11
ENDBRANCH   7   8
ENDBRANCH   1   7
BRANCH   6  13
ATOM     13  N   LIG d   1      -0.815  76.646 116.186  0.00  0.00    -0.311 N 
ATOM     14  C   LIG d   1      -0.225  75.467 116.002  0.00  0.00     0.210 C 
ATOM     15  C   LIG d   1      -0.121  74.593 117.255  0.00  0.00     0.109 C 
ATOM     16  O   LIG d   1       0.251  75.075 114.926  0.00  0.00    -0.276 OA
ATOM     17  H   LIG d   1      -1.143  76.897 117.098  0.00  0.00     0.149 HD
ENDBRANCH   6  13
BRANCH   5  18
ATOM     18  N   LIG d   1       0.822  79.195 115.788  0.00  0.00     0.381 N 
ATOM     19  H   LIG d   1       1.308  79.457 114.953  0.00  0.00    -0.090 HD
ATOM     20  H   LIG d   1       1.175  78.305 116.091  0.00  0.00    -0.090 HD
ATOM     21  H   LIG d   1       0.971  79.879 116.496  0.00  0.00    -0.090 HD
ENDBRANCH   5  18
BRANCH   3  22
ATOM     22  C   LIG d   1      -2.896  81.033 113.392  0.00  0.00     0.382 C 
ATOM     23  O   LIG d   1      -3.431  80.987 112.258  0.00  0.00    -0.241 OA
ATOM     24  O   LIG d   1      -2.887  82.106 114.023  0.00  0.00    -0.241 OA
ENDBRANCH   3  22
TORSDOF 7
ENDMDL
MODEL 3
REMARK VINA RESULT:      -5.1      3.193      6.494
REMARK  7 active torsions:
REMARK  status: ('A' for Active; 'I' for Inactive)
REMARK    1  A    between atoms: C_2  and  C_3 
REMARK    2  A    between atoms: C_3  and  O_6 
REMARK    3  A    between atoms: C_3  and  C_4 
REMARK    4  A    between atoms: C_7  and  O_6 
REMARK    5  A    between atoms: C_9  and  C_10 
REMARK    6  A    between atoms: N_15  and  C_14 
REMARK    7  A    between atoms: N_20  and  C_19 
REMARK       I    between atoms: C_22  and  N_20 
ROOT
ATOM      1  C   LIG d   1      -2.365  81.238 112.879  0.00  0.00     0.161 C 
ATOM      2  C   LIG d   1      -2.761  79.990 113.389  0.00  0.00     0.016 C 
ATOM      3  C   LIG d   1      -2.060  78.789 113.135  0.00  0.00     0.038 C 
ATOM      4  C   LIG d   1      -0.823  78.778 112.474  0.00  0.00     0.028 C 
ATOM      5  C   LIG d   1      -0.642  79.944 111.508  0.00  0.00    -0.047 C 
ATOM      6  C   LIG d   1      -0.957  81.263 112.249  0.00  0.00     0.091 C 
ENDROOT
BRANCH   1   7
ATOM      7  O   LIG d   1      -2.471  82.242 113.909  0.00  0.00    -0.368 OA
BRANCH   7   8
ATOM      8  C   LIG d   1      -1.860  81.916 115.181  0.00  0.00     0.119 C 
BRANCH   8   9
ATOM      9  C   LIG d   1      -2.916  82.158 116.277  0.00  0.00     0.028 C 
ATOM     10  C   LIG d   1      -2.496  81.573 117.636  0.00  0.00     0.006 C 
ENDBRANCH   8   9
BRANCH   8  11
ATOM     11  C   LIG d   1      -0.710  82.874 115.509  0.00  0.00     0.028 C 
ATOM     12  C   LIG d   1      -0.796  84.196 114.731  0.00  0.00     0.006 C 
ENDBRANCH   8  11
ENDBRANCH   7   8
ENDBRANCH   1   7
BRANCH   6  13
ATOM     13  N   LIG d   1      -0.886  82.447 111.354  0.00  0.00    -0.311 N 
ATOM     14  C   LIG d   1       0.186  83.232 111.260  0.00  0.00     0.210 C 
ATOM     15  C   LIG d   1       0.042  84.411 110.292  0.00  0.00     0.109 C 
ATOM     16  O   LIG d   1       1.254  83.046 111.863  0.00  0.00    -0.276 OA
ATOM     17  H   LIG d   1      -1.698  82.654 110.805  0.00  0.00     0.149 HD
ENDBRANCH   6  13
BRANCH   5  18
ATOM     18  N   LIG d   1       0.739  79.886 110.993  0.00  0.00     0.381 N 
ATOM     19  H   LIG d   1       1.029  80.796 110.697  0.00  0.00    -0.090 HD
ATOM     20  H   LIG d   1       0.765  79.272 110.197  0.00  0.00    -0.090 HD
ATOM     21  H   LIG d   1       1.353  79.548 111.701  0.00  0.00    -0.090 HD
ENDBRANCH   5  18
BRANCH   3  22
ATOM     22  C   LIG d   1      -2.618  77.576 113.510  0.00  0.00     0.382 C 
ATOM     23  O   LIG d   1      -1.904  76.700 114.055  0.00  0.00    -0.241 OA
ATOM     24  O   LIG d   1      -3.815  77.330 113.269  0.00  0.00    -0.241 OA
ENDBRANCH   3  22
TORSDOF 7
ENDMDL
MODEL 4
REMARK VINA RESULT:      -5.0      3.141      4.082
REMARK  7 active torsions:
REMARK  status: ('A' for Active; 'I' for Inactive)
REMARK    1  A    between atoms: C_2  and  C_3 
REMARK    2  A    between atoms: C_3  and  O_6 
REMARK    3  A    between atoms: C_3  and  C_4 
REMARK    4  A    between atoms: C_7  and  O_6 
REMARK    5  A    between atoms: C_9  and  C_10 
REMARK    6  A    between atoms: N_15  and  C_14 
REMARK    7  A    between atoms: N_20  and  C_19 
REMARK       I    between atoms: C_22  and  N_20 
ROOT
ATOM      1  C   LIG d   1      -4.693  76.172 116.605  0.00  0.00     0.161 C 
ATOM      2  C   LIG d   1      -5.585  77.184 117.000  0.00  0.00     0.016 C 
ATOM      3  C   LIG d   1      -5.267  78.561 116.960  0.00  0.00     0.038 C 
ATOM      4  C   LIG d   1      -4.082  79.031 116.375  0.00  0.00     0.028 C 
ATOM      5  C   LIG d   1      -2.939  78.022 116.425  0.00  0.00    -0.047 C 
ATOM      6  C   LIG d   1      -3.437  76.672 115.861  0.00  0.00     0.091 C 
ENDROOT
BRANCH   1   7
ATOM      7  O   LIG d   1      -5.388  75.190 115.812  0.00  0.00    -0.368 OA
BRANCH   7   8
ATOM      8  C   LIG d   1      -6.749  75.519 115.440  0.00  0.00     0.119 C 
BRANCH   8   9
ATOM      9  C   LIG d   1      -7.628  74.296 115.768  0.00  0.00     0.028 C 
ATOM     10  C   LIG d   1      -7.953  74.193 117.268  0.00  0.00     0.006 C 
ENDBRANCH   8   9
BRANCH   8  11
ATOM     11  C   LIG d   1      -6.881  75.718 113.927  0.00  0.00     0.028 C 
ATOM     12  C   LIG d   1      -5.541  75.575 113.189  0.00  0.00     0.006 C 
ENDBRANCH   8  11
ENDBRANCH   7   8
ENDBRANCH   1   7
BRANCH   6  13
ATOM     13  N   LIG d   1      -2.407  75.605 115.951  0.00  0.00    -0.311 N 
ATOM     14  C   LIG d   1      -1.545  75.333 114.972  0.00  0.00     0.210 C 
ATOM     15  C   LIG d   1      -0.579  74.181 115.263  0.00  0.00     0.109 C 
ATOM     16  O   LIG d   1      -1.468  75.959 113.904  0.00  0.00    -0.276 OA
ATOM     17  H   LIG d   1      -2.378  75.069 116.796  0.00  0.00     0.149 HD
ENDBRANCH   6  13
BRANCH   5  18
ATOM     18  N   LIG d   1      -1.811  78.588 115.661  0.00  0.00     0.381 N 
ATOM     19  H   LIG d   1      -2.122  79.381 115.136  0.00  0.00    -0.090 HD
ATOM     20  H   LIG d   1      -1.476  77.894 115.016  0.00  0.00    -0.090 HD
ATOM     21  H   LIG d   1      -1.080  78.857 116.281  0.00  0.00    -0.090 HD
ENDBRANCH   5  18
BRANCH   3  22
ATOM     22  C   LIG d   1      -6.123  79.481 117.545  0.00  0.00     0.382 C 
ATOM     23  O   LIG d   1      -5.800  80.044 118.618  0.00  0.00    -0.241 OA
ATOM     24  O   LIG d   1      -7.234  79.723 117.036  0.00  0.00    -0.241 OA
ENDBRANCH   3  22
TORSDOF 7
ENDMDL
MODEL 5
REMARK VINA RESULT:      -4.9      2.873      4.920
REMARK  7 active torsions:
REMARK  status: ('A' for Active; 'I' for Inactive)
REMARK    1  A    between atoms: C_2  and  C_3 
REMARK    2  A    between atoms: C_3  and  O_6 
REMARK    3  A    between atoms: C_3  and  C_4 
REMARK    4  A    between atoms: C_7  and  O_6 
REMARK    5  A    between atoms: C_9  and  C_10 
REMARK    6  A    between atoms: N_15  and  C_14 
REMARK    7  A    between atoms: N_20  and  C_19 
REMARK       I    between atoms: C_22  and  N_20 
ROOT
ATOM      1  C   LIG d   1      -0.010  80.507 114.754  0.00  0.00     0.161 C 
ATOM      2  C   LIG d   1       0.135  81.845 114.351  0.00  0.00     0.016 C 
ATOM      3  C   LIG d   1      -0.151  82.300 113.043  0.00  0.00     0.038 C 
ATOM      4  C   LIG d   1      -0.749  81.469 112.084  0.00  0.00     0.028 C 
ATOM      5  C   LIG d   1      -0.445  79.989 112.290  0.00  0.00    -0.047 C 
ATOM      6  C   LIG d   1      -0.767  79.609 113.753  0.00  0.00     0.091 C 
ENDROOT
BRANCH   1   7
ATOM      7  O   LIG d   1      -0.638  80.453 116.050  0.00  0.00    -0.368 OA
BRANCH   7   8
ATOM      8  C   LIG d   1      -1.058  81.722 116.609  0.00  0.00     0.119 C 
BRANCH   8   9
ATOM      9  C   LIG d   1      -0.648  81.731 118.095  0.00  0.00     0.028 C 
ATOM     10  C   LIG d   1      -1.860  81.649 119.038  0.00  0.00     0.006 C 
ENDBRANCH   8   9
BRANCH   8  11
ATOM     11  C   LIG d   1      -2.584  81.853 116.608  0.00  0.00     0.028 C 
ATOM     12  C   LIG d   1      -3.100  82.797 115.510  0.00  0.00     0.006 C 
ENDBRANCH   8  11
ENDBRANCH   7   8
ENDBRANCH   1   7
BRANCH   6  13
ATOM     13  N   LIG d   1      -0.419  78.198 114.062  0.00  0.00    -0.311 N 
ATOM     14  C   LIG d   1      -1.286  77.192 113.970  0.00  0.00     0.210 C 
ATOM     15  C   LIG d   1      -0.726  75.818 114.354  0.00  0.00     0.109 C 
ATOM     16  O   LIG d   1      -2.457  77.301 113.576  0.00  0.00    -0.276 OA
ATOM     17  H   LIG d   1       0.519  78.015 114.360  0.00  0.00     0.149 HD
ENDBRANCH   6  13
BRANCH   5  18
ATOM     18  N   LIG d   1      -1.240  79.230 111.307  0.00  0.00     0.381 N 
ATOM     19  H   LIG d   1      -2.108  79.699 111.138  0.00  0.00    -0.090 HD
ATOM     20  H   LIG d   1      -1.442  78.321 111.684  0.00  0.00    -0.090 HD
ATOM     21  H   LIG d   1      -0.733  79.139 110.454  0.00  0.00    -0.090 HD
ENDBRANCH   5  18
BRANCH   3  22
ATOM     22  C   LIG d   1       0.200  83.589 112.671  0.00  0.00     0.382 C 
ATOM     23  O   LIG d   1       1.408  83.888 112.509  0.00  0.00    -0.241 OA
ATOM     24  O   LIG d   1      -0.672  84.468 112.540  0.00  0.00    -0.241 OA
ENDBRANCH   3  22
TORSDOF 7
ENDMDL
MODEL 6
REMARK VINA RESULT:      -4.7      4.028      6.650
REMARK  7 active torsions:
REMARK  status: ('A' for Active; 'I' for Inactive)
REMARK    1  A    between atoms: C_2  and  C_3 
REMARK    2  A    between atoms: C_3  and  O_6 
REMARK    3  A    between atoms: C_3  and  C_4 
REMARK    4  A    between atoms: C_7  and  O_6 
REMARK    5  A    between atoms: C_9  and  C_10 
REMARK    6  A    between atoms: N_15  and  C_14 
REMARK    7  A    between atoms: N_20  and  C_19 
REMARK       I    between atoms: C_22  and  N_20 
ROOT
ATOM      1  C   LIG d   1      -4.539  78.117 116.345  0.00  0.00     0.161 C 
ATOM      2  C   LIG d   1      -4.026  77.215 115.398  0.00  0.00     0.016 C 
ATOM      3  C   LIG d   1      -4.780  76.152 114.849  0.00  0.00     0.038 C 
ATOM      4  C   LIG d   1      -6.153  76.010 115.098  0.00  0.00     0.028 C 
ATOM      5  C   LIG d   1      -6.589  76.595 116.438  0.00  0.00    -0.047 C 
ATOM      6  C   LIG d   1      -6.067  78.046 116.546  0.00  0.00     0.091 C 
ENDROOT
BRANCH   1   7
ATOM      7  O   LIG d   1      -4.140  79.460 116.006  0.00  0.00    -0.368 OA
BRANCH   7   8
ATOM      8  C   LIG d   1      -3.089  80.037 116.819  0.00  0.00     0.119 C 
BRANCH   8   9
ATOM      9  C   LIG d   1      -3.657  81.312 117.472  0.00  0.00     0.028 C 
ATOM     10  C   LIG d   1      -3.118  81.532 118.896  0.00  0.00     0.006 C 
ENDBRANCH   8   9
BRANCH   8  11
ATOM     11  C   LIG d   1      -1.915  80.512 115.958  0.00  0.00     0.028 C 
ATOM     12  C   LIG d   1      -2.359  81.045 114.586  0.00  0.00     0.006 C 
ENDBRANCH   8  11
ENDBRANCH   7   8
ENDBRANCH   1   7
BRANCH   6  13
ATOM     13  N   LIG d   1      -6.377  78.663 117.861  0.00  0.00    -0.311 N 
ATOM     14  C   LIG d   1      -7.001  79.833 117.994  0.00  0.00     0.210 C 
ATOM     15  C   LIG d   1      -7.204  80.297 119.439  0.00  0.00     0.109 C 
ATOM     16  O   LIG d   1      -7.434  80.514 117.052  0.00  0.00    -0.276 OA
ATOM     17  H   LIG d   1      -6.089  78.163 118.679  0.00  0.00     0.149 HD
ENDBRANCH   6  13
BRANCH   5  18
ATOM     18  N   LIG d   1      -8.060  76.502 116.507  0.00  0.00     0.381 N 
ATOM     19  H   LIG d   1      -8.461  77.415 116.419  0.00  0.00    -0.090 HD
ATOM     20  H   LIG d   1      -8.320  76.128 117.402  0.00  0.00    -0.090 HD
ATOM     21  H   LIG d   1      -8.399  75.911 115.780  0.00  0.00    -0.090 HD
ENDBRANCH   5  18
BRANCH   3  22
ATOM     22  C   LIG d   1      -4.150  75.193 114.071  0.00  0.00     0.382 C 
ATOM     23  O   LIG d   1      -4.791  74.592 113.175  0.00  0.00    -0.241 OA
ATOM     24  O   LIG d   1      -2.960  74.890 114.282  0.00  0.00    -0.241 OA
ENDBRANCH   3  22
TORSDOF 7
ENDMDL
MODEL 7
REMARK VINA RESULT:      -4.7      2.648      3.450
REMARK  7 active torsions:
REMARK  status: ('A' for Active; 'I' for Inactive)
REMARK    1  A    between atoms: C_2  and  C_3 
REMARK    2  A    between atoms: C_3  and  O_6 
REMARK    3  A    between atoms: C_3  and  C_4 
REMARK    4  A    between atoms: C_7  and  O_6 
REMARK    5  A    between atoms: C_9  and  C_10 
REMARK    6  A    between atoms: N_15  and  C_14 
REMARK    7  A    between atoms: N_20  and  C_19 
REMARK       I    between atoms: C_22  and  N_20 
ROOT
ATOM      1  C   LIG d   1      -1.772  79.602 116.058  0.00  0.00     0.161 C 
ATOM      2  C   LIG d   1      -2.280  80.394 115.015  0.00  0.00     0.016 C 
ATOM      3  C   LIG d   1      -2.249  80.004 113.656  0.00  0.00     0.038 C 
ATOM      4  C   LIG d   1      -1.840  78.722 113.261  0.00  0.00     0.028 C 
ATOM      5  C   LIG d   1      -0.849  78.079 114.226  0.00  0.00    -0.047 C 
ATOM      6  C   LIG d   1      -1.423  78.153 115.659  0.00  0.00     0.091 C 
ENDROOT
BRANCH   1   7
ATOM      7  O   LIG d   1      -2.690  79.608 117.169  0.00  0.00    -0.368 OA
BRANCH   7   8
ATOM      8  C   LIG d   1      -4.035  80.065 116.882  0.00  0.00     0.119 C 
BRANCH   8   9
ATOM      9  C   LIG d   1      -4.431  81.062 117.988  0.00  0.00     0.028 C 
ATOM     10  C   LIG d   1      -3.225  81.520 118.825  0.00  0.00     0.006 C 
ENDBRANCH   8   9
BRANCH   8  11
ATOM     11  C   LIG d   1      -5.046  78.920 116.986  0.00  0.00     0.028 C 
ATOM     12  C   LIG d   1      -6.442  79.395 117.419  0.00  0.00     0.006 C 
ENDBRANCH   8  11
ENDBRANCH   7   8
ENDBRANCH   1   7
BRANCH   6  13
ATOM     13  N   LIG d   1      -0.478  77.621 116.676  0.00  0.00    -0.311 N 
ATOM     14  C   LIG d   1      -0.488  76.357 117.095  0.00  0.00     0.210 C 
ATOM     15  C   LIG d   1       0.558  76.022 118.164  0.00  0.00     0.109 C 
ATOM     16  O   LIG d   1      -1.241  75.473 116.660  0.00  0.00    -0.276 OA
ATOM     17  H   LIG d   1       0.188  78.263 117.059  0.00  0.00     0.149 HD
ENDBRANCH   6  13
BRANCH   5  18
ATOM     18  N   LIG d   1      -0.614  76.696 113.767  0.00  0.00     0.381 N 
ATOM     19  H   LIG d   1       0.005  76.701 112.981  0.00  0.00    -0.090 HD
ATOM     20  H   LIG d   1      -1.489  76.297 113.477  0.00  0.00    -0.090 HD
ATOM     21  H   LIG d   1      -0.221  76.155 114.506  0.00  0.00    -0.090 HD
ENDBRANCH   5  18
BRANCH   3  22
ATOM     22  C   LIG d   1      -2.592  80.918 112.671  0.00  0.00     0.382 C 
ATOM     23  O   LIG d   1      -1.799  81.150 111.727  0.00  0.00    -0.241 OA
ATOM     24  O   LIG d   1      -3.666  81.546 112.739  0.00  0.00    -0.241 OA
ENDBRANCH   3  22
TORSDOF 7
ENDMDL
MODEL 8
REMARK VINA RESULT:      -4.5      2.225      2.785
REMARK  7 active torsions:
REMARK  status: ('A' for Active; 'I' for Inactive)
REMARK    1  A    between atoms: C_2  and  C_3 
REMARK    2  A    between atoms: C_3  and  O_6 
REMARK    3  A    between atoms: C_3  and  C_4 
REMARK    4  A    between atoms: C_7  and  O_6 
REMARK    5  A    between atoms: C_9  and  C_10 
REMARK    6  A    between atoms: N_15  and  C_14 
REMARK    7  A    between atoms: N_20  and  C_19 
REMARK       I    between atoms: C_22  and  N_20 
ROOT
ATOM      1  C   LIG d   1      -2.585  77.916 115.294  0.00  0.00     0.161 C 
ATOM      2  C   LIG d   1      -2.575  78.529 114.031  0.00  0.00     0.016 C 
ATOM      3  C   LIG d   1      -2.424  79.923 113.843  0.00  0.00     0.038 C 
ATOM      4  C   LIG d   1      -2.121  80.785 114.907  0.00  0.00     0.028 C 
ATOM      5  C   LIG d   1      -2.622  80.283 116.257  0.00  0.00    -0.047 C 
ATOM      6  C   LIG d   1      -2.144  78.827 116.459  0.00  0.00     0.091 C 
ENDROOT
BRANCH   1   7
ATOM      7  O   LIG d   1      -1.783  76.719 115.263  0.00  0.00    -0.368 OA
BRANCH   7   8
ATOM      8  C   LIG d   1      -2.423  75.536 114.723  0.00  0.00     0.119 C 
BRANCH   8   9
ATOM      9  C   LIG d   1      -3.393  75.004 115.797  0.00  0.00     0.028 C 
ATOM     10  C   LIG d   1      -2.667  74.585 117.087  0.00  0.00     0.006 C 
ENDBRANCH   8   9
BRANCH   8  11
ATOM     11  C   LIG d   1      -1.412  74.409 114.496  0.00  0.00     0.028 C 
ATOM     12  C   LIG d   1       0.028  74.924 114.337  0.00  0.00     0.006 C 
ENDBRANCH   8  11
ENDBRANCH   7   8
ENDBRANCH   1   7
BRANCH   6  13
ATOM     13  N   LIG d   1      -2.662  78.230 117.718  0.00  0.00    -0.311 N 
ATOM     14  C   LIG d   1      -1.881  77.868 118.734  0.00  0.00     0.210 C 
ATOM     15  C   LIG d   1      -2.616  77.255 119.929  0.00  0.00     0.109 C 
ATOM     16  O   LIG d   1      -0.651  78.027 118.771  0.00  0.00    -0.276 OA
ATOM     17  H   LIG d   1      -3.652  78.094 117.785  0.00  0.00     0.149 HD
ENDBRANCH   6  13
BRANCH   5  18
ATOM     18  N   LIG d   1      -2.119  81.206 117.291  0.00  0.00     0.381 N 
ATOM     19  H   LIG d   1      -2.451  82.132 117.110  0.00  0.00    -0.090 HD
ATOM     20  H   LIG d   1      -1.115  81.218 117.255  0.00  0.00    -0.090 HD
ATOM     21  H   LIG d   1      -2.422  80.907 118.192  0.00  0.00    -0.090 HD
ENDBRANCH   5  18
BRANCH   3  22
ATOM     22  C   LIG d   1      -2.618  80.472 112.585  0.00  0.00     0.382 C 
ATOM     23  O   LIG d   1      -1.790  80.246 111.669  0.00  0.00    -0.241 OA
ATOM     24  O   LIG d   1      -3.585  81.225 112.366  0.00  0.00    -0.241 OA
ENDBRANCH   3  22
TORSDOF 7
ENDMDL
MODEL 9
REMARK VINA RESULT:      -4.5      2.243      2.734
REMARK  7 active torsions:
REMARK  status: ('A' for Active; 'I' for Inactive)
REMARK    1  A    between atoms: C_2  and  C_3 
REMARK    2  A    between atoms: C_3  and  O_6 
REMARK    3  A    between atoms: C_3  and  C_4 
REMARK    4  A    between atoms: C_7  and  O_6 
REMARK    5  A    between atoms: C_9  and  C_10 
REMARK    6  A    between atoms: N_15  and  C_14 
REMARK    7  A    between atoms: N_20  and  C_19 
REMARK       I    between atoms: C_22  and  N_20 
ROOT
ATOM      1  C   LIG d   1      -2.152  79.248 116.184  0.00  0.00     0.161 C 
ATOM      2  C   LIG d   1      -2.607  80.170 115.227  0.00  0.00     0.016 C 
ATOM      3  C   LIG d   1      -2.415  80.006 113.836  0.00  0.00     0.038 C 
ATOM      4  C   LIG d   1      -1.883  78.827 113.295  0.00  0.00     0.028 C 
ATOM      5  C   LIG d   1      -0.951  78.088 114.249  0.00  0.00    -0.047 C 
ATOM      6  C   LIG d   1      -1.668  77.901 115.606  0.00  0.00     0.091 C 
ENDROOT
BRANCH   1   7
ATOM      7  O   LIG d   1      -3.174  79.028 117.177  0.00  0.00    -0.368 OA
BRANCH   7   8
ATOM      8  C   LIG d   1      -4.373  78.357 116.719  0.00  0.00     0.119 C 
BRANCH   8   9
ATOM      9  C   LIG d   1      -5.580  79.189 117.193  0.00  0.00     0.028 C 
ATOM     10  C   LIG d   1      -6.280  78.567 118.413  0.00  0.00     0.006 C 
ENDBRANCH   8   9
BRANCH   8  11
ATOM     11  C   LIG d   1      -4.536  76.989 117.389  0.00  0.00     0.028 C 
ATOM     12  C   LIG d   1      -4.713  75.847 116.376  0.00  0.00     0.006 C 
ENDBRANCH   8  11
ENDBRANCH   7   8
ENDBRANCH   1   7
BRANCH   6  13
ATOM     13  N   LIG d   1      -0.795  77.262 116.625  0.00  0.00    -0.311 N 
ATOM     14  C   LIG d   1      -0.736  75.945 116.817  0.00  0.00     0.210 C 
ATOM     15  C   LIG d   1       0.214  75.496 117.932  0.00  0.00     0.109 C 
ATOM     16  O   LIG d   1      -1.355  75.104 116.148  0.00  0.00    -0.276 OA
ATOM     17  H   LIG d   1      -0.235  77.868 117.191  0.00  0.00     0.149 HD
ENDBRANCH   6  13
BRANCH   5  18
ATOM     18  N   LIG d   1      -0.579  76.811 113.611  0.00  0.00     0.381 N 
ATOM     19  H   LIG d   1      -1.364  76.441 113.113  0.00  0.00    -0.090 HD
ATOM     20  H   LIG d   1      -0.321  76.154 114.325  0.00  0.00    -0.090 HD
ATOM     21  H   LIG d   1       0.184  76.952 112.986  0.00  0.00    -0.090 HD
ENDBRANCH   5  18
BRANCH   3  22
ATOM     22  C   LIG d   1      -2.720  81.048 112.973  0.00  0.00     0.382 C 
ATOM     23  O   LIG d   1      -2.044  82.104 113.002  0.00  0.00    -0.241 OA
ATOM     24  O   LIG d   1      -3.691  80.962 112.197  0.00  0.00    -0.241 OA
ENDBRANCH   3  22
TORSDOF 7
ENDMDL
