MODEL 1
REMARK VINA RESULT:      -5.3      0.000      0.000
REMARK  7 active torsions:
REMARK  status: ('A' for Active; 'I' for Inactive)
REMARK    1  A    between atoms: C_2  and  C_3 
REMARK    2  A    between atoms: C_3  and  O_6 
REMARK    3  A    between atoms: C_3  and  C_4 
REMARK    4  A    between atoms: C_7  and  O_6 
REMARK    5  A    between atoms: C_9  and  C_10 
REMARK    6  A    between atoms: N_15  and  C_14 
REMARK    7  A    between atoms: N_20  and  C_19 
REMARK       I    between atoms: C_22  and  N_20 
ROOT
ATOM      1  C   LIG d   1      -2.439  75.790 115.069  0.00  0.00     0.161 C 
ATOM      2  C   LIG d   1      -2.338  75.404 116.416  0.00  0.00     0.016 C 
ATOM      3  C   LIG d   1      -1.703  76.189 117.406  0.00  0.00     0.038 C 
ATOM      4  C   LIG d   1      -1.256  77.493 117.143  0.00  0.00     0.028 C 
ATOM      5  C   LIG d   1      -0.883  77.722 115.682  0.00  0.00    -0.047 C 
ATOM      6  C   LIG d   1      -2.055  77.257 114.787  0.00  0.00     0.091 C 
ENDROOT
BRANCH   1   7
ATOM      7  O   LIG d   1      -3.767  75.517 114.581  0.00  0.00    -0.368 OA
BRANCH   7   8
ATOM      8  C   LIG d   1      -4.821  75.497 115.575  0.00  0.00     0.119 C 
BRANCH   8   9
ATOM      9  C   LIG d   1      -5.846  74.432 115.142  0.00  0.00     0.028 C 
ATOM     10  C   LIG d   1      -6.920  74.180 116.214  0.00  0.00     0.006 C 
ENDBRANCH   8   9
BRANCH   8  11
ATOM     11  C   LIG d   1      -5.593  76.819 115.596  0.00  0.00     0.028 C 
ATOM     12  C   LIG d   1      -5.301  77.660 116.849  0.00  0.00     0.006 C 
ENDBRANCH   8  11
ENDBRANCH   7   8
ENDBRANCH   1   7
BRANCH   6  13
ATOM     13  N   LIG d   1      -1.740  77.369 113.338  0.00  0.00    -0.311 N 
ATOM     14  C   LIG d   1      -2.556  77.938 112.453  0.00  0.00     0.210 C 
ATOM     15  C   LIG d   1      -2.048  77.930 111.008  0.00  0.00     0.109 C 
ATOM     16  O   LIG d   1      -3.638  78.477 112.732  0.00  0.00    -0.276 OA
ATOM     17  H   LIG d   1      -0.868  76.985 113.030  0.00  0.00     0.149 HD
ENDBRANCH   6  13
BRANCH   5  18
ATOM     18  N   LIG d   1      -0.567  79.154 115.522  0.00  0.00     0.381 N 
ATOM     19  H   LIG d   1      -1.305  79.611 115.024  0.00  0.00    -0.090 HD
ATOM     20  H   LIG d   1       0.278  79.242 114.986  0.00  0.00    -0.090 HD
ATOM     21  H   LIG d   1      -0.447  79.579 116.416  0.00  0.00    -0.090 HD
ENDBRANCH   5  18
BRANCH   3  22
ATOM     22  C   LIG d   1      -1.475  75.656 118.665  0.00  0.00     0.382 C 
ATOM     23  O   LIG d   1      -1.659  76.360 119.687  0.00  0.00    -0.241 OA
ATOM     24  O   LIG d   1      -1.045  74.494 118.790  0.00  0.00    -0.241 OA
ENDBRANCH   3  22
TORSDOF 7
ENDMDL
MODEL 2
REMARK VINA RESULT:      -5.2      1.969      4.896
REMARK  7 active torsions:
REMARK  status: ('A' for Active; 'I' for Inactive)
REMARK    1  A    between atoms: C_2  and  C_3 
REMARK    2  A    between atoms: C_3  and  O_6 
REMARK    3  A    between atoms: C_3  and  C_4 
REMARK    4  A    between atoms: C_7  and  O_6 
REMARK    5  A    between atoms: C_9  and  C_10 
REMARK    6  A    between atoms: N_15  and  C_14 
REMARK    7  A    between atoms: N_20  and  C_19 
REMARK       I    between atoms: C_22  and  N_20 
ROOT
ATOM      1  C   LIG d   1      -3.100  78.051 116.544  0.00  0.00     0.161 C 
ATOM      2  C   LIG d   1      -3.352  78.879 115.437  0.00  0.00     0.016 C 
ATOM      3  C   LIG d   1      -2.620  78.809 114.230  0.00  0.00     0.038 C 
ATOM      4  C   LIG d   1      -1.679  77.796 113.991  0.00  0.00     0.028 C 
ATOM      5  C   LIG d   1      -1.037  77.254 115.263  0.00  0.00    -0.047 C 
ATOM      6  C   LIG d   1      -2.151  76.866 116.262  0.00  0.00     0.091 C 
ENDROOT
BRANCH   1   7
ATOM      7  O   LIG d   1      -4.345  77.576 117.093  0.00  0.00    -0.368 OA
BRANCH   7   8
ATOM      8  C   LIG d   1      -5.419  77.361 116.144  0.00  0.00     0.119 C 
BRANCH   8   9
ATOM      9  C   LIG d   1      -6.735  77.769 116.834  0.00  0.00     0.028 C 
ATOM     10  C   LIG d   1      -7.889  76.805 116.514  0.00  0.00     0.006 C 
ENDBRANCH   8   9
BRANCH   8  11
ATOM     11  C   LIG d   1      -5.580  75.874 115.812  0.00  0.00     0.028 C 
ATOM     12  C   LIG d   1      -5.108  75.527 114.392  0.00  0.00     0.006 C 
ENDBRANCH   8  11
ENDBRANCH   7   8
ENDBRANCH   1   7
BRANCH   6  13
ATOM     13  N   LIG d   1      -1.609  76.405 117.566  0.00  0.00    -0.311 N 
ATOM     14  C   LIG d   1      -1.387  75.124 117.856  0.00  0.00     0.210 C 
ATOM     15  C   LIG d   1      -0.843  74.864 119.264  0.00  0.00     0.109 C 
ATOM     16  O   LIG d   1      -1.558  74.181 117.069  0.00  0.00    -0.276 OA
ATOM     17  H   LIG d   1      -1.411  77.107 118.252  0.00  0.00     0.149 HD
ENDBRANCH   6  13
BRANCH   5  18
ATOM     18  N   LIG d   1      -0.182  76.114 114.880  0.00  0.00     0.381 N 
ATOM     19  H   LIG d   1       0.781  76.367 114.972  0.00  0.00    -0.090 HD
ATOM     20  H   LIG d   1      -0.358  75.885 113.918  0.00  0.00    -0.090 HD
ATOM     21  H   LIG d   1      -0.383  75.328 115.458  0.00  0.00    -0.090 HD
ENDBRANCH   5  18
BRANCH   3  22
ATOM     22  C   LIG d   1      -2.799  79.784 113.260  0.00  0.00     0.382 C 
ATOM     23  O   LIG d   1      -2.307  79.628 112.116  0.00  0.00    -0.241 OA
ATOM     24  O   LIG d   1      -3.408  80.837 113.528  0.00  0.00    -0.241 OA
ENDBRANCH   3  22
TORSDOF 7
ENDMDL
MODEL 3
REMARK VINA RESULT:      -5.0      1.079      1.714
REMARK  7 active torsions:
REMARK  status: ('A' for Active; 'I' for Inactive)
REMARK    1  A    between atoms: C_2  and  C_3 
REMARK    2  A    between atoms: C_3  and  O_6 
REMARK    3  A    between atoms: C_3  and  C_4 
REMARK    4  A    between atoms: C_7  and  O_6 
REMARK    5  A    between atoms: C_9  and  C_10 
REMARK    6  A    between atoms: N_15  and  C_14 
REMARK    7  A    between atoms: N_20  and  C_19 
REMARK       I    between atoms: C_22  and  N_20 
ROOT
ATOM      1  C   LIG d   1      -1.627  76.155 115.195  0.00  0.00     0.161 C 
ATOM      2  C   LIG d   1      -1.302  76.032 116.557  0.00  0.00     0.016 C 
ATOM      3  C   LIG d   1      -0.959  77.132 117.376  0.00  0.00     0.038 C 
ATOM      4  C   LIG d   1      -1.065  78.456 116.924  0.00  0.00     0.028 C 
ATOM      5  C   LIG d   1      -0.902  78.595 115.414  0.00  0.00    -0.047 C 
ATOM      6  C   LIG d   1      -1.856  77.602 114.713  0.00  0.00     0.091 C 
ENDROOT
BRANCH   1   7
ATOM      7  O   LIG d   1      -2.775  75.338 114.892  0.00  0.00    -0.368 OA
BRANCH   7   8
ATOM      8  C   LIG d   1      -4.069  75.937 115.146  0.00  0.00     0.119 C 
BRANCH   8   9
ATOM      9  C   LIG d   1      -4.459  75.600 116.598  0.00  0.00     0.028 C 
ATOM     10  C   LIG d   1      -4.703  76.859 117.448  0.00  0.00     0.006 C 
ENDBRANCH   8   9
BRANCH   8  11
ATOM     11  C   LIG d   1      -5.158  75.302 114.276  0.00  0.00     0.028 C 
ATOM     12  C   LIG d   1      -6.151  74.456 115.088  0.00  0.00     0.006 C 
ENDBRANCH   8  11
ENDBRANCH   7   8
ENDBRANCH   1   7
BRANCH   6  13
ATOM     13  N   LIG d   1      -1.700  77.614 113.235  0.00  0.00    -0.311 N 
ATOM     14  C   LIG d   1      -2.638  78.060 112.402  0.00  0.00     0.210 C 
ATOM     15  C   LIG d   1      -2.281  77.964 110.915  0.00  0.00     0.109 C 
ATOM     16  O   LIG d   1      -3.719  78.557 112.754  0.00  0.00    -0.276 OA
ATOM     17  H   LIG d   1      -0.840  77.258 112.864  0.00  0.00     0.149 HD
ENDBRANCH   6  13
BRANCH   5  18
ATOM     18  N   LIG d   1      -1.172  80.002 115.065  0.00  0.00     0.381 N 
ATOM     19  H   LIG d   1      -0.751  80.606 115.742  0.00  0.00    -0.090 HD
ATOM     20  H   LIG d   1      -2.165  80.156 115.079  0.00  0.00    -0.090 HD
ATOM     21  H   LIG d   1      -0.810  80.204 114.159  0.00  0.00    -0.090 HD
ENDBRANCH   5  18
BRANCH   3  22
ATOM     22  C   LIG d   1      -0.465  76.910 118.653  0.00  0.00     0.382 C 
ATOM     23  O   LIG d   1      -1.257  76.728 119.609  0.00  0.00    -0.241 OA
ATOM     24  O   LIG d   1       0.762  76.933 118.869  0.00  0.00    -0.241 OA
ENDBRANCH   3  22
TORSDOF 7
ENDMDL
MODEL 4
REMARK VINA RESULT:      -4.9      3.018      5.342
REMARK  7 active torsions:
REMARK  status: ('A' for Active; 'I' for Inactive)
REMARK    1  A    between atoms: C_2  and  C_3 
REMARK    2  A    between atoms: C_3  and  O_6 
REMARK    3  A    between atoms: C_3  and  C_4 
REMARK    4  A    between atoms: C_7  and  O_6 
REMARK    5  A    between atoms: C_9  and  C_10 
REMARK    6  A    between atoms: N_15  and  C_14 
REMARK    7  A    between atoms: N_20  and  C_19 
REMARK       I    between atoms: C_22  and  N_20 
ROOT
ATOM      1  C   LIG d   1      -2.091  79.935 114.360  0.00  0.00     0.161 C 
ATOM      2  C   LIG d   1      -2.845  78.771 114.581  0.00  0.00     0.016 C 
ATOM      3  C   LIG d   1      -3.022  77.762 113.606  0.00  0.00     0.038 C 
ATOM      4  C   LIG d   1      -2.327  77.779 112.387  0.00  0.00     0.028 C 
ATOM      5  C   LIG d   1      -1.953  79.182 111.922  0.00  0.00    -0.047 C 
ATOM      6  C   LIG d   1      -1.236  79.919 113.076  0.00  0.00     0.091 C 
ENDROOT
BRANCH   1   7
ATOM      7  O   LIG d   1      -1.266  80.208 115.509  0.00  0.00    -0.368 OA
BRANCH   7   8
ATOM      8  C   LIG d   1      -1.480  79.360 116.664  0.00  0.00     0.119 C 
BRANCH   8   9
ATOM      9  C   LIG d   1      -1.799  80.277 117.860  0.00  0.00     0.028 C 
ATOM     10  C   LIG d   1      -3.291  80.259 118.232  0.00  0.00     0.006 C 
ENDBRANCH   8   9
BRANCH   8  11
ATOM     11  C   LIG d   1      -0.199  78.616 117.054  0.00  0.00     0.028 C 
ATOM     12  C   LIG d   1      -0.270  77.110 116.753  0.00  0.00     0.006 C 
ENDBRANCH   8  11
ENDBRANCH   7   8
ENDBRANCH   1   7
BRANCH   6  13
ATOM     13  N   LIG d   1      -0.910  81.328 112.734  0.00  0.00    -0.311 N 
ATOM     14  C   LIG d   1       0.227  81.696 112.146  0.00  0.00     0.210 C 
ATOM     15  C   LIG d   1       0.370  83.201 111.900  0.00  0.00     0.109 C 
ATOM     16  O   LIG d   1       1.117  80.915 111.777  0.00  0.00    -0.276 OA
ATOM     17  H   LIG d   1      -1.591  82.023 112.970  0.00  0.00     0.149 HD
ENDBRANCH   6  13
BRANCH   5  18
ATOM     18  N   LIG d   1      -1.117  79.044 110.715  0.00  0.00     0.381 N 
ATOM     19  H   LIG d   1      -1.664  78.673 109.964  0.00  0.00    -0.090 HD
ATOM     20  H   LIG d   1      -0.370  78.400 110.909  0.00  0.00    -0.090 HD
ATOM     21  H   LIG d   1      -0.742  79.930 110.457  0.00  0.00    -0.090 HD
ENDBRANCH   5  18
BRANCH   3  22
ATOM     22  C   LIG d   1      -3.933  76.741 113.830  0.00  0.00     0.382 C 
ATOM     23  O   LIG d   1      -3.610  75.758 114.540  0.00  0.00    -0.241 OA
ATOM     24  O   LIG d   1      -5.057  76.769 113.296  0.00  0.00    -0.241 OA
ENDBRANCH   3  22
TORSDOF 7
ENDMDL
MODEL 5
REMARK VINA RESULT:      -4.8      1.535      1.861
REMARK  7 active torsions:
REMARK  status: ('A' for Active; 'I' for Inactive)
REMARK    1  A    between atoms: C_2  and  C_3 
REMARK    2  A    between atoms: C_3  and  O_6 
REMARK    3  A    between atoms: C_3  and  C_4 
REMARK    4  A    between atoms: C_7  and  O_6 
REMARK    5  A    between atoms: C_9  and  C_10 
REMARK    6  A    between atoms: N_15  and  C_14 
REMARK    7  A    between atoms: N_20  and  C_19 
REMARK       I    between atoms: C_22  and  N_20 
ROOT
ATOM      1  C   LIG d   1      -3.400  77.228 115.430  0.00  0.00     0.161 C 
ATOM      2  C   LIG d   1      -3.310  77.264 116.832  0.00  0.00     0.016 C 
ATOM      3  C   LIG d   1      -2.387  78.075 117.532  0.00  0.00     0.038 C 
ATOM      4  C   LIG d   1      -1.588  79.024 116.876  0.00  0.00     0.028 C 
ATOM      5  C   LIG d   1      -1.287  78.664 115.425  0.00  0.00    -0.047 C 
ATOM      6  C   LIG d   1      -2.614  78.338 114.703  0.00  0.00     0.091 C 
ENDROOT
BRANCH   1   7
ATOM      7  O   LIG d   1      -4.784  77.249 115.030  0.00  0.00    -0.368 OA
BRANCH   7   8
ATOM      8  C   LIG d   1      -5.724  76.645 115.952  0.00  0.00     0.119 C 
BRANCH   8   9
ATOM      9  C   LIG d   1      -6.553  75.615 115.160  0.00  0.00     0.028 C 
ATOM     10  C   LIG d   1      -6.366  74.182 115.685  0.00  0.00     0.006 C 
ENDBRANCH   8   9
BRANCH   8  11
ATOM     11  C   LIG d   1      -6.737  77.671 116.467  0.00  0.00     0.028 C 
ATOM     12  C   LIG d   1      -8.030  77.023 116.988  0.00  0.00     0.006 C 
ENDBRANCH   8  11
ENDBRANCH   7   8
ENDBRANCH   1   7
BRANCH   6  13
ATOM     13  N   LIG d   1      -2.402  77.895 113.301  0.00  0.00    -0.311 N 
ATOM     14  C   LIG d   1      -2.464  78.716 112.254  0.00  0.00     0.210 C 
ATOM     15  C   LIG d   1      -2.234  78.050 110.894  0.00  0.00     0.109 C 
ATOM     16  O   LIG d   1      -2.656  79.939 112.326  0.00  0.00    -0.276 OA
ATOM     17  H   LIG d   1      -2.209  76.923 113.154  0.00  0.00     0.149 HD
ENDBRANCH   6  13
BRANCH   5  18
ATOM     18  N   LIG d   1      -0.566  79.802 114.825  0.00  0.00     0.381 N 
ATOM     19  H   LIG d   1       0.393  79.557 114.679  0.00  0.00    -0.090 HD
ATOM     20  H   LIG d   1      -0.599  80.580 115.460  0.00  0.00    -0.090 HD
ATOM     21  H   LIG d   1      -0.987  80.054 113.958  0.00  0.00    -0.090 HD
ENDBRANCH   5  18
BRANCH   3  22
ATOM     22  C   LIG d   1      -2.227  77.911 118.899  0.00  0.00     0.382 C 
ATOM     23  O   LIG d   1      -1.343  77.137 119.339  0.00  0.00    -0.241 OA
ATOM     24  O   LIG d   1      -2.985  78.494 119.698  0.00  0.00    -0.241 OA
ENDBRANCH   3  22
TORSDOF 7
ENDMDL
MODEL 6
REMARK VINA RESULT:      -4.8      3.470      5.322
REMARK  7 active torsions:
REMARK  status: ('A' for Active; 'I' for Inactive)
REMARK    1  A    between atoms: C_2  and  C_3 
REMARK    2  A    between atoms: C_3  and  O_6 
REMARK    3  A    between atoms: C_3  and  C_4 
REMARK    4  A    between atoms: C_7  and  O_6 
REMARK    5  A    between atoms: C_9  and  C_10 
REMARK    6  A    between atoms: N_15  and  C_14 
REMARK    7  A    between atoms: N_20  and  C_19 
REMARK       I    between atoms: C_22  and  N_20 
ROOT
ATOM      1  C   LIG d   1      -5.669  78.331 117.180  0.00  0.00     0.161 C 
ATOM      2  C   LIG d   1      -6.537  79.432 117.260  0.00  0.00     0.016 C 
ATOM      3  C   LIG d   1      -6.177  80.665 117.851  0.00  0.00     0.038 C 
ATOM      4  C   LIG d   1      -4.865  80.932 118.270  0.00  0.00     0.028 C 
ATOM      5  C   LIG d   1      -4.091  79.680 118.670  0.00  0.00    -0.047 C 
ATOM      6  C   LIG d   1      -4.199  78.639 117.532  0.00  0.00     0.091 C 
ENDROOT
BRANCH   1   7
ATOM      7  O   LIG d   1      -5.757  77.734 115.871  0.00  0.00    -0.368 OA
BRANCH   7   8
ATOM      8  C   LIG d   1      -6.675  76.621 115.738  0.00  0.00     0.119 C 
BRANCH   8   9
ATOM      9  C   LIG d   1      -6.633  75.826 117.058  0.00  0.00     0.028 C 
ATOM     10  C   LIG d   1      -6.593  74.306 116.827  0.00  0.00     0.006 C 
ENDBRANCH   8   9
BRANCH   8  11
ATOM     11  C   LIG d   1      -6.209  75.639 114.659  0.00  0.00     0.028 C 
ATOM     12  C   LIG d   1      -4.837  76.008 114.072  0.00  0.00     0.006 C 
ENDBRANCH   8  11
ENDBRANCH   7   8
ENDBRANCH   1   7
BRANCH   6  13
ATOM     13  N   LIG d   1      -3.539  77.352 117.876  0.00  0.00    -0.311 N 
ATOM     14  C   LIG d   1      -2.616  76.774 117.111  0.00  0.00     0.210 C 
ATOM     15  C   LIG d   1      -2.079  75.441 117.641  0.00  0.00     0.109 C 
ATOM     16  O   LIG d   1      -2.167  77.254 116.059  0.00  0.00    -0.276 OA
ATOM     17  H   LIG d   1      -3.822  76.909 118.729  0.00  0.00     0.149 HD
ENDBRANCH   6  13
BRANCH   5  18
ATOM     18  N   LIG d   1      -2.701  80.086 118.952  0.00  0.00     0.381 N 
ATOM     19  H   LIG d   1      -2.372  80.693 118.227  0.00  0.00    -0.090 HD
ATOM     20  H   LIG d   1      -2.120  79.267 118.966  0.00  0.00    -0.090 HD
ATOM     21  H   LIG d   1      -2.654  80.552 119.831  0.00  0.00    -0.090 HD
ENDBRANCH   5  18
BRANCH   3  22
ATOM     22  C   LIG d   1      -7.146  81.634 118.064  0.00  0.00     0.382 C 
ATOM     23  O   LIG d   1      -7.720  82.173 117.087  0.00  0.00    -0.241 OA
ATOM     24  O   LIG d   1      -7.423  82.007 119.220  0.00  0.00    -0.241 OA
ENDBRANCH   3  22
TORSDOF 7
ENDMDL
MODEL 7
REMARK VINA RESULT:      -4.6      2.333      5.218
REMARK  7 active torsions:
REMARK  status: ('A' for Active; 'I' for Inactive)
REMARK    1  A    between atoms: C_2  and  C_3 
REMARK    2  A    between atoms: C_3  and  O_6 
REMARK    3  A    between atoms: C_3  and  C_4 
REMARK    4  A    between atoms: C_7  and  O_6 
REMARK    5  A    between atoms: C_9  and  C_10 
REMARK    6  A    between atoms: N_15  and  C_14 
REMARK    7  A    between atoms: N_20  and  C_19 
REMARK       I    between atoms: C_22  and  N_20 
ROOT
ATOM      1  C   LIG d   1      -2.424  76.849 114.837  0.00  0.00     0.161 C 
ATOM      2  C   LIG d   1      -3.723  76.630 114.348  0.00  0.00     0.016 C 
ATOM      3  C   LIG d   1      -4.870  76.598 115.173  0.00  0.00     0.038 C 
ATOM      4  C   LIG d   1      -4.814  76.935 116.534  0.00  0.00     0.028 C 
ATOM      5  C   LIG d   1      -3.454  76.668 117.169  0.00  0.00    -0.047 C 
ATOM      6  C   LIG d   1      -2.357  77.329 116.302  0.00  0.00     0.091 C 
ENDROOT
BRANCH   1   7
ATOM      7  O   LIG d   1      -1.726  77.770 113.976  0.00  0.00    -0.368 OA
BRANCH   7   8
ATOM      8  C   LIG d   1      -2.549  78.730 113.269  0.00  0.00     0.119 C 
BRANCH   8   9
ATOM      9  C   LIG d   1      -1.902  78.969 111.891  0.00  0.00     0.028 C 
ATOM     10  C   LIG d   1      -2.290  77.892 110.864  0.00  0.00     0.006 C 
ENDBRANCH   8   9
BRANCH   8  11
ATOM     11  C   LIG d   1      -2.538  80.094 113.965  0.00  0.00     0.028 C 
ATOM     12  C   LIG d   1      -2.929  81.246 113.025  0.00  0.00     0.006 C 
ENDBRANCH   8  11
ENDBRANCH   7   8
ENDBRANCH   1   7
BRANCH   6  13
ATOM     13  N   LIG d   1      -0.989  77.045 116.807  0.00  0.00    -0.311 N 
ATOM     14  C   LIG d   1      -0.157  77.990 117.241  0.00  0.00     0.210 C 
ATOM     15  C   LIG d   1       1.215  77.483 117.699  0.00  0.00     0.109 C 
ATOM     16  O   LIG d   1      -0.436  79.195 117.320  0.00  0.00    -0.276 OA
ATOM     17  H   LIG d   1      -0.692  76.088 116.806  0.00  0.00     0.149 HD
ENDBRANCH   6  13
BRANCH   5  18
ATOM     18  N   LIG d   1      -3.495  77.191 118.547  0.00  0.00     0.381 N 
ATOM     19  H   LIG d   1      -3.061  78.092 118.580  0.00  0.00    -0.090 HD
ATOM     20  H   LIG d   1      -2.979  76.571 119.146  0.00  0.00    -0.090 HD
ATOM     21  H   LIG d   1      -4.439  77.257 118.859  0.00  0.00    -0.090 HD
ENDBRANCH   5  18
BRANCH   3  22
ATOM     22  C   LIG d   1      -6.085  76.186 114.645  0.00  0.00     0.382 C 
ATOM     23  O   LIG d   1      -6.629  75.139 115.069  0.00  0.00    -0.241 OA
ATOM     24  O   LIG d   1      -6.621  76.825 113.720  0.00  0.00    -0.241 OA
ENDBRANCH   3  22
TORSDOF 7
ENDMDL
MODEL 8
REMARK VINA RESULT:      -4.6      2.513      4.837
REMARK  7 active torsions:
REMARK  status: ('A' for Active; 'I' for Inactive)
REMARK    1  A    between atoms: C_2  and  C_3 
REMARK    2  A    between atoms: C_3  and  O_6 
REMARK    3  A    between atoms: C_3  and  C_4 
REMARK    4  A    between atoms: C_7  and  O_6 
REMARK    5  A    between atoms: C_9  and  C_10 
REMARK    6  A    between atoms: N_15  and  C_14 
REMARK    7  A    between atoms: N_20  and  C_19 
REMARK       I    between atoms: C_22  and  N_20 
ROOT
ATOM      1  C   LIG d   1      -2.997  78.683 115.741  0.00  0.00     0.161 C 
ATOM      2  C   LIG d   1      -1.819  79.376 116.067  0.00  0.00     0.016 C 
ATOM      3  C   LIG d   1      -0.676  78.752 116.617  0.00  0.00     0.038 C 
ATOM      4  C   LIG d   1      -0.579  77.357 116.739  0.00  0.00     0.028 C 
ATOM      5  C   LIG d   1      -1.930  76.667 116.893  0.00  0.00    -0.047 C 
ATOM      6  C   LIG d   1      -2.870  77.145 115.763  0.00  0.00     0.091 C 
ENDROOT
BRANCH   1   7
ATOM      7  O   LIG d   1      -3.486  79.127 114.460  0.00  0.00    -0.368 OA
BRANCH   7   8
ATOM      8  C   LIG d   1      -2.569  78.992 113.346  0.00  0.00     0.119 C 
BRANCH   8   9
ATOM      9  C   LIG d   1      -2.216  80.412 112.863  0.00  0.00     0.028 C 
ATOM     10  C   LIG d   1      -0.698  80.654 112.813  0.00  0.00     0.006 C 
ENDBRANCH   8   9
BRANCH   8  11
ATOM     11  C   LIG d   1      -3.242  78.312 112.150  0.00  0.00     0.028 C 
ATOM     12  C   LIG d   1      -2.243  77.905 111.056  0.00  0.00     0.006 C 
ENDBRANCH   8  11
ENDBRANCH   7   8
ENDBRANCH   1   7
BRANCH   6  13
ATOM     13  N   LIG d   1      -4.239  76.582 115.888  0.00  0.00    -0.311 N 
ATOM     14  C   LIG d   1      -4.825  75.859 114.936  0.00  0.00     0.210 C 
ATOM     15  C   LIG d   1      -6.247  75.392 115.260  0.00  0.00     0.109 C 
ATOM     16  O   LIG d   1      -4.289  75.532 113.866  0.00  0.00    -0.276 OA
ATOM     17  H   LIG d   1      -4.735  76.773 116.737  0.00  0.00     0.149 HD
ENDBRANCH   6  13
BRANCH   5  18
ATOM     18  N   LIG d   1      -1.692  75.212 116.871  0.00  0.00     0.381 N 
ATOM     19  H   LIG d   1      -2.518  74.738 116.562  0.00  0.00    -0.090 HD
ATOM     20  H   LIG d   1      -1.480  74.902 117.803  0.00  0.00    -0.090 HD
ATOM     21  H   LIG d   1      -0.932  75.000 116.262  0.00  0.00    -0.090 HD
ENDBRANCH   5  18
BRANCH   3  22
ATOM     22  C   LIG d   1       0.371  79.528 117.090  0.00  0.00     0.382 C 
ATOM     23  O   LIG d   1       1.071  79.121 118.048  0.00  0.00    -0.241 OA
ATOM     24  O   LIG d   1       0.596  80.651 116.599  0.00  0.00    -0.241 OA
ENDBRANCH   3  22
TORSDOF 7
ENDMDL
MODEL 9
REMARK VINA RESULT:      -4.5      2.346      3.272
REMARK  7 active torsions:
REMARK  status: ('A' for Active; 'I' for Inactive)
REMARK    1  A    between atoms: C_2  and  C_3 
REMARK    2  A    between atoms: C_3  and  O_6 
REMARK    3  A    between atoms: C_3  and  C_4 
REMARK    4  A    between atoms: C_7  and  O_6 
REMARK    5  A    between atoms: C_9  and  C_10 
REMARK    6  A    between atoms: N_15  and  C_14 
REMARK    7  A    between atoms: N_20  and  C_19 
REMARK       I    between atoms: C_22  and  N_20 
ROOT
ATOM      1  C   LIG d   1      -2.021  77.691 114.801  0.00  0.00     0.161 C 
ATOM      2  C   LIG d   1      -2.402  78.191 116.058  0.00  0.00     0.016 C 
ATOM      3  C   LIG d   1      -2.900  79.500 116.256  0.00  0.00     0.038 C 
ATOM      4  C   LIG d   1      -3.194  80.352 115.181  0.00  0.00     0.028 C 
ATOM      5  C   LIG d   1      -2.353  80.074 113.940  0.00  0.00    -0.047 C 
ATOM      6  C   LIG d   1      -2.439  78.568 113.602  0.00  0.00     0.091 C 
ENDROOT
BRANCH   1   7
ATOM      7  O   LIG d   1      -2.519  76.348 114.639  0.00  0.00    -0.368 OA
BRANCH   7   8
ATOM      8  C   LIG d   1      -3.745  76.033 115.343  0.00  0.00     0.119 C 
BRANCH   8   9
ATOM      9  C   LIG d   1      -3.439  74.870 116.307  0.00  0.00     0.028 C 
ATOM     10  C   LIG d   1      -1.929  74.664 116.518  0.00  0.00     0.006 C 
ENDBRANCH   8   9
BRANCH   8  11
ATOM     11  C   LIG d   1      -4.815  75.497 114.388  0.00  0.00     0.028 C 
ATOM     12  C   LIG d   1      -5.918  74.709 115.111  0.00  0.00     0.006 C 
ENDBRANCH   8  11
ENDBRANCH   7   8
ENDBRANCH   1   7
BRANCH   6  13
ATOM     13  N   LIG d   1      -1.577  78.195 112.450  0.00  0.00    -0.311 N 
ATOM     14  C   LIG d   1      -2.058  77.791 111.275  0.00  0.00     0.210 C 
ATOM     15  C   LIG d   1      -0.996  77.436 110.230  0.00  0.00     0.109 C 
ATOM     16  O   LIG d   1      -3.263  77.725 110.989  0.00  0.00    -0.276 OA
ATOM     17  H   LIG d   1      -0.587  78.250 112.585  0.00  0.00     0.149 HD
ENDBRANCH   6  13
BRANCH   5  18
ATOM     18  N   LIG d   1      -2.858  80.939 112.856  0.00  0.00     0.381 N 
ATOM     19  H   LIG d   1      -2.622  80.542 111.969  0.00  0.00    -0.090 HD
ATOM     20  H   LIG d   1      -2.416  81.838 112.927  0.00  0.00    -0.090 HD
ATOM     21  H   LIG d   1      -3.846  81.038 112.932  0.00  0.00    -0.090 HD
ENDBRANCH   5  18
BRANCH   3  22
ATOM     22  C   LIG d   1      -3.071  79.982 117.544  0.00  0.00     0.382 C 
ATOM     23  O   LIG d   1      -4.188  79.885 118.107  0.00  0.00    -0.241 OA
ATOM     24  O   LIG d   1      -2.134  80.553 118.135  0.00  0.00    -0.241 OA
ENDBRANCH   3  22
TORSDOF 7
ENDMDL
