MODEL 1
REMARK VINA RESULT:      -5.4      0.000      0.000
REMARK  7 active torsions:
REMARK  status: ('A' for Active; 'I' for Inactive)
REMARK    1  A    between atoms: C_2  and  C_3 
REMARK    2  A    between atoms: C_3  and  O_6 
REMARK    3  A    between atoms: C_3  and  C_4 
REMARK    4  A    between atoms: C_7  and  O_6 
REMARK    5  A    between atoms: C_9  and  C_10 
REMARK    6  A    between atoms: N_15  and  C_14 
REMARK    7  A    between atoms: N_20  and  C_19 
REMARK       I    between atoms: C_22  and  N_20 
ROOT
ATOM      1  C   LIG d   1      -3.499  77.460 116.551  0.00  0.00     0.161 C 
ATOM      2  C   LIG d   1      -3.808  78.179 115.385  0.00  0.00     0.016 C 
ATOM      3  C   LIG d   1      -2.939  78.271 114.273  0.00  0.00     0.038 C 
ATOM      4  C   LIG d   1      -1.758  77.519 114.192  0.00  0.00     0.028 C 
ATOM      5  C   LIG d   1      -1.164  77.176 115.554  0.00  0.00    -0.047 C 
ATOM      6  C   LIG d   1      -2.264  76.542 116.436  0.00  0.00     0.091 C 
ENDROOT
BRANCH   1   7
ATOM      7  O   LIG d   1      -4.649  76.701 116.976  0.00  0.00    -0.368 OA
BRANCH   7   8
ATOM      8  C   LIG d   1      -5.665  76.467 115.971  0.00  0.00     0.119 C 
BRANCH   8   9
ATOM      9  C   LIG d   1      -7.034  76.513 116.676  0.00  0.00     0.028 C 
ATOM     10  C   LIG d   1      -7.891  75.272 116.377  0.00  0.00     0.006 C 
ENDBRANCH   8   9
BRANCH   8  11
ATOM     11  C   LIG d   1      -5.557  75.054 115.388  0.00  0.00     0.028 C 
ATOM     12  C   LIG d   1      -5.086  75.048 113.925  0.00  0.00     0.006 C 
ENDBRANCH   8  11
ENDBRANCH   7   8
ENDBRANCH   1   7
BRANCH   6  13
ATOM     13  N   LIG d   1      -1.789  76.253 117.814  0.00  0.00    -0.311 N 
ATOM     14  C   LIG d   1      -1.203  75.109 118.163  0.00  0.00     0.210 C 
ATOM     15  C   LIG d   1      -0.808  75.008 119.639  0.00  0.00     0.109 C 
ATOM     16  O   LIG d   1      -0.944  74.180 117.382  0.00  0.00    -0.276 OA
ATOM     17  H   LIG d   1      -1.930  76.965 118.504  0.00  0.00     0.149 HD
ENDBRANCH   6  13
BRANCH   5  18
ATOM     18  N   LIG d   1      -0.017  76.277 115.326  0.00  0.00     0.381 N 
ATOM     19  H   LIG d   1       0.653  76.388 116.061  0.00  0.00    -0.090 HD
ATOM     20  H   LIG d   1       0.424  76.526 114.458  0.00  0.00    -0.090 HD
ATOM     21  H   LIG d   1      -0.327  75.331 115.290  0.00  0.00    -0.090 HD
ENDBRANCH   5  18
BRANCH   3  22
ATOM     22  C   LIG d   1      -3.230  79.154 113.244  0.00  0.00     0.382 C 
ATOM     23  O   LIG d   1      -3.480  78.717 112.095  0.00  0.00    -0.241 OA
ATOM     24  O   LIG d   1      -3.203  80.384 113.440  0.00  0.00    -0.241 OA
ENDBRANCH   3  22
TORSDOF 7
ENDMDL
MODEL 2
REMARK VINA RESULT:      -5.3      5.219      8.285
REMARK  7 active torsions:
REMARK  status: ('A' for Active; 'I' for Inactive)
REMARK    1  A    between atoms: C_2  and  C_3 
REMARK    2  A    between atoms: C_3  and  O_6 
REMARK    3  A    between atoms: C_3  and  C_4 
REMARK    4  A    between atoms: C_7  and  O_6 
REMARK    5  A    between atoms: C_9  and  C_10 
REMARK    6  A    between atoms: N_15  and  C_14 
REMARK    7  A    between atoms: N_20  and  C_19 
REMARK       I    between atoms: C_22  and  N_20 
ROOT
ATOM      1  C   LIG d   1      -1.508  82.674 112.246  0.00  0.00     0.161 C 
ATOM      2  C   LIG d   1      -2.340  81.683 112.793  0.00  0.00     0.016 C 
ATOM      3  C   LIG d   1      -2.220  80.308 112.485  0.00  0.00     0.038 C 
ATOM      4  C   LIG d   1      -1.154  79.811 111.720  0.00  0.00     0.028 C 
ATOM      5  C   LIG d   1      -0.587  80.829 110.737  0.00  0.00    -0.047 C 
ATOM      6  C   LIG d   1      -0.270  82.137 111.497  0.00  0.00     0.091 C 
ENDROOT
BRANCH   1   7
ATOM      7  O   LIG d   1      -1.108  83.599 113.276  0.00  0.00    -0.368 OA
BRANCH   7   8
ATOM      8  C   LIG d   1      -0.485  83.018 114.448  0.00  0.00     0.119 C 
BRANCH   8   9
ATOM      9  C   LIG d   1      -1.221  83.570 115.685  0.00  0.00     0.028 C 
ATOM     10  C   LIG d   1      -1.889  82.460 116.514  0.00  0.00     0.006 C 
ENDBRANCH   8   9
BRANCH   8  11
ATOM     11  C   LIG d   1       0.966  83.485 114.598  0.00  0.00     0.028 C 
ATOM     12  C   LIG d   1       1.303  84.680 113.691  0.00  0.00     0.006 C 
ENDBRANCH   8  11
ENDBRANCH   7   8
ENDBRANCH   1   7
BRANCH   6  13
ATOM     13  N   LIG d   1       0.211  83.215 110.594  0.00  0.00    -0.311 N 
ATOM     14  C   LIG d   1       1.500  83.474 110.383  0.00  0.00     0.210 C 
ATOM     15  C   LIG d   1       1.778  84.641 109.430  0.00  0.00     0.109 C 
ATOM     16  O   LIG d   1       2.440  82.827 110.869  0.00  0.00    -0.276 OA
ATOM     17  H   LIG d   1      -0.485  83.769 110.133  0.00  0.00     0.149 HD
ENDBRANCH   6  13
BRANCH   5  18
ATOM     18  N   LIG d   1       0.602  80.225 110.106  0.00  0.00     0.381 N 
ATOM     19  H   LIG d   1       1.139  80.933 109.647  0.00  0.00    -0.090 HD
ATOM     20  H   LIG d   1       0.301  79.560 109.416  0.00  0.00    -0.090 HD
ATOM     21  H   LIG d   1       1.159  79.770 110.795  0.00  0.00    -0.090 HD
ENDBRANCH   5  18
BRANCH   3  22
ATOM     22  C   LIG d   1      -3.195  79.420 112.912  0.00  0.00     0.382 C 
ATOM     23  O   LIG d   1      -3.758  78.663 112.085  0.00  0.00    -0.241 OA
ATOM     24  O   LIG d   1      -3.552  79.399 114.105  0.00  0.00    -0.241 OA
ENDBRANCH   3  22
TORSDOF 7
ENDMDL
MODEL 3
REMARK VINA RESULT:      -5.2      3.573      5.696
REMARK  7 active torsions:
REMARK  status: ('A' for Active; 'I' for Inactive)
REMARK    1  A    between atoms: C_2  and  C_3 
REMARK    2  A    between atoms: C_3  and  O_6 
REMARK    3  A    between atoms: C_3  and  C_4 
REMARK    4  A    between atoms: C_7  and  O_6 
REMARK    5  A    between atoms: C_9  and  C_10 
REMARK    6  A    between atoms: N_15  and  C_14 
REMARK    7  A    between atoms: N_20  and  C_19 
REMARK       I    between atoms: C_22  and  N_20 
ROOT
ATOM      1  C   LIG d   1      -1.743  80.922 113.753  0.00  0.00     0.161 C 
ATOM      2  C   LIG d   1      -1.556  82.268 113.395  0.00  0.00     0.016 C 
ATOM      3  C   LIG d   1      -1.052  82.676 112.139  0.00  0.00     0.038 C 
ATOM      4  C   LIG d   1      -0.840  81.766 111.093  0.00  0.00     0.028 C 
ATOM      5  C   LIG d   1      -0.536  80.351 111.574  0.00  0.00    -0.047 C 
ATOM      6  C   LIG d   1      -1.622  79.920 112.586  0.00  0.00     0.091 C 
ENDROOT
BRANCH   1   7
ATOM      7  O   LIG d   1      -3.011  80.765 114.419  0.00  0.00    -0.368 OA
BRANCH   7   8
ATOM      8  C   LIG d   1      -2.954  80.459 115.834  0.00  0.00     0.119 C 
BRANCH   8   9
ATOM      9  C   LIG d   1      -4.045  79.411 116.125  0.00  0.00     0.028 C 
ATOM     10  C   LIG d   1      -3.492  78.175 116.854  0.00  0.00     0.006 C 
ENDBRANCH   8   9
BRANCH   8  11
ATOM     11  C   LIG d   1      -3.325  81.678 116.684  0.00  0.00     0.028 C 
ATOM     12  C   LIG d   1      -2.200  82.103 117.640  0.00  0.00     0.006 C 
ENDBRANCH   8  11
ENDBRANCH   7   8
ENDBRANCH   1   7
BRANCH   6  13
ATOM     13  N   LIG d   1      -1.354  78.580 113.169  0.00  0.00    -0.311 N 
ATOM     14  C   LIG d   1      -2.294  77.651 113.335  0.00  0.00     0.210 C 
ATOM     15  C   LIG d   1      -1.808  76.346 113.974  0.00  0.00     0.109 C 
ATOM     16  O   LIG d   1      -3.477  77.772 112.984  0.00  0.00    -0.276 OA
ATOM     17  H   LIG d   1      -0.414  78.386 113.453  0.00  0.00     0.149 HD
ENDBRANCH   6  13
BRANCH   5  18
ATOM     18  N   LIG d   1      -0.474  79.480 110.386  0.00  0.00     0.381 N 
ATOM     19  H   LIG d   1      -0.076  79.982 109.617  0.00  0.00    -0.090 HD
ATOM     20  H   LIG d   1      -1.408  79.206 110.134  0.00  0.00    -0.090 HD
ATOM     21  H   LIG d   1       0.075  78.672 110.583  0.00  0.00    -0.090 HD
ENDBRANCH   5  18
BRANCH   3  22
ATOM     22  C   LIG d   1      -0.716  84.006 111.933  0.00  0.00     0.382 C 
ATOM     23  O   LIG d   1      -0.221  84.680 112.868  0.00  0.00    -0.241 OA
ATOM     24  O   LIG d   1      -0.941  84.552 110.836  0.00  0.00    -0.241 OA
ENDBRANCH   3  22
TORSDOF 7
ENDMDL
MODEL 4
REMARK VINA RESULT:      -5.1      2.642      4.048
REMARK  7 active torsions:
REMARK  status: ('A' for Active; 'I' for Inactive)
REMARK    1  A    between atoms: C_2  and  C_3 
REMARK    2  A    between atoms: C_3  and  O_6 
REMARK    3  A    between atoms: C_3  and  C_4 
REMARK    4  A    between atoms: C_7  and  O_6 
REMARK    5  A    between atoms: C_9  and  C_10 
REMARK    6  A    between atoms: N_15  and  C_14 
REMARK    7  A    between atoms: N_20  and  C_19 
REMARK       I    between atoms: C_22  and  N_20 
ROOT
ATOM      1  C   LIG d   1      -4.701  77.821 116.286  0.00  0.00     0.161 C 
ATOM      2  C   LIG d   1      -5.513  78.793 116.896  0.00  0.00     0.016 C 
ATOM      3  C   LIG d   1      -5.127  80.145 117.048  0.00  0.00     0.038 C 
ATOM      4  C   LIG d   1      -3.959  80.653 116.460  0.00  0.00     0.028 C 
ATOM      5  C   LIG d   1      -2.870  79.603 116.272  0.00  0.00    -0.047 C 
ATOM      6  C   LIG d   1      -3.472  78.381 115.541  0.00  0.00     0.091 C 
ENDROOT
BRANCH   1   7
ATOM      7  O   LIG d   1      -5.496  77.007 115.401  0.00  0.00    -0.368 OA
BRANCH   7   8
ATOM      8  C   LIG d   1      -5.926  75.727 115.927  0.00  0.00     0.119 C 
BRANCH   8   9
ATOM      9  C   LIG d   1      -5.507  74.646 114.912  0.00  0.00     0.028 C 
ATOM     10  C   LIG d   1      -5.090  75.243 113.557  0.00  0.00     0.006 C 
ENDBRANCH   8   9
BRANCH   8  11
ATOM     11  C   LIG d   1      -7.453  75.641 116.005  0.00  0.00     0.028 C 
ATOM     12  C   LIG d   1      -7.944  74.331 116.641  0.00  0.00     0.006 C 
ENDBRANCH   8  11
ENDBRANCH   7   8
ENDBRANCH   1   7
BRANCH   6  13
ATOM     13  N   LIG d   1      -2.494  77.272 115.391  0.00  0.00    -0.311 N 
ATOM     14  C   LIG d   1      -1.959  76.920 114.223  0.00  0.00     0.210 C 
ATOM     15  C   LIG d   1      -0.988  75.737 114.287  0.00  0.00     0.109 C 
ATOM     16  O   LIG d   1      -2.172  77.495 113.145  0.00  0.00    -0.276 OA
ATOM     17  H   LIG d   1      -2.241  76.771 116.220  0.00  0.00     0.149 HD
ENDBRANCH   6  13
BRANCH   5  18
ATOM     18  N   LIG d   1      -1.765  80.236 115.526  0.00  0.00     0.381 N 
ATOM     19  H   LIG d   1      -1.560  81.132 115.921  0.00  0.00    -0.090 HD
ATOM     20  H   LIG d   1      -2.051  80.369 114.572  0.00  0.00    -0.090 HD
ATOM     21  H   LIG d   1      -0.955  79.657 115.560  0.00  0.00    -0.090 HD
ENDBRANCH   5  18
BRANCH   3  22
ATOM     22  C   LIG d   1      -5.896  80.995 117.828  0.00  0.00     0.382 C 
ATOM     23  O   LIG d   1      -7.059  81.298 117.467  0.00  0.00    -0.241 OA
ATOM     24  O   LIG d   1      -5.426  81.498 118.866  0.00  0.00    -0.241 OA
ENDBRANCH   3  22
TORSDOF 7
ENDMDL
MODEL 5
REMARK VINA RESULT:      -4.8      1.181      1.564
REMARK  7 active torsions:
REMARK  status: ('A' for Active; 'I' for Inactive)
REMARK    1  A    between atoms: C_2  and  C_3 
REMARK    2  A    between atoms: C_3  and  O_6 
REMARK    3  A    between atoms: C_3  and  C_4 
REMARK    4  A    between atoms: C_7  and  O_6 
REMARK    5  A    between atoms: C_9  and  C_10 
REMARK    6  A    between atoms: N_15  and  C_14 
REMARK    7  A    between atoms: N_20  and  C_19 
REMARK       I    between atoms: C_22  and  N_20 
ROOT
ATOM      1  C   LIG d   1      -2.905  77.999 116.393  0.00  0.00     0.161 C 
ATOM      2  C   LIG d   1      -3.218  78.656 115.192  0.00  0.00     0.016 C 
ATOM      3  C   LIG d   1      -2.598  78.358 113.957  0.00  0.00     0.038 C 
ATOM      4  C   LIG d   1      -1.724  77.271 113.810  0.00  0.00     0.028 C 
ATOM      5  C   LIG d   1      -0.996  76.900 115.098  0.00  0.00    -0.047 C 
ATOM      6  C   LIG d   1      -2.035  76.735 116.231  0.00  0.00     0.091 C 
ENDROOT
BRANCH   1   7
ATOM      7  O   LIG d   1      -4.116  77.685 117.108  0.00  0.00    -0.368 OA
BRANCH   7   8
ATOM      8  C   LIG d   1      -5.352  77.844 116.369  0.00  0.00     0.119 C 
BRANCH   8   9
ATOM      9  C   LIG d   1      -6.302  78.695 117.235  0.00  0.00     0.028 C 
ATOM     10  C   LIG d   1      -5.627  79.971 117.766  0.00  0.00     0.006 C 
ENDBRANCH   8   9
BRANCH   8  11
ATOM     11  C   LIG d   1      -6.067  76.502 116.182  0.00  0.00     0.028 C 
ATOM     12  C   LIG d   1      -5.450  75.651 115.061  0.00  0.00     0.006 C 
ENDBRANCH   8  11
ENDBRANCH   7   8
ENDBRANCH   1   7
BRANCH   6  13
ATOM     13  N   LIG d   1      -1.400  76.454 117.545  0.00  0.00    -0.311 N 
ATOM     14  C   LIG d   1      -1.171  75.224 118.001  0.00  0.00     0.210 C 
ATOM     15  C   LIG d   1      -0.526  75.158 119.388  0.00  0.00     0.109 C 
ATOM     16  O   LIG d   1      -1.413  74.181 117.374  0.00  0.00    -0.276 OA
ATOM     17  H   LIG d   1      -1.144  77.243 118.106  0.00  0.00     0.149 HD
ENDBRANCH   6  13
BRANCH   5  18
ATOM     18  N   LIG d   1      -0.226  75.669 114.836  0.00  0.00     0.381 N 
ATOM     19  H   LIG d   1      -0.719  74.877 115.198  0.00  0.00    -0.090 HD
ATOM     20  H   LIG d   1       0.659  75.733 115.308  0.00  0.00    -0.090 HD
ATOM     21  H   LIG d   1      -0.081  75.560 113.857  0.00  0.00    -0.090 HD
ENDBRANCH   5  18
BRANCH   3  22
ATOM     22  C   LIG d   1      -2.820  79.178 112.861  0.00  0.00     0.382 C 
ATOM     23  O   LIG d   1      -2.221  78.956 111.781  0.00  0.00    -0.241 OA
ATOM     24  O   LIG d   1      -3.577  80.162 112.951  0.00  0.00    -0.241 OA
ENDBRANCH   3  22
TORSDOF 7
ENDMDL
MODEL 6
REMARK VINA RESULT:      -4.8      2.678      3.949
REMARK  7 active torsions:
REMARK  status: ('A' for Active; 'I' for Inactive)
REMARK    1  A    between atoms: C_2  and  C_3 
REMARK    2  A    between atoms: C_3  and  O_6 
REMARK    3  A    between atoms: C_3  and  C_4 
REMARK    4  A    between atoms: C_7  and  O_6 
REMARK    5  A    between atoms: C_9  and  C_10 
REMARK    6  A    between atoms: N_15  and  C_14 
REMARK    7  A    between atoms: N_20  and  C_19 
REMARK       I    between atoms: C_22  and  N_20 
ROOT
ATOM      1  C   LIG d   1      -5.801  77.321 116.664  0.00  0.00     0.161 C 
ATOM      2  C   LIG d   1      -6.739  78.319 116.979  0.00  0.00     0.016 C 
ATOM      3  C   LIG d   1      -6.398  79.533 117.619  0.00  0.00     0.038 C 
ATOM      4  C   LIG d   1      -5.064  79.898 117.854  0.00  0.00     0.028 C 
ATOM      5  C   LIG d   1      -4.128  78.705 118.012  0.00  0.00    -0.047 C 
ATOM      6  C   LIG d   1      -4.326  77.750 116.813  0.00  0.00     0.091 C 
ENDROOT
BRANCH   1   7
ATOM      7  O   LIG d   1      -6.047  76.822 115.335  0.00  0.00    -0.368 OA
BRANCH   7   8
ATOM      8  C   LIG d   1      -6.550  75.466 115.246  0.00  0.00     0.119 C 
BRANCH   8   9
ATOM      9  C   LIG d   1      -6.715  74.939 116.685  0.00  0.00     0.028 C 
ATOM     10  C   LIG d   1      -8.038  74.180 116.883  0.00  0.00     0.006 C 
ENDBRANCH   8   9
BRANCH   8  11
ATOM     11  C   LIG d   1      -5.528  74.534 114.588  0.00  0.00     0.028 C 
ATOM     12  C   LIG d   1      -4.579  75.272 113.630  0.00  0.00     0.006 C 
ENDBRANCH   8  11
ENDBRANCH   7   8
ENDBRANCH   1   7
BRANCH   6  13
ATOM     13  N   LIG d   1      -3.509  76.514 116.931  0.00  0.00    -0.311 N 
ATOM     14  C   LIG d   1      -2.304  76.377 116.380  0.00  0.00     0.210 C 
ATOM     15  C   LIG d   1      -1.641  75.014 116.607  0.00  0.00     0.109 C 
ATOM     16  O   LIG d   1      -1.708  77.265 115.752  0.00  0.00    -0.276 OA
ATOM     17  H   LIG d   1      -3.903  75.754 117.451  0.00  0.00     0.149 HD
ENDBRANCH   6  13
BRANCH   5  18
ATOM     18  N   LIG d   1      -2.753  79.228 118.113  0.00  0.00     0.381 N 
ATOM     19  H   LIG d   1      -2.277  78.784 118.873  0.00  0.00    -0.090 HD
ATOM     20  H   LIG d   1      -2.793  80.214 118.300  0.00  0.00    -0.090 HD
ATOM     21  H   LIG d   1      -2.262  79.063 117.262  0.00  0.00    -0.090 HD
ENDBRANCH   5  18
BRANCH   3  22
ATOM     22  C   LIG d   1      -7.401  80.379 118.067  0.00  0.00     0.382 C 
ATOM     23  O   LIG d   1      -8.060  81.061 117.246  0.00  0.00    -0.241 OA
ATOM     24  O   LIG d   1      -7.627  80.501 119.286  0.00  0.00    -0.241 OA
ENDBRANCH   3  22
TORSDOF 7
ENDMDL
MODEL 7
REMARK VINA RESULT:      -4.6      2.504      4.002
REMARK  7 active torsions:
REMARK  status: ('A' for Active; 'I' for Inactive)
REMARK    1  A    between atoms: C_2  and  C_3 
REMARK    2  A    between atoms: C_3  and  O_6 
REMARK    3  A    between atoms: C_3  and  C_4 
REMARK    4  A    between atoms: C_7  and  O_6 
REMARK    5  A    between atoms: C_9  and  C_10 
REMARK    6  A    between atoms: N_15  and  C_14 
REMARK    7  A    between atoms: N_20  and  C_19 
REMARK       I    between atoms: C_22  and  N_20 
ROOT
ATOM      1  C   LIG d   1      -2.271  78.801 115.531  0.00  0.00     0.161 C 
ATOM      2  C   LIG d   1      -2.718  80.109 115.783  0.00  0.00     0.016 C 
ATOM      3  C   LIG d   1      -2.646  81.153 114.832  0.00  0.00     0.038 C 
ATOM      4  C   LIG d   1      -2.258  80.920 113.504  0.00  0.00     0.028 C 
ATOM      5  C   LIG d   1      -1.322  79.727 113.346  0.00  0.00    -0.047 C 
ATOM      6  C   LIG d   1      -1.948  78.502 114.052  0.00  0.00     0.091 C 
ENDROOT
BRANCH   1   7
ATOM      7  O   LIG d   1      -3.230  77.851 116.036  0.00  0.00    -0.368 OA
BRANCH   7   8
ATOM      8  C   LIG d   1      -3.446  77.864 117.469  0.00  0.00     0.119 C 
BRANCH   8   9
ATOM      9  C   LIG d   1      -2.508  76.809 118.088  0.00  0.00     0.028 C 
ATOM     10  C   LIG d   1      -2.267  75.615 117.149  0.00  0.00     0.006 C 
ENDBRANCH   8   9
BRANCH   8  11
ATOM     11  C   LIG d   1      -4.863  77.403 117.823  0.00  0.00     0.028 C 
ATOM     12  C   LIG d   1      -5.847  77.547 116.651  0.00  0.00     0.006 C 
ENDBRANCH   8  11
ENDBRANCH   7   8
ENDBRANCH   1   7
BRANCH   6  13
ATOM     13  N   LIG d   1      -1.058  77.312 114.018  0.00  0.00    -0.311 N 
ATOM     14  C   LIG d   1      -1.469  76.099 113.654  0.00  0.00     0.210 C 
ATOM     15  C   LIG d   1      -0.394  75.008 113.709  0.00  0.00     0.109 C 
ATOM     16  O   LIG d   1      -2.613  75.829 113.259  0.00  0.00    -0.276 OA
ATOM     17  H   LIG d   1      -0.104  77.448 114.293  0.00  0.00     0.149 HD
ENDBRANCH   6  13
BRANCH   5  18
ATOM     18  N   LIG d   1      -1.109  79.515 111.902  0.00  0.00     0.381 N 
ATOM     19  H   LIG d   1      -1.522  80.266 111.385  0.00  0.00    -0.090 HD
ATOM     20  H   LIG d   1      -1.559  78.659 111.629  0.00  0.00    -0.090 HD
ATOM     21  H   LIG d   1      -0.133  79.464 111.706  0.00  0.00    -0.090 HD
ENDBRANCH   5  18
BRANCH   3  22
ATOM     22  C   LIG d   1      -2.927  82.454 115.218  0.00  0.00     0.382 C 
ATOM     23  O   LIG d   1      -3.980  83.012 114.824  0.00  0.00    -0.241 OA
ATOM     24  O   LIG d   1      -2.120  83.094 115.919  0.00  0.00    -0.241 OA
ENDBRANCH   3  22
TORSDOF 7
ENDMDL
MODEL 8
REMARK VINA RESULT:      -4.6      2.798      5.409
REMARK  7 active torsions:
REMARK  status: ('A' for Active; 'I' for Inactive)
REMARK    1  A    between atoms: C_2  and  C_3 
REMARK    2  A    between atoms: C_3  and  O_6 
REMARK    3  A    between atoms: C_3  and  C_4 
REMARK    4  A    between atoms: C_7  and  O_6 
REMARK    5  A    between atoms: C_9  and  C_10 
REMARK    6  A    between atoms: N_15  and  C_14 
REMARK    7  A    between atoms: N_20  and  C_19 
REMARK       I    between atoms: C_22  and  N_20 
ROOT
ATOM      1  C   LIG d   1      -4.866  77.543 116.346  0.00  0.00     0.161 C 
ATOM      2  C   LIG d   1      -5.959  77.306 117.196  0.00  0.00     0.016 C 
ATOM      3  C   LIG d   1      -6.520  78.295 118.036  0.00  0.00     0.038 C 
ATOM      4  C   LIG d   1      -6.119  79.638 117.971  0.00  0.00     0.028 C 
ATOM      5  C   LIG d   1      -4.682  79.818 117.495  0.00  0.00    -0.047 C 
ATOM      6  C   LIG d   1      -4.486  79.030 116.180  0.00  0.00     0.091 C 
ENDROOT
BRANCH   1   7
ATOM      7  O   LIG d   1      -5.108  76.941 115.059  0.00  0.00    -0.368 OA
BRANCH   7   8
ATOM      8  C   LIG d   1      -4.381  75.719 114.781  0.00  0.00     0.119 C 
BRANCH   8   9
ATOM      9  C   LIG d   1      -3.484  75.982 113.556  0.00  0.00     0.028 C 
ATOM     10  C   LIG d   1      -1.994  75.756 113.862  0.00  0.00     0.006 C 
ENDBRANCH   8   9
BRANCH   8  11
ATOM     11  C   LIG d   1      -5.328  74.593 114.355  0.00  0.00     0.028 C 
ATOM     12  C   LIG d   1      -6.303  74.180 115.469  0.00  0.00     0.006 C 
ENDBRANCH   8  11
ENDBRANCH   7   8
ENDBRANCH   1   7
BRANCH   6  13
ATOM     13  N   LIG d   1      -3.084  79.084 115.690  0.00  0.00    -0.311 N 
ATOM     14  C   LIG d   1      -2.754  79.447 114.452  0.00  0.00     0.210 C 
ATOM     15  C   LIG d   1      -1.253  79.415 114.147  0.00  0.00     0.109 C 
ATOM     16  O   LIG d   1      -3.559  79.824 113.587  0.00  0.00    -0.276 OA
ATOM     17  H   LIG d   1      -2.365  78.824 116.336  0.00  0.00     0.149 HD
ENDBRANCH   6  13
BRANCH   5  18
ATOM     18  N   LIG d   1      -4.441  81.266 117.343  0.00  0.00     0.381 N 
ATOM     19  H   LIG d   1      -3.794  81.577 118.040  0.00  0.00    -0.090 HD
ATOM     20  H   LIG d   1      -5.308  81.755 117.476  0.00  0.00    -0.090 HD
ATOM     21  H   LIG d   1      -4.079  81.457 116.434  0.00  0.00    -0.090 HD
ENDBRANCH   5  18
BRANCH   3  22
ATOM     22  C   LIG d   1      -7.468  77.936 118.983  0.00  0.00     0.382 C 
ATOM     23  O   LIG d   1      -8.057  78.822 119.648  0.00  0.00    -0.241 OA
ATOM     24  O   LIG d   1      -7.709  76.736 119.211  0.00  0.00    -0.241 OA
ENDBRANCH   3  22
TORSDOF 7
ENDMDL
MODEL 9
REMARK VINA RESULT:      -4.6      3.036      5.650
REMARK  7 active torsions:
REMARK  status: ('A' for Active; 'I' for Inactive)
REMARK    1  A    between atoms: C_2  and  C_3 
REMARK    2  A    between atoms: C_3  and  O_6 
REMARK    3  A    between atoms: C_3  and  C_4 
REMARK    4  A    between atoms: C_7  and  O_6 
REMARK    5  A    between atoms: C_9  and  C_10 
REMARK    6  A    between atoms: N_15  and  C_14 
REMARK    7  A    between atoms: N_20  and  C_19 
REMARK       I    between atoms: C_22  and  N_20 
ROOT
ATOM      1  C   LIG d   1      -3.183  78.864 115.095  0.00  0.00     0.161 C 
ATOM      2  C   LIG d   1      -3.923  78.736 116.283  0.00  0.00     0.016 C 
ATOM      3  C   LIG d   1      -4.322  79.839 117.073  0.00  0.00     0.038 C 
ATOM      4  C   LIG d   1      -4.137  81.162 116.647  0.00  0.00     0.028 C 
ATOM      5  C   LIG d   1      -2.950  81.334 115.704  0.00  0.00    -0.047 C 
ATOM      6  C   LIG d   1      -3.067  80.305 114.557  0.00  0.00     0.091 C 
ENDROOT
BRANCH   1   7
ATOM      7  O   LIG d   1      -3.728  77.993 114.084  0.00  0.00    -0.368 OA
BRANCH   7   8
ATOM      8  C   LIG d   1      -3.535  76.573 114.293  0.00  0.00     0.119 C 
BRANCH   8   9
ATOM      9  C   LIG d   1      -2.172  76.196 113.681  0.00  0.00     0.028 C 
ATOM     10  C   LIG d   1      -1.145  75.778 114.747  0.00  0.00     0.006 C 
ENDBRANCH   8   9
BRANCH   8  11
ATOM     11  C   LIG d   1      -4.568  75.750 113.520  0.00  0.00     0.028 C 
ATOM     12  C   LIG d   1      -5.520  74.970 114.441  0.00  0.00     0.006 C 
ENDBRANCH   8  11
ENDBRANCH   7   8
ENDBRANCH   1   7
BRANCH   6  13
ATOM     13  N   LIG d   1      -1.902  80.349 113.635  0.00  0.00    -0.311 N 
ATOM     14  C   LIG d   1      -1.871  81.088 112.528  0.00  0.00     0.210 C 
ATOM     15  C   LIG d   1      -0.582  80.972 111.709  0.00  0.00     0.109 C 
ATOM     16  O   LIG d   1      -2.776  81.853 112.162  0.00  0.00    -0.276 OA
ATOM     17  H   LIG d   1      -1.112  79.782 113.872  0.00  0.00     0.149 HD
ENDBRANCH   6  13
BRANCH   5  18
ATOM     18  N   LIG d   1      -2.956  82.731 115.231  0.00  0.00     0.381 N 
ATOM     19  H   LIG d   1      -2.970  83.354 116.014  0.00  0.00    -0.090 HD
ATOM     20  H   LIG d   1      -3.788  82.888 114.689  0.00  0.00    -0.090 HD
ATOM     21  H   LIG d   1      -2.150  82.906 114.672  0.00  0.00    -0.090 HD
ENDBRANCH   5  18
BRANCH   3  22
ATOM     22  C   LIG d   1      -4.879  79.622 118.324  0.00  0.00     0.382 C 
ATOM     23  O   LIG d   1      -4.684  78.533 118.917  0.00  0.00    -0.241 OA
ATOM     24  O   LIG d   1      -5.612  80.483 118.848  0.00  0.00    -0.241 OA
ENDBRANCH   3  22
TORSDOF 7
ENDMDL
