MODEL 1
REMARK VINA RESULT:      -5.8      0.000      0.000
REMARK  7 active torsions:
REMARK  status: ('A' for Active; 'I' for Inactive)
REMARK    1  A    between atoms: C_2  and  C_3 
REMARK    2  A    between atoms: C_3  and  O_6 
REMARK    3  A    between atoms: C_3  and  C_4 
REMARK    4  A    between atoms: C_7  and  O_6 
REMARK    5  A    between atoms: C_9  and  C_10 
REMARK    6  A    between atoms: N_15  and  C_14 
REMARK    7  A    between atoms: N_20  and  C_19 
REMARK       I    between atoms: C_22  and  N_20 
ROOT
ATOM      1  C   LIG d   1      -1.957  80.407 114.535  0.00  0.00     0.161 C 
ATOM      2  C   LIG d   1      -1.776  81.795 114.408  0.00  0.00     0.016 C 
ATOM      3  C   LIG d   1      -1.278  82.411 113.237  0.00  0.00     0.038 C 
ATOM      4  C   LIG d   1      -1.067  81.690 112.053  0.00  0.00     0.028 C 
ATOM      5  C   LIG d   1      -0.757  80.215 112.288  0.00  0.00    -0.047 C 
ATOM      6  C   LIG d   1      -1.838  79.616 113.215  0.00  0.00     0.091 C 
ENDROOT
BRANCH   1   7
ATOM      7  O   LIG d   1      -3.223  80.136 115.170  0.00  0.00    -0.368 OA
BRANCH   7   8
ATOM      8  C   LIG d   1      -3.196  79.996 116.611  0.00  0.00     0.119 C 
BRANCH   8   9
ATOM      9  C   LIG d   1      -3.945  78.697 116.965  0.00  0.00     0.028 C 
ATOM     10  C   LIG d   1      -3.002  77.487 117.076  0.00  0.00     0.006 C 
ENDBRANCH   8   9
BRANCH   8  11
ATOM     11  C   LIG d   1      -3.984  81.118 117.294  0.00  0.00     0.028 C 
ATOM     12  C   LIG d   1      -3.241  81.722 118.496  0.00  0.00     0.006 C 
ENDBRANCH   8  11
ENDBRANCH   7   8
ENDBRANCH   1   7
BRANCH   6  13
ATOM     13  N   LIG d   1      -1.564  78.198 113.564  0.00  0.00    -0.311 N 
ATOM     14  C   LIG d   1      -2.442  77.214 113.380  0.00  0.00     0.210 C 
ATOM     15  C   LIG d   1      -1.965  75.829 113.826  0.00  0.00     0.109 C 
ATOM     16  O   LIG d   1      -3.559  77.352 112.859  0.00  0.00    -0.276 OA
ATOM     17  H   LIG d   1      -0.669  77.992 113.964  0.00  0.00     0.149 HD
ENDBRANCH   6  13
BRANCH   5  18
ATOM     18  N   LIG d   1      -0.697  79.557 110.969  0.00  0.00     0.381 N 
ATOM     19  H   LIG d   1      -0.625  80.247 110.248  0.00  0.00    -0.090 HD
ATOM     20  H   LIG d   1      -1.546  79.039 110.825  0.00  0.00    -0.090 HD
ATOM     21  H   LIG d   1       0.087  78.942 110.930  0.00  0.00    -0.090 HD
ENDBRANCH   5  18
BRANCH   3  22
ATOM     22  C   LIG d   1      -0.946  83.757 113.257  0.00  0.00     0.382 C 
ATOM     23  O   LIG d   1      -0.609  84.304 114.335  0.00  0.00    -0.241 OA
ATOM     24  O   LIG d   1      -1.023  84.441 112.219  0.00  0.00    -0.241 OA
ENDBRANCH   3  22
TORSDOF 7
ENDMDL
MODEL 2
REMARK VINA RESULT:      -5.2      1.256      1.764
REMARK  7 active torsions:
REMARK  status: ('A' for Active; 'I' for Inactive)
REMARK    1  A    between atoms: C_2  and  C_3 
REMARK    2  A    between atoms: C_3  and  O_6 
REMARK    3  A    between atoms: C_3  and  C_4 
REMARK    4  A    between atoms: C_7  and  O_6 
REMARK    5  A    between atoms: C_9  and  C_10 
REMARK    6  A    between atoms: N_15  and  C_14 
REMARK    7  A    between atoms: N_20  and  C_19 
REMARK       I    between atoms: C_22  and  N_20 
ROOT
ATOM      1  C   LIG d   1      -1.379  80.561 115.213  0.00  0.00     0.161 C 
ATOM      2  C   LIG d   1      -1.229  81.942 115.003  0.00  0.00     0.016 C 
ATOM      3  C   LIG d   1      -1.123  82.527 113.720  0.00  0.00     0.038 C 
ATOM      4  C   LIG d   1      -1.314  81.781 112.547  0.00  0.00     0.028 C 
ATOM      5  C   LIG d   1      -0.965  80.305 112.705  0.00  0.00    -0.047 C 
ATOM      6  C   LIG d   1      -1.700  79.745 113.944  0.00  0.00     0.091 C 
ENDROOT
BRANCH   1   7
ATOM      7  O   LIG d   1      -2.378  80.327 116.225  0.00  0.00    -0.368 OA
BRANCH   7   8
ATOM      8  C   LIG d   1      -2.779  81.481 117.004  0.00  0.00     0.119 C 
BRANCH   8   9
ATOM      9  C   LIG d   1      -2.211  81.301 118.425  0.00  0.00     0.028 C 
ATOM     10  C   LIG d   1      -0.996  82.206 118.690  0.00  0.00     0.006 C 
ENDBRANCH   8   9
BRANCH   8  11
ATOM     11  C   LIG d   1      -4.300  81.533 117.179  0.00  0.00     0.028 C 
ATOM     12  C   LIG d   1      -4.726  81.652 118.651  0.00  0.00     0.006 C 
ENDBRANCH   8  11
ENDBRANCH   7   8
ENDBRANCH   1   7
BRANCH   6  13
ATOM     13  N   LIG d   1      -1.348  78.328 114.219  0.00  0.00    -0.311 N 
ATOM     14  C   LIG d   1      -2.050  77.295 113.757  0.00  0.00     0.210 C 
ATOM     15  C   LIG d   1      -1.525  75.917 114.175  0.00  0.00     0.109 C 
ATOM     16  O   LIG d   1      -3.038  77.387 113.013  0.00  0.00    -0.276 OA
ATOM     17  H   LIG d   1      -0.541  78.160 114.789  0.00  0.00     0.149 HD
ENDBRANCH   6  13
BRANCH   5  18
ATOM     18  N   LIG d   1      -1.340  79.623 111.452  0.00  0.00     0.381 N 
ATOM     19  H   LIG d   1      -1.167  78.641 111.536  0.00  0.00    -0.090 HD
ATOM     20  H   LIG d   1      -0.771  79.979 110.704  0.00  0.00    -0.090 HD
ATOM     21  H   LIG d   1      -2.302  79.782 111.252  0.00  0.00    -0.090 HD
ENDBRANCH   5  18
BRANCH   3  22
ATOM     22  C   LIG d   1      -0.785  83.866 113.601  0.00  0.00     0.382 C 
ATOM     23  O   LIG d   1      -1.081  84.498 112.559  0.00  0.00    -0.241 OA
ATOM     24  O   LIG d   1      -0.147  84.439 114.505  0.00  0.00    -0.241 OA
ENDBRANCH   3  22
TORSDOF 7
ENDMDL
MODEL 3
REMARK VINA RESULT:      -5.1      2.350      3.314
REMARK  7 active torsions:
REMARK  status: ('A' for Active; 'I' for Inactive)
REMARK    1  A    between atoms: C_2  and  C_3 
REMARK    2  A    between atoms: C_3  and  O_6 
REMARK    3  A    between atoms: C_3  and  C_4 
REMARK    4  A    between atoms: C_7  and  O_6 
REMARK    5  A    between atoms: C_9  and  C_10 
REMARK    6  A    between atoms: N_15  and  C_14 
REMARK    7  A    between atoms: N_20  and  C_19 
REMARK       I    between atoms: C_22  and  N_20 
ROOT
ATOM      1  C   LIG d   1      -1.417  79.244 115.734  0.00  0.00     0.161 C 
ATOM      2  C   LIG d   1      -1.805  80.197 114.778  0.00  0.00     0.016 C 
ATOM      3  C   LIG d   1      -2.284  79.859 113.492  0.00  0.00     0.038 C 
ATOM      4  C   LIG d   1      -2.552  78.531 113.126  0.00  0.00     0.028 C 
ATOM      5  C   LIG d   1      -1.700  77.512 113.876  0.00  0.00    -0.047 C 
ATOM      6  C   LIG d   1      -1.807  77.790 115.393  0.00  0.00     0.091 C 
ENDROOT
BRANCH   1   7
ATOM      7  O   LIG d   1      -1.934  79.611 117.028  0.00  0.00    -0.368 OA
BRANCH   7   8
ATOM      8  C   LIG d   1      -3.368  79.802 117.110  0.00  0.00     0.119 C 
BRANCH   8   9
ATOM      9  C   LIG d   1      -3.615  81.200 117.710  0.00  0.00     0.028 C 
ATOM     10  C   LIG d   1      -2.333  81.827 118.285  0.00  0.00     0.006 C 
ENDBRANCH   8   9
BRANCH   8  11
ATOM     11  C   LIG d   1      -4.006  78.819 118.097  0.00  0.00     0.028 C 
ATOM     12  C   LIG d   1      -2.971  78.110 118.984  0.00  0.00     0.006 C 
ENDBRANCH   8  11
ENDBRANCH   7   8
ENDBRANCH   1   7
BRANCH   6  13
ATOM     13  N   LIG d   1      -0.937  76.891 116.196  0.00  0.00    -0.311 N 
ATOM     14  C   LIG d   1      -1.316  75.683 116.610  0.00  0.00     0.210 C 
ATOM     15  C   LIG d   1      -0.274  74.929 117.443  0.00  0.00     0.109 C 
ATOM     16  O   LIG d   1      -2.404  75.152 116.341  0.00  0.00    -0.276 OA
ATOM     17  H   LIG d   1      -0.026  77.230 116.434  0.00  0.00     0.149 HD
ENDBRANCH   6  13
BRANCH   5  18
ATOM     18  N   LIG d   1      -2.178  76.169 113.500  0.00  0.00     0.381 N 
ATOM     19  H   LIG d   1      -2.923  76.247 112.836  0.00  0.00    -0.090 HD
ATOM     20  H   LIG d   1      -2.533  75.708 114.319  0.00  0.00    -0.090 HD
ATOM     21  H   LIG d   1      -1.431  75.638 113.109  0.00  0.00    -0.090 HD
ENDBRANCH   5  18
BRANCH   3  22
ATOM     22  C   LIG d   1      -2.462  80.853 112.541  0.00  0.00     0.382 C 
ATOM     23  O   LIG d   1      -3.579  81.410 112.419  0.00  0.00    -0.241 OA
ATOM     24  O   LIG d   1      -1.532  81.168 111.775  0.00  0.00    -0.241 OA
ENDBRANCH   3  22
TORSDOF 7
ENDMDL
MODEL 4
REMARK VINA RESULT:      -4.9      2.041      5.159
REMARK  7 active torsions:
REMARK  status: ('A' for Active; 'I' for Inactive)
REMARK    1  A    between atoms: C_2  and  C_3 
REMARK    2  A    between atoms: C_3  and  O_6 
REMARK    3  A    between atoms: C_3  and  C_4 
REMARK    4  A    between atoms: C_7  and  O_6 
REMARK    5  A    between atoms: C_9  and  C_10 
REMARK    6  A    between atoms: N_15  and  C_14 
REMARK    7  A    between atoms: N_20  and  C_19 
REMARK       I    between atoms: C_22  and  N_20 
ROOT
ATOM      1  C   LIG d   1      -2.049  81.333 114.138  0.00  0.00     0.161 C 
ATOM      2  C   LIG d   1      -2.434  80.184 114.849  0.00  0.00     0.016 C 
ATOM      3  C   LIG d   1      -2.330  78.875 114.326  0.00  0.00     0.038 C 
ATOM      4  C   LIG d   1      -1.690  78.612 113.106  0.00  0.00     0.028 C 
ATOM      5  C   LIG d   1      -1.742  79.782 112.130  0.00  0.00    -0.047 C 
ATOM      6  C   LIG d   1      -1.246  81.057 112.850  0.00  0.00     0.091 C 
ENDROOT
BRANCH   1   7
ATOM      7  O   LIG d   1      -1.317  82.222 115.005  0.00  0.00    -0.368 OA
BRANCH   7   8
ATOM      8  C   LIG d   1       0.095  81.937 115.163  0.00  0.00     0.119 C 
BRANCH   8   9
ATOM      9  C   LIG d   1       0.338  81.610 116.649  0.00  0.00     0.028 C 
ATOM     10  C   LIG d   1      -0.782  82.144 117.558  0.00  0.00     0.006 C 
ENDBRANCH   8   9
BRANCH   8  11
ATOM     11  C   LIG d   1       0.949  83.176 114.876  0.00  0.00     0.028 C 
ATOM     12  C   LIG d   1       0.105  84.437 114.627  0.00  0.00     0.006 C 
ENDBRANCH   8  11
ENDBRANCH   7   8
ENDBRANCH   1   7
BRANCH   6  13
ATOM     13  N   LIG d   1      -1.343  82.267 111.991  0.00  0.00    -0.311 N 
ATOM     14  C   LIG d   1      -0.317  82.760 111.300  0.00  0.00     0.210 C 
ATOM     15  C   LIG d   1      -0.628  84.026 110.495  0.00  0.00     0.109 C 
ATOM     16  O   LIG d   1       0.813  82.251 111.251  0.00  0.00    -0.276 OA
ATOM     17  H   LIG d   1      -2.233  82.725 111.948  0.00  0.00     0.149 HD
ENDBRANCH   6  13
BRANCH   5  18
ATOM     18  N   LIG d   1      -0.921  79.423 110.959  0.00  0.00     0.381 N 
ATOM     19  H   LIG d   1      -0.824  80.216 110.356  0.00  0.00    -0.090 HD
ATOM     20  H   LIG d   1      -1.385  78.693 110.448  0.00  0.00    -0.090 HD
ATOM     21  H   LIG d   1      -0.022  79.110 111.255  0.00  0.00    -0.090 HD
ENDBRANCH   5  18
BRANCH   3  22
ATOM     22  C   LIG d   1      -2.907  77.815 115.009  0.00  0.00     0.382 C 
ATOM     23  O   LIG d   1      -2.642  76.635 114.675  0.00  0.00    -0.241 OA
ATOM     24  O   LIG d   1      -3.724  78.023 115.926  0.00  0.00    -0.241 OA
ENDBRANCH   3  22
TORSDOF 7
ENDMDL
MODEL 5
REMARK VINA RESULT:      -4.8      2.793      5.960
REMARK  7 active torsions:
REMARK  status: ('A' for Active; 'I' for Inactive)
REMARK    1  A    between atoms: C_2  and  C_3 
REMARK    2  A    between atoms: C_3  and  O_6 
REMARK    3  A    between atoms: C_3  and  C_4 
REMARK    4  A    between atoms: C_7  and  O_6 
REMARK    5  A    between atoms: C_9  and  C_10 
REMARK    6  A    between atoms: N_15  and  C_14 
REMARK    7  A    between atoms: N_20  and  C_19 
REMARK       I    between atoms: C_22  and  N_20 
ROOT
ATOM      1  C   LIG d   1      -2.082  78.910 115.246  0.00  0.00     0.161 C 
ATOM      2  C   LIG d   1      -1.757  77.804 114.444  0.00  0.00     0.016 C 
ATOM      3  C   LIG d   1      -1.635  76.488 114.946  0.00  0.00     0.038 C 
ATOM      4  C   LIG d   1      -1.980  76.163 116.266  0.00  0.00     0.028 C 
ATOM      5  C   LIG d   1      -1.827  77.328 117.237  0.00  0.00    -0.047 C 
ATOM      6  C   LIG d   1      -2.571  78.557 116.667  0.00  0.00     0.091 C 
ENDROOT
BRANCH   1   7
ATOM      7  O   LIG d   1      -3.054  79.734 114.572  0.00  0.00    -0.368 OA
BRANCH   7   8
ATOM      8  C   LIG d   1      -2.581  81.019 114.097  0.00  0.00     0.119 C 
BRANCH   8   9
ATOM      9  C   LIG d   1      -2.376  80.903 112.575  0.00  0.00     0.028 C 
ATOM     10  C   LIG d   1      -0.897  80.716 112.194  0.00  0.00     0.006 C 
ENDBRANCH   8   9
BRANCH   8  11
ATOM     11  C   LIG d   1      -1.199  81.349 114.669  0.00  0.00     0.028 C 
ATOM     12  C   LIG d   1      -1.198  82.625 115.526  0.00  0.00     0.006 C 
ENDBRANCH   8  11
ENDBRANCH   7   8
ENDBRANCH   1   7
BRANCH   6  13
ATOM     13  N   LIG d   1      -2.401  79.767 117.514  0.00  0.00    -0.311 N 
ATOM     14  C   LIG d   1      -3.404  80.582 117.837  0.00  0.00     0.210 C 
ATOM     15  C   LIG d   1      -3.007  81.782 118.703  0.00  0.00     0.109 C 
ATOM     16  O   LIG d   1      -4.589  80.409 117.515  0.00  0.00    -0.276 OA
ATOM     17  H   LIG d   1      -1.477  79.966 117.845  0.00  0.00     0.149 HD
ENDBRANCH   6  13
BRANCH   5  18
ATOM     18  N   LIG d   1      -2.351  76.891 118.545  0.00  0.00     0.381 N 
ATOM     19  H   LIG d   1      -2.441  77.679 119.154  0.00  0.00    -0.090 HD
ATOM     20  H   LIG d   1      -1.699  76.247 118.957  0.00  0.00    -0.090 HD
ATOM     21  H   LIG d   1      -3.236  76.450 118.427  0.00  0.00    -0.090 HD
ENDBRANCH   5  18
BRANCH   3  22
ATOM     22  C   LIG d   1      -1.124  75.487 114.133  0.00  0.00     0.382 C 
ATOM     23  O   LIG d   1      -0.242  74.711 114.573  0.00  0.00    -0.241 OA
ATOM     24  O   LIG d   1      -1.502  75.378 112.951  0.00  0.00    -0.241 OA
ENDBRANCH   3  22
TORSDOF 7
ENDMDL
MODEL 6
REMARK VINA RESULT:      -4.7      2.549      5.454
REMARK  7 active torsions:
REMARK  status: ('A' for Active; 'I' for Inactive)
REMARK    1  A    between atoms: C_2  and  C_3 
REMARK    2  A    between atoms: C_3  and  O_6 
REMARK    3  A    between atoms: C_3  and  C_4 
REMARK    4  A    between atoms: C_7  and  O_6 
REMARK    5  A    between atoms: C_9  and  C_10 
REMARK    6  A    between atoms: N_15  and  C_14 
REMARK    7  A    between atoms: N_20  and  C_19 
REMARK       I    between atoms: C_22  and  N_20 
ROOT
ATOM      1  C   LIG d   1      -0.512  81.864 113.875  0.00  0.00     0.161 C 
ATOM      2  C   LIG d   1      -1.343  81.120 114.730  0.00  0.00     0.016 C 
ATOM      3  C   LIG d   1      -1.951  79.899 114.355  0.00  0.00     0.038 C 
ATOM      4  C   LIG d   1      -1.647  79.260 113.144  0.00  0.00     0.028 C 
ATOM      5  C   LIG d   1      -1.209  80.222 112.045  0.00  0.00    -0.047 C 
ATOM      6  C   LIG d   1      -0.080  81.126 112.590  0.00  0.00     0.091 C 
ENDROOT
BRANCH   1   7
ATOM      7  O   LIG d   1       0.644  82.328 114.599  0.00  0.00    -0.368 OA
BRANCH   7   8
ATOM      8  C   LIG d   1       0.503  83.600 115.278  0.00  0.00     0.119 C 
BRANCH   8   9
ATOM      9  C   LIG d   1       1.124  84.680 114.371  0.00  0.00     0.028 C 
ATOM     10  C   LIG d   1       2.440  84.216 113.723  0.00  0.00     0.006 C 
ENDBRANCH   8   9
BRANCH   8  11
ATOM     11  C   LIG d   1       1.322  83.636 116.571  0.00  0.00     0.028 C 
ATOM     12  C   LIG d   1       0.832  82.620 117.615  0.00  0.00     0.006 C 
ENDBRANCH   8  11
ENDBRANCH   7   8
ENDBRANCH   1   7
BRANCH   6  13
ATOM     13  N   LIG d   1       0.349  82.153 111.605  0.00  0.00    -0.311 N 
ATOM     14  C   LIG d   1       1.375  81.987 110.773  0.00  0.00     0.210 C 
ATOM     15  C   LIG d   1       1.660  83.178 109.852  0.00  0.00     0.109 C 
ATOM     16  O   LIG d   1       2.056  80.954 110.687  0.00  0.00    -0.276 OA
ATOM     17  H   LIG d   1      -0.169  83.010 111.585  0.00  0.00     0.149 HD
ENDBRANCH   6  13
BRANCH   5  18
ATOM     18  N   LIG d   1      -0.792  79.412 110.885  0.00  0.00     0.381 N 
ATOM     19  H   LIG d   1      -1.375  78.603 110.809  0.00  0.00    -0.090 HD
ATOM     20  H   LIG d   1       0.155  79.106 111.025  0.00  0.00    -0.090 HD
ATOM     21  H   LIG d   1      -0.853  79.954 110.051  0.00  0.00    -0.090 HD
ENDBRANCH   5  18
BRANCH   3  22
ATOM     22  C   LIG d   1      -2.906  79.326 115.181  0.00  0.00     0.382 C 
ATOM     23  O   LIG d   1      -3.107  78.088 115.143  0.00  0.00    -0.241 OA
ATOM     24  O   LIG d   1      -3.601  80.037 115.932  0.00  0.00    -0.241 OA
ENDBRANCH   3  22
TORSDOF 7
ENDMDL
MODEL 7
REMARK VINA RESULT:      -4.7      2.826      6.694
REMARK  7 active torsions:
REMARK  status: ('A' for Active; 'I' for Inactive)
REMARK    1  A    between atoms: C_2  and  C_3 
REMARK    2  A    between atoms: C_3  and  O_6 
REMARK    3  A    between atoms: C_3  and  C_4 
REMARK    4  A    between atoms: C_7  and  O_6 
REMARK    5  A    between atoms: C_9  and  C_10 
REMARK    6  A    between atoms: N_15  and  C_14 
REMARK    7  A    between atoms: N_20  and  C_19 
REMARK       I    between atoms: C_22  and  N_20 
ROOT
ATOM      1  C   LIG d   1      -0.377  81.570 112.079  0.00  0.00     0.161 C 
ATOM      2  C   LIG d   1      -1.016  80.319 112.066  0.00  0.00     0.016 C 
ATOM      3  C   LIG d   1      -1.787  79.827 113.145  0.00  0.00     0.038 C 
ATOM      4  C   LIG d   1      -2.097  80.623 114.257  0.00  0.00     0.028 C 
ATOM      5  C   LIG d   1      -1.059  81.704 114.538  0.00  0.00    -0.047 C 
ATOM      6  C   LIG d   1      -0.797  82.498 113.238  0.00  0.00     0.091 C 
ENDROOT
BRANCH   1   7
ATOM      7  O   LIG d   1      -0.571  82.231 110.813  0.00  0.00    -0.368 OA
BRANCH   7   8
ATOM      8  C   LIG d   1       0.604  82.361 109.975  0.00  0.00     0.119 C 
BRANCH   8   9
ATOM      9  C   LIG d   1       1.780  81.702 110.722  0.00  0.00     0.028 C 
ATOM     10  C   LIG d   1       2.376  80.515 109.947  0.00  0.00     0.006 C 
ENDBRANCH   8   9
BRANCH   8  11
ATOM     11  C   LIG d   1       1.004  83.829 109.801  0.00  0.00     0.028 C 
ATOM     12  C   LIG d   1       2.439  84.114 110.273  0.00  0.00     0.006 C 
ENDBRANCH   8  11
ENDBRANCH   7   8
ENDBRANCH   1   7
BRANCH   6  13
ATOM     13  N   LIG d   1       0.269  83.521 113.403  0.00  0.00    -0.311 N 
ATOM     14  C   LIG d   1       1.479  83.246 113.888  0.00  0.00     0.210 C 
ATOM     15  C   LIG d   1       2.421  84.450 113.994  0.00  0.00     0.109 C 
ATOM     16  O   LIG d   1       1.873  82.115 114.209  0.00  0.00    -0.276 OA
ATOM     17  H   LIG d   1       0.046  84.460 113.138  0.00  0.00     0.149 HD
ENDBRANCH   6  13
BRANCH   5  18
ATOM     18  N   LIG d   1      -1.575  82.544 115.635  0.00  0.00     0.381 N 
ATOM     19  H   LIG d   1      -2.387  83.041 115.327  0.00  0.00    -0.090 HD
ATOM     20  H   LIG d   1      -0.872  83.215 115.889  0.00  0.00    -0.090 HD
ATOM     21  H   LIG d   1      -1.802  81.977 116.421  0.00  0.00    -0.090 HD
ENDBRANCH   5  18
BRANCH   3  22
ATOM     22  C   LIG d   1      -2.222  78.511 113.135  0.00  0.00     0.382 C 
ATOM     23  O   LIG d   1      -3.158  78.166 112.374  0.00  0.00    -0.241 OA
ATOM     24  O   LIG d   1      -1.721  77.674 113.909  0.00  0.00    -0.241 OA
ENDBRANCH   3  22
TORSDOF 7
ENDMDL
MODEL 8
REMARK VINA RESULT:      -4.7      2.463      4.151
REMARK  7 active torsions:
REMARK  status: ('A' for Active; 'I' for Inactive)
REMARK    1  A    between atoms: C_2  and  C_3 
REMARK    2  A    between atoms: C_3  and  O_6 
REMARK    3  A    between atoms: C_3  and  C_4 
REMARK    4  A    between atoms: C_7  and  O_6 
REMARK    5  A    between atoms: C_9  and  C_10 
REMARK    6  A    between atoms: N_15  and  C_14 
REMARK    7  A    between atoms: N_20  and  C_19 
REMARK       I    between atoms: C_22  and  N_20 
ROOT
ATOM      1  C   LIG d   1      -2.443  81.539 114.392  0.00  0.00     0.161 C 
ATOM      2  C   LIG d   1      -1.930  81.751 113.101  0.00  0.00     0.016 C 
ATOM      3  C   LIG d   1      -0.698  82.398 112.850  0.00  0.00     0.038 C 
ATOM      4  C   LIG d   1       0.182  82.745 113.886  0.00  0.00     0.028 C 
ATOM      5  C   LIG d   1      -0.520  83.007 115.214  0.00  0.00    -0.047 C 
ATOM      6  C   LIG d   1      -1.446  81.811 115.537  0.00  0.00     0.091 C 
ENDROOT
BRANCH   1   7
ATOM      7  O   LIG d   1      -2.971  80.202 114.494  0.00  0.00    -0.368 OA
BRANCH   7   8
ATOM      8  C   LIG d   1      -1.994  79.138 114.603  0.00  0.00     0.119 C 
BRANCH   8   9
ATOM      9  C   LIG d   1      -2.185  78.208 113.389  0.00  0.00     0.028 C 
ATOM     10  C   LIG d   1      -2.019  76.723 113.755  0.00  0.00     0.006 C 
ENDBRANCH   8   9
BRANCH   8  11
ATOM     11  C   LIG d   1      -2.259  78.261 115.831  0.00  0.00     0.028 C 
ATOM     12  C   LIG d   1      -3.543  78.655 116.578  0.00  0.00     0.006 C 
ENDBRANCH   8  11
ENDBRANCH   7   8
ENDBRANCH   1   7
BRANCH   6  13
ATOM     13  N   LIG d   1      -2.234  82.024 116.779  0.00  0.00    -0.311 N 
ATOM     14  C   LIG d   1      -1.852  81.579 117.975  0.00  0.00     0.210 C 
ATOM     15  C   LIG d   1      -2.821  81.889 119.120  0.00  0.00     0.109 C 
ATOM     16  O   LIG d   1      -0.787  80.985 118.201  0.00  0.00    -0.276 OA
ATOM     17  H   LIG d   1      -3.097  82.524 116.691  0.00  0.00     0.149 HD
ENDBRANCH   6  13
BRANCH   5  18
ATOM     18  N   LIG d   1       0.524  83.222 116.234  0.00  0.00     0.381 N 
ATOM     19  H   LIG d   1       1.383  82.808 115.932  0.00  0.00    -0.090 HD
ATOM     20  H   LIG d   1       0.241  82.774 117.088  0.00  0.00    -0.090 HD
ATOM     21  H   LIG d   1       0.653  84.197 116.389  0.00  0.00    -0.090 HD
ENDBRANCH   5  18
BRANCH   3  22
ATOM     22  C   LIG d   1      -0.354  82.740 111.551  0.00  0.00     0.382 C 
ATOM     23  O   LIG d   1       0.850  82.922 111.249  0.00  0.00    -0.241 OA
ATOM     24  O   LIG d   1      -1.236  82.911 110.688  0.00  0.00    -0.241 OA
ENDBRANCH   3  22
TORSDOF 7
ENDMDL
MODEL 9
REMARK VINA RESULT:      -4.6      2.805      4.435
REMARK  7 active torsions:
REMARK  status: ('A' for Active; 'I' for Inactive)
REMARK    1  A    between atoms: C_2  and  C_3 
REMARK    2  A    between atoms: C_3  and  O_6 
REMARK    3  A    between atoms: C_3  and  C_4 
REMARK    4  A    between atoms: C_7  and  O_6 
REMARK    5  A    between atoms: C_9  and  C_10 
REMARK    6  A    between atoms: N_15  and  C_14 
REMARK    7  A    between atoms: N_20  and  C_19 
REMARK       I    between atoms: C_22  and  N_20 
ROOT
ATOM      1  C   LIG d   1      -2.275  79.017 115.605  0.00  0.00     0.161 C 
ATOM      2  C   LIG d   1      -2.614  79.596 114.371  0.00  0.00     0.016 C 
ATOM      3  C   LIG d   1      -1.834  80.591 113.738  0.00  0.00     0.038 C 
ATOM      4  C   LIG d   1      -0.574  80.969 114.226  0.00  0.00     0.028 C 
ATOM      5  C   LIG d   1      -0.427  80.777 115.732  0.00  0.00    -0.047 C 
ATOM      6  C   LIG d   1      -0.848  79.336 116.099  0.00  0.00     0.091 C 
ENDROOT
BRANCH   1   7
ATOM      7  O   LIG d   1      -2.478  77.591 115.548  0.00  0.00    -0.368 OA
BRANCH   7   8
ATOM      8  C   LIG d   1      -2.092  76.941 114.312  0.00  0.00     0.119 C 
BRANCH   8   9
ATOM      9  C   LIG d   1      -3.317  76.162 113.796  0.00  0.00     0.028 C 
ATOM     10  C   LIG d   1      -4.284  75.773 114.927  0.00  0.00     0.006 C 
ENDBRANCH   8   9
BRANCH   8  11
ATOM     11  C   LIG d   1      -1.011  75.883 114.553  0.00  0.00     0.028 C 
ATOM     12  C   LIG d   1      -0.720  75.658 116.046  0.00  0.00     0.006 C 
ENDBRANCH   8  11
ENDBRANCH   7   8
ENDBRANCH   1   7
BRANCH   6  13
ATOM     13  N   LIG d   1      -0.814  79.091 117.564  0.00  0.00    -0.311 N 
ATOM     14  C   LIG d   1       0.236  78.568 118.196  0.00  0.00     0.210 C 
ATOM     15  C   LIG d   1       0.055  78.380 119.705  0.00  0.00     0.109 C 
ATOM     16  O   LIG d   1       1.312  78.272 117.654  0.00  0.00    -0.276 OA
ATOM     17  H   LIG d   1      -1.634  79.331 118.086  0.00  0.00     0.149 HD
ENDBRANCH   6  13
BRANCH   5  18
ATOM     18  N   LIG d   1       0.974  81.078 116.084  0.00  0.00     0.381 N 
ATOM     19  H   LIG d   1       1.477  81.355 115.265  0.00  0.00    -0.090 HD
ATOM     20  H   LIG d   1       1.402  80.247 116.452  0.00  0.00    -0.090 HD
ATOM     21  H   LIG d   1       1.006  81.805 116.765  0.00  0.00    -0.090 HD
ENDBRANCH   5  18
BRANCH   3  22
ATOM     22  C   LIG d   1      -2.332  81.248 112.623  0.00  0.00     0.382 C 
ATOM     23  O   LIG d   1      -1.545  81.812 111.824  0.00  0.00    -0.241 OA
ATOM     24  O   LIG d   1      -3.560  81.323 112.430  0.00  0.00    -0.241 OA
ENDBRANCH   3  22
TORSDOF 7
ENDMDL
