MODEL 1
REMARK VINA RESULT:      -4.9      0.000      0.000
REMARK  7 active torsions:
REMARK  status: ('A' for Active; 'I' for Inactive)
REMARK    1  A    between atoms: C_2  and  C_3 
REMARK    2  A    between atoms: C_3  and  O_6 
REMARK    3  A    between atoms: C_3  and  C_4 
REMARK    4  A    between atoms: C_7  and  O_6 
REMARK    5  A    between atoms: C_9  and  C_10 
REMARK    6  A    between atoms: N_15  and  C_14 
REMARK    7  A    between atoms: N_20  and  C_19 
REMARK       I    between atoms: C_22  and  N_20 
ROOT
ATOM      1  C   LIG d   1      -1.772  80.682 113.881  0.00  0.00     0.161 C 
ATOM      2  C   LIG d   1      -2.288  79.465 114.356  0.00  0.00     0.016 C 
ATOM      3  C   LIG d   1      -2.327  78.281 113.584  0.00  0.00     0.038 C 
ATOM      4  C   LIG d   1      -1.709  78.195 112.328  0.00  0.00     0.028 C 
ATOM      5  C   LIG d   1      -1.622  79.534 111.603  0.00  0.00    -0.047 C 
ATOM      6  C   LIG d   1      -0.993  80.578 112.553  0.00  0.00     0.091 C 
ENDROOT
BRANCH   1   7
ATOM      7  O   LIG d   1      -0.952  81.295 114.896  0.00  0.00    -0.368 OA
BRANCH   7   8
ATOM      8  C   LIG d   1      -0.399  80.402 115.893  0.00  0.00     0.119 C 
BRANCH   8   9
ATOM      9  C   LIG d   1      -0.469  81.126 117.252  0.00  0.00     0.028 C 
ATOM     10  C   LIG d   1      -1.893  81.149 117.832  0.00  0.00     0.006 C 
ENDBRANCH   8   9
BRANCH   8  11
ATOM     11  C   LIG d   1       1.091  80.145 115.647  0.00  0.00     0.028 C 
ATOM     12  C   LIG d   1       1.757  81.255 114.818  0.00  0.00     0.006 C 
ENDBRANCH   8  11
ENDBRANCH   7   8
ENDBRANCH   1   7
BRANCH   6  13
ATOM     13  N   LIG d   1      -0.947  81.937 111.951  0.00  0.00    -0.311 N 
ATOM     14  C   LIG d   1       0.128  82.432 111.340  0.00  0.00     0.210 C 
ATOM     15  C   LIG d   1      -0.032  83.860 110.808  0.00  0.00     0.109 C 
ATOM     16  O   LIG d   1       1.187  81.814 111.161  0.00  0.00    -0.276 OA
ATOM     17  H   LIG d   1      -1.775  82.496 112.024  0.00  0.00     0.149 HD
ENDBRANCH   6  13
BRANCH   5  18
ATOM     18  N   LIG d   1      -0.836  79.323 110.372  0.00  0.00     0.381 N 
ATOM     19  H   LIG d   1      -1.007  78.405 110.014  0.00  0.00    -0.090 HD
ATOM     20  H   LIG d   1       0.142  79.398 110.594  0.00  0.00    -0.090 HD
ATOM     21  H   LIG d   1      -1.082  80.006 109.690  0.00  0.00    -0.090 HD
ENDBRANCH   5  18
BRANCH   3  22
ATOM     22  C   LIG d   1      -3.024  77.178 114.053  0.00  0.00     0.382 C 
ATOM     23  O   LIG d   1      -2.505  76.427 114.913  0.00  0.00    -0.241 OA
ATOM     24  O   LIG d   1      -4.148  76.899 113.593  0.00  0.00    -0.241 OA
ENDBRANCH   3  22
TORSDOF 7
ENDMDL
MODEL 2
REMARK VINA RESULT:      -4.9      2.005      5.031
REMARK  7 active torsions:
REMARK  status: ('A' for Active; 'I' for Inactive)
REMARK    1  A    between atoms: C_2  and  C_3 
REMARK    2  A    between atoms: C_3  and  O_6 
REMARK    3  A    between atoms: C_3  and  C_4 
REMARK    4  A    between atoms: C_7  and  O_6 
REMARK    5  A    between atoms: C_9  and  C_10 
REMARK    6  A    between atoms: N_15  and  C_14 
REMARK    7  A    between atoms: N_20  and  C_19 
REMARK       I    between atoms: C_22  and  N_20 
ROOT
ATOM      1  C   LIG d   1      -2.164  80.149 114.598  0.00  0.00     0.161 C 
ATOM      2  C   LIG d   1      -1.644  81.243 113.886  0.00  0.00     0.016 C 
ATOM      3  C   LIG d   1      -1.155  81.149 112.563  0.00  0.00     0.038 C 
ATOM      4  C   LIG d   1      -1.294  79.978 111.802  0.00  0.00     0.028 C 
ATOM      5  C   LIG d   1      -1.353  78.711 112.648  0.00  0.00    -0.047 C 
ATOM      6  C   LIG d   1      -2.425  78.889 113.746  0.00  0.00     0.091 C 
ENDROOT
BRANCH   1   7
ATOM      7  O   LIG d   1      -3.364  80.543 115.291  0.00  0.00    -0.368 OA
BRANCH   7   8
ATOM      8  C   LIG d   1      -3.447  80.164 116.687  0.00  0.00     0.119 C 
BRANCH   8   9
ATOM      9  C   LIG d   1      -4.360  81.187 117.391  0.00  0.00     0.028 C 
ATOM     10  C   LIG d   1      -5.717  80.585 117.792  0.00  0.00     0.006 C 
ENDBRANCH   8   9
BRANCH   8  11
ATOM     11  C   LIG d   1      -2.087  80.289 117.381  0.00  0.00     0.028 C 
ATOM     12  C   LIG d   1      -1.976  81.552 118.250  0.00  0.00     0.006 C 
ENDBRANCH   8  11
ENDBRANCH   7   8
ENDBRANCH   1   7
BRANCH   6  13
ATOM     13  N   LIG d   1      -2.489  77.727 114.671  0.00  0.00    -0.311 N 
ATOM     14  C   LIG d   1      -3.403  76.763 114.575  0.00  0.00     0.210 C 
ATOM     15  C   LIG d   1      -3.302  75.668 115.641  0.00  0.00     0.109 C 
ATOM     16  O   LIG d   1      -4.269  76.695 113.689  0.00  0.00    -0.276 OA
ATOM     17  H   LIG d   1      -1.805  77.687 115.401  0.00  0.00     0.149 HD
ENDBRANCH   6  13
BRANCH   5  18
ATOM     18  N   LIG d   1      -1.636  77.583 111.741  0.00  0.00     0.381 N 
ATOM     19  H   LIG d   1      -2.622  77.419 111.702  0.00  0.00    -0.090 HD
ATOM     20  H   LIG d   1      -1.193  76.756 112.101  0.00  0.00    -0.090 HD
ATOM     21  H   LIG d   1      -1.289  77.783 110.829  0.00  0.00    -0.090 HD
ENDBRANCH   5  18
BRANCH   3  22
ATOM     22  C   LIG d   1      -0.484  82.224 112.000  0.00  0.00     0.382 C 
ATOM     23  O   LIG d   1       0.651  82.547 112.427  0.00  0.00    -0.241 OA
ATOM     24  O   LIG d   1      -1.017  82.902 111.102  0.00  0.00    -0.241 OA
ENDBRANCH   3  22
TORSDOF 7
ENDMDL
MODEL 3
REMARK VINA RESULT:      -4.8      1.994      5.158
REMARK  7 active torsions:
REMARK  status: ('A' for Active; 'I' for Inactive)
REMARK    1  A    between atoms: C_2  and  C_3 
REMARK    2  A    between atoms: C_3  and  O_6 
REMARK    3  A    between atoms: C_3  and  C_4 
REMARK    4  A    between atoms: C_7  and  O_6 
REMARK    5  A    between atoms: C_9  and  C_10 
REMARK    6  A    between atoms: N_15  and  C_14 
REMARK    7  A    between atoms: N_20  and  C_19 
REMARK       I    between atoms: C_22  and  N_20 
ROOT
ATOM      1  C   LIG d   1      -2.162  80.208 114.539  0.00  0.00     0.161 C 
ATOM      2  C   LIG d   1      -1.625  81.289 113.822  0.00  0.00     0.016 C 
ATOM      3  C   LIG d   1      -1.116  81.176 112.507  0.00  0.00     0.038 C 
ATOM      4  C   LIG d   1      -1.249  79.996 111.760  0.00  0.00     0.028 C 
ATOM      5  C   LIG d   1      -1.328  78.740 112.620  0.00  0.00    -0.047 C 
ATOM      6  C   LIG d   1      -2.417  78.938 113.699  0.00  0.00     0.091 C 
ENDROOT
BRANCH   1   7
ATOM      7  O   LIG d   1      -3.371  80.617 115.208  0.00  0.00    -0.368 OA
BRANCH   7   8
ATOM      8  C   LIG d   1      -3.312  80.670 116.655  0.00  0.00     0.119 C 
BRANCH   8   9
ATOM      9  C   LIG d   1      -1.867  80.337 117.072  0.00  0.00     0.028 C 
ATOM     10  C   LIG d   1      -1.206  81.479 117.863  0.00  0.00     0.006 C 
ENDBRANCH   8   9
BRANCH   8  11
ATOM     11  C   LIG d   1      -4.179  79.578 117.288  0.00  0.00     0.028 C 
ATOM     12  C   LIG d   1      -5.529  80.108 117.797  0.00  0.00     0.006 C 
ENDBRANCH   8  11
ENDBRANCH   7   8
ENDBRANCH   1   7
BRANCH   6  13
ATOM     13  N   LIG d   1      -2.502  77.788 114.637  0.00  0.00    -0.311 N 
ATOM     14  C   LIG d   1      -3.413  76.822 114.531  0.00  0.00     0.210 C 
ATOM     15  C   LIG d   1      -3.337  75.741 115.614  0.00  0.00     0.109 C 
ATOM     16  O   LIG d   1      -4.255  76.740 113.625  0.00  0.00    -0.276 OA
ATOM     17  H   LIG d   1      -1.837  77.759 115.384  0.00  0.00     0.149 HD
ENDBRANCH   6  13
BRANCH   5  18
ATOM     18  N   LIG d   1      -1.603  77.602 111.723  0.00  0.00     0.381 N 
ATOM     19  H   LIG d   1      -0.826  77.458 111.111  0.00  0.00    -0.090 HD
ATOM     20  H   LIG d   1      -2.410  77.817 111.164  0.00  0.00    -0.090 HD
ATOM     21  H   LIG d   1      -1.771  76.779 112.258  0.00  0.00    -0.090 HD
ENDBRANCH   5  18
BRANCH   3  22
ATOM     22  C   LIG d   1      -0.429  82.240 111.942  0.00  0.00     0.382 C 
ATOM     23  O   LIG d   1       0.679  82.592 112.413  0.00  0.00    -0.241 OA
ATOM     24  O   LIG d   1      -0.924  82.880 110.996  0.00  0.00    -0.241 OA
ENDBRANCH   3  22
TORSDOF 7
ENDMDL
MODEL 4
REMARK VINA RESULT:      -4.7      3.049      6.062
REMARK  7 active torsions:
REMARK  status: ('A' for Active; 'I' for Inactive)
REMARK    1  A    between atoms: C_2  and  C_3 
REMARK    2  A    between atoms: C_3  and  O_6 
REMARK    3  A    between atoms: C_3  and  C_4 
REMARK    4  A    between atoms: C_7  and  O_6 
REMARK    5  A    between atoms: C_9  and  C_10 
REMARK    6  A    between atoms: N_15  and  C_14 
REMARK    7  A    between atoms: N_20  and  C_19 
REMARK       I    between atoms: C_22  and  N_20 
ROOT
ATOM      1  C   LIG d   1      -2.400  78.193 114.830  0.00  0.00     0.161 C 
ATOM      2  C   LIG d   1      -2.762  79.247 113.974  0.00  0.00     0.016 C 
ATOM      3  C   LIG d   1      -1.879  80.287 113.604  0.00  0.00     0.038 C 
ATOM      4  C   LIG d   1      -0.518  80.262 113.947  0.00  0.00     0.028 C 
ATOM      5  C   LIG d   1      -0.230  79.484 115.226  0.00  0.00    -0.047 C 
ATOM      6  C   LIG d   1      -0.889  78.089 115.124  0.00  0.00     0.091 C 
ENDROOT
BRANCH   1   7
ATOM      7  O   LIG d   1      -2.895  76.945 114.305  0.00  0.00    -0.368 OA
BRANCH   7   8
ATOM      8  C   LIG d   1      -3.793  76.203 115.166  0.00  0.00     0.119 C 
BRANCH   8   9
ATOM      9  C   LIG d   1      -5.072  75.910 114.358  0.00  0.00     0.028 C 
ATOM     10  C   LIG d   1      -5.803  74.650 114.853  0.00  0.00     0.006 C 
ENDBRANCH   8   9
BRANCH   8  11
ATOM     11  C   LIG d   1      -4.250  77.051 116.357  0.00  0.00     0.028 C 
ATOM     12  C   LIG d   1      -4.015  76.357 117.708  0.00  0.00     0.006 C 
ENDBRANCH   8  11
ENDBRANCH   7   8
ENDBRANCH   1   7
BRANCH   6  13
ATOM     13  N   LIG d   1      -0.726  77.293 116.368  0.00  0.00    -0.311 N 
ATOM     14  C   LIG d   1      -0.332  76.021 116.379  0.00  0.00     0.210 C 
ATOM     15  C   LIG d   1      -0.249  75.381 117.768  0.00  0.00     0.109 C 
ATOM     16  O   LIG d   1      -0.011  75.372 115.372  0.00  0.00    -0.276 OA
ATOM     17  H   LIG d   1      -0.936  77.752 117.233  0.00  0.00     0.149 HD
ENDBRANCH   6  13
BRANCH   5  18
ATOM     18  N   LIG d   1       1.234  79.421 115.389  0.00  0.00     0.381 N 
ATOM     19  H   LIG d   1       1.675  80.023 114.723  0.00  0.00    -0.090 HD
ATOM     20  H   LIG d   1       1.541  78.480 115.216  0.00  0.00    -0.090 HD
ATOM     21  H   LIG d   1       1.486  79.696 116.313  0.00  0.00    -0.090 HD
ENDBRANCH   5  18
BRANCH   3  22
ATOM     22  C   LIG d   1      -2.364  81.389 112.916  0.00  0.00     0.382 C 
ATOM     23  O   LIG d   1      -3.551  81.400 112.508  0.00  0.00    -0.241 OA
ATOM     24  O   LIG d   1      -1.618  82.352 112.659  0.00  0.00    -0.241 OA
ENDBRANCH   3  22
TORSDOF 7
ENDMDL
MODEL 5
REMARK VINA RESULT:      -4.6      2.779      4.973
REMARK  7 active torsions:
REMARK  status: ('A' for Active; 'I' for Inactive)
REMARK    1  A    between atoms: C_2  and  C_3 
REMARK    2  A    between atoms: C_3  and  O_6 
REMARK    3  A    between atoms: C_3  and  C_4 
REMARK    4  A    between atoms: C_7  and  O_6 
REMARK    5  A    between atoms: C_9  and  C_10 
REMARK    6  A    between atoms: N_15  and  C_14 
REMARK    7  A    between atoms: N_20  and  C_19 
REMARK       I    between atoms: C_22  and  N_20 
ROOT
ATOM      1  C   LIG d   1       0.185  80.063 115.219  0.00  0.00     0.161 C 
ATOM      2  C   LIG d   1      -0.479  81.006 114.418  0.00  0.00     0.016 C 
ATOM      3  C   LIG d   1      -1.668  80.723 113.707  0.00  0.00     0.038 C 
ATOM      4  C   LIG d   1      -2.361  79.514 113.871  0.00  0.00     0.028 C 
ATOM      5  C   LIG d   1      -1.461  78.351 114.276  0.00  0.00    -0.047 C 
ATOM      6  C   LIG d   1      -0.616  78.773 115.499  0.00  0.00     0.091 C 
ENDROOT
BRANCH   1   7
ATOM      7  O   LIG d   1       0.595  80.676 116.458  0.00  0.00    -0.368 OA
BRANCH   7   8
ATOM      8  C   LIG d   1      -0.261  81.731 116.960  0.00  0.00     0.119 C 
BRANCH   8   9
ATOM      9  C   LIG d   1       0.649  82.813 117.573  0.00  0.00     0.028 C 
ATOM     10  C   LIG d   1      -0.136  83.828 118.421  0.00  0.00     0.006 C 
ENDBRANCH   8   9
BRANCH   8  11
ATOM     11  C   LIG d   1      -1.137  81.236 118.115  0.00  0.00     0.028 C 
ATOM     12  C   LIG d   1      -2.606  81.039 117.708  0.00  0.00     0.006 C 
ENDBRANCH   8  11
ENDBRANCH   7   8
ENDBRANCH   1   7
BRANCH   6  13
ATOM     13  N   LIG d   1       0.353  77.723 115.908  0.00  0.00    -0.311 N 
ATOM     14  C   LIG d   1       0.441  77.251 117.151  0.00  0.00     0.210 C 
ATOM     15  C   LIG d   1       1.521  76.185 117.362  0.00  0.00     0.109 C 
ATOM     16  O   LIG d   1      -0.293  77.592 118.090  0.00  0.00    -0.276 OA
ATOM     17  H   LIG d   1       0.966  77.367 115.201  0.00  0.00     0.149 HD
ENDBRANCH   6  13
BRANCH   5  18
ATOM     18  N   LIG d   1      -2.330  77.190 114.546  0.00  0.00     0.381 N 
ATOM     19  H   LIG d   1      -3.267  77.498 114.710  0.00  0.00    -0.090 HD
ATOM     20  H   LIG d   1      -2.001  76.724 115.374  0.00  0.00    -0.090 HD
ATOM     21  H   LIG d   1      -2.310  76.562 113.773  0.00  0.00    -0.090 HD
ENDBRANCH   5  18
BRANCH   3  22
ATOM     22  C   LIG d   1      -2.155  81.642 112.789  0.00  0.00     0.382 C 
ATOM     23  O   LIG d   1      -3.374  81.646 112.492  0.00  0.00    -0.241 OA
ATOM     24  O   LIG d   1      -1.382  82.437 112.221  0.00  0.00    -0.241 OA
ENDBRANCH   3  22
TORSDOF 7
ENDMDL
MODEL 6
REMARK VINA RESULT:      -4.4      3.903      6.974
REMARK  7 active torsions:
REMARK  status: ('A' for Active; 'I' for Inactive)
REMARK    1  A    between atoms: C_2  and  C_3 
REMARK    2  A    between atoms: C_3  and  O_6 
REMARK    3  A    between atoms: C_3  and  C_4 
REMARK    4  A    between atoms: C_7  and  O_6 
REMARK    5  A    between atoms: C_9  and  C_10 
REMARK    6  A    between atoms: N_15  and  C_14 
REMARK    7  A    between atoms: N_20  and  C_19 
REMARK       I    between atoms: C_22  and  N_20 
ROOT
ATOM      1  C   LIG d   1      -2.964  76.522 115.389  0.00  0.00     0.161 C 
ATOM      2  C   LIG d   1      -3.104  77.394 114.297  0.00  0.00     0.016 C 
ATOM      3  C   LIG d   1      -2.101  78.307 113.897  0.00  0.00     0.038 C 
ATOM      4  C   LIG d   1      -0.822  78.302 114.473  0.00  0.00     0.028 C 
ATOM      5  C   LIG d   1      -0.805  77.786 115.908  0.00  0.00    -0.047 C 
ATOM      6  C   LIG d   1      -1.534  76.424 115.960  0.00  0.00     0.091 C 
ENDROOT
BRANCH   1   7
ATOM      7  O   LIG d   1      -3.452  75.213 115.034  0.00  0.00    -0.368 OA
BRANCH   7   8
ATOM      8  C   LIG d   1      -4.620  74.750 115.757  0.00  0.00     0.119 C 
BRANCH   8   9
ATOM      9  C   LIG d   1      -5.724  74.469 114.720  0.00  0.00     0.028 C 
ATOM     10  C   LIG d   1      -6.388  75.757 114.205  0.00  0.00     0.006 C 
ENDBRANCH   8   9
BRANCH   8  11
ATOM     11  C   LIG d   1      -5.185  75.847 116.664  0.00  0.00     0.028 C 
ATOM     12  C   LIG d   1      -5.986  75.286 117.849  0.00  0.00     0.006 C 
ENDBRANCH   8  11
ENDBRANCH   7   8
ENDBRANCH   1   7
BRANCH   6  13
ATOM     13  N   LIG d   1      -1.637  75.889 117.343  0.00  0.00    -0.311 N 
ATOM     14  C   LIG d   1      -0.785  75.001 117.851  0.00  0.00     0.210 C 
ATOM     15  C   LIG d   1      -1.084  74.567 119.289  0.00  0.00     0.109 C 
ATOM     16  O   LIG d   1       0.210  74.556 117.258  0.00  0.00    -0.276 OA
ATOM     17  H   LIG d   1      -2.397  76.220 117.905  0.00  0.00     0.149 HD
ENDBRANCH   6  13
BRANCH   5  18
ATOM     18  N   LIG d   1       0.604  77.705 116.336  0.00  0.00     0.381 N 
ATOM     19  H   LIG d   1       0.930  76.763 116.250  0.00  0.00    -0.090 HD
ATOM     20  H   LIG d   1       0.666  77.974 117.303  0.00  0.00    -0.090 HD
ATOM     21  H   LIG d   1       1.165  78.311 115.779  0.00  0.00    -0.090 HD
ENDBRANCH   5  18
BRANCH   3  22
ATOM     22  C   LIG d   1      -2.387  79.264 112.936  0.00  0.00     0.382 C 
ATOM     23  O   LIG d   1      -3.216  80.173 113.183  0.00  0.00    -0.241 OA
ATOM     24  O   LIG d   1      -1.860  79.205 111.809  0.00  0.00    -0.241 OA
ENDBRANCH   3  22
TORSDOF 7
ENDMDL
MODEL 7
REMARK VINA RESULT:      -4.4      5.072      7.529
REMARK  7 active torsions:
REMARK  status: ('A' for Active; 'I' for Inactive)
REMARK    1  A    between atoms: C_2  and  C_3 
REMARK    2  A    between atoms: C_3  and  O_6 
REMARK    3  A    between atoms: C_3  and  C_4 
REMARK    4  A    between atoms: C_7  and  O_6 
REMARK    5  A    between atoms: C_9  and  C_10 
REMARK    6  A    between atoms: N_15  and  C_14 
REMARK    7  A    between atoms: N_20  and  C_19 
REMARK       I    between atoms: C_22  and  N_20 
ROOT
ATOM      1  C   LIG d   1      -5.022  76.828 117.581  0.00  0.00     0.161 C 
ATOM      2  C   LIG d   1      -5.847  77.904 117.948  0.00  0.00     0.016 C 
ATOM      3  C   LIG d   1      -5.471  79.259 117.800  0.00  0.00     0.038 C 
ATOM      4  C   LIG d   1      -4.298  79.633 117.129  0.00  0.00     0.028 C 
ATOM      5  C   LIG d   1      -3.200  78.577 117.193  0.00  0.00    -0.047 C 
ATOM      6  C   LIG d   1      -3.785  77.218 116.745  0.00  0.00     0.091 C 
ENDROOT
BRANCH   1   7
ATOM      7  O   LIG d   1      -5.800  75.830 116.889  0.00  0.00    -0.368 OA
BRANCH   7   8
ATOM      8  C   LIG d   1      -6.627  76.309 115.800  0.00  0.00     0.119 C 
BRANCH   8   9
ATOM      9  C   LIG d   1      -8.049  75.761 116.024  0.00  0.00     0.028 C 
ATOM     10  C   LIG d   1      -8.060  74.494 116.896  0.00  0.00     0.006 C 
ENDBRANCH   8   9
BRANCH   8  11
ATOM     11  C   LIG d   1      -6.174  75.725 114.458  0.00  0.00     0.028 C 
ATOM     12  C   LIG d   1      -5.320  74.457 114.618  0.00  0.00     0.006 C 
ENDBRANCH   8  11
ENDBRANCH   7   8
ENDBRANCH   1   7
BRANCH   6  13
ATOM     13  N   LIG d   1      -2.799  76.111 116.858  0.00  0.00    -0.311 N 
ATOM     14  C   LIG d   1      -2.057  75.684 115.838  0.00  0.00     0.210 C 
ATOM     15  C   LIG d   1      -1.118  74.519 116.165  0.00  0.00     0.109 C 
ATOM     16  O   LIG d   1      -2.063  76.181 114.702  0.00  0.00    -0.276 OA
ATOM     17  H   LIG d   1      -2.707  75.673 117.753  0.00  0.00     0.149 HD
ENDBRANCH   6  13
BRANCH   5  18
ATOM     18  N   LIG d   1      -2.088  79.037 116.340  0.00  0.00     0.381 N 
ATOM     19  H   LIG d   1      -1.796  78.296 115.735  0.00  0.00    -0.090 HD
ATOM     20  H   LIG d   1      -1.312  79.291 116.926  0.00  0.00    -0.090 HD
ATOM     21  H   LIG d   1      -2.376  79.823 115.799  0.00  0.00    -0.090 HD
ENDBRANCH   5  18
BRANCH   3  22
ATOM     22  C   LIG d   1      -6.256  80.255 118.362  0.00  0.00     0.382 C 
ATOM     23  O   LIG d   1      -7.148  80.811 117.678  0.00  0.00    -0.241 OA
ATOM     24  O   LIG d   1      -6.052  80.636 119.530  0.00  0.00    -0.241 OA
ENDBRANCH   3  22
TORSDOF 7
ENDMDL
MODEL 8
REMARK VINA RESULT:      -4.3      3.383      6.031
REMARK  7 active torsions:
REMARK  status: ('A' for Active; 'I' for Inactive)
REMARK    1  A    between atoms: C_2  and  C_3 
REMARK    2  A    between atoms: C_3  and  O_6 
REMARK    3  A    between atoms: C_3  and  C_4 
REMARK    4  A    between atoms: C_7  and  O_6 
REMARK    5  A    between atoms: C_9  and  C_10 
REMARK    6  A    between atoms: N_15  and  C_14 
REMARK    7  A    between atoms: N_20  and  C_19 
REMARK       I    between atoms: C_22  and  N_20 
ROOT
ATOM      1  C   LIG d   1      -2.885  79.559 116.096  0.00  0.00     0.161 C 
ATOM      2  C   LIG d   1      -2.725  80.532 115.096  0.00  0.00     0.016 C 
ATOM      3  C   LIG d   1      -1.947  80.332 113.932  0.00  0.00     0.038 C 
ATOM      4  C   LIG d   1      -1.397  79.082 113.615  0.00  0.00     0.028 C 
ATOM      5  C   LIG d   1      -1.111  78.217 114.838  0.00  0.00    -0.047 C 
ATOM      6  C   LIG d   1      -2.383  78.151 115.714  0.00  0.00     0.091 C 
ENDROOT
BRANCH   1   7
ATOM      7  O   LIG d   1      -4.265  79.504 116.508  0.00  0.00    -0.368 OA
BRANCH   7   8
ATOM      8  C   LIG d   1      -4.536  79.879 117.881  0.00  0.00     0.119 C 
BRANCH   8   9
ATOM      9  C   LIG d   1      -5.932  79.336 118.242  0.00  0.00     0.028 C 
ATOM     10  C   LIG d   1      -6.279  78.051 117.472  0.00  0.00     0.006 C 
ENDBRANCH   8   9
BRANCH   8  11
ATOM     11  C   LIG d   1      -4.641  81.399 118.033  0.00  0.00     0.028 C 
ATOM     12  C   LIG d   1      -6.038  81.938 117.686  0.00  0.00     0.006 C 
ENDBRANCH   8  11
ENDBRANCH   7   8
ENDBRANCH   1   7
BRANCH   6  13
ATOM     13  N   LIG d   1      -2.165  77.394 116.974  0.00  0.00    -0.311 N 
ATOM     14  C   LIG d   1      -2.836  76.288 117.290  0.00  0.00     0.210 C 
ATOM     15  C   LIG d   1      -2.471  75.675 118.646  0.00  0.00     0.109 C 
ATOM     16  O   LIG d   1      -3.676  75.738 116.563  0.00  0.00    -0.276 OA
ATOM     17  H   LIG d   1      -1.478  77.752 117.609  0.00  0.00     0.149 HD
ENDBRANCH   6  13
BRANCH   5  18
ATOM     18  N   LIG d   1      -0.670  76.894 114.357  0.00  0.00     0.381 N 
ATOM     19  H   LIG d   1       0.323  76.816 114.443  0.00  0.00    -0.090 HD
ATOM     20  H   LIG d   1      -0.911  76.806 113.385  0.00  0.00    -0.090 HD
ATOM     21  H   LIG d   1      -1.114  76.175 114.883  0.00  0.00    -0.090 HD
ENDBRANCH   5  18
BRANCH   3  22
ATOM     22  C   LIG d   1      -1.681  81.402 113.091  0.00  0.00     0.382 C 
ATOM     23  O   LIG d   1      -2.577  81.839 112.330  0.00  0.00    -0.241 OA
ATOM     24  O   LIG d   1      -0.543  81.907 113.052  0.00  0.00    -0.241 OA
ENDBRANCH   3  22
TORSDOF 7
ENDMDL
MODEL 9
REMARK VINA RESULT:      -4.1      3.830      6.434
REMARK  7 active torsions:
REMARK  status: ('A' for Active; 'I' for Inactive)
REMARK    1  A    between atoms: C_2  and  C_3 
REMARK    2  A    between atoms: C_3  and  O_6 
REMARK    3  A    between atoms: C_3  and  C_4 
REMARK    4  A    between atoms: C_7  and  O_6 
REMARK    5  A    between atoms: C_9  and  C_10 
REMARK    6  A    between atoms: N_15  and  C_14 
REMARK    7  A    between atoms: N_20  and  C_19 
REMARK       I    between atoms: C_22  and  N_20 
ROOT
ATOM      1  C   LIG d   1      -2.467  75.954 115.730  0.00  0.00     0.161 C 
ATOM      2  C   LIG d   1      -2.122  75.484 117.008  0.00  0.00     0.016 C 
ATOM      3  C   LIG d   1      -1.034  75.991 117.756  0.00  0.00     0.038 C 
ATOM      4  C   LIG d   1      -0.305  77.113 117.336  0.00  0.00     0.028 C 
ATOM      5  C   LIG d   1      -0.296  77.299 115.822  0.00  0.00    -0.047 C 
ATOM      6  C   LIG d   1      -1.752  77.253 115.303  0.00  0.00     0.091 C 
ENDROOT
BRANCH   1   7
ATOM      7  O   LIG d   1      -3.897  76.116 115.638  0.00  0.00    -0.368 OA
BRANCH   7   8
ATOM      8  C   LIG d   1      -4.693  74.961 115.996  0.00  0.00     0.119 C 
BRANCH   8   9
ATOM      9  C   LIG d   1      -5.549  74.590 114.769  0.00  0.00     0.028 C 
ATOM     10  C   LIG d   1      -6.030  75.828 113.993  0.00  0.00     0.006 C 
ENDBRANCH   8   9
BRANCH   8  11
ATOM     11  C   LIG d   1      -5.697  75.297 117.103  0.00  0.00     0.028 C 
ATOM     12  C   LIG d   1      -6.733  74.184 117.327  0.00  0.00     0.006 C 
ENDBRANCH   8  11
ENDBRANCH   7   8
ENDBRANCH   1   7
BRANCH   6  13
ATOM     13  N   LIG d   1      -1.828  77.343 113.822  0.00  0.00    -0.311 N 
ATOM     14  C   LIG d   1      -2.409  78.353 113.177  0.00  0.00     0.210 C 
ATOM     15  C   LIG d   1      -2.395  78.240 111.650  0.00  0.00     0.109 C 
ATOM     16  O   LIG d   1      -2.907  79.348 113.725  0.00  0.00    -0.276 OA
ATOM     17  H   LIG d   1      -1.422  76.592 113.298  0.00  0.00     0.149 HD
ENDBRANCH   6  13
BRANCH   5  18
ATOM     18  N   LIG d   1       0.380  78.577 115.534  0.00  0.00     0.381 N 
ATOM     19  H   LIG d   1       0.813  78.927 116.366  0.00  0.00    -0.090 HD
ATOM     20  H   LIG d   1      -0.305  79.246 115.229  0.00  0.00    -0.090 HD
ATOM     21  H   LIG d   1       1.067  78.447 114.823  0.00  0.00    -0.090 HD
ENDBRANCH   5  18
BRANCH   3  22
ATOM     22  C   LIG d   1      -0.641  75.347 118.919  0.00  0.00     0.382 C 
ATOM     23  O   LIG d   1      -1.476  74.685 119.582  0.00  0.00    -0.241 OA
ATOM     24  O   LIG d   1       0.526  75.457 119.339  0.00  0.00    -0.241 OA
ENDBRANCH   3  22
TORSDOF 7
ENDMDL
