MODEL 1
REMARK VINA RESULT:      -4.9      0.000      0.000
REMARK  7 active torsions:
REMARK  status: ('A' for Active; 'I' for Inactive)
REMARK    1  A    between atoms: C_2  and  C_3 
REMARK    2  A    between atoms: C_3  and  O_6 
REMARK    3  A    between atoms: C_3  and  C_4 
REMARK    4  A    between atoms: C_7  and  O_6 
REMARK    5  A    between atoms: C_9  and  C_10 
REMARK    6  A    between atoms: N_15  and  C_14 
REMARK    7  A    between atoms: N_20  and  C_19 
REMARK       I    between atoms: C_22  and  N_20 
ROOT
ATOM      1  C   LIG d   1      -2.094  82.155 112.773  0.00  0.00     0.161 C 
ATOM      2  C   LIG d   1      -2.670  81.137 113.550  0.00  0.00     0.016 C 
ATOM      3  C   LIG d   1      -2.252  79.787 113.499  0.00  0.00     0.038 C 
ATOM      4  C   LIG d   1      -1.119  79.389 112.773  0.00  0.00     0.028 C 
ATOM      5  C   LIG d   1      -0.816  80.290 111.581  0.00  0.00    -0.047 C 
ATOM      6  C   LIG d   1      -0.784  81.760 112.058  0.00  0.00     0.091 C 
ENDROOT
BRANCH   1   7
ATOM      7  O   LIG d   1      -1.888  83.330 113.581  0.00  0.00    -0.368 OA
BRANCH   7   8
ATOM      8  C   LIG d   1      -0.849  83.238 114.587  0.00  0.00     0.119 C 
BRANCH   8   9
ATOM      9  C   LIG d   1      -1.473  83.645 115.936  0.00  0.00     0.028 C 
ATOM     10  C   LIG d   1      -1.580  82.462 116.913  0.00  0.00     0.006 C 
ENDBRANCH   8   9
BRANCH   8  11
ATOM     11  C   LIG d   1       0.265  84.258 114.332  0.00  0.00     0.028 C 
ATOM     12  C   LIG d   1       1.667  83.687 114.597  0.00  0.00     0.006 C 
ENDBRANCH   8  11
ENDBRANCH   7   8
ENDBRANCH   1   7
BRANCH   6  13
ATOM     13  N   LIG d   1      -0.577  82.715 110.938  0.00  0.00    -0.311 N 
ATOM     14  C   LIG d   1       0.616  83.204 110.603  0.00  0.00     0.210 C 
ATOM     15  C   LIG d   1       0.604  84.190 109.431  0.00  0.00     0.109 C 
ATOM     16  O   LIG d   1       1.686  82.890 111.144  0.00  0.00    -0.276 OA
ATOM     17  H   LIG d   1      -1.388  82.999 110.425  0.00  0.00     0.149 HD
ENDBRANCH   6  13
BRANCH   5  18
ATOM     18  N   LIG d   1       0.463  79.843 110.998  0.00  0.00     0.381 N 
ATOM     19  H   LIG d   1       1.176  80.519 111.189  0.00  0.00    -0.090 HD
ATOM     20  H   LIG d   1       0.358  79.768 110.002  0.00  0.00    -0.090 HD
ATOM     21  H   LIG d   1       0.722  78.960 111.380  0.00  0.00    -0.090 HD
ENDBRANCH   5  18
BRANCH   3  22
ATOM     22  C   LIG d   1      -2.994  78.813 114.148  0.00  0.00     0.382 C 
ATOM     23  O   LIG d   1      -3.243  77.726 113.572  0.00  0.00    -0.241 OA
ATOM     24  O   LIG d   1      -3.456  79.023 115.286  0.00  0.00    -0.241 OA
ENDBRANCH   3  22
TORSDOF 7
ENDMDL
MODEL 2
REMARK VINA RESULT:      -4.8      2.069      5.160
REMARK  7 active torsions:
REMARK  status: ('A' for Active; 'I' for Inactive)
REMARK    1  A    between atoms: C_2  and  C_3 
REMARK    2  A    between atoms: C_3  and  O_6 
REMARK    3  A    between atoms: C_3  and  C_4 
REMARK    4  A    between atoms: C_7  and  O_6 
REMARK    5  A    between atoms: C_9  and  C_10 
REMARK    6  A    between atoms: N_15  and  C_14 
REMARK    7  A    between atoms: N_20  and  C_19 
REMARK       I    between atoms: C_22  and  N_20 
ROOT
ATOM      1  C   LIG d   1      -2.101  80.530 114.473  0.00  0.00     0.161 C 
ATOM      2  C   LIG d   1      -2.070  81.903 114.179  0.00  0.00     0.016 C 
ATOM      3  C   LIG d   1      -1.523  82.431 112.987  0.00  0.00     0.038 C 
ATOM      4  C   LIG d   1      -1.102  81.605 111.934  0.00  0.00     0.028 C 
ATOM      5  C   LIG d   1      -0.649  80.223 112.393  0.00  0.00    -0.047 C 
ATOM      6  C   LIG d   1      -1.747  79.606 113.289  0.00  0.00     0.091 C 
ENDROOT
BRANCH   1   7
ATOM      7  O   LIG d   1      -3.387  80.175 115.019  0.00  0.00    -0.368 OA
BRANCH   7   8
ATOM      8  C   LIG d   1      -3.417  79.868 116.434  0.00  0.00     0.119 C 
BRANCH   8   9
ATOM      9  C   LIG d   1      -4.125  81.036 117.147  0.00  0.00     0.028 C 
ATOM     10  C   LIG d   1      -3.133  82.036 117.764  0.00  0.00     0.006 C 
ENDBRANCH   8   9
BRANCH   8  11
ATOM     11  C   LIG d   1      -2.004  79.829 117.025  0.00  0.00     0.028 C 
ATOM     12  C   LIG d   1      -1.626  78.444 117.574  0.00  0.00     0.006 C 
ENDBRANCH   8  11
ENDBRANCH   7   8
ENDBRANCH   1   7
BRANCH   6  13
ATOM     13  N   LIG d   1      -1.349  78.289 113.849  0.00  0.00    -0.311 N 
ATOM     14  C   LIG d   1      -2.192  77.268 113.994  0.00  0.00     0.210 C 
ATOM     15  C   LIG d   1      -1.580  76.007 114.611  0.00  0.00     0.109 C 
ATOM     16  O   LIG d   1      -3.381  77.278 113.642  0.00  0.00    -0.276 OA
ATOM     17  H   LIG d   1      -0.394  78.184 114.132  0.00  0.00     0.149 HD
ENDBRANCH   6  13
BRANCH   5  18
ATOM     18  N   LIG d   1      -0.369  79.422 111.186  0.00  0.00     0.381 N 
ATOM     19  H   LIG d   1      -0.453  79.997 110.372  0.00  0.00    -0.090 HD
ATOM     20  H   LIG d   1      -1.048  78.684 111.122  0.00  0.00    -0.090 HD
ATOM     21  H   LIG d   1       0.548  79.037 111.238  0.00  0.00    -0.090 HD
ENDBRANCH   5  18
BRANCH   3  22
ATOM     22  C   LIG d   1      -1.355  83.802 112.856  0.00  0.00     0.382 C 
ATOM     23  O   LIG d   1      -1.459  84.545 113.862  0.00  0.00    -0.241 OA
ATOM     24  O   LIG d   1      -1.146  84.308 111.738  0.00  0.00    -0.241 OA
ENDBRANCH   3  22
TORSDOF 7
ENDMDL
MODEL 3
REMARK VINA RESULT:      -4.7      3.260      5.448
REMARK  7 active torsions:
REMARK  status: ('A' for Active; 'I' for Inactive)
REMARK    1  A    between atoms: C_2  and  C_3 
REMARK    2  A    between atoms: C_3  and  O_6 
REMARK    3  A    between atoms: C_3  and  C_4 
REMARK    4  A    between atoms: C_7  and  O_6 
REMARK    5  A    between atoms: C_9  and  C_10 
REMARK    6  A    between atoms: N_15  and  C_14 
REMARK    7  A    between atoms: N_20  and  C_19 
REMARK       I    between atoms: C_22  and  N_20 
ROOT
ATOM      1  C   LIG d   1      -1.152  80.420 115.935  0.00  0.00     0.161 C 
ATOM      2  C   LIG d   1      -1.852  81.138 114.951  0.00  0.00     0.016 C 
ATOM      3  C   LIG d   1      -2.357  80.549 113.770  0.00  0.00     0.038 C 
ATOM      4  C   LIG d   1      -2.328  79.162 113.561  0.00  0.00     0.028 C 
ATOM      5  C   LIG d   1      -1.185  78.464 114.291  0.00  0.00    -0.047 C 
ATOM      6  C   LIG d   1      -1.207  78.886 115.778  0.00  0.00     0.091 C 
ENDROOT
BRANCH   1   7
ATOM      7  O   LIG d   1      -1.614  80.806 117.244  0.00  0.00    -0.368 OA
BRANCH   7   8
ATOM      8  C   LIG d   1      -2.299  82.080 117.327  0.00  0.00     0.119 C 
BRANCH   8   9
ATOM      9  C   LIG d   1      -1.461  82.998 118.238  0.00  0.00     0.028 C 
ATOM     10  C   LIG d   1      -0.321  83.696 117.478  0.00  0.00     0.006 C 
ENDBRANCH   8   9
BRANCH   8  11
ATOM     11  C   LIG d   1      -3.653  81.940 118.029  0.00  0.00     0.028 C 
ATOM     12  C   LIG d   1      -3.720  82.715 119.355  0.00  0.00     0.006 C 
ENDBRANCH   8  11
ENDBRANCH   7   8
ENDBRANCH   1   7
BRANCH   6  13
ATOM     13  N   LIG d   1      -0.071  78.313 116.547  0.00  0.00    -0.311 N 
ATOM     14  C   LIG d   1      -0.152  77.177 117.237  0.00  0.00     0.210 C 
ATOM     15  C   LIG d   1       1.130  76.776 117.974  0.00  0.00     0.109 C 
ATOM     16  O   LIG d   1      -1.153  76.446 117.282  0.00  0.00    -0.276 OA
ATOM     17  H   LIG d   1       0.789  78.826 116.539  0.00  0.00     0.149 HD
ENDBRANCH   6  13
BRANCH   5  18
ATOM     18  N   LIG d   1      -1.356  77.011 114.100  0.00  0.00     0.381 N 
ATOM     19  H   LIG d   1      -1.324  76.792 113.124  0.00  0.00    -0.090 HD
ATOM     20  H   LIG d   1      -2.256  76.740 114.454  0.00  0.00    -0.090 HD
ATOM     21  H   LIG d   1      -0.638  76.517 114.583  0.00  0.00    -0.090 HD
ENDBRANCH   5  18
BRANCH   3  22
ATOM     22  C   LIG d   1      -2.864  81.355 112.762  0.00  0.00     0.382 C 
ATOM     23  O   LIG d   1      -4.102  81.529 112.661  0.00  0.00    -0.241 OA
ATOM     24  O   LIG d   1      -2.101  81.876 111.926  0.00  0.00    -0.241 OA
ENDBRANCH   3  22
TORSDOF 7
ENDMDL
MODEL 4
REMARK VINA RESULT:      -4.6      1.606      4.972
REMARK  7 active torsions:
REMARK  status: ('A' for Active; 'I' for Inactive)
REMARK    1  A    between atoms: C_2  and  C_3 
REMARK    2  A    between atoms: C_3  and  O_6 
REMARK    3  A    between atoms: C_3  and  C_4 
REMARK    4  A    between atoms: C_7  and  O_6 
REMARK    5  A    between atoms: C_9  and  C_10 
REMARK    6  A    between atoms: N_15  and  C_14 
REMARK    7  A    between atoms: N_20  and  C_19 
REMARK       I    between atoms: C_22  and  N_20 
ROOT
ATOM      1  C   LIG d   1      -1.208  82.532 113.365  0.00  0.00     0.161 C 
ATOM      2  C   LIG d   1      -0.606  83.492 112.533  0.00  0.00     0.016 C 
ATOM      3  C   LIG d   1      -0.065  83.191 111.262  0.00  0.00     0.038 C 
ATOM      4  C   LIG d   1      -0.225  81.930 110.668  0.00  0.00     0.028 C 
ATOM      5  C   LIG d   1      -0.380  80.799 111.679  0.00  0.00    -0.047 C 
ATOM      6  C   LIG d   1      -1.491  81.175 112.686  0.00  0.00     0.091 C 
ENDROOT
BRANCH   1   7
ATOM      7  O   LIG d   1      -2.418  83.069 113.935  0.00  0.00    -0.368 OA
BRANCH   7   8
ATOM      8  C   LIG d   1      -2.410  83.275 115.369  0.00  0.00     0.119 C 
BRANCH   8   9
ATOM      9  C   LIG d   1      -0.941  83.448 115.803  0.00  0.00     0.028 C 
ATOM     10  C   LIG d   1      -0.773  83.407 117.331  0.00  0.00     0.006 C 
ENDBRANCH   8   9
BRANCH   8  11
ATOM     11  C   LIG d   1      -2.910  82.034 116.113  0.00  0.00     0.028 C 
ATOM     12  C   LIG d   1      -4.212  82.289 116.890  0.00  0.00     0.006 C 
ENDBRANCH   8  11
ENDBRANCH   7   8
ENDBRANCH   1   7
BRANCH   6  13
ATOM     13  N   LIG d   1      -1.649  80.160 113.760  0.00  0.00    -0.311 N 
ATOM     14  C   LIG d   1      -2.529  79.162 113.701  0.00  0.00     0.210 C 
ATOM     15  C   LIG d   1      -2.543  78.239 114.924  0.00  0.00     0.109 C 
ATOM     16  O   LIG d   1      -3.278  78.935 112.738  0.00  0.00    -0.276 OA
ATOM     17  H   LIG d   1      -1.060  80.251 114.564  0.00  0.00     0.149 HD
ENDBRANCH   6  13
BRANCH   5  18
ATOM     18  N   LIG d   1      -0.676  79.566 110.926  0.00  0.00     0.381 N 
ATOM     19  H   LIG d   1       0.082  79.357 110.307  0.00  0.00    -0.090 HD
ATOM     20  H   LIG d   1      -1.503  79.712 110.374  0.00  0.00    -0.090 HD
ATOM     21  H   LIG d   1      -0.818  78.807 111.556  0.00  0.00    -0.090 HD
ENDBRANCH   5  18
BRANCH   3  22
ATOM     22  C   LIG d   1       0.680  84.147 110.589  0.00  0.00     0.382 C 
ATOM     23  O   LIG d   1       1.790  84.513 111.046  0.00  0.00    -0.241 OA
ATOM     24  O   LIG d   1       0.237  84.680 109.554  0.00  0.00    -0.241 OA
ENDBRANCH   3  22
TORSDOF 7
ENDMDL
MODEL 5
REMARK VINA RESULT:      -4.6      3.630      6.684
REMARK  7 active torsions:
REMARK  status: ('A' for Active; 'I' for Inactive)
REMARK    1  A    between atoms: C_2  and  C_3 
REMARK    2  A    between atoms: C_3  and  O_6 
REMARK    3  A    between atoms: C_3  and  C_4 
REMARK    4  A    between atoms: C_7  and  O_6 
REMARK    5  A    between atoms: C_9  and  C_10 
REMARK    6  A    between atoms: N_15  and  C_14 
REMARK    7  A    between atoms: N_20  and  C_19 
REMARK       I    between atoms: C_22  and  N_20 
ROOT
ATOM      1  C   LIG d   1      -2.007  78.240 114.599  0.00  0.00     0.161 C 
ATOM      2  C   LIG d   1      -2.440  79.097 113.574  0.00  0.00     0.016 C 
ATOM      3  C   LIG d   1      -2.199  80.490 113.570  0.00  0.00     0.038 C 
ATOM      4  C   LIG d   1      -1.372  81.102 114.524  0.00  0.00     0.028 C 
ATOM      5  C   LIG d   1      -1.332  80.360 115.856  0.00  0.00    -0.047 C 
ATOM      6  C   LIG d   1      -1.009  78.871 115.591  0.00  0.00     0.091 C 
ENDROOT
BRANCH   1   7
ATOM      7  O   LIG d   1      -1.455  77.037 114.029  0.00  0.00    -0.368 OA
BRANCH   7   8
ATOM      8  C   LIG d   1      -2.141  75.803 114.356  0.00  0.00     0.119 C 
BRANCH   8   9
ATOM      9  C   LIG d   1      -3.514  76.180 114.946  0.00  0.00     0.028 C 
ATOM     10  C   LIG d   1      -4.681  75.712 114.060  0.00  0.00     0.006 C 
ENDBRANCH   8   9
BRANCH   8  11
ATOM     11  C   LIG d   1      -1.416  75.041 115.470  0.00  0.00     0.028 C 
ATOM     12  C   LIG d   1      -2.330  74.719 116.663  0.00  0.00     0.006 C 
ENDBRANCH   8  11
ENDBRANCH   7   8
ENDBRANCH   1   7
BRANCH   6  13
ATOM     13  N   LIG d   1      -1.033  78.056 116.834  0.00  0.00    -0.311 N 
ATOM     14  C   LIG d   1       0.050  77.807 117.568  0.00  0.00     0.210 C 
ATOM     15  C   LIG d   1      -0.192  76.928 118.799  0.00  0.00     0.109 C 
ATOM     16  O   LIG d   1       1.182  78.256 117.334  0.00  0.00    -0.276 OA
ATOM     17  H   LIG d   1      -1.917  77.678 117.114  0.00  0.00     0.149 HD
ENDBRANCH   6  13
BRANCH   5  18
ATOM     18  N   LIG d   1      -0.329  81.027 116.708  0.00  0.00     0.381 N 
ATOM     19  H   LIG d   1       0.530  81.125 116.205  0.00  0.00    -0.090 HD
ATOM     20  H   LIG d   1      -0.158  80.455 117.516  0.00  0.00    -0.090 HD
ATOM     21  H   LIG d   1      -0.662  81.922 116.989  0.00  0.00    -0.090 HD
ENDBRANCH   5  18
BRANCH   3  22
ATOM     22  C   LIG d   1      -2.822  81.293 112.627  0.00  0.00     0.382 C 
ATOM     23  O   LIG d   1      -2.143  81.847 111.729  0.00  0.00    -0.241 OA
ATOM     24  O   LIG d   1      -4.048  81.507 112.689  0.00  0.00    -0.241 OA
ENDBRANCH   3  22
TORSDOF 7
ENDMDL
MODEL 6
REMARK VINA RESULT:      -4.5      4.232      6.655
REMARK  7 active torsions:
REMARK  status: ('A' for Active; 'I' for Inactive)
REMARK    1  A    between atoms: C_2  and  C_3 
REMARK    2  A    between atoms: C_3  and  O_6 
REMARK    3  A    between atoms: C_3  and  C_4 
REMARK    4  A    between atoms: C_7  and  O_6 
REMARK    5  A    between atoms: C_9  and  C_10 
REMARK    6  A    between atoms: N_15  and  C_14 
REMARK    7  A    between atoms: N_20  and  C_19 
REMARK       I    between atoms: C_22  and  N_20 
ROOT
ATOM      1  C   LIG d   1      -1.593  77.019 115.027  0.00  0.00     0.161 C 
ATOM      2  C   LIG d   1      -2.828  76.704 114.435  0.00  0.00     0.016 C 
ATOM      3  C   LIG d   1      -3.650  75.638 114.868  0.00  0.00     0.038 C 
ATOM      4  C   LIG d   1      -3.361  74.904 116.028  0.00  0.00     0.028 C 
ATOM      5  C   LIG d   1      -1.874  74.858 116.362  0.00  0.00    -0.047 C 
ATOM      6  C   LIG d   1      -1.315  76.299 116.363  0.00  0.00     0.091 C 
ENDROOT
BRANCH   1   7
ATOM      7  O   LIG d   1      -1.481  78.446 115.194  0.00  0.00    -0.368 OA
BRANCH   7   8
ATOM      8  C   LIG d   1      -2.581  79.236 114.680  0.00  0.00     0.119 C 
BRANCH   8   9
ATOM      9  C   LIG d   1      -2.004  80.207 113.631  0.00  0.00     0.028 C 
ATOM     10  C   LIG d   1      -2.808  81.514 113.535  0.00  0.00     0.006 C 
ENDBRANCH   8   9
BRANCH   8  11
ATOM     11  C   LIG d   1      -3.183  80.129 115.770  0.00  0.00     0.028 C 
ATOM     12  C   LIG d   1      -4.062  79.349 116.760  0.00  0.00     0.006 C 
ENDBRANCH   8  11
ENDBRANCH   7   8
ENDBRANCH   1   7
BRANCH   6  13
ATOM     13  N   LIG d   1       0.152  76.338 116.598  0.00  0.00    -0.311 N 
ATOM     14  C   LIG d   1       0.707  76.863 117.689  0.00  0.00     0.210 C 
ATOM     15  C   LIG d   1       2.237  76.819 117.722  0.00  0.00     0.109 C 
ATOM     16  O   LIG d   1       0.075  77.333 118.647  0.00  0.00    -0.276 OA
ATOM     17  H   LIG d   1       0.739  75.950 115.885  0.00  0.00     0.149 HD
ENDBRANCH   6  13
BRANCH   5  18
ATOM     18  N   LIG d   1      -1.730  74.180 117.664  0.00  0.00     0.381 N 
ATOM     19  H   LIG d   1      -2.055  73.237 117.593  0.00  0.00    -0.090 HD
ATOM     20  H   LIG d   1      -2.295  74.658 118.343  0.00  0.00    -0.090 HD
ATOM     21  H   LIG d   1      -0.775  74.189 117.949  0.00  0.00    -0.090 HD
ENDBRANCH   5  18
BRANCH   3  22
ATOM     22  C   LIG d   1      -4.754  75.272 114.115  0.00  0.00     0.382 C 
ATOM     23  O   LIG d   1      -5.186  76.040 113.221  0.00  0.00    -0.241 OA
ATOM     24  O   LIG d   1      -5.352  74.204 114.347  0.00  0.00    -0.241 OA
ENDBRANCH   3  22
TORSDOF 7
ENDMDL
MODEL 7
REMARK VINA RESULT:      -4.5      4.218      7.088
REMARK  7 active torsions:
REMARK  status: ('A' for Active; 'I' for Inactive)
REMARK    1  A    between atoms: C_2  and  C_3 
REMARK    2  A    between atoms: C_3  and  O_6 
REMARK    3  A    between atoms: C_3  and  C_4 
REMARK    4  A    between atoms: C_7  and  O_6 
REMARK    5  A    between atoms: C_9  and  C_10 
REMARK    6  A    between atoms: N_15  and  C_14 
REMARK    7  A    between atoms: N_20  and  C_19 
REMARK       I    between atoms: C_22  and  N_20 
ROOT
ATOM      1  C   LIG d   1      -3.250  78.186 116.175  0.00  0.00     0.161 C 
ATOM      2  C   LIG d   1      -3.800  79.449 116.453  0.00  0.00     0.016 C 
ATOM      3  C   LIG d   1      -3.094  80.661 116.274  0.00  0.00     0.038 C 
ATOM      4  C   LIG d   1      -1.834  80.702 115.658  0.00  0.00     0.028 C 
ATOM      5  C   LIG d   1      -1.036  79.413 115.826  0.00  0.00    -0.047 C 
ATOM      6  C   LIG d   1      -1.917  78.218 115.398  0.00  0.00     0.091 C 
ENDROOT
BRANCH   1   7
ATOM      7  O   LIG d   1      -4.217  77.375 115.479  0.00  0.00    -0.368 OA
BRANCH   7   8
ATOM      8  C   LIG d   1      -4.863  76.341 116.261  0.00  0.00     0.119 C 
BRANCH   8   9
ATOM      9  C   LIG d   1      -4.653  75.003 115.525  0.00  0.00     0.028 C 
ATOM     10  C   LIG d   1      -5.274  75.004 114.118  0.00  0.00     0.006 C 
ENDBRANCH   8   9
BRANCH   8  11
ATOM     11  C   LIG d   1      -6.381  76.544 116.308  0.00  0.00     0.028 C 
ATOM     12  C   LIG d   1      -6.833  77.378 117.516  0.00  0.00     0.006 C 
ENDBRANCH   8  11
ENDBRANCH   7   8
ENDBRANCH   1   7
BRANCH   6  13
ATOM     13  N   LIG d   1      -1.242  76.911 115.610  0.00  0.00    -0.311 N 
ATOM     14  C   LIG d   1      -1.226  75.938 114.701  0.00  0.00     0.210 C 
ATOM     15  C   LIG d   1      -0.490  74.664 115.130  0.00  0.00     0.109 C 
ATOM     16  O   LIG d   1      -1.723  76.020 113.568  0.00  0.00    -0.276 OA
ATOM     17  H   LIG d   1      -0.786  76.771 116.491  0.00  0.00     0.149 HD
ENDBRANCH   6  13
BRANCH   5  18
ATOM     18  N   LIG d   1       0.194  79.543 115.022  0.00  0.00     0.381 N 
ATOM     19  H   LIG d   1      -0.012  80.010 114.161  0.00  0.00    -0.090 HD
ATOM     20  H   LIG d   1       0.540  78.624 114.807  0.00  0.00    -0.090 HD
ATOM     21  H   LIG d   1       0.881  80.055 115.529  0.00  0.00    -0.090 HD
ENDBRANCH   5  18
BRANCH   3  22
ATOM     22  C   LIG d   1      -3.633  81.846 116.751  0.00  0.00     0.382 C 
ATOM     23  O   LIG d   1      -4.761  82.226 116.354  0.00  0.00    -0.241 OA
ATOM     24  O   LIG d   1      -2.986  82.562 117.538  0.00  0.00    -0.241 OA
ENDBRANCH   3  22
TORSDOF 7
ENDMDL
MODEL 8
REMARK VINA RESULT:      -4.4      3.970      6.730
REMARK  7 active torsions:
REMARK  status: ('A' for Active; 'I' for Inactive)
REMARK    1  A    between atoms: C_2  and  C_3 
REMARK    2  A    between atoms: C_3  and  O_6 
REMARK    3  A    between atoms: C_3  and  C_4 
REMARK    4  A    between atoms: C_7  and  O_6 
REMARK    5  A    between atoms: C_9  and  C_10 
REMARK    6  A    between atoms: N_15  and  C_14 
REMARK    7  A    between atoms: N_20  and  C_19 
REMARK       I    between atoms: C_22  and  N_20 
ROOT
ATOM      1  C   LIG d   1      -2.822  76.874 114.649  0.00  0.00     0.161 C 
ATOM      2  C   LIG d   1      -2.411  75.773 115.419  0.00  0.00     0.016 C 
ATOM      3  C   LIG d   1      -1.442  75.859 116.445  0.00  0.00     0.038 C 
ATOM      4  C   LIG d   1      -0.926  77.091 116.875  0.00  0.00     0.028 C 
ATOM      5  C   LIG d   1      -0.935  78.164 115.792  0.00  0.00    -0.047 C 
ATOM      6  C   LIG d   1      -2.352  78.245 115.179  0.00  0.00     0.091 C 
ENDROOT
BRANCH   1   7
ATOM      7  O   LIG d   1      -4.256  76.859 114.502  0.00  0.00    -0.368 OA
BRANCH   7   8
ATOM      8  C   LIG d   1      -4.996  76.166 115.538  0.00  0.00     0.119 C 
BRANCH   8   9
ATOM      9  C   LIG d   1      -6.198  75.476 114.865  0.00  0.00     0.028 C 
ATOM     10  C   LIG d   1      -7.173  74.867 115.887  0.00  0.00     0.006 C 
ENDBRANCH   8   9
BRANCH   8  11
ATOM     11  C   LIG d   1      -5.603  77.150 116.541  0.00  0.00     0.028 C 
ATOM     12  C   LIG d   1      -4.861  77.163 117.887  0.00  0.00     0.006 C 
ENDBRANCH   8  11
ENDBRANCH   7   8
ENDBRANCH   1   7
BRANCH   6  13
ATOM     13  N   LIG d   1      -2.427  79.212 114.053  0.00  0.00    -0.311 N 
ATOM     14  C   LIG d   1      -2.796  80.483 114.202  0.00  0.00     0.210 C 
ATOM     15  C   LIG d   1      -2.825  81.304 112.908  0.00  0.00     0.109 C 
ATOM     16  O   LIG d   1      -3.069  81.018 115.287  0.00  0.00    -0.276 OA
ATOM     17  H   LIG d   1      -2.192  78.870 113.141  0.00  0.00     0.149 HD
ENDBRANCH   6  13
BRANCH   5  18
ATOM     18  N   LIG d   1      -0.501  79.429 116.414  0.00  0.00     0.381 N 
ATOM     19  H   LIG d   1      -0.138  79.250 117.329  0.00  0.00    -0.090 HD
ATOM     20  H   LIG d   1      -1.296  80.037 116.503  0.00  0.00    -0.090 HD
ATOM     21  H   LIG d   1       0.197  79.863 115.851  0.00  0.00    -0.090 HD
ENDBRANCH   5  18
BRANCH   3  22
ATOM     22  C   LIG d   1      -0.951  74.700 117.025  0.00  0.00     0.382 C 
ATOM     23  O   LIG d   1      -1.553  74.180 117.995  0.00  0.00    -0.241 OA
ATOM     24  O   LIG d   1       0.112  74.192 116.620  0.00  0.00    -0.241 OA
ENDBRANCH   3  22
TORSDOF 7
ENDMDL
MODEL 9
REMARK VINA RESULT:      -4.4      3.517      7.023
REMARK  7 active torsions:
REMARK  status: ('A' for Active; 'I' for Inactive)
REMARK    1  A    between atoms: C_2  and  C_3 
REMARK    2  A    between atoms: C_3  and  O_6 
REMARK    3  A    between atoms: C_3  and  C_4 
REMARK    4  A    between atoms: C_7  and  O_6 
REMARK    5  A    between atoms: C_9  and  C_10 
REMARK    6  A    between atoms: N_15  and  C_14 
REMARK    7  A    between atoms: N_20  and  C_19 
REMARK       I    between atoms: C_22  and  N_20 
ROOT
ATOM      1  C   LIG d   1      -2.823  78.196 115.032  0.00  0.00     0.161 C 
ATOM      2  C   LIG d   1      -3.162  79.138 114.048  0.00  0.00     0.016 C 
ATOM      3  C   LIG d   1      -2.271  80.133 113.582  0.00  0.00     0.038 C 
ATOM      4  C   LIG d   1      -0.922  80.156 113.965  0.00  0.00     0.028 C 
ATOM      5  C   LIG d   1      -0.669  79.537 115.335  0.00  0.00    -0.047 C 
ATOM      6  C   LIG d   1      -1.321  78.136 115.380  0.00  0.00     0.091 C 
ENDROOT
BRANCH   1   7
ATOM      7  O   LIG d   1      -3.300  76.892 114.645  0.00  0.00    -0.368 OA
BRANCH   7   8
ATOM      8  C   LIG d   1      -4.228  76.256 115.558  0.00  0.00     0.119 C 
BRANCH   8   9
ATOM      9  C   LIG d   1      -5.401  75.711 114.721  0.00  0.00     0.028 C 
ATOM     10  C   LIG d   1      -5.357  74.181 114.573  0.00  0.00     0.006 C 
ENDBRANCH   8   9
BRANCH   8  11
ATOM     11  C   LIG d   1      -4.852  77.273 116.517  0.00  0.00     0.028 C 
ATOM     12  C   LIG d   1      -6.319  76.957 116.850  0.00  0.00     0.006 C 
ENDBRANCH   8  11
ENDBRANCH   7   8
ENDBRANCH   1   7
BRANCH   6  13
ATOM     13  N   LIG d   1      -1.194  77.494 116.715  0.00  0.00    -0.311 N 
ATOM     14  C   LIG d   1      -0.844  76.221 116.885  0.00  0.00     0.210 C 
ATOM     15  C   LIG d   1      -0.791  75.754 118.344  0.00  0.00     0.109 C 
ATOM     16  O   LIG d   1      -0.540  75.442 115.969  0.00  0.00    -0.276 OA
ATOM     17  H   LIG d   1      -1.392  78.063 117.515  0.00  0.00     0.149 HD
ENDBRANCH   6  13
BRANCH   5  18
ATOM     18  N   LIG d   1       0.790  79.503 115.547  0.00  0.00     0.381 N 
ATOM     19  H   LIG d   1       1.156  80.433 115.531  0.00  0.00    -0.090 HD
ATOM     20  H   LIG d   1       1.215  78.983 114.799  0.00  0.00    -0.090 HD
ATOM     21  H   LIG d   1       0.998  79.071 116.421  0.00  0.00    -0.090 HD
ENDBRANCH   5  18
BRANCH   3  22
ATOM     22  C   LIG d   1      -2.739  81.142 112.755  0.00  0.00     0.382 C 
ATOM     23  O   LIG d   1      -3.958  81.440 112.757  0.00  0.00    -0.241 OA
ATOM     24  O   LIG d   1      -1.965  81.728 111.974  0.00  0.00    -0.241 OA
ENDBRANCH   3  22
TORSDOF 7
ENDMDL
