MODEL 1
REMARK VINA RESULT:      -4.9      0.000      0.000
REMARK  7 active torsions:
REMARK  status: ('A' for Active; 'I' for Inactive)
REMARK    1  A    between atoms: C_2  and  C_3 
REMARK    2  A    between atoms: C_3  and  O_6 
REMARK    3  A    between atoms: C_3  and  C_4 
REMARK    4  A    between atoms: C_7  and  O_6 
REMARK    5  A    between atoms: C_9  and  C_10 
REMARK    6  A    between atoms: N_15  and  C_14 
REMARK    7  A    between atoms: N_20  and  C_19 
REMARK       I    between atoms: C_22  and  N_20 
ROOT
ATOM      1  C   LIG d   1      -2.352  78.173 115.053  0.00  0.00     0.161 C 
ATOM      2  C   LIG d   1      -2.788  79.130 114.122  0.00  0.00     0.016 C 
ATOM      3  C   LIG d   1      -1.997  80.224 113.702  0.00  0.00     0.038 C 
ATOM      4  C   LIG d   1      -0.650  80.351 114.074  0.00  0.00     0.028 C 
ATOM      5  C   LIG d   1      -0.325  79.687 115.408  0.00  0.00    -0.047 C 
ATOM      6  C   LIG d   1      -0.847  78.232 115.385  0.00  0.00     0.091 C 
ENDROOT
BRANCH   1   7
ATOM      7  O   LIG d   1      -2.714  76.853 114.603  0.00  0.00    -0.368 OA
BRANCH   7   8
ATOM      8  C   LIG d   1      -3.641  76.123 115.445  0.00  0.00     0.119 C 
BRANCH   8   9
ATOM      9  C   LIG d   1      -4.900  75.834 114.605  0.00  0.00     0.028 C 
ATOM     10  C   LIG d   1      -5.452  74.418 114.844  0.00  0.00     0.006 C 
ENDBRANCH   8   9
BRANCH   8  11
ATOM     11  C   LIG d   1      -4.123  76.983 116.617  0.00  0.00     0.028 C 
ATOM     12  C   LIG d   1      -3.925  76.298 117.979  0.00  0.00     0.006 C 
ENDBRANCH   8  11
ENDBRANCH   7   8
ENDBRANCH   1   7
BRANCH   6  13
ATOM     13  N   LIG d   1      -0.644  77.537 116.683  0.00  0.00    -0.311 N 
ATOM     14  C   LIG d   1      -0.182  76.292 116.784  0.00  0.00     0.210 C 
ATOM     15  C   LIG d   1      -0.068  75.759 118.215  0.00  0.00     0.109 C 
ATOM     16  O   LIG d   1       0.176  75.591 115.825  0.00  0.00    -0.276 OA
ATOM     17  H   LIG d   1      -0.879  78.045 117.514  0.00  0.00     0.149 HD
ENDBRANCH   6  13
BRANCH   5  18
ATOM     18  N   LIG d   1       1.134  79.775 115.605  0.00  0.00     0.381 N 
ATOM     19  H   LIG d   1       1.350  80.555 116.194  0.00  0.00    -0.090 HD
ATOM     20  H   LIG d   1       1.575  79.922 114.714  0.00  0.00    -0.090 HD
ATOM     21  H   LIG d   1       1.474  78.935 116.018  0.00  0.00    -0.090 HD
ENDBRANCH   5  18
BRANCH   3  22
ATOM     22  C   LIG d   1      -2.565  81.228 112.932  0.00  0.00     0.382 C 
ATOM     23  O   LIG d   1      -3.789  81.192 112.660  0.00  0.00    -0.241 OA
ATOM     24  O   LIG d   1      -1.860  82.144 112.469  0.00  0.00    -0.241 OA
ENDBRANCH   3  22
TORSDOF 7
ENDMDL
MODEL 2
REMARK VINA RESULT:      -4.8      3.059      5.992
REMARK  7 active torsions:
REMARK  status: ('A' for Active; 'I' for Inactive)
REMARK    1  A    between atoms: C_2  and  C_3 
REMARK    2  A    between atoms: C_3  and  O_6 
REMARK    3  A    between atoms: C_3  and  C_4 
REMARK    4  A    between atoms: C_7  and  O_6 
REMARK    5  A    between atoms: C_9  and  C_10 
REMARK    6  A    between atoms: N_15  and  C_14 
REMARK    7  A    between atoms: N_20  and  C_19 
REMARK       I    between atoms: C_22  and  N_20 
ROOT
ATOM      1  C   LIG d   1      -1.368  80.215 112.951  0.00  0.00     0.161 C 
ATOM      2  C   LIG d   1      -2.214  79.249 113.521  0.00  0.00     0.016 C 
ATOM      3  C   LIG d   1      -2.295  77.915 113.058  0.00  0.00     0.038 C 
ATOM      4  C   LIG d   1      -1.418  77.414 112.085  0.00  0.00     0.028 C 
ATOM      5  C   LIG d   1      -0.894  78.483 111.133  0.00  0.00    -0.047 C 
ATOM      6  C   LIG d   1      -0.324  79.657 111.961  0.00  0.00     0.091 C 
ENDROOT
BRANCH   1   7
ATOM      7  O   LIG d   1      -0.717  80.970 113.992  0.00  0.00    -0.368 OA
BRANCH   7   8
ATOM      8  C   LIG d   1       0.341  80.287 114.708  0.00  0.00     0.119 C 
BRANCH   8   9
ATOM      9  C   LIG d   1       0.024  80.390 116.213  0.00  0.00     0.028 C 
ATOM     10  C   LIG d   1      -0.436  79.048 116.808  0.00  0.00     0.006 C 
ENDBRANCH   8   9
BRANCH   8  11
ATOM     11  C   LIG d   1       1.685  81.000 114.528  0.00  0.00     0.028 C 
ATOM     12  C   LIG d   1       2.347  81.370 115.865  0.00  0.00     0.006 C 
ENDBRANCH   8  11
ENDBRANCH   7   8
ENDBRANCH   1   7
BRANCH   6  13
ATOM     13  N   LIG d   1       0.134  80.784 111.107  0.00  0.00    -0.311 N 
ATOM     14  C   LIG d   1       1.401  80.952 110.733  0.00  0.00     0.210 C 
ATOM     15  C   LIG d   1       1.661  82.191 109.869  0.00  0.00     0.109 C 
ATOM     16  O   LIG d   1       2.329  80.176 111.007  0.00  0.00    -0.276 OA
ATOM     17  H   LIG d   1      -0.559  81.444 110.813  0.00  0.00     0.149 HD
ENDBRANCH   6  13
BRANCH   5  18
ATOM     18  N   LIG d   1       0.112  77.849 110.260  0.00  0.00     0.381 N 
ATOM     19  H   LIG d   1       0.343  78.464 109.506  0.00  0.00    -0.090 HD
ATOM     20  H   LIG d   1      -0.278  77.007 109.873  0.00  0.00    -0.090 HD
ATOM     21  H   LIG d   1       0.931  77.633 110.785  0.00  0.00    -0.090 HD
ENDBRANCH   5  18
BRANCH   3  22
ATOM     22  C   LIG d   1      -3.289  77.079 113.543  0.00  0.00     0.382 C 
ATOM     23  O   LIG d   1      -2.986  76.097 114.263  0.00  0.00    -0.241 OA
ATOM     24  O   LIG d   1      -4.481  77.269 113.235  0.00  0.00    -0.241 OA
ENDBRANCH   3  22
TORSDOF 7
ENDMDL
MODEL 3
REMARK VINA RESULT:      -4.7      2.442      3.474
REMARK  7 active torsions:
REMARK  status: ('A' for Active; 'I' for Inactive)
REMARK    1  A    between atoms: C_2  and  C_3 
REMARK    2  A    between atoms: C_3  and  O_6 
REMARK    3  A    between atoms: C_3  and  C_4 
REMARK    4  A    between atoms: C_7  and  O_6 
REMARK    5  A    between atoms: C_9  and  C_10 
REMARK    6  A    between atoms: N_15  and  C_14 
REMARK    7  A    between atoms: N_20  and  C_19 
REMARK       I    between atoms: C_22  and  N_20 
ROOT
ATOM      1  C   LIG d   1      -2.276  79.550 114.840  0.00  0.00     0.161 C 
ATOM      2  C   LIG d   1      -1.905  80.698 114.120  0.00  0.00     0.016 C 
ATOM      3  C   LIG d   1      -1.292  80.653 112.846  0.00  0.00     0.038 C 
ATOM      4  C   LIG d   1      -1.146  79.452 112.136  0.00  0.00     0.028 C 
ATOM      5  C   LIG d   1      -1.045  78.225 113.035  0.00  0.00    -0.047 C 
ATOM      6  C   LIG d   1      -2.225  78.236 114.033  0.00  0.00     0.091 C 
ENDROOT
BRANCH   1   7
ATOM      7  O   LIG d   1      -3.585  79.736 115.414  0.00  0.00    -0.368 OA
BRANCH   7   8
ATOM      8  C   LIG d   1      -3.678  79.580 116.851  0.00  0.00     0.119 C 
BRANCH   8   9
ATOM      9  C   LIG d   1      -4.466  80.786 117.398  0.00  0.00     0.028 C 
ATOM     10  C   LIG d   1      -5.818  80.376 118.008  0.00  0.00     0.006 C 
ENDBRANCH   8   9
BRANCH   8  11
ATOM     11  C   LIG d   1      -2.299  79.664 117.512  0.00  0.00     0.028 C 
ATOM     12  C   LIG d   1      -1.987  78.446 118.396  0.00  0.00     0.006 C 
ENDBRANCH   8  11
ENDBRANCH   7   8
ENDBRANCH   1   7
BRANCH   6  13
ATOM     13  N   LIG d   1      -2.156  77.114 115.005  0.00  0.00    -0.311 N 
ATOM     14  C   LIG d   1      -3.034  76.113 115.033  0.00  0.00     0.210 C 
ATOM     15  C   LIG d   1      -2.791  75.070 116.128  0.00  0.00     0.109 C 
ATOM     16  O   LIG d   1      -3.972  75.972 114.234  0.00  0.00    -0.276 OA
ATOM     17  H   LIG d   1      -1.408  77.132 115.670  0.00  0.00     0.149 HD
ENDBRANCH   6  13
BRANCH   5  18
ATOM     18  N   LIG d   1      -1.036  77.034 112.164  0.00  0.00     0.381 N 
ATOM     19  H   LIG d   1      -0.176  76.537 112.281  0.00  0.00    -0.090 HD
ATOM     20  H   LIG d   1      -1.101  77.331 111.206  0.00  0.00    -0.090 HD
ATOM     21  H   LIG d   1      -1.804  76.441 112.389  0.00  0.00    -0.090 HD
ENDBRANCH   5  18
BRANCH   3  22
ATOM     22  C   LIG d   1      -0.783  81.815 112.287  0.00  0.00     0.382 C 
ATOM     23  O   LIG d   1       0.410  82.142 112.500  0.00  0.00    -0.241 OA
ATOM     24  O   LIG d   1      -1.512  82.564 111.610  0.00  0.00    -0.241 OA
ENDBRANCH   3  22
TORSDOF 7
ENDMDL
MODEL 4
REMARK VINA RESULT:      -4.5      2.301      2.896
REMARK  7 active torsions:
REMARK  status: ('A' for Active; 'I' for Inactive)
REMARK    1  A    between atoms: C_2  and  C_3 
REMARK    2  A    between atoms: C_3  and  O_6 
REMARK    3  A    between atoms: C_3  and  C_4 
REMARK    4  A    between atoms: C_7  and  O_6 
REMARK    5  A    between atoms: C_9  and  C_10 
REMARK    6  A    between atoms: N_15  and  C_14 
REMARK    7  A    between atoms: N_20  and  C_19 
REMARK       I    between atoms: C_22  and  N_20 
ROOT
ATOM      1  C   LIG d   1      -2.774  77.179 116.443  0.00  0.00     0.161 C 
ATOM      2  C   LIG d   1      -3.210  77.565 115.165  0.00  0.00     0.016 C 
ATOM      3  C   LIG d   1      -2.426  77.418 113.997  0.00  0.00     0.038 C 
ATOM      4  C   LIG d   1      -1.202  76.732 114.008  0.00  0.00     0.028 C 
ATOM      5  C   LIG d   1      -0.496  76.773 115.359  0.00  0.00    -0.047 C 
ATOM      6  C   LIG d   1      -1.488  76.327 116.457  0.00  0.00     0.091 C 
ENDROOT
BRANCH   1   7
ATOM      7  O   LIG d   1      -3.836  76.494 117.135  0.00  0.00    -0.368 OA
BRANCH   7   8
ATOM      8  C   LIG d   1      -5.057  76.286 116.383  0.00  0.00     0.119 C 
BRANCH   8   9
ATOM      9  C   LIG d   1      -6.211  76.911 117.192  0.00  0.00     0.028 C 
ATOM     10  C   LIG d   1      -7.562  76.234 116.906  0.00  0.00     0.006 C 
ENDBRANCH   8   9
BRANCH   8  11
ATOM     11  C   LIG d   1      -5.399  74.797 116.275  0.00  0.00     0.028 C 
ATOM     12  C   LIG d   1      -5.168  74.234 114.864  0.00  0.00     0.006 C 
ENDBRANCH   8  11
ENDBRANCH   7   8
ENDBRANCH   1   7
BRANCH   6  13
ATOM     13  N   LIG d   1      -0.903  76.419 117.820  0.00  0.00    -0.311 N 
ATOM     14  C   LIG d   1      -0.507  75.358 118.521  0.00  0.00     0.210 C 
ATOM     15  C   LIG d   1       0.049  75.673 119.913  0.00  0.00     0.109 C 
ATOM     16  O   LIG d   1      -0.534  74.188 118.110  0.00  0.00    -0.276 OA
ATOM     17  H   LIG d   1      -0.815  77.333 118.218  0.00  0.00     0.149 HD
ENDBRANCH   6  13
BRANCH   5  18
ATOM     18  N   LIG d   1       0.694  75.906 115.266  0.00  0.00     0.381 N 
ATOM     19  H   LIG d   1       1.142  75.850 116.159  0.00  0.00    -0.090 HD
ATOM     20  H   LIG d   1       1.341  76.311 114.613  0.00  0.00    -0.090 HD
ATOM     21  H   LIG d   1       0.429  74.995 114.962  0.00  0.00    -0.090 HD
ENDBRANCH   5  18
BRANCH   3  22
ATOM     22  C   LIG d   1      -2.846  77.997 112.810  0.00  0.00     0.382 C 
ATOM     23  O   LIG d   1      -3.412  79.117 112.824  0.00  0.00    -0.241 OA
ATOM     24  O   LIG d   1      -2.706  77.394 111.729  0.00  0.00    -0.241 OA
ENDBRANCH   3  22
TORSDOF 7
ENDMDL
MODEL 5
REMARK VINA RESULT:      -4.4      2.939      5.913
REMARK  7 active torsions:
REMARK  status: ('A' for Active; 'I' for Inactive)
REMARK    1  A    between atoms: C_2  and  C_3 
REMARK    2  A    between atoms: C_3  and  O_6 
REMARK    3  A    between atoms: C_3  and  C_4 
REMARK    4  A    between atoms: C_7  and  O_6 
REMARK    5  A    between atoms: C_9  and  C_10 
REMARK    6  A    between atoms: N_15  and  C_14 
REMARK    7  A    between atoms: N_20  and  C_19 
REMARK       I    between atoms: C_22  and  N_20 
ROOT
ATOM      1  C   LIG d   1      -0.457  80.209 113.103  0.00  0.00     0.161 C 
ATOM      2  C   LIG d   1      -1.469  79.581 112.358  0.00  0.00     0.016 C 
ATOM      3  C   LIG d   1      -2.357  78.625 112.903  0.00  0.00     0.038 C 
ATOM      4  C   LIG d   1      -2.390  78.343 114.277  0.00  0.00     0.028 C 
ATOM      5  C   LIG d   1      -1.056  78.577 114.976  0.00  0.00    -0.047 C 
ATOM      6  C   LIG d   1      -0.550  79.996 114.628  0.00  0.00     0.091 C 
ENDROOT
BRANCH   1   7
ATOM      7  O   LIG d   1      -0.426  81.617 112.795  0.00  0.00    -0.368 OA
BRANCH   7   8
ATOM      8  C   LIG d   1       0.713  82.076 112.026  0.00  0.00     0.119 C 
BRANCH   8   9
ATOM      9  C   LIG d   1       0.206  82.432 110.615  0.00  0.00     0.028 C 
ATOM     10  C   LIG d   1      -0.465  83.815 110.564  0.00  0.00     0.006 C 
ENDBRANCH   8   9
BRANCH   8  11
ATOM     11  C   LIG d   1       1.734  80.953 111.818  0.00  0.00     0.028 C 
ATOM     12  C   LIG d   1       2.072  80.721 110.337  0.00  0.00     0.006 C 
ENDBRANCH   8  11
ENDBRANCH   7   8
ENDBRANCH   1   7
BRANCH   6  13
ATOM     13  N   LIG d   1       0.791  80.277 115.204  0.00  0.00    -0.311 N 
ATOM     14  C   LIG d   1       0.975  80.938 116.345  0.00  0.00     0.210 C 
ATOM     15  C   LIG d   1       2.440  81.136 116.749  0.00  0.00     0.109 C 
ATOM     16  O   LIG d   1       0.064  81.351 117.078  0.00  0.00    -0.276 OA
ATOM     17  H   LIG d   1       1.586  79.950 114.690  0.00  0.00     0.149 HD
ENDBRANCH   6  13
BRANCH   5  18
ATOM     18  N   LIG d   1      -1.269  78.378 116.422  0.00  0.00     0.381 N 
ATOM     19  H   LIG d   1      -1.801  77.544 116.574  0.00  0.00    -0.090 HD
ATOM     20  H   LIG d   1      -1.791  79.156 116.784  0.00  0.00    -0.090 HD
ATOM     21  H   LIG d   1      -0.392  78.311 116.890  0.00  0.00    -0.090 HD
ENDBRANCH   5  18
BRANCH   3  22
ATOM     22  C   LIG d   1      -3.198  77.911 112.063  0.00  0.00     0.382 C 
ATOM     23  O   LIG d   1      -4.345  77.584 112.454  0.00  0.00    -0.241 OA
ATOM     24  O   LIG d   1      -2.808  77.551 110.936  0.00  0.00    -0.241 OA
ENDBRANCH   3  22
TORSDOF 7
ENDMDL
MODEL 6
REMARK VINA RESULT:      -4.2      2.996      3.919
REMARK  7 active torsions:
REMARK  status: ('A' for Active; 'I' for Inactive)
REMARK    1  A    between atoms: C_2  and  C_3 
REMARK    2  A    between atoms: C_3  and  O_6 
REMARK    3  A    between atoms: C_3  and  C_4 
REMARK    4  A    between atoms: C_7  and  O_6 
REMARK    5  A    between atoms: C_9  and  C_10 
REMARK    6  A    between atoms: N_15  and  C_14 
REMARK    7  A    between atoms: N_20  and  C_19 
REMARK       I    between atoms: C_22  and  N_20 
ROOT
ATOM      1  C   LIG d   1      -4.468  77.063 117.653  0.00  0.00     0.161 C 
ATOM      2  C   LIG d   1      -5.166  78.262 117.876  0.00  0.00     0.016 C 
ATOM      3  C   LIG d   1      -4.701  79.525 117.441  0.00  0.00     0.038 C 
ATOM      4  C   LIG d   1      -3.574  79.656 116.617  0.00  0.00     0.028 C 
ATOM      5  C   LIG d   1      -2.562  78.529 116.790  0.00  0.00    -0.047 C 
ATOM      6  C   LIG d   1      -3.293  77.174 116.659  0.00  0.00     0.091 C 
ENDROOT
BRANCH   1   7
ATOM      7  O   LIG d   1      -5.386  76.035 117.231  0.00  0.00    -0.368 OA
BRANCH   7   8
ATOM      8  C   LIG d   1      -6.333  76.409 116.200  0.00  0.00     0.119 C 
BRANCH   8   9
ATOM      9  C   LIG d   1      -7.730  75.963 116.670  0.00  0.00     0.028 C 
ATOM     10  C   LIG d   1      -7.671  75.067 117.919  0.00  0.00     0.006 C 
ENDBRANCH   8   9
BRANCH   8  11
ATOM     11  C   LIG d   1      -6.076  75.639 114.902  0.00  0.00     0.028 C 
ATOM     12  C   LIG d   1      -5.340  74.310 115.133  0.00  0.00     0.006 C 
ENDBRANCH   8  11
ENDBRANCH   7   8
ENDBRANCH   1   7
BRANCH   6  13
ATOM     13  N   LIG d   1      -2.391  76.017 116.900  0.00  0.00    -0.311 N 
ATOM     14  C   LIG d   1      -1.774  75.354 115.923  0.00  0.00     0.210 C 
ATOM     15  C   LIG d   1      -0.904  74.181 116.388  0.00  0.00     0.109 C 
ATOM     16  O   LIG d   1      -1.838  75.645 114.720  0.00  0.00    -0.276 OA
ATOM     17  H   LIG d   1      -2.257  75.733 117.850  0.00  0.00     0.149 HD
ENDBRANCH   6  13
BRANCH   5  18
ATOM     18  N   LIG d   1      -1.507  78.717 115.776  0.00  0.00     0.381 N 
ATOM     19  H   LIG d   1      -1.596  78.022 115.062  0.00  0.00    -0.090 HD
ATOM     20  H   LIG d   1      -0.610  78.606 116.215  0.00  0.00    -0.090 HD
ATOM     21  H   LIG d   1      -1.578  79.627 115.375  0.00  0.00    -0.090 HD
ENDBRANCH   5  18
BRANCH   3  22
ATOM     22  C   LIG d   1      -5.345  80.677 117.865  0.00  0.00     0.382 C 
ATOM     23  O   LIG d   1      -4.736  81.510 118.578  0.00  0.00    -0.241 OA
ATOM     24  O   LIG d   1      -6.542  80.873 117.580  0.00  0.00    -0.241 OA
ENDBRANCH   3  22
TORSDOF 7
ENDMDL
MODEL 7
REMARK VINA RESULT:      -4.1      2.181      4.953
REMARK  7 active torsions:
REMARK  status: ('A' for Active; 'I' for Inactive)
REMARK    1  A    between atoms: C_2  and  C_3 
REMARK    2  A    between atoms: C_3  and  O_6 
REMARK    3  A    between atoms: C_3  and  C_4 
REMARK    4  A    between atoms: C_7  and  O_6 
REMARK    5  A    between atoms: C_9  and  C_10 
REMARK    6  A    between atoms: N_15  and  C_14 
REMARK    7  A    between atoms: N_20  and  C_19 
REMARK       I    between atoms: C_22  and  N_20 
ROOT
ATOM      1  C   LIG d   1      -1.371  75.635 115.377  0.00  0.00     0.161 C 
ATOM      2  C   LIG d   1      -1.029  75.240 116.681  0.00  0.00     0.016 C 
ATOM      3  C   LIG d   1      -0.288  76.052 117.571  0.00  0.00     0.038 C 
ATOM      4  C   LIG d   1       0.034  77.382 117.266  0.00  0.00     0.028 C 
ATOM      5  C   LIG d   1       0.149  77.651 115.770  0.00  0.00    -0.047 C 
ATOM      6  C   LIG d   1      -1.124  77.126 115.067  0.00  0.00     0.091 C 
ENDROOT
BRANCH   1   7
ATOM      7  O   LIG d   1      -2.743  75.287 115.105  0.00  0.00    -0.368 OA
BRANCH   7   8
ATOM      8  C   LIG d   1      -3.650  75.344 116.232  0.00  0.00     0.119 C 
BRANCH   8   9
ATOM      9  C   LIG d   1      -4.650  74.180 116.081  0.00  0.00     0.028 C 
ATOM     10  C   LIG d   1      -5.451  74.262 114.771  0.00  0.00     0.006 C 
ENDBRANCH   8   9
BRANCH   8  11
ATOM     11  C   LIG d   1      -4.502  76.616 116.199  0.00  0.00     0.028 C 
ATOM     12  C   LIG d   1      -4.254  77.531 117.409  0.00  0.00     0.006 C 
ENDBRANCH   8  11
ENDBRANCH   7   8
ENDBRANCH   1   7
BRANCH   6  13
ATOM     13  N   LIG d   1      -1.057  77.273 113.589  0.00  0.00    -0.311 N 
ATOM     14  C   LIG d   1      -2.059  77.751 112.854  0.00  0.00     0.210 C 
ATOM     15  C   LIG d   1      -1.789  77.800 111.347  0.00  0.00     0.109 C 
ATOM     16  O   LIG d   1      -3.134  78.170 113.310  0.00  0.00    -0.276 OA
ATOM     17  H   LIG d   1      -0.209  76.986 113.140  0.00  0.00     0.149 HD
ENDBRANCH   6  13
BRANCH   5  18
ATOM     18  N   LIG d   1       0.352  79.101 115.591  0.00  0.00     0.381 N 
ATOM     19  H   LIG d   1      -0.524  79.543 115.393  0.00  0.00    -0.090 HD
ATOM     20  H   LIG d   1       0.964  79.250 114.809  0.00  0.00    -0.090 HD
ATOM     21  H   LIG d   1       0.752  79.493 116.415  0.00  0.00    -0.090 HD
ENDBRANCH   5  18
BRANCH   3  22
ATOM     22  C   LIG d   1       0.173  75.519 118.765  0.00  0.00     0.382 C 
ATOM     23  O   LIG d   1       1.025  76.143 119.443  0.00  0.00    -0.241 OA
ATOM     24  O   LIG d   1      -0.218  74.401 119.151  0.00  0.00    -0.241 OA
ENDBRANCH   3  22
TORSDOF 7
ENDMDL
MODEL 8
REMARK VINA RESULT:      -4.1      2.934      4.547
REMARK  7 active torsions:
REMARK  status: ('A' for Active; 'I' for Inactive)
REMARK    1  A    between atoms: C_2  and  C_3 
REMARK    2  A    between atoms: C_3  and  O_6 
REMARK    3  A    between atoms: C_3  and  C_4 
REMARK    4  A    between atoms: C_7  and  O_6 
REMARK    5  A    between atoms: C_9  and  C_10 
REMARK    6  A    between atoms: N_15  and  C_14 
REMARK    7  A    between atoms: N_20  and  C_19 
REMARK       I    between atoms: C_22  and  N_20 
ROOT
ATOM      1  C   LIG d   1      -0.657  79.518 114.006  0.00  0.00     0.161 C 
ATOM      2  C   LIG d   1       0.240  80.305 113.263  0.00  0.00     0.016 C 
ATOM      3  C   LIG d   1       0.425  80.166 111.869  0.00  0.00     0.038 C 
ATOM      4  C   LIG d   1      -0.388  79.328 111.092  0.00  0.00     0.028 C 
ATOM      5  C   LIG d   1      -0.961  78.148 111.870  0.00  0.00    -0.047 C 
ATOM      6  C   LIG d   1      -1.633  78.676 113.158  0.00  0.00     0.091 C 
ENDROOT
BRANCH   1   7
ATOM      7  O   LIG d   1      -1.385  80.349 114.931  0.00  0.00    -0.368 OA
BRANCH   7   8
ATOM      8  C   LIG d   1      -1.266  79.999 116.332  0.00  0.00     0.119 C 
BRANCH   8   9
ATOM      9  C   LIG d   1      -2.657  80.171 116.972  0.00  0.00     0.028 C 
ATOM     10  C   LIG d   1      -3.320  78.824 117.306  0.00  0.00     0.006 C 
ENDBRANCH   8   9
BRANCH   8  11
ATOM     11  C   LIG d   1      -0.354  80.980 117.075  0.00  0.00     0.028 C 
ATOM     12  C   LIG d   1      -0.945  81.445 118.416  0.00  0.00     0.006 C 
ENDBRANCH   8  11
ENDBRANCH   7   8
ENDBRANCH   1   7
BRANCH   6  13
ATOM     13  N   LIG d   1      -2.146  77.579 114.020  0.00  0.00    -0.311 N 
ATOM     14  C   LIG d   1      -3.379  77.086 113.924  0.00  0.00     0.210 C 
ATOM     15  C   LIG d   1      -3.710  75.972 114.922  0.00  0.00     0.109 C 
ATOM     16  O   LIG d   1      -4.220  77.444 113.085  0.00  0.00    -0.276 OA
ATOM     17  H   LIG d   1      -1.519  77.208 114.708  0.00  0.00     0.149 HD
ENDBRANCH   6  13
BRANCH   5  18
ATOM     18  N   LIG d   1      -1.897  77.438 110.979  0.00  0.00     0.381 N 
ATOM     19  H   LIG d   1      -1.974  77.927 110.110  0.00  0.00    -0.090 HD
ATOM     20  H   LIG d   1      -2.804  77.416 111.410  0.00  0.00    -0.090 HD
ATOM     21  H   LIG d   1      -1.575  76.508 110.818  0.00  0.00    -0.090 HD
ENDBRANCH   5  18
BRANCH   3  22
ATOM     22  C   LIG d   1       1.462  80.842 111.243  0.00  0.00     0.382 C 
ATOM     23  O   LIG d   1       2.439  81.251 111.915  0.00  0.00    -0.241 OA
ATOM     24  O   LIG d   1       1.411  81.085 110.023  0.00  0.00    -0.241 OA
ENDBRANCH   3  22
TORSDOF 7
ENDMDL
MODEL 9
REMARK VINA RESULT:      -4.1      2.821      3.857
REMARK  7 active torsions:
REMARK  status: ('A' for Active; 'I' for Inactive)
REMARK    1  A    between atoms: C_2  and  C_3 
REMARK    2  A    between atoms: C_3  and  O_6 
REMARK    3  A    between atoms: C_3  and  C_4 
REMARK    4  A    between atoms: C_7  and  O_6 
REMARK    5  A    between atoms: C_9  and  C_10 
REMARK    6  A    between atoms: N_15  and  C_14 
REMARK    7  A    between atoms: N_20  and  C_19 
REMARK       I    between atoms: C_22  and  N_20 
ROOT
ATOM      1  C   LIG d   1      -1.830  77.458 115.241  0.00  0.00     0.161 C 
ATOM      2  C   LIG d   1      -2.379  78.188 116.309  0.00  0.00     0.016 C 
ATOM      3  C   LIG d   1      -2.822  79.525 116.190  0.00  0.00     0.038 C 
ATOM      4  C   LIG d   1      -2.887  80.177 114.949  0.00  0.00     0.028 C 
ATOM      5  C   LIG d   1      -1.875  79.654 113.936  0.00  0.00    -0.047 C 
ATOM      6  C   LIG d   1      -1.995  78.115 113.855  0.00  0.00     0.091 C 
ENDROOT
BRANCH   1   7
ATOM      7  O   LIG d   1      -2.375  76.123 115.231  0.00  0.00    -0.368 OA
BRANCH   7   8
ATOM      8  C   LIG d   1      -3.687  75.966 115.825  0.00  0.00     0.119 C 
BRANCH   8   9
ATOM      9  C   LIG d   1      -3.696  74.621 116.577  0.00  0.00     0.028 C 
ATOM     10  C   LIG d   1      -2.442  74.425 117.445  0.00  0.00     0.006 C 
ENDBRANCH   8   9
BRANCH   8  11
ATOM     11  C   LIG d   1      -4.772  75.838 114.752  0.00  0.00     0.028 C 
ATOM     12  C   LIG d   1      -5.519  74.497 114.817  0.00  0.00     0.006 C 
ENDBRANCH   8  11
ENDBRANCH   7   8
ENDBRANCH   1   7
BRANCH   6  13
ATOM     13  N   LIG d   1      -0.983  77.514 112.949  0.00  0.00    -0.311 N 
ATOM     14  C   LIG d   1      -1.274  77.025 111.744  0.00  0.00     0.210 C 
ATOM     15  C   LIG d   1      -0.086  76.433 110.981  0.00  0.00     0.109 C 
ATOM     16  O   LIG d   1      -2.399  77.055 111.223  0.00  0.00    -0.276 OA
ATOM     17  H   LIG d   1      -0.038  77.477 113.280  0.00  0.00     0.149 HD
ENDBRANCH   6  13
BRANCH   5  18
ATOM     18  N   LIG d   1      -2.145  80.324 112.650  0.00  0.00     0.381 N 
ATOM     19  H   LIG d   1      -2.417  81.272 112.812  0.00  0.00    -0.090 HD
ATOM     20  H   LIG d   1      -2.904  79.852 112.191  0.00  0.00    -0.090 HD
ATOM     21  H   LIG d   1      -1.331  80.298 112.075  0.00  0.00    -0.090 HD
ENDBRANCH   5  18
BRANCH   3  22
ATOM     22  C   LIG d   1      -3.170  80.237 117.327  0.00  0.00     0.382 C 
ATOM     23  O   LIG d   1      -4.238  80.896 117.353  0.00  0.00    -0.241 OA
ATOM     24  O   LIG d   1      -2.409  80.266 118.312  0.00  0.00    -0.241 OA
ENDBRANCH   3  22
TORSDOF 7
ENDMDL
