MODEL 1
REMARK VINA RESULT:      -4.8      0.000      0.000
REMARK  7 active torsions:
REMARK  status: ('A' for Active; 'I' for Inactive)
REMARK    1  A    between atoms: C_2  and  C_3 
REMARK    2  A    between atoms: C_3  and  O_6 
REMARK    3  A    between atoms: C_3  and  C_4 
REMARK    4  A    between atoms: C_7  and  O_6 
REMARK    5  A    between atoms: C_9  and  C_10 
REMARK    6  A    between atoms: N_15  and  C_14 
REMARK    7  A    between atoms: N_20  and  C_19 
REMARK       I    between atoms: C_22  and  N_20 
ROOT
ATOM      1  C   LIG d   1      -2.844  76.852 114.863  0.00  0.00     0.161 C 
ATOM      2  C   LIG d   1      -3.031  77.817 113.859  0.00  0.00     0.016 C 
ATOM      3  C   LIG d   1      -2.180  78.932 113.685  0.00  0.00     0.038 C 
ATOM      4  C   LIG d   1      -0.989  79.078 114.412  0.00  0.00     0.028 C 
ATOM      5  C   LIG d   1      -1.026  78.397 115.776  0.00  0.00    -0.047 C 
ATOM      6  C   LIG d   1      -1.488  76.933 115.595  0.00  0.00     0.091 C 
ENDROOT
BRANCH   1   7
ATOM      7  O   LIG d   1      -3.039  75.533 114.314  0.00  0.00    -0.368 OA
BRANCH   7   8
ATOM      8  C   LIG d   1      -4.221  74.824 114.763  0.00  0.00     0.119 C 
BRANCH   8   9
ATOM      9  C   LIG d   1      -5.205  74.769 113.578  0.00  0.00     0.028 C 
ATOM     10  C   LIG d   1      -6.164  75.971 113.556  0.00  0.00     0.006 C 
ENDBRANCH   8   9
BRANCH   8  11
ATOM     11  C   LIG d   1      -4.952  75.600 115.862  0.00  0.00     0.028 C 
ATOM     12  C   LIG d   1      -5.054  74.815 117.179  0.00  0.00     0.006 C 
ENDBRANCH   8  11
ENDBRANCH   7   8
ENDBRANCH   1   7
BRANCH   6  13
ATOM     13  N   LIG d   1      -1.633  76.219 116.890  0.00  0.00    -0.311 N 
ATOM     14  C   LIG d   1      -1.271  74.951 117.072  0.00  0.00     0.210 C 
ATOM     15  C   LIG d   1      -1.524  74.402 118.480  0.00  0.00     0.109 C 
ATOM     16  O   LIG d   1      -0.734  74.238 116.211  0.00  0.00    -0.276 OA
ATOM     17  H   LIG d   1      -2.031  76.733 117.652  0.00  0.00     0.149 HD
ENDBRANCH   6  13
BRANCH   5  18
ATOM     18  N   LIG d   1       0.321  78.509 116.367  0.00  0.00     0.381 N 
ATOM     19  H   LIG d   1       0.261  78.938 117.269  0.00  0.00    -0.090 HD
ATOM     20  H   LIG d   1       0.887  79.094 115.777  0.00  0.00    -0.090 HD
ATOM     21  H   LIG d   1       0.734  77.606 116.447  0.00  0.00    -0.090 HD
ENDBRANCH   5  18
BRANCH   3  22
ATOM     22  C   LIG d   1      -2.539  79.939 112.801  0.00  0.00     0.382 C 
ATOM     23  O   LIG d   1      -1.994  80.006 111.673  0.00  0.00    -0.241 OA
ATOM     24  O   LIG d   1      -3.368  80.806 113.134  0.00  0.00    -0.241 OA
ENDBRANCH   3  22
TORSDOF 7
ENDMDL
MODEL 2
REMARK VINA RESULT:      -4.8      1.647      4.947
REMARK  7 active torsions:
REMARK  status: ('A' for Active; 'I' for Inactive)
REMARK    1  A    between atoms: C_2  and  C_3 
REMARK    2  A    between atoms: C_3  and  O_6 
REMARK    3  A    between atoms: C_3  and  C_4 
REMARK    4  A    between atoms: C_7  and  O_6 
REMARK    5  A    between atoms: C_9  and  C_10 
REMARK    6  A    between atoms: N_15  and  C_14 
REMARK    7  A    between atoms: N_20  and  C_19 
REMARK       I    between atoms: C_22  and  N_20 
ROOT
ATOM      1  C   LIG d   1      -1.067  76.158 114.980  0.00  0.00     0.161 C 
ATOM      2  C   LIG d   1      -0.788  75.438 116.153  0.00  0.00     0.016 C 
ATOM      3  C   LIG d   1      -0.468  76.052 117.386  0.00  0.00     0.038 C 
ATOM      4  C   LIG d   1      -0.555  77.441 117.566  0.00  0.00     0.028 C 
ATOM      5  C   LIG d   1      -0.341  78.233 116.281  0.00  0.00    -0.047 C 
ATOM      6  C   LIG d   1      -1.276  77.673 115.185  0.00  0.00     0.091 C 
ENDROOT
BRANCH   1   7
ATOM      7  O   LIG d   1      -2.208  75.581 114.313  0.00  0.00    -0.368 OA
BRANCH   7   8
ATOM      8  C   LIG d   1      -3.504  76.087 114.714  0.00  0.00     0.119 C 
BRANCH   8   9
ATOM      9  C   LIG d   1      -4.240  74.947 115.445  0.00  0.00     0.028 C 
ATOM     10  C   LIG d   1      -4.331  75.185 116.962  0.00  0.00     0.006 C 
ENDBRANCH   8   9
BRANCH   8  11
ATOM     11  C   LIG d   1      -4.375  76.418 113.498  0.00  0.00     0.028 C 
ATOM     12  C   LIG d   1      -5.722  75.679 113.512  0.00  0.00     0.006 C 
ENDBRANCH   8  11
ENDBRANCH   7   8
ENDBRANCH   1   7
BRANCH   6  13
ATOM     13  N   LIG d   1      -1.070  78.337 113.871  0.00  0.00    -0.311 N 
ATOM     14  C   LIG d   1      -1.856  79.308 113.409  0.00  0.00     0.210 C 
ATOM     15  C   LIG d   1      -1.479  79.841 112.023  0.00  0.00     0.109 C 
ATOM     16  O   LIG d   1      -2.810  79.801 114.030  0.00  0.00    -0.276 OA
ATOM     17  H   LIG d   1      -0.300  78.020 113.315  0.00  0.00     0.149 HD
ENDBRANCH   6  13
BRANCH   5  18
ATOM     18  N   LIG d   1      -0.595  79.654 116.586  0.00  0.00     0.381 N 
ATOM     19  H   LIG d   1      -1.048  79.734 117.474  0.00  0.00    -0.090 HD
ATOM     20  H   LIG d   1      -1.206  80.033 115.885  0.00  0.00    -0.090 HD
ATOM     21  H   LIG d   1       0.264  80.159 116.596  0.00  0.00    -0.090 HD
ENDBRANCH   5  18
BRANCH   3  22
ATOM     22  C   LIG d   1      -0.018  75.277 118.444  0.00  0.00     0.382 C 
ATOM     23  O   LIG d   1      -0.605  74.206 118.731  0.00  0.00    -0.241 OA
ATOM     24  O   LIG d   1       0.940  75.658 119.143  0.00  0.00    -0.241 OA
ENDBRANCH   3  22
TORSDOF 7
ENDMDL
MODEL 3
REMARK VINA RESULT:      -4.7      1.848      2.607
REMARK  7 active torsions:
REMARK  status: ('A' for Active; 'I' for Inactive)
REMARK    1  A    between atoms: C_2  and  C_3 
REMARK    2  A    between atoms: C_3  and  O_6 
REMARK    3  A    between atoms: C_3  and  C_4 
REMARK    4  A    between atoms: C_7  and  O_6 
REMARK    5  A    between atoms: C_9  and  C_10 
REMARK    6  A    between atoms: N_15  and  C_14 
REMARK    7  A    between atoms: N_20  and  C_19 
REMARK       I    between atoms: C_22  and  N_20 
ROOT
ATOM      1  C   LIG d   1      -2.554  75.781 116.510  0.00  0.00     0.161 C 
ATOM      2  C   LIG d   1      -3.041  76.796 115.670  0.00  0.00     0.016 C 
ATOM      3  C   LIG d   1      -2.328  77.290 114.553  0.00  0.00     0.038 C 
ATOM      4  C   LIG d   1      -1.138  76.695 114.110  0.00  0.00     0.028 C 
ATOM      5  C   LIG d   1      -0.359  75.999 115.221  0.00  0.00    -0.047 C 
ATOM      6  C   LIG d   1      -1.308  75.042 115.977  0.00  0.00     0.091 C 
ENDROOT
BRANCH   1   7
ATOM      7  O   LIG d   1      -3.607  74.840 116.801  0.00  0.00    -0.368 OA
BRANCH   7   8
ATOM      8  C   LIG d   1      -4.926  75.188 116.312  0.00  0.00     0.119 C 
BRANCH   8   9
ATOM      9  C   LIG d   1      -5.906  75.062 117.494  0.00  0.00     0.028 C 
ATOM     10  C   LIG d   1      -7.281  74.525 117.060  0.00  0.00     0.006 C 
ENDBRANCH   8   9
BRANCH   8  11
ATOM     11  C   LIG d   1      -5.416  74.181 115.268  0.00  0.00     0.028 C 
ATOM     12  C   LIG d   1      -5.051  74.586 113.831  0.00  0.00     0.006 C 
ENDBRANCH   8  11
ENDBRANCH   7   8
ENDBRANCH   1   7
BRANCH   6  13
ATOM     13  N   LIG d   1      -0.647  74.384 117.134  0.00  0.00    -0.311 N 
ATOM     14  C   LIG d   1      -0.193  75.049 118.195  0.00  0.00     0.210 C 
ATOM     15  C   LIG d   1       0.474  74.181 119.266  0.00  0.00     0.109 C 
ATOM     16  O   LIG d   1      -0.308  76.272 118.365  0.00  0.00    -0.276 OA
ATOM     17  H   LIG d   1      -0.540  73.389 117.093  0.00  0.00     0.149 HD
ENDBRANCH   6  13
BRANCH   5  18
ATOM     18  N   LIG d   1       0.784  75.306 114.597  0.00  0.00     0.381 N 
ATOM     19  H   LIG d   1       1.409  75.977 114.196  0.00  0.00    -0.090 HD
ATOM     20  H   LIG d   1       0.443  74.714 113.860  0.00  0.00    -0.090 HD
ATOM     21  H   LIG d   1       1.264  74.759 115.277  0.00  0.00    -0.090 HD
ENDBRANCH   5  18
BRANCH   3  22
ATOM     22  C   LIG d   1      -2.786  78.420 113.891  0.00  0.00     0.382 C 
ATOM     23  O   LIG d   1      -2.815  79.525 114.484  0.00  0.00    -0.241 OA
ATOM     24  O   LIG d   1      -3.212  78.338 112.724  0.00  0.00    -0.241 OA
ENDBRANCH   3  22
TORSDOF 7
ENDMDL
MODEL 4
REMARK VINA RESULT:      -4.5      3.094      4.273
REMARK  7 active torsions:
REMARK  status: ('A' for Active; 'I' for Inactive)
REMARK    1  A    between atoms: C_2  and  C_3 
REMARK    2  A    between atoms: C_3  and  O_6 
REMARK    3  A    between atoms: C_3  and  C_4 
REMARK    4  A    between atoms: C_7  and  O_6 
REMARK    5  A    between atoms: C_9  and  C_10 
REMARK    6  A    between atoms: N_15  and  C_14 
REMARK    7  A    between atoms: N_20  and  C_19 
REMARK       I    between atoms: C_22  and  N_20 
ROOT
ATOM      1  C   LIG d   1      -3.604  78.047 116.607  0.00  0.00     0.161 C 
ATOM      2  C   LIG d   1      -2.788  78.999 117.242  0.00  0.00     0.016 C 
ATOM      3  C   LIG d   1      -1.456  79.267 116.852  0.00  0.00     0.038 C 
ATOM      4  C   LIG d   1      -0.895  78.704 115.696  0.00  0.00     0.028 C 
ATOM      5  C   LIG d   1      -1.508  77.360 115.317  0.00  0.00    -0.047 C 
ATOM      6  C   LIG d   1      -3.046  77.504 115.275  0.00  0.00     0.091 C 
ENDROOT
BRANCH   1   7
ATOM      7  O   LIG d   1      -4.926  78.588 116.414  0.00  0.00    -0.368 OA
BRANCH   7   8
ATOM      8  C   LIG d   1      -6.008  77.868 117.054  0.00  0.00     0.119 C 
BRANCH   8   9
ATOM      9  C   LIG d   1      -6.858  78.897 117.823  0.00  0.00     0.028 C 
ATOM     10  C   LIG d   1      -6.246  80.308 117.787  0.00  0.00     0.006 C 
ENDBRANCH   8   9
BRANCH   8  11
ATOM     11  C   LIG d   1      -5.482  76.900 118.118  0.00  0.00     0.028 C 
ATOM     12  C   LIG d   1      -5.999  75.465 117.926  0.00  0.00     0.006 C 
ENDBRANCH   8  11
ENDBRANCH   7   8
ENDBRANCH   1   7
BRANCH   6  13
ATOM     13  N   LIG d   1      -3.729  76.214 114.994  0.00  0.00    -0.311 N 
ATOM     14  C   LIG d   1      -4.340  75.944 113.842  0.00  0.00     0.210 C 
ATOM     15  C   LIG d   1      -4.998  74.562 113.768  0.00  0.00     0.109 C 
ATOM     16  O   LIG d   1      -4.373  76.704 112.863  0.00  0.00    -0.276 OA
ATOM     17  H   LIG d   1      -3.724  75.528 115.723  0.00  0.00     0.149 HD
ENDBRANCH   6  13
BRANCH   5  18
ATOM     18  N   LIG d   1      -0.929  76.956 114.022  0.00  0.00     0.381 N 
ATOM     19  H   LIG d   1      -1.026  77.700 113.360  0.00  0.00    -0.090 HD
ATOM     20  H   LIG d   1      -1.434  76.159 113.675  0.00  0.00    -0.090 HD
ATOM     21  H   LIG d   1       0.033  76.725 114.135  0.00  0.00    -0.090 HD
ENDBRANCH   5  18
BRANCH   3  22
ATOM     22  C   LIG d   1      -0.657  80.076 117.645  0.00  0.00     0.382 C 
ATOM     23  O   LIG d   1      -0.729  79.996 118.895  0.00  0.00    -0.241 OA
ATOM     24  O   LIG d   1       0.103  80.915 117.127  0.00  0.00    -0.241 OA
ENDBRANCH   3  22
TORSDOF 7
ENDMDL
MODEL 5
REMARK VINA RESULT:      -4.4      2.209      4.602
REMARK  7 active torsions:
REMARK  status: ('A' for Active; 'I' for Inactive)
REMARK    1  A    between atoms: C_2  and  C_3 
REMARK    2  A    between atoms: C_3  and  O_6 
REMARK    3  A    between atoms: C_3  and  C_4 
REMARK    4  A    between atoms: C_7  and  O_6 
REMARK    5  A    between atoms: C_9  and  C_10 
REMARK    6  A    between atoms: N_15  and  C_14 
REMARK    7  A    between atoms: N_20  and  C_19 
REMARK       I    between atoms: C_22  and  N_20 
ROOT
ATOM      1  C   LIG d   1      -1.848  75.798 115.014  0.00  0.00     0.161 C 
ATOM      2  C   LIG d   1      -3.194  75.426 114.865  0.00  0.00     0.016 C 
ATOM      3  C   LIG d   1      -4.000  74.977 115.936  0.00  0.00     0.038 C 
ATOM      4  C   LIG d   1      -3.554  75.012 117.265  0.00  0.00     0.028 C 
ATOM      5  C   LIG d   1      -2.039  74.902 117.399  0.00  0.00    -0.047 C 
ATOM      6  C   LIG d   1      -1.376  75.949 116.475  0.00  0.00     0.091 C 
ENDROOT
BRANCH   1   7
ATOM      7  O   LIG d   1      -1.591  77.010 114.277  0.00  0.00    -0.368 OA
BRANCH   7   8
ATOM      8  C   LIG d   1      -2.718  77.904 114.107  0.00  0.00     0.119 C 
BRANCH   8   9
ATOM      9  C   LIG d   1      -2.621  78.509 112.693  0.00  0.00     0.028 C 
ATOM     10  C   LIG d   1      -2.711  80.044 112.705  0.00  0.00     0.006 C 
ENDBRANCH   8   9
BRANCH   8  11
ATOM     11  C   LIG d   1      -2.633  79.096 115.065  0.00  0.00     0.028 C 
ATOM     12  C   LIG d   1      -3.556  78.947 116.285  0.00  0.00     0.006 C 
ENDBRANCH   8  11
ENDBRANCH   7   8
ENDBRANCH   1   7
BRANCH   6  13
ATOM     13  N   LIG d   1       0.107  75.852 116.481  0.00  0.00    -0.311 N 
ATOM     14  C   LIG d   1       0.907  76.871 116.793  0.00  0.00     0.210 C 
ATOM     15  C   LIG d   1       2.405  76.563 116.717  0.00  0.00     0.109 C 
ATOM     16  O   LIG d   1       0.517  77.991 117.156  0.00  0.00    -0.276 OA
ATOM     17  H   LIG d   1       0.508  74.970 116.230  0.00  0.00     0.149 HD
ENDBRANCH   6  13
BRANCH   5  18
ATOM     18  N   LIG d   1      -1.702  75.091 118.822  0.00  0.00     0.381 N 
ATOM     19  H   LIG d   1      -2.304  75.782 119.224  0.00  0.00    -0.090 HD
ATOM     20  H   LIG d   1      -0.755  75.419 118.892  0.00  0.00    -0.090 HD
ATOM     21  H   LIG d   1      -1.800  74.229 119.313  0.00  0.00    -0.090 HD
ENDBRANCH   5  18
BRANCH   3  22
ATOM     22  C   LIG d   1      -5.255  74.447 115.676  0.00  0.00     0.382 C 
ATOM     23  O   LIG d   1      -5.620  74.250 114.492  0.00  0.00    -0.241 OA
ATOM     24  O   LIG d   1      -6.045  74.206 116.609  0.00  0.00    -0.241 OA
ENDBRANCH   3  22
TORSDOF 7
ENDMDL
MODEL 6
REMARK VINA RESULT:      -4.4      2.017      2.515
REMARK  7 active torsions:
REMARK  status: ('A' for Active; 'I' for Inactive)
REMARK    1  A    between atoms: C_2  and  C_3 
REMARK    2  A    between atoms: C_3  and  O_6 
REMARK    3  A    between atoms: C_3  and  C_4 
REMARK    4  A    between atoms: C_7  and  O_6 
REMARK    5  A    between atoms: C_9  and  C_10 
REMARK    6  A    between atoms: N_15  and  C_14 
REMARK    7  A    between atoms: N_20  and  C_19 
REMARK       I    between atoms: C_22  and  N_20 
ROOT
ATOM      1  C   LIG d   1      -2.167  78.248 116.491  0.00  0.00     0.161 C 
ATOM      2  C   LIG d   1      -2.557  79.073 115.422  0.00  0.00     0.016 C 
ATOM      3  C   LIG d   1      -2.240  78.798 114.072  0.00  0.00     0.038 C 
ATOM      4  C   LIG d   1      -1.637  77.593 113.682  0.00  0.00     0.028 C 
ATOM      5  C   LIG d   1      -0.776  76.966 114.773  0.00  0.00    -0.047 C 
ATOM      6  C   LIG d   1      -1.604  76.873 116.075  0.00  0.00     0.091 C 
ENDROOT
BRANCH   1   7
ATOM      7  O   LIG d   1      -3.266  78.084 117.408  0.00  0.00    -0.368 OA
BRANCH   7   8
ATOM      8  C   LIG d   1      -4.281  77.125 117.020  0.00  0.00     0.119 C 
BRANCH   8   9
ATOM      9  C   LIG d   1      -5.621  77.880 116.930  0.00  0.00     0.028 C 
ATOM     10  C   LIG d   1      -5.600  79.207 117.708  0.00  0.00     0.006 C 
ENDBRANCH   8   9
BRANCH   8  11
ATOM     11  C   LIG d   1      -4.487  76.062 118.104  0.00  0.00     0.028 C 
ATOM     12  C   LIG d   1      -5.848  75.357 117.995  0.00  0.00     0.006 C 
ENDBRANCH   8  11
ENDBRANCH   7   8
ENDBRANCH   1   7
BRANCH   6  13
ATOM     13  N   LIG d   1      -0.810  76.348 117.216  0.00  0.00    -0.311 N 
ATOM     14  C   LIG d   1      -0.844  75.076 117.609  0.00  0.00     0.210 C 
ATOM     15  C   LIG d   1       0.036  74.750 118.820  0.00  0.00     0.109 C 
ATOM     16  O   LIG d   1      -1.495  74.180 117.051  0.00  0.00    -0.276 OA
ATOM     17  H   LIG d   1      -0.229  77.000 117.706  0.00  0.00     0.149 HD
ENDBRANCH   6  13
BRANCH   5  18
ATOM     18  N   LIG d   1      -0.321  75.652 114.282  0.00  0.00     0.381 N 
ATOM     19  H   LIG d   1       0.661  75.681 114.095  0.00  0.00    -0.090 HD
ATOM     20  H   LIG d   1      -0.799  75.443 113.423  0.00  0.00    -0.090 HD
ATOM     21  H   LIG d   1      -0.518  74.948 114.959  0.00  0.00    -0.090 HD
ENDBRANCH   5  18
BRANCH   3  22
ATOM     22  C   LIG d   1      -2.492  79.754 113.099  0.00  0.00     0.382 C 
ATOM     23  O   LIG d   1      -3.413  80.590 113.265  0.00  0.00    -0.241 OA
ATOM     24  O   LIG d   1      -1.840  79.762 112.038  0.00  0.00    -0.241 OA
ENDBRANCH   3  22
TORSDOF 7
ENDMDL
MODEL 7
REMARK VINA RESULT:      -4.3      2.973      3.999
REMARK  7 active torsions:
REMARK  status: ('A' for Active; 'I' for Inactive)
REMARK    1  A    between atoms: C_2  and  C_3 
REMARK    2  A    between atoms: C_3  and  O_6 
REMARK    3  A    between atoms: C_3  and  C_4 
REMARK    4  A    between atoms: C_7  and  O_6 
REMARK    5  A    between atoms: C_9  and  C_10 
REMARK    6  A    between atoms: N_15  and  C_14 
REMARK    7  A    between atoms: N_20  and  C_19 
REMARK       I    between atoms: C_22  and  N_20 
ROOT
ATOM      1  C   LIG d   1      -3.967  76.381 117.053  0.00  0.00     0.161 C 
ATOM      2  C   LIG d   1      -4.999  77.153 117.612  0.00  0.00     0.016 C 
ATOM      3  C   LIG d   1      -5.130  78.545 117.404  0.00  0.00     0.038 C 
ATOM      4  C   LIG d   1      -4.318  79.238 116.494  0.00  0.00     0.028 C 
ATOM      5  C   LIG d   1      -2.948  78.598 116.295  0.00  0.00    -0.047 C 
ATOM      6  C   LIG d   1      -3.138  77.099 115.968  0.00  0.00     0.091 C 
ENDROOT
BRANCH   1   7
ATOM      7  O   LIG d   1      -4.505  75.147 116.538  0.00  0.00    -0.368 OA
BRANCH   7   8
ATOM      8  C   LIG d   1      -5.501  75.272 115.493  0.00  0.00     0.119 C 
BRANCH   8   9
ATOM      9  C   LIG d   1      -6.562  74.181 115.732  0.00  0.00     0.028 C 
ATOM     10  C   LIG d   1      -7.470  74.499 116.932  0.00  0.00     0.006 C 
ENDBRANCH   8   9
BRANCH   8  11
ATOM     11  C   LIG d   1      -4.906  74.964 114.116  0.00  0.00     0.028 C 
ATOM     12  C   LIG d   1      -5.361  75.956 113.035  0.00  0.00     0.006 C 
ENDBRANCH   8  11
ENDBRANCH   7   8
ENDBRANCH   1   7
BRANCH   6  13
ATOM     13  N   LIG d   1      -1.844  76.379 115.841  0.00  0.00    -0.311 N 
ATOM     14  C   LIG d   1      -1.243  76.151 114.674  0.00  0.00     0.210 C 
ATOM     15  C   LIG d   1       0.073  75.373 114.766  0.00  0.00     0.109 C 
ATOM     16  O   LIG d   1      -1.660  76.547 113.575  0.00  0.00    -0.276 OA
ATOM     17  H   LIG d   1      -1.420  76.049 116.686  0.00  0.00     0.149 HD
ENDBRANCH   6  13
BRANCH   5  18
ATOM     18  N   LIG d   1      -2.261  79.341 115.222  0.00  0.00     0.381 N 
ATOM     19  H   LIG d   1      -2.570  79.010 114.329  0.00  0.00    -0.090 HD
ATOM     20  H   LIG d   1      -1.272  79.177 115.294  0.00  0.00    -0.090 HD
ATOM     21  H   LIG d   1      -2.450  80.315 115.306  0.00  0.00    -0.090 HD
ENDBRANCH   5  18
BRANCH   3  22
ATOM     22  C   LIG d   1      -6.056  79.266 118.142  0.00  0.00     0.382 C 
ATOM     23  O   LIG d   1      -7.210  79.454 117.688  0.00  0.00    -0.241 OA
ATOM     24  O   LIG d   1      -5.738  79.769 119.237  0.00  0.00    -0.241 OA
ENDBRANCH   3  22
TORSDOF 7
ENDMDL
MODEL 8
REMARK VINA RESULT:      -4.3      2.542      3.572
REMARK  7 active torsions:
REMARK  status: ('A' for Active; 'I' for Inactive)
REMARK    1  A    between atoms: C_2  and  C_3 
REMARK    2  A    between atoms: C_3  and  O_6 
REMARK    3  A    between atoms: C_3  and  C_4 
REMARK    4  A    between atoms: C_7  and  O_6 
REMARK    5  A    between atoms: C_9  and  C_10 
REMARK    6  A    between atoms: N_15  and  C_14 
REMARK    7  A    between atoms: N_20  and  C_19 
REMARK       I    between atoms: C_22  and  N_20 
ROOT
ATOM      1  C   LIG d   1      -2.457  78.595 116.208  0.00  0.00     0.161 C 
ATOM      2  C   LIG d   1      -2.816  79.383 115.102  0.00  0.00     0.016 C 
ATOM      3  C   LIG d   1      -2.427  79.085 113.775  0.00  0.00     0.038 C 
ATOM      4  C   LIG d   1      -1.776  77.887 113.445  0.00  0.00     0.028 C 
ATOM      5  C   LIG d   1      -0.953  77.309 114.592  0.00  0.00    -0.047 C 
ATOM      6  C   LIG d   1      -1.841  77.226 115.854  0.00  0.00     0.091 C 
ENDROOT
BRANCH   1   7
ATOM      7  O   LIG d   1      -3.596  78.424 117.075  0.00  0.00    -0.368 OA
BRANCH   7   8
ATOM      8  C   LIG d   1      -3.456  78.943 118.421  0.00  0.00     0.119 C 
BRANCH   8   9
ATOM      9  C   LIG d   1      -4.601  79.948 118.650  0.00  0.00     0.028 C 
ATOM     10  C   LIG d   1      -5.651  79.908 117.527  0.00  0.00     0.006 C 
ENDBRANCH   8   9
BRANCH   8  11
ATOM     11  C   LIG d   1      -2.167  79.755 118.574  0.00  0.00     0.028 C 
ATOM     12  C   LIG d   1      -2.338  80.978 119.489  0.00  0.00     0.006 C 
ENDBRANCH   8  11
ENDBRANCH   7   8
ENDBRANCH   1   7
BRANCH   6  13
ATOM     13  N   LIG d   1      -1.090  76.749 117.045  0.00  0.00    -0.311 N 
ATOM     14  C   LIG d   1      -0.983  75.464 117.378  0.00  0.00     0.210 C 
ATOM     15  C   LIG d   1      -0.181  75.192 118.655  0.00  0.00     0.109 C 
ATOM     16  O   LIG d   1      -1.448  74.522 116.720  0.00  0.00    -0.276 OA
ATOM     17  H   LIG d   1      -0.655  77.445 117.618  0.00  0.00     0.149 HD
ENDBRANCH   6  13
BRANCH   5  18
ATOM     18  N   LIG d   1      -0.443  75.995 114.156  0.00  0.00     0.381 N 
ATOM     19  H   LIG d   1      -0.170  76.040 113.195  0.00  0.00    -0.090 HD
ATOM     20  H   LIG d   1      -1.177  75.316 114.244  0.00  0.00    -0.090 HD
ATOM     21  H   LIG d   1       0.336  75.728 114.718  0.00  0.00    -0.090 HD
ENDBRANCH   5  18
BRANCH   3  22
ATOM     22  C   LIG d   1      -2.655  80.009 112.768  0.00  0.00     0.382 C 
ATOM     23  O   LIG d   1      -3.532  80.894 112.916  0.00  0.00    -0.241 OA
ATOM     24  O   LIG d   1      -2.026  79.943 111.695  0.00  0.00    -0.241 OA
ENDBRANCH   3  22
TORSDOF 7
ENDMDL
MODEL 9
REMARK VINA RESULT:      -4.2      3.707      4.437
REMARK  7 active torsions:
REMARK  status: ('A' for Active; 'I' for Inactive)
REMARK    1  A    between atoms: C_2  and  C_3 
REMARK    2  A    between atoms: C_3  and  O_6 
REMARK    3  A    between atoms: C_3  and  C_4 
REMARK    4  A    between atoms: C_7  and  O_6 
REMARK    5  A    between atoms: C_9  and  C_10 
REMARK    6  A    between atoms: N_15  and  C_14 
REMARK    7  A    between atoms: N_20  and  C_19 
REMARK       I    between atoms: C_22  and  N_20 
ROOT
ATOM      1  C   LIG d   1      -5.389  77.574 117.195  0.00  0.00     0.161 C 
ATOM      2  C   LIG d   1      -6.256  78.674 117.303  0.00  0.00     0.016 C 
ATOM      3  C   LIG d   1      -5.985  79.803 118.110  0.00  0.00     0.038 C 
ATOM      4  C   LIG d   1      -4.749  79.977 118.750  0.00  0.00     0.028 C 
ATOM      5  C   LIG d   1      -4.046  78.664 119.076  0.00  0.00    -0.047 C 
ATOM      6  C   LIG d   1      -3.986  77.795 117.799  0.00  0.00     0.091 C 
ENDROOT
BRANCH   1   7
ATOM      7  O   LIG d   1      -5.283  77.169 115.816  0.00  0.00    -0.368 OA
BRANCH   7   8
ATOM      8  C   LIG d   1      -6.194  76.128 115.386  0.00  0.00     0.119 C 
BRANCH   8   9
ATOM      9  C   LIG d   1      -6.021  74.936 116.347  0.00  0.00     0.028 C 
ATOM     10  C   LIG d   1      -7.339  74.180 116.587  0.00  0.00     0.006 C 
ENDBRANCH   8   9
BRANCH   8  11
ATOM     11  C   LIG d   1      -5.814  75.591 114.003  0.00  0.00     0.028 C 
ATOM     12  C   LIG d   1      -4.419  74.947 113.976  0.00  0.00     0.006 C 
ENDBRANCH   8  11
ENDBRANCH   7   8
ENDBRANCH   1   7
BRANCH   6  13
ATOM     13  N   LIG d   1      -3.389  76.458 118.050  0.00  0.00    -0.311 N 
ATOM     14  C   LIG d   1      -2.484  75.897 117.249  0.00  0.00     0.210 C 
ATOM     15  C   LIG d   1      -2.013  74.505 117.681  0.00  0.00     0.109 C 
ATOM     16  O   LIG d   1      -2.004  76.434 116.239  0.00  0.00    -0.276 OA
ATOM     17  H   LIG d   1      -3.699  75.965 118.864  0.00  0.00     0.149 HD
ENDBRANCH   6  13
BRANCH   5  18
ATOM     18  N   LIG d   1      -2.712  78.994 119.614  0.00  0.00     0.381 N 
ATOM     19  H   LIG d   1      -2.007  78.526 119.081  0.00  0.00    -0.090 HD
ATOM     20  H   LIG d   1      -2.656  78.671 120.564  0.00  0.00    -0.090 HD
ATOM     21  H   LIG d   1      -2.565  79.978 119.581  0.00  0.00    -0.090 HD
ENDBRANCH   5  18
BRANCH   3  22
ATOM     22  C   LIG d   1      -6.972  80.755 118.314  0.00  0.00     0.382 C 
ATOM     23  O   LIG d   1      -7.552  81.277 117.332  0.00  0.00    -0.241 OA
ATOM     24  O   LIG d   1      -7.259  81.131 119.467  0.00  0.00    -0.241 OA
ENDBRANCH   3  22
TORSDOF 7
ENDMDL
