MODEL 1
REMARK VINA RESULT:      -5.2      0.000      0.000
REMARK  7 active torsions:
REMARK  status: ('A' for Active; 'I' for Inactive)
REMARK    1  A    between atoms: C_2  and  C_3 
REMARK    2  A    between atoms: C_3  and  O_6 
REMARK    3  A    between atoms: C_3  and  C_4 
REMARK    4  A    between atoms: C_7  and  O_6 
REMARK    5  A    between atoms: C_9  and  C_10 
REMARK    6  A    between atoms: N_15  and  C_14 
REMARK    7  A    between atoms: N_20  and  C_19 
REMARK       I    between atoms: C_22  and  N_20 
ROOT
ATOM      1  C   LIG d   1      -1.749  80.667 114.369  0.00  0.00     0.161 C 
ATOM      2  C   LIG d   1      -1.517  82.034 114.142  0.00  0.00     0.016 C 
ATOM      3  C   LIG d   1      -0.960  82.540 112.945  0.00  0.00     0.038 C 
ATOM      4  C   LIG d   1      -0.735  81.721 111.828  0.00  0.00     0.028 C 
ATOM      5  C   LIG d   1      -0.482  80.261 112.188  0.00  0.00    -0.047 C 
ATOM      6  C   LIG d   1      -1.613  79.771 113.120  0.00  0.00     0.091 C 
ENDROOT
BRANCH   1   7
ATOM      7  O   LIG d   1      -3.043  80.486 114.978  0.00  0.00    -0.368 OA
BRANCH   7   8
ATOM      8  C   LIG d   1      -3.042  80.124 116.381  0.00  0.00     0.119 C 
BRANCH   8   9
ATOM      9  C   LIG d   1      -4.028  78.953 116.558  0.00  0.00     0.028 C 
ATOM     10  C   LIG d   1      -3.367  77.722 117.202  0.00  0.00     0.006 C 
ENDBRANCH   8   9
BRANCH   8  11
ATOM     11  C   LIG d   1      -3.600  81.257 117.248  0.00  0.00     0.028 C 
ATOM     12  C   LIG d   1      -2.508  81.989 118.046  0.00  0.00     0.006 C 
ENDBRANCH   8  11
ENDBRANCH   7   8
ENDBRANCH   1   7
BRANCH   6  13
ATOM     13  N   LIG d   1      -1.398  78.377 113.588  0.00  0.00    -0.311 N 
ATOM     14  C   LIG d   1      -2.348  77.444 113.574  0.00  0.00     0.210 C 
ATOM     15  C   LIG d   1      -1.921  76.078 114.119  0.00  0.00     0.109 C 
ATOM     16  O   LIG d   1      -3.495  77.609 113.132  0.00  0.00    -0.276 OA
ATOM     17  H   LIG d   1      -0.487  78.148 113.934  0.00  0.00     0.149 HD
ENDBRANCH   6  13
BRANCH   5  18
ATOM     18  N   LIG d   1      -0.401  79.499 110.927  0.00  0.00     0.381 N 
ATOM     19  H   LIG d   1      -0.592  80.104 110.153  0.00  0.00    -0.090 HD
ATOM     20  H   LIG d   1      -1.097  78.774 110.940  0.00  0.00    -0.090 HD
ATOM     21  H   LIG d   1       0.506  79.098 110.829  0.00  0.00    -0.090 HD
ENDBRANCH   5  18
BRANCH   3  22
ATOM     22  C   LIG d   1      -0.585  83.873 112.871  0.00  0.00     0.382 C 
ATOM     23  O   LIG d   1       0.046  84.399 113.819  0.00  0.00    -0.241 OA
ATOM     24  O   LIG d   1      -0.908  84.567 111.889  0.00  0.00    -0.241 OA
ENDBRANCH   3  22
TORSDOF 7
ENDMDL
MODEL 2
REMARK VINA RESULT:      -5.1      2.290      5.187
REMARK  7 active torsions:
REMARK  status: ('A' for Active; 'I' for Inactive)
REMARK    1  A    between atoms: C_2  and  C_3 
REMARK    2  A    between atoms: C_3  and  O_6 
REMARK    3  A    between atoms: C_3  and  C_4 
REMARK    4  A    between atoms: C_7  and  O_6 
REMARK    5  A    between atoms: C_9  and  C_10 
REMARK    6  A    between atoms: N_15  and  C_14 
REMARK    7  A    between atoms: N_20  and  C_19 
REMARK       I    between atoms: C_22  and  N_20 
ROOT
ATOM      1  C   LIG d   1      -1.553  82.018 112.314  0.00  0.00     0.161 C 
ATOM      2  C   LIG d   1      -2.361  81.002 112.851  0.00  0.00     0.016 C 
ATOM      3  C   LIG d   1      -2.164  79.628 112.583  0.00  0.00     0.038 C 
ATOM      4  C   LIG d   1      -1.046  79.163 111.875  0.00  0.00     0.028 C 
ATOM      5  C   LIG d   1      -0.485  80.184 110.891  0.00  0.00    -0.047 C 
ATOM      6  C   LIG d   1      -0.262  81.524 111.629  0.00  0.00     0.091 C 
ENDROOT
BRANCH   1   7
ATOM      7  O   LIG d   1      -1.240  82.985 113.336  0.00  0.00    -0.368 OA
BRANCH   7   8
ATOM      8  C   LIG d   1      -0.991  82.455 114.661  0.00  0.00     0.119 C 
BRANCH   8   9
ATOM      9  C   LIG d   1      -1.848  83.264 115.652  0.00  0.00     0.028 C 
ATOM     10  C   LIG d   1      -1.840  82.658 117.066  0.00  0.00     0.006 C 
ENDBRANCH   8   9
BRANCH   8  11
ATOM     11  C   LIG d   1       0.460  82.691 115.092  0.00  0.00     0.028 C 
ATOM     12  C   LIG d   1       1.157  83.782 114.264  0.00  0.00     0.006 C 
ENDBRANCH   8  11
ENDBRANCH   7   8
ENDBRANCH   1   7
BRANCH   6  13
ATOM     13  N   LIG d   1       0.206  82.602 110.720  0.00  0.00    -0.311 N 
ATOM     14  C   LIG d   1       1.492  82.895 110.531  0.00  0.00     0.210 C 
ATOM     15  C   LIG d   1       1.755  84.056 109.567  0.00  0.00     0.109 C 
ATOM     16  O   LIG d   1       2.440  82.284 111.047  0.00  0.00    -0.276 OA
ATOM     17  H   LIG d   1      -0.495  83.128 110.237  0.00  0.00     0.149 HD
ENDBRANCH   6  13
BRANCH   5  18
ATOM     18  N   LIG d   1       0.756  79.622 110.324  0.00  0.00     0.381 N 
ATOM     19  H   LIG d   1       1.446  79.532 111.043  0.00  0.00    -0.090 HD
ATOM     20  H   LIG d   1       1.108  80.252 109.625  0.00  0.00    -0.090 HD
ATOM     21  H   LIG d   1       0.572  78.732 109.917  0.00  0.00    -0.090 HD
ENDBRANCH   5  18
BRANCH   3  22
ATOM     22  C   LIG d   1      -3.115  78.705 112.992  0.00  0.00     0.382 C 
ATOM     23  O   LIG d   1      -3.228  78.418 114.208  0.00  0.00    -0.241 OA
ATOM     24  O   LIG d   1      -3.831  78.123 112.155  0.00  0.00    -0.241 OA
ENDBRANCH   3  22
TORSDOF 7
ENDMDL
MODEL 3
REMARK VINA RESULT:      -5.0      2.975      5.828
REMARK  7 active torsions:
REMARK  status: ('A' for Active; 'I' for Inactive)
REMARK    1  A    between atoms: C_2  and  C_3 
REMARK    2  A    between atoms: C_3  and  O_6 
REMARK    3  A    between atoms: C_3  and  C_4 
REMARK    4  A    between atoms: C_7  and  O_6 
REMARK    5  A    between atoms: C_9  and  C_10 
REMARK    6  A    between atoms: N_15  and  C_14 
REMARK    7  A    between atoms: N_20  and  C_19 
REMARK       I    between atoms: C_22  and  N_20 
ROOT
ATOM      1  C   LIG d   1      -1.521  77.767 114.893  0.00  0.00     0.161 C 
ATOM      2  C   LIG d   1      -2.712  77.486 114.203  0.00  0.00     0.016 C 
ATOM      3  C   LIG d   1      -3.338  76.219 114.216  0.00  0.00     0.038 C 
ATOM      4  C   LIG d   1      -2.894  75.181 115.049  0.00  0.00     0.028 C 
ATOM      5  C   LIG d   1      -1.407  75.260 115.375  0.00  0.00    -0.047 C 
ATOM      6  C   LIG d   1      -1.083  76.679 115.896  0.00  0.00     0.091 C 
ENDROOT
BRANCH   1   7
ATOM      7  O   LIG d   1      -1.629  79.043 115.554  0.00  0.00    -0.368 OA
BRANCH   7   8
ATOM      8  C   LIG d   1      -2.891  79.737 115.398  0.00  0.00     0.119 C 
BRANCH   8   9
ATOM      9  C   LIG d   1      -2.579  81.157 114.886  0.00  0.00     0.028 C 
ATOM     10  C   LIG d   1      -2.386  81.201 113.361  0.00  0.00     0.006 C 
ENDBRANCH   8   9
BRANCH   8  11
ATOM     11  C   LIG d   1      -3.588  79.937 116.747  0.00  0.00     0.028 C 
ATOM     12  C   LIG d   1      -3.788  81.419 117.101  0.00  0.00     0.006 C 
ENDBRANCH   8  11
ENDBRANCH   7   8
ENDBRANCH   1   7
BRANCH   6  13
ATOM     13  N   LIG d   1       0.368  76.869 116.159  0.00  0.00    -0.311 N 
ATOM     14  C   LIG d   1       0.934  76.640 117.343  0.00  0.00     0.210 C 
ATOM     15  C   LIG d   1       2.439  76.917 117.404  0.00  0.00     0.109 C 
ATOM     16  O   LIG d   1       0.338  76.203 118.339  0.00  0.00    -0.276 OA
ATOM     17  H   LIG d   1       0.931  77.192 115.397  0.00  0.00     0.149 HD
ENDBRANCH   6  13
BRANCH   5  18
ATOM     18  N   LIG d   1      -1.109  74.202 116.358  0.00  0.00     0.381 N 
ATOM     19  H   LIG d   1      -1.954  73.732 116.617  0.00  0.00    -0.090 HD
ATOM     20  H   LIG d   1      -0.718  74.624 117.182  0.00  0.00    -0.090 HD
ATOM     21  H   LIG d   1      -0.463  73.549 115.971  0.00  0.00    -0.090 HD
ENDBRANCH   5  18
BRANCH   3  22
ATOM     22  C   LIG d   1      -4.399  75.967 113.359  0.00  0.00     0.382 C 
ATOM     23  O   LIG d   1      -4.847  76.885 112.630  0.00  0.00    -0.241 OA
ATOM     24  O   LIG d   1      -4.942  74.847 113.337  0.00  0.00    -0.241 OA
ENDBRANCH   3  22
TORSDOF 7
ENDMDL
MODEL 4
REMARK VINA RESULT:      -4.9      1.931      5.077
REMARK  7 active torsions:
REMARK  status: ('A' for Active; 'I' for Inactive)
REMARK    1  A    between atoms: C_2  and  C_3 
REMARK    2  A    between atoms: C_3  and  O_6 
REMARK    3  A    between atoms: C_3  and  C_4 
REMARK    4  A    between atoms: C_7  and  O_6 
REMARK    5  A    between atoms: C_9  and  C_10 
REMARK    6  A    between atoms: N_15  and  C_14 
REMARK    7  A    between atoms: N_20  and  C_19 
REMARK       I    between atoms: C_22  and  N_20 
ROOT
ATOM      1  C   LIG d   1      -2.068  81.060 114.384  0.00  0.00     0.161 C 
ATOM      2  C   LIG d   1      -2.504  79.928 115.093  0.00  0.00     0.016 C 
ATOM      3  C   LIG d   1      -2.511  78.623 114.548  0.00  0.00     0.038 C 
ATOM      4  C   LIG d   1      -1.936  78.338 113.301  0.00  0.00     0.028 C 
ATOM      5  C   LIG d   1      -1.942  79.526 112.344  0.00  0.00    -0.047 C 
ATOM      6  C   LIG d   1      -1.333  80.752 113.063  0.00  0.00     0.091 C 
ENDROOT
BRANCH   1   7
ATOM      7  O   LIG d   1      -1.244  81.882 115.235  0.00  0.00    -0.368 OA
BRANCH   7   8
ATOM      8  C   LIG d   1      -1.947  82.809 116.099  0.00  0.00     0.119 C 
BRANCH   8   9
ATOM      9  C   LIG d   1      -1.869  84.202 115.443  0.00  0.00     0.028 C 
ATOM     10  C   LIG d   1      -0.498  84.471 114.800  0.00  0.00     0.006 C 
ENDBRANCH   8   9
BRANCH   8  11
ATOM     11  C   LIG d   1      -1.241  82.956 117.450  0.00  0.00     0.028 C 
ATOM     12  C   LIG d   1      -1.909  82.136 118.564  0.00  0.00     0.006 C 
ENDBRANCH   8  11
ENDBRANCH   7   8
ENDBRANCH   1   7
BRANCH   6  13
ATOM     13  N   LIG d   1      -1.379  81.979 112.226  0.00  0.00    -0.311 N 
ATOM     14  C   LIG d   1      -0.359  82.393 111.475  0.00  0.00     0.210 C 
ATOM     15  C   LIG d   1      -0.609  83.694 110.706  0.00  0.00     0.109 C 
ATOM     16  O   LIG d   1       0.716  81.788 111.348  0.00  0.00    -0.276 OA
ATOM     17  H   LIG d   1      -2.225  82.513 112.246  0.00  0.00     0.149 HD
ENDBRANCH   6  13
BRANCH   5  18
ATOM     18  N   LIG d   1      -1.191  79.131 111.138  0.00  0.00     0.381 N 
ATOM     19  H   LIG d   1      -1.660  78.374 110.680  0.00  0.00    -0.090 HD
ATOM     20  H   LIG d   1      -0.278  78.816 111.412  0.00  0.00    -0.090 HD
ATOM     21  H   LIG d   1      -1.111  79.906 110.517  0.00  0.00    -0.090 HD
ENDBRANCH   5  18
BRANCH   3  22
ATOM     22  C   LIG d   1      -3.134  77.594 115.237  0.00  0.00     0.382 C 
ATOM     23  O   LIG d   1      -2.553  76.491 115.376  0.00  0.00    -0.241 OA
ATOM     24  O   LIG d   1      -4.288  77.740 115.682  0.00  0.00    -0.241 OA
ENDBRANCH   3  22
TORSDOF 7
ENDMDL
MODEL 5
REMARK VINA RESULT:      -4.7      2.435      3.452
REMARK  7 active torsions:
REMARK  status: ('A' for Active; 'I' for Inactive)
REMARK    1  A    between atoms: C_2  and  C_3 
REMARK    2  A    between atoms: C_3  and  O_6 
REMARK    3  A    between atoms: C_3  and  C_4 
REMARK    4  A    between atoms: C_7  and  O_6 
REMARK    5  A    between atoms: C_9  and  C_10 
REMARK    6  A    between atoms: N_15  and  C_14 
REMARK    7  A    between atoms: N_20  and  C_19 
REMARK       I    between atoms: C_22  and  N_20 
ROOT
ATOM      1  C   LIG d   1      -1.862  79.886 116.066  0.00  0.00     0.161 C 
ATOM      2  C   LIG d   1      -2.347  80.680 115.014  0.00  0.00     0.016 C 
ATOM      3  C   LIG d   1      -2.497  80.210 113.689  0.00  0.00     0.038 C 
ATOM      4  C   LIG d   1      -2.315  78.859 113.357  0.00  0.00     0.028 C 
ATOM      5  C   LIG d   1      -1.341  78.135 114.279  0.00  0.00    -0.047 C 
ATOM      6  C   LIG d   1      -1.763  78.379 115.746  0.00  0.00     0.091 C 
ENDROOT
BRANCH   1   7
ATOM      7  O   LIG d   1      -2.662  80.096 117.246  0.00  0.00    -0.368 OA
BRANCH   7   8
ATOM      8  C   LIG d   1      -4.098  80.065 117.056  0.00  0.00     0.119 C 
BRANCH   8   9
ATOM      9  C   LIG d   1      -4.699  81.224 117.875  0.00  0.00     0.028 C 
ATOM     10  C   LIG d   1      -6.235  81.247 117.819  0.00  0.00     0.006 C 
ENDBRANCH   8   9
BRANCH   8  11
ATOM     11  C   LIG d   1      -4.711  78.791 117.645  0.00  0.00     0.028 C 
ATOM     12  C   LIG d   1      -3.948  78.277 118.876  0.00  0.00     0.006 C 
ENDBRANCH   8  11
ENDBRANCH   7   8
ENDBRANCH   1   7
BRANCH   6  13
ATOM     13  N   LIG d   1      -0.814  77.775 116.717  0.00  0.00    -0.311 N 
ATOM     14  C   LIG d   1      -0.973  76.560 117.239  0.00  0.00     0.210 C 
ATOM     15  C   LIG d   1       0.110  76.137 118.236  0.00  0.00     0.109 C 
ATOM     16  O   LIG d   1      -1.892  75.780 116.947  0.00  0.00    -0.276 OA
ATOM     17  H   LIG d   1      -0.023  78.327 116.986  0.00  0.00     0.149 HD
ENDBRANCH   6  13
BRANCH   5  18
ATOM     18  N   LIG d   1      -1.350  76.708 113.905  0.00  0.00     0.381 N 
ATOM     19  H   LIG d   1      -0.413  76.392 113.751  0.00  0.00    -0.090 HD
ATOM     20  H   LIG d   1      -1.864  76.599 113.049  0.00  0.00    -0.090 HD
ATOM     21  H   LIG d   1      -1.775  76.169 114.627  0.00  0.00    -0.090 HD
ENDBRANCH   5  18
BRANCH   3  22
ATOM     22  C   LIG d   1      -2.797  81.104 112.672  0.00  0.00     0.382 C 
ATOM     23  O   LIG d   1      -1.873  81.713 112.082  0.00  0.00    -0.241 OA
ATOM     24  O   LIG d   1      -3.981  81.341 112.368  0.00  0.00    -0.241 OA
ENDBRANCH   3  22
TORSDOF 7
ENDMDL
MODEL 6
REMARK VINA RESULT:      -4.7      1.579      1.973
REMARK  7 active torsions:
REMARK  status: ('A' for Active; 'I' for Inactive)
REMARK    1  A    between atoms: C_2  and  C_3 
REMARK    2  A    between atoms: C_3  and  O_6 
REMARK    3  A    between atoms: C_3  and  C_4 
REMARK    4  A    between atoms: C_7  and  O_6 
REMARK    5  A    between atoms: C_9  and  C_10 
REMARK    6  A    between atoms: N_15  and  C_14 
REMARK    7  A    between atoms: N_20  and  C_19 
REMARK       I    between atoms: C_22  and  N_20 
ROOT
ATOM      1  C   LIG d   1      -2.782  80.191 115.780  0.00  0.00     0.161 C 
ATOM      2  C   LIG d   1      -2.507  81.569 115.795  0.00  0.00     0.016 C 
ATOM      3  C   LIG d   1      -1.778  82.228 114.779  0.00  0.00     0.038 C 
ATOM      4  C   LIG d   1      -1.403  81.576 113.594  0.00  0.00     0.028 C 
ATOM      5  C   LIG d   1      -1.218  80.072 113.763  0.00  0.00    -0.047 C 
ATOM      6  C   LIG d   1      -2.476  79.485 114.443  0.00  0.00     0.091 C 
ENDROOT
BRANCH   1   7
ATOM      7  O   LIG d   1      -4.151  79.962 116.166  0.00  0.00    -0.368 OA
BRANCH   7   8
ATOM      8  C   LIG d   1      -4.352  79.178 117.368  0.00  0.00     0.119 C 
BRANCH   8   9
ATOM      9  C   LIG d   1      -5.178  77.936 116.978  0.00  0.00     0.028 C 
ATOM     10  C   LIG d   1      -6.672  78.100 117.301  0.00  0.00     0.006 C 
ENDBRANCH   8   9
BRANCH   8  11
ATOM     11  C   LIG d   1      -5.211  79.931 118.388  0.00  0.00     0.028 C 
ATOM     12  C   LIG d   1      -4.558  81.238 118.866  0.00  0.00     0.006 C 
ENDBRANCH   8  11
ENDBRANCH   7   8
ENDBRANCH   1   7
BRANCH   6  13
ATOM     13  N   LIG d   1      -2.344  78.031 114.721  0.00  0.00    -0.311 N 
ATOM     14  C   LIG d   1      -2.969  77.090 114.016  0.00  0.00     0.210 C 
ATOM     15  C   LIG d   1      -2.711  75.654 114.483  0.00  0.00     0.109 C 
ATOM     16  O   LIG d   1      -3.687  77.306 113.028  0.00  0.00    -0.276 OA
ATOM     17  H   LIG d   1      -1.756  77.765 115.486  0.00  0.00     0.149 HD
ENDBRANCH   6  13
BRANCH   5  18
ATOM     18  N   LIG d   1      -0.964  79.502 112.426  0.00  0.00     0.381 N 
ATOM     19  H   LIG d   1      -1.040  80.218 111.732  0.00  0.00    -0.090 HD
ATOM     20  H   LIG d   1      -1.659  78.801 112.234  0.00  0.00    -0.090 HD
ATOM     21  H   LIG d   1      -0.055  79.095 112.396  0.00  0.00    -0.090 HD
ENDBRANCH   5  18
BRANCH   3  22
ATOM     22  C   LIG d   1      -1.383  83.545 114.960  0.00  0.00     0.382 C 
ATOM     23  O   LIG d   1      -0.166  83.845 114.918  0.00  0.00    -0.241 OA
ATOM     24  O   LIG d   1      -2.225  84.428 115.208  0.00  0.00    -0.241 OA
ENDBRANCH   3  22
TORSDOF 7
ENDMDL
MODEL 7
REMARK VINA RESULT:      -4.6      2.047      4.940
REMARK  7 active torsions:
REMARK  status: ('A' for Active; 'I' for Inactive)
REMARK    1  A    between atoms: C_2  and  C_3 
REMARK    2  A    between atoms: C_3  and  O_6 
REMARK    3  A    between atoms: C_3  and  C_4 
REMARK    4  A    between atoms: C_7  and  O_6 
REMARK    5  A    between atoms: C_9  and  C_10 
REMARK    6  A    between atoms: N_15  and  C_14 
REMARK    7  A    between atoms: N_20  and  C_19 
REMARK       I    between atoms: C_22  and  N_20 
ROOT
ATOM      1  C   LIG d   1      -2.241  81.287 114.164  0.00  0.00     0.161 C 
ATOM      2  C   LIG d   1      -2.664  80.199 114.945  0.00  0.00     0.016 C 
ATOM      3  C   LIG d   1      -2.552  78.852 114.528  0.00  0.00     0.038 C 
ATOM      4  C   LIG d   1      -1.867  78.492 113.358  0.00  0.00     0.028 C 
ATOM      5  C   LIG d   1      -1.869  79.585 112.295  0.00  0.00    -0.047 C 
ATOM      6  C   LIG d   1      -1.390  80.908 112.934  0.00  0.00     0.091 C 
ENDROOT
BRANCH   1   7
ATOM      7  O   LIG d   1      -1.534  82.235 114.989  0.00  0.00    -0.368 OA
BRANCH   7   8
ATOM      8  C   LIG d   1      -1.054  81.738 116.262  0.00  0.00     0.119 C 
BRANCH   8   9
ATOM      9  C   LIG d   1      -1.460  82.761 117.341  0.00  0.00     0.028 C 
ATOM     10  C   LIG d   1      -1.955  82.088 118.632  0.00  0.00     0.006 C 
ENDBRANCH   8   9
BRANCH   8  11
ATOM     11  C   LIG d   1       0.476  81.693 116.301  0.00  0.00     0.028 C 
ATOM     12  C   LIG d   1       1.106  83.066 116.584  0.00  0.00     0.006 C 
ENDBRANCH   8  11
ENDBRANCH   7   8
ENDBRANCH   1   7
BRANCH   6  13
ATOM     13  N   LIG d   1      -1.442  82.049 111.982  0.00  0.00    -0.311 N 
ATOM     14  C   LIG d   1      -0.385  82.802 111.682  0.00  0.00     0.210 C 
ATOM     15  C   LIG d   1      -0.661  83.939 110.693  0.00  0.00     0.109 C 
ATOM     16  O   LIG d   1       0.762  82.617 112.116  0.00  0.00    -0.276 OA
ATOM     17  H   LIG d   1      -2.327  82.250 111.559  0.00  0.00     0.149 HD
ENDBRANCH   6  13
BRANCH   5  18
ATOM     18  N   LIG d   1      -1.006  79.131 111.188  0.00  0.00     0.381 N 
ATOM     19  H   LIG d   1      -0.215  78.640 111.555  0.00  0.00    -0.090 HD
ATOM     20  H   LIG d   1      -0.673  79.935 110.685  0.00  0.00    -0.090 HD
ATOM     21  H   LIG d   1      -1.520  78.536 110.576  0.00  0.00    -0.090 HD
ENDBRANCH   5  18
BRANCH   3  22
ATOM     22  C   LIG d   1      -3.166  77.852 115.267  0.00  0.00     0.382 C 
ATOM     23  O   LIG d   1      -2.718  77.543 116.397  0.00  0.00    -0.241 OA
ATOM     24  O   LIG d   1      -4.134  77.224 114.798  0.00  0.00    -0.241 OA
ENDBRANCH   3  22
TORSDOF 7
ENDMDL
MODEL 8
REMARK VINA RESULT:      -4.5      3.767      5.886
REMARK  7 active torsions:
REMARK  status: ('A' for Active; 'I' for Inactive)
REMARK    1  A    between atoms: C_2  and  C_3 
REMARK    2  A    between atoms: C_3  and  O_6 
REMARK    3  A    between atoms: C_3  and  C_4 
REMARK    4  A    between atoms: C_7  and  O_6 
REMARK    5  A    between atoms: C_9  and  C_10 
REMARK    6  A    between atoms: N_15  and  C_14 
REMARK    7  A    between atoms: N_20  and  C_19 
REMARK       I    between atoms: C_22  and  N_20 
ROOT
ATOM      1  C   LIG d   1      -3.121  78.284 115.905  0.00  0.00     0.161 C 
ATOM      2  C   LIG d   1      -4.096  77.350 115.518  0.00  0.00     0.016 C 
ATOM      3  C   LIG d   1      -3.788  76.081 114.978  0.00  0.00     0.038 C 
ATOM      4  C   LIG d   1      -2.472  75.596 114.928  0.00  0.00     0.028 C 
ATOM      5  C   LIG d   1      -1.423  76.699 114.839  0.00  0.00    -0.047 C 
ATOM      6  C   LIG d   1      -1.682  77.729 115.962  0.00  0.00     0.091 C 
ENDROOT
BRANCH   1   7
ATOM      7  O   LIG d   1      -3.482  78.871 117.171  0.00  0.00    -0.368 OA
BRANCH   7   8
ATOM      8  C   LIG d   1      -4.180  80.139 117.109  0.00  0.00     0.119 C 
BRANCH   8   9
ATOM      9  C   LIG d   1      -3.217  81.224 117.628  0.00  0.00     0.028 C 
ATOM     10  C   LIG d   1      -2.691  82.130 116.502  0.00  0.00     0.006 C 
ENDBRANCH   8   9
BRANCH   8  11
ATOM     11  C   LIG d   1      -5.375  80.165 118.067  0.00  0.00     0.028 C 
ATOM     12  C   LIG d   1      -6.359  81.305 117.761  0.00  0.00     0.006 C 
ENDBRANCH   8  11
ENDBRANCH   7   8
ENDBRANCH   1   7
BRANCH   6  13
ATOM     13  N   LIG d   1      -0.751  78.886 115.896  0.00  0.00    -0.311 N 
ATOM     14  C   LIG d   1      -0.130  79.390 116.961  0.00  0.00     0.210 C 
ATOM     15  C   LIG d   1       0.771  80.595 116.674  0.00  0.00     0.109 C 
ATOM     16  O   LIG d   1      -0.214  78.932 118.110  0.00  0.00    -0.276 OA
ATOM     17  H   LIG d   1      -0.600  79.299 114.996  0.00  0.00     0.149 HD
ENDBRANCH   6  13
BRANCH   5  18
ATOM     18  N   LIG d   1      -0.096  76.061 114.934  0.00  0.00     0.381 N 
ATOM     19  H   LIG d   1       0.513  76.627 115.491  0.00  0.00    -0.090 HD
ATOM     20  H   LIG d   1       0.296  75.988 114.012  0.00  0.00    -0.090 HD
ATOM     21  H   LIG d   1      -0.182  75.155 115.340  0.00  0.00    -0.090 HD
ENDBRANCH   5  18
BRANCH   3  22
ATOM     22  C   LIG d   1      -4.799  75.297 114.443  0.00  0.00     0.382 C 
ATOM     23  O   LIG d   1      -4.745  74.938 113.242  0.00  0.00    -0.241 OA
ATOM     24  O   LIG d   1      -5.786  74.982 115.133  0.00  0.00    -0.241 OA
ENDBRANCH   3  22
TORSDOF 7
ENDMDL
MODEL 9
REMARK VINA RESULT:      -4.4      2.754      5.520
REMARK  7 active torsions:
REMARK  status: ('A' for Active; 'I' for Inactive)
REMARK    1  A    between atoms: C_2  and  C_3 
REMARK    2  A    between atoms: C_3  and  O_6 
REMARK    3  A    between atoms: C_3  and  C_4 
REMARK    4  A    between atoms: C_7  and  O_6 
REMARK    5  A    between atoms: C_9  and  C_10 
REMARK    6  A    between atoms: N_15  and  C_14 
REMARK    7  A    between atoms: N_20  and  C_19 
REMARK       I    between atoms: C_22  and  N_20 
ROOT
ATOM      1  C   LIG d   1      -1.328  78.087 114.676  0.00  0.00     0.161 C 
ATOM      2  C   LIG d   1      -1.842  77.800 115.951  0.00  0.00     0.016 C 
ATOM      3  C   LIG d   1      -2.460  78.767 116.777  0.00  0.00     0.038 C 
ATOM      4  C   LIG d   1      -2.742  80.062 116.318  0.00  0.00     0.028 C 
ATOM      5  C   LIG d   1      -1.790  80.539 115.226  0.00  0.00    -0.047 C 
ATOM      6  C   LIG d   1      -1.727  79.468 114.114  0.00  0.00     0.091 C 
ENDROOT
BRANCH   1   7
ATOM      7  O   LIG d   1      -1.701  77.044 113.753  0.00  0.00    -0.368 OA
BRANCH   7   8
ATOM      8  C   LIG d   1      -1.829  75.714 114.312  0.00  0.00     0.119 C 
BRANCH   8   9
ATOM      9  C   LIG d   1      -0.760  74.826 113.646  0.00  0.00     0.028 C 
ATOM     10  C   LIG d   1       0.454  74.583 114.559  0.00  0.00     0.006 C 
ENDBRANCH   8   9
BRANCH   8  11
ATOM     11  C   LIG d   1      -3.172  75.079 113.939  0.00  0.00     0.028 C 
ATOM     12  C   LIG d   1      -4.288  76.118 113.744  0.00  0.00     0.006 C 
ENDBRANCH   8  11
ENDBRANCH   7   8
ENDBRANCH   1   7
BRANCH   6  13
ATOM     13  N   LIG d   1      -0.753  79.816 113.046  0.00  0.00    -0.311 N 
ATOM     14  C   LIG d   1      -0.979  79.605 111.751  0.00  0.00     0.210 C 
ATOM     15  C   LIG d   1       0.164  80.020 110.819  0.00  0.00     0.109 C 
ATOM     16  O   LIG d   1      -2.031  79.144 111.282  0.00  0.00    -0.276 OA
ATOM     17  H   LIG d   1       0.114  80.224 113.335  0.00  0.00     0.149 HD
ENDBRANCH   6  13
BRANCH   5  18
ATOM     18  N   LIG d   1      -2.282  81.844 114.745  0.00  0.00     0.381 N 
ATOM     19  H   LIG d   1      -1.972  81.997 113.806  0.00  0.00    -0.090 HD
ATOM     20  H   LIG d   1      -1.900  82.569 115.326  0.00  0.00    -0.090 HD
ATOM     21  H   LIG d   1      -3.277  81.868 114.782  0.00  0.00    -0.090 HD
ENDBRANCH   5  18
BRANCH   3  22
ATOM     22  C   LIG d   1      -2.766  78.453 118.093  0.00  0.00     0.382 C 
ATOM     23  O   LIG d   1      -2.568  77.291 118.522  0.00  0.00    -0.241 OA
ATOM     24  O   LIG d   1      -3.278  79.305 118.843  0.00  0.00    -0.241 OA
ENDBRANCH   3  22
TORSDOF 7
ENDMDL
