MODEL 1
REMARK VINA RESULT:      -5.3      0.000      0.000
REMARK  7 active torsions:
REMARK  status: ('A' for Active; 'I' for Inactive)
REMARK    1  A    between atoms: C_2  and  C_3 
REMARK    2  A    between atoms: C_3  and  O_6 
REMARK    3  A    between atoms: C_3  and  C_4 
REMARK    4  A    between atoms: C_7  and  O_6 
REMARK    5  A    between atoms: C_9  and  C_10 
REMARK    6  A    between atoms: N_15  and  C_14 
REMARK    7  A    between atoms: N_20  and  C_19 
REMARK       I    between atoms: C_22  and  N_20 
ROOT
ATOM      1  C   LIG d   1      -2.979  78.555 115.322  0.00  0.00     0.161 C 
ATOM      2  C   LIG d   1      -3.264  79.762 114.662  0.00  0.00     0.016 C 
ATOM      3  C   LIG d   1      -2.954  79.998 113.303  0.00  0.00     0.038 C 
ATOM      4  C   LIG d   1      -2.472  78.981 112.465  0.00  0.00     0.028 C 
ATOM      5  C   LIG d   1      -1.699  77.898 113.210  0.00  0.00    -0.047 C 
ATOM      6  C   LIG d   1      -2.555  77.396 114.396  0.00  0.00     0.091 C 
ENDROOT
BRANCH   1   7
ATOM      7  O   LIG d   1      -4.106  78.163 116.132  0.00  0.00    -0.368 OA
BRANCH   7   8
ATOM      8  C   LIG d   1      -4.155  78.720 117.468  0.00  0.00     0.119 C 
BRANCH   8   9
ATOM      9  C   LIG d   1      -4.138  77.542 118.461  0.00  0.00     0.028 C 
ATOM     10  C   LIG d   1      -5.199  76.479 118.129  0.00  0.00     0.006 C 
ENDBRANCH   8   9
BRANCH   8  11
ATOM     11  C   LIG d   1      -5.480  79.445 117.722  0.00  0.00     0.028 C 
ATOM     12  C   LIG d   1      -5.339  80.975 117.677  0.00  0.00     0.006 C 
ENDBRANCH   8  11
ENDBRANCH   7   8
ENDBRANCH   1   7
BRANCH   6  13
ATOM     13  N   LIG d   1      -1.839  76.394 115.228  0.00  0.00    -0.311 N 
ATOM     14  C   LIG d   1      -2.400  75.268 115.664  0.00  0.00     0.210 C 
ATOM     15  C   LIG d   1      -1.491  74.384 116.524  0.00  0.00     0.109 C 
ATOM     16  O   LIG d   1      -3.553  74.901 115.393  0.00  0.00    -0.276 OA
ATOM     17  H   LIG d   1      -0.889  76.597 115.469  0.00  0.00     0.149 HD
ENDBRANCH   6  13
BRANCH   5  18
ATOM     18  N   LIG d   1      -1.375  76.835 112.241  0.00  0.00     0.381 N 
ATOM     19  H   LIG d   1      -0.485  76.434 112.462  0.00  0.00    -0.090 HD
ATOM     20  H   LIG d   1      -1.319  77.239 111.322  0.00  0.00    -0.090 HD
ATOM     21  H   LIG d   1      -2.079  76.130 112.259  0.00  0.00    -0.090 HD
ENDBRANCH   5  18
BRANCH   3  22
ATOM     22  C   LIG d   1      -3.090  81.274 112.779  0.00  0.00     0.382 C 
ATOM     23  O   LIG d   1      -2.165  81.771 112.092  0.00  0.00    -0.241 OA
ATOM     24  O   LIG d   1      -4.106  81.952 113.021  0.00  0.00    -0.241 OA
ENDBRANCH   3  22
TORSDOF 7
ENDMDL
MODEL 2
REMARK VINA RESULT:      -5.2      0.851      1.488
REMARK  7 active torsions:
REMARK  status: ('A' for Active; 'I' for Inactive)
REMARK    1  A    between atoms: C_2  and  C_3 
REMARK    2  A    between atoms: C_3  and  O_6 
REMARK    3  A    between atoms: C_3  and  C_4 
REMARK    4  A    between atoms: C_7  and  O_6 
REMARK    5  A    between atoms: C_9  and  C_10 
REMARK    6  A    between atoms: N_15  and  C_14 
REMARK    7  A    between atoms: N_20  and  C_19 
REMARK       I    between atoms: C_22  and  N_20 
ROOT
ATOM      1  C   LIG d   1      -2.682  78.729 115.478  0.00  0.00     0.161 C 
ATOM      2  C   LIG d   1      -3.040  79.899 114.787  0.00  0.00     0.016 C 
ATOM      3  C   LIG d   1      -2.891  80.054 113.390  0.00  0.00     0.038 C 
ATOM      4  C   LIG d   1      -2.510  78.988 112.562  0.00  0.00     0.028 C 
ATOM      5  C   LIG d   1      -1.657  77.943 113.273  0.00  0.00    -0.047 C 
ATOM      6  C   LIG d   1      -2.369  77.516 114.577  0.00  0.00     0.091 C 
ENDROOT
BRANCH   1   7
ATOM      7  O   LIG d   1      -3.706  78.392 116.433  0.00  0.00    -0.368 OA
BRANCH   7   8
ATOM      8  C   LIG d   1      -4.319  79.505 117.130  0.00  0.00     0.119 C 
BRANCH   8   9
ATOM      9  C   LIG d   1      -3.505  79.753 118.414  0.00  0.00     0.028 C 
ATOM     10  C   LIG d   1      -3.654  81.192 118.936  0.00  0.00     0.006 C 
ENDBRANCH   8   9
BRANCH   8  11
ATOM     11  C   LIG d   1      -5.732  79.155 117.606  0.00  0.00     0.028 C 
ATOM     12  C   LIG d   1      -6.163  77.737 117.200  0.00  0.00     0.006 C 
ENDBRANCH   8  11
ENDBRANCH   7   8
ENDBRANCH   1   7
BRANCH   6  13
ATOM     13  N   LIG d   1      -1.562  76.558 115.376  0.00  0.00    -0.311 N 
ATOM     14  C   LIG d   1      -2.007  75.362 115.755  0.00  0.00     0.210 C 
ATOM     15  C   LIG d   1      -1.021  74.539 116.591  0.00  0.00     0.109 C 
ATOM     16  O   LIG d   1      -3.113  74.890 115.452  0.00  0.00    -0.276 OA
ATOM     17  H   LIG d   1      -0.640  76.847 115.639  0.00  0.00     0.149 HD
ENDBRANCH   6  13
BRANCH   5  18
ATOM     18  N   LIG d   1      -1.448  76.824 112.335  0.00  0.00     0.381 N 
ATOM     19  H   LIG d   1      -2.023  76.049 112.599  0.00  0.00    -0.090 HD
ATOM     20  H   LIG d   1      -0.487  76.535 112.383  0.00  0.00    -0.090 HD
ATOM     21  H   LIG d   1      -1.670  77.111 111.407  0.00  0.00    -0.090 HD
ENDBRANCH   5  18
BRANCH   3  22
ATOM     22  C   LIG d   1      -3.085  81.300 112.812  0.00  0.00     0.382 C 
ATOM     23  O   LIG d   1      -2.198  81.795 112.076  0.00  0.00    -0.241 OA
ATOM     24  O   LIG d   1      -4.117  81.954 113.054  0.00  0.00    -0.241 OA
ENDBRANCH   3  22
TORSDOF 7
ENDMDL
MODEL 3
REMARK VINA RESULT:      -4.9      2.750      5.278
REMARK  7 active torsions:
REMARK  status: ('A' for Active; 'I' for Inactive)
REMARK    1  A    between atoms: C_2  and  C_3 
REMARK    2  A    between atoms: C_3  and  O_6 
REMARK    3  A    between atoms: C_3  and  C_4 
REMARK    4  A    between atoms: C_7  and  O_6 
REMARK    5  A    between atoms: C_9  and  C_10 
REMARK    6  A    between atoms: N_15  and  C_14 
REMARK    7  A    between atoms: N_20  and  C_19 
REMARK       I    between atoms: C_22  and  N_20 
ROOT
ATOM      1  C   LIG d   1      -2.459  79.710 114.441  0.00  0.00     0.161 C 
ATOM      2  C   LIG d   1      -2.962  78.494 114.931  0.00  0.00     0.016 C 
ATOM      3  C   LIG d   1      -3.132  77.341 114.130  0.00  0.00     0.038 C 
ATOM      4  C   LIG d   1      -2.664  77.282 112.808  0.00  0.00     0.028 C 
ATOM      5  C   LIG d   1      -2.610  78.644 112.123  0.00  0.00    -0.047 C 
ATOM      6  C   LIG d   1      -1.840  79.631 113.029  0.00  0.00     0.091 C 
ENDROOT
BRANCH   1   7
ATOM      7  O   LIG d   1      -1.508  80.258 115.375  0.00  0.00    -0.368 OA
BRANCH   7   8
ATOM      8  C   LIG d   1      -1.364  79.546 116.629  0.00  0.00     0.119 C 
BRANCH   8   9
ATOM      9  C   LIG d   1      -1.620  80.554 117.766  0.00  0.00     0.028 C 
ATOM     10  C   LIG d   1      -0.361  81.359 118.131  0.00  0.00     0.006 C 
ENDBRANCH   8   9
BRANCH   8  11
ATOM     11  C   LIG d   1       0.075  79.062 116.832  0.00  0.00     0.028 C 
ATOM     12  C   LIG d   1       0.188  77.529 116.871  0.00  0.00     0.006 C 
ENDBRANCH   8  11
ENDBRANCH   7   8
ENDBRANCH   1   7
BRANCH   6  13
ATOM     13  N   LIG d   1      -1.814  81.009 112.473  0.00  0.00    -0.311 N 
ATOM     14  C   LIG d   1      -0.690  81.691 112.256  0.00  0.00     0.210 C 
ATOM     15  C   LIG d   1      -0.888  83.103 111.695  0.00  0.00     0.109 C 
ATOM     16  O   LIG d   1       0.453  81.248 112.444  0.00  0.00    -0.276 OA
ATOM     17  H   LIG d   1      -2.696  81.433 112.262  0.00  0.00     0.149 HD
ENDBRANCH   6  13
BRANCH   5  18
ATOM     18  N   LIG d   1      -1.977  78.455 110.805  0.00  0.00     0.381 N 
ATOM     19  H   LIG d   1      -0.984  78.391 110.912  0.00  0.00    -0.090 HD
ATOM     20  H   LIG d   1      -2.182  79.252 110.228  0.00  0.00    -0.090 HD
ATOM     21  H   LIG d   1      -2.326  77.627 110.375  0.00  0.00    -0.090 HD
ENDBRANCH   5  18
BRANCH   3  22
ATOM     22  C   LIG d   1      -3.811  76.245 114.637  0.00  0.00     0.382 C 
ATOM     23  O   LIG d   1      -3.213  75.420 115.370  0.00  0.00    -0.241 OA
ATOM     24  O   LIG d   1      -5.003  76.046 114.337  0.00  0.00    -0.241 OA
ENDBRANCH   3  22
TORSDOF 7
ENDMDL
MODEL 4
REMARK VINA RESULT:      -4.7      3.061      6.097
REMARK  7 active torsions:
REMARK  status: ('A' for Active; 'I' for Inactive)
REMARK    1  A    between atoms: C_2  and  C_3 
REMARK    2  A    between atoms: C_3  and  O_6 
REMARK    3  A    between atoms: C_3  and  C_4 
REMARK    4  A    between atoms: C_7  and  O_6 
REMARK    5  A    between atoms: C_9  and  C_10 
REMARK    6  A    between atoms: N_15  and  C_14 
REMARK    7  A    between atoms: N_20  and  C_19 
REMARK       I    between atoms: C_22  and  N_20 
ROOT
ATOM      1  C   LIG d   1      -4.483  78.357 116.735  0.00  0.00     0.161 C 
ATOM      2  C   LIG d   1      -4.220  77.171 116.031  0.00  0.00     0.016 C 
ATOM      3  C   LIG d   1      -5.144  76.106 115.927  0.00  0.00     0.038 C 
ATOM      4  C   LIG d   1      -6.461  76.219 116.397  0.00  0.00     0.028 C 
ATOM      5  C   LIG d   1      -6.609  77.201 117.555  0.00  0.00    -0.047 C 
ATOM      6  C   LIG d   1      -5.955  78.545 117.160  0.00  0.00     0.091 C 
ENDROOT
BRANCH   1   7
ATOM      7  O   LIG d   1      -4.036  79.491 115.966  0.00  0.00    -0.368 OA
BRANCH   7   8
ATOM      8  C   LIG d   1      -2.894  79.266 115.103  0.00  0.00     0.119 C 
BRANCH   8   9
ATOM      9  C   LIG d   1      -1.644  79.779 115.845  0.00  0.00     0.028 C 
ATOM     10  C   LIG d   1      -0.784  78.635 116.407  0.00  0.00     0.006 C 
ENDBRANCH   8   9
BRANCH   8  11
ATOM     11  C   LIG d   1      -2.984  80.109 113.828  0.00  0.00     0.028 C 
ATOM     12  C   LIG d   1      -1.612  80.364 113.184  0.00  0.00     0.006 C 
ENDBRANCH   8  11
ENDBRANCH   7   8
ENDBRANCH   1   7
BRANCH   6  13
ATOM     13  N   LIG d   1      -5.980  79.535 118.268  0.00  0.00    -0.311 N 
ATOM     14  C   LIG d   1      -6.610  80.706 118.190  0.00  0.00     0.210 C 
ATOM     15  C   LIG d   1      -6.495  81.586 119.439  0.00  0.00     0.109 C 
ATOM     16  O   LIG d   1      -7.280  81.085 117.218  0.00  0.00    -0.276 OA
ATOM     17  H   LIG d   1      -5.488  79.295 119.106  0.00  0.00     0.149 HD
ENDBRANCH   6  13
BRANCH   5  18
ATOM     18  N   LIG d   1      -8.048  77.324 117.854  0.00  0.00     0.381 N 
ATOM     19  H   LIG d   1      -8.290  76.717 118.611  0.00  0.00    -0.090 HD
ATOM     20  H   LIG d   1      -8.573  77.044 117.044  0.00  0.00    -0.090 HD
ATOM     21  H   LIG d   1      -8.268  78.267 118.091  0.00  0.00    -0.090 HD
ENDBRANCH   5  18
BRANCH   3  22
ATOM     22  C   LIG d   1      -4.741  74.896 115.383  0.00  0.00     0.382 C 
ATOM     23  O   LIG d   1      -3.611  74.429 115.662  0.00  0.00    -0.241 OA
ATOM     24  O   LIG d   1      -5.475  74.288 114.581  0.00  0.00    -0.241 OA
ENDBRANCH   3  22
TORSDOF 7
ENDMDL
MODEL 5
REMARK VINA RESULT:      -4.7      2.366      3.133
REMARK  7 active torsions:
REMARK  status: ('A' for Active; 'I' for Inactive)
REMARK    1  A    between atoms: C_2  and  C_3 
REMARK    2  A    between atoms: C_3  and  O_6 
REMARK    3  A    between atoms: C_3  and  C_4 
REMARK    4  A    between atoms: C_7  and  O_6 
REMARK    5  A    between atoms: C_9  and  C_10 
REMARK    6  A    between atoms: N_15  and  C_14 
REMARK    7  A    between atoms: N_20  and  C_19 
REMARK       I    between atoms: C_22  and  N_20 
ROOT
ATOM      1  C   LIG d   1      -3.142  76.760 115.398  0.00  0.00     0.161 C 
ATOM      2  C   LIG d   1      -3.343  77.580 114.275  0.00  0.00     0.016 C 
ATOM      3  C   LIG d   1      -2.395  78.527 113.824  0.00  0.00     0.038 C 
ATOM      4  C   LIG d   1      -1.110  78.613 114.380  0.00  0.00     0.028 C 
ATOM      5  C   LIG d   1      -1.047  78.157 115.834  0.00  0.00    -0.047 C 
ATOM      6  C   LIG d   1      -1.701  76.762 115.951  0.00  0.00     0.091 C 
ENDROOT
BRANCH   1   7
ATOM      7  O   LIG d   1      -3.564  75.414 115.102  0.00  0.00    -0.368 OA
BRANCH   7   8
ATOM      8  C   LIG d   1      -4.640  74.889 115.918  0.00  0.00     0.119 C 
BRANCH   8   9
ATOM      9  C   LIG d   1      -5.704  74.312 114.964  0.00  0.00     0.028 C 
ATOM     10  C   LIG d   1      -6.706  75.378 114.488  0.00  0.00     0.006 C 
ENDBRANCH   8   9
BRANCH   8  11
ATOM     11  C   LIG d   1      -5.350  76.006 116.689  0.00  0.00     0.028 C 
ATOM     12  C   LIG d   1      -5.249  75.835 118.213  0.00  0.00     0.006 C 
ENDBRANCH   8  11
ENDBRANCH   7   8
ENDBRANCH   1   7
BRANCH   6  13
ATOM     13  N   LIG d   1      -1.757  76.278 117.355  0.00  0.00    -0.311 N 
ATOM     14  C   LIG d   1      -1.317  75.080 117.736  0.00  0.00     0.210 C 
ATOM     15  C   LIG d   1      -1.487  74.772 119.227  0.00  0.00     0.109 C 
ATOM     16  O   LIG d   1      -0.772  74.256 116.986  0.00  0.00    -0.276 OA
ATOM     17  H   LIG d   1      -2.156  76.895 118.035  0.00  0.00     0.149 HD
ENDBRANCH   6  13
BRANCH   5  18
ATOM     18  N   LIG d   1       0.370  78.168 116.244  0.00  0.00     0.381 N 
ATOM     19  H   LIG d   1       0.713  79.108 116.251  0.00  0.00    -0.090 HD
ATOM     20  H   LIG d   1       0.905  77.643 115.576  0.00  0.00    -0.090 HD
ATOM     21  H   LIG d   1       0.466  77.764 117.149  0.00  0.00    -0.090 HD
ENDBRANCH   5  18
BRANCH   3  22
ATOM     22  C   LIG d   1      -2.745  79.429 112.831  0.00  0.00     0.382 C 
ATOM     23  O   LIG d   1      -2.091  79.468 111.761  0.00  0.00    -0.241 OA
ATOM     24  O   LIG d   1      -3.678  80.235 113.009  0.00  0.00    -0.241 OA
ENDBRANCH   3  22
TORSDOF 7
ENDMDL
MODEL 6
REMARK VINA RESULT:      -4.7      3.608      6.257
REMARK  7 active torsions:
REMARK  status: ('A' for Active; 'I' for Inactive)
REMARK    1  A    between atoms: C_2  and  C_3 
REMARK    2  A    between atoms: C_3  and  O_6 
REMARK    3  A    between atoms: C_3  and  C_4 
REMARK    4  A    between atoms: C_7  and  O_6 
REMARK    5  A    between atoms: C_9  and  C_10 
REMARK    6  A    between atoms: N_15  and  C_14 
REMARK    7  A    between atoms: N_20  and  C_19 
REMARK       I    between atoms: C_22  and  N_20 
ROOT
ATOM      1  C   LIG d   1      -0.268  80.386 113.428  0.00  0.00     0.161 C 
ATOM      2  C   LIG d   1      -1.187  79.798 112.543  0.00  0.00     0.016 C 
ATOM      3  C   LIG d   1      -2.177  78.874 112.948  0.00  0.00     0.038 C 
ATOM      4  C   LIG d   1      -2.414  78.587 114.301  0.00  0.00     0.028 C 
ATOM      5  C   LIG d   1      -1.183  78.770 115.183  0.00  0.00    -0.047 C 
ATOM      6  C   LIG d   1      -0.583  80.170 114.924  0.00  0.00     0.091 C 
ENDROOT
BRANCH   1   7
ATOM      7  O   LIG d   1      -0.143  81.793 113.141  0.00  0.00    -0.368 OA
BRANCH   7   8
ATOM      8  C   LIG d   1      -0.291  82.174 111.751  0.00  0.00     0.119 C 
BRANCH   8   9
ATOM      9  C   LIG d   1       1.116  82.485 111.204  0.00  0.00     0.028 C 
ATOM     10  C   LIG d   1       1.721  81.300 110.432  0.00  0.00     0.006 C 
ENDBRANCH   8   9
BRANCH   8  11
ATOM     11  C   LIG d   1      -1.077  83.481 111.613  0.00  0.00     0.028 C 
ATOM     12  C   LIG d   1      -0.823  84.191 110.273  0.00  0.00     0.006 C 
ENDBRANCH   8  11
ENDBRANCH   7   8
ENDBRANCH   1   7
BRANCH   6  13
ATOM     13  N   LIG d   1       0.673  80.398 115.685  0.00  0.00    -0.311 N 
ATOM     14  C   LIG d   1       0.704  80.936 116.903  0.00  0.00     0.210 C 
ATOM     15  C   LIG d   1       2.105  81.101 117.501  0.00  0.00     0.109 C 
ATOM     16  O   LIG d   1      -0.297  81.261 117.559  0.00  0.00    -0.276 OA
ATOM     17  H   LIG d   1       1.530  80.134 115.240  0.00  0.00     0.149 HD
ENDBRANCH   6  13
BRANCH   5  18
ATOM     18  N   LIG d   1      -1.606  78.572 116.583  0.00  0.00     0.381 N 
ATOM     19  H   LIG d   1      -1.029  77.878 117.016  0.00  0.00    -0.090 HD
ATOM     20  H   LIG d   1      -2.555  78.244 116.593  0.00  0.00    -0.090 HD
ATOM     21  H   LIG d   1      -1.538  79.430 117.084  0.00  0.00    -0.090 HD
ENDBRANCH   5  18
BRANCH   3  22
ATOM     22  C   LIG d   1      -2.916  78.195 111.992  0.00  0.00     0.382 C 
ATOM     23  O   LIG d   1      -2.573  78.241 110.785  0.00  0.00    -0.241 OA
ATOM     24  O   LIG d   1      -3.946  77.573 112.313  0.00  0.00    -0.241 OA
ENDBRANCH   3  22
TORSDOF 7
ENDMDL
MODEL 7
REMARK VINA RESULT:      -4.7      2.767      5.791
REMARK  7 active torsions:
REMARK  status: ('A' for Active; 'I' for Inactive)
REMARK    1  A    between atoms: C_2  and  C_3 
REMARK    2  A    between atoms: C_3  and  O_6 
REMARK    3  A    between atoms: C_3  and  C_4 
REMARK    4  A    between atoms: C_7  and  O_6 
REMARK    5  A    between atoms: C_9  and  C_10 
REMARK    6  A    between atoms: N_15  and  C_14 
REMARK    7  A    between atoms: N_20  and  C_19 
REMARK       I    between atoms: C_22  and  N_20 
ROOT
ATOM      1  C   LIG d   1      -1.476  74.949 115.736  0.00  0.00     0.161 C 
ATOM      2  C   LIG d   1      -1.061  74.559 117.020  0.00  0.00     0.016 C 
ATOM      3  C   LIG d   1      -0.365  75.414 117.906  0.00  0.00     0.038 C 
ATOM      4  C   LIG d   1      -0.168  76.773 117.623  0.00  0.00     0.028 C 
ATOM      5  C   LIG d   1      -0.123  77.081 116.130  0.00  0.00    -0.047 C 
ATOM      6  C   LIG d   1      -1.367  76.462 115.452  0.00  0.00     0.091 C 
ENDROOT
BRANCH   1   7
ATOM      7  O   LIG d   1      -2.821  74.490 115.496  0.00  0.00    -0.368 OA
BRANCH   7   8
ATOM      8  C   LIG d   1      -3.883  75.359 115.958  0.00  0.00     0.119 C 
BRANCH   8   9
ATOM      9  C   LIG d   1      -4.375  74.809 117.311  0.00  0.00     0.028 C 
ATOM     10  C   LIG d   1      -4.240  75.838 118.447  0.00  0.00     0.006 C 
ENDBRANCH   8   9
BRANCH   8  11
ATOM     11  C   LIG d   1      -5.099  75.296 115.029  0.00  0.00     0.028 C 
ATOM     12  C   LIG d   1      -6.122  74.232 115.458  0.00  0.00     0.006 C 
ENDBRANCH   8  11
ENDBRANCH   7   8
ENDBRANCH   1   7
BRANCH   6  13
ATOM     13  N   LIG d   1      -1.359  76.644 113.977  0.00  0.00    -0.311 N 
ATOM     14  C   LIG d   1      -2.254  77.384 113.325  0.00  0.00     0.210 C 
ATOM     15  C   LIG d   1      -2.076  77.422 111.804  0.00  0.00     0.109 C 
ATOM     16  O   LIG d   1      -3.159  78.039 113.865  0.00  0.00    -0.276 OA
ATOM     17  H   LIG d   1      -0.640  76.173 113.464  0.00  0.00     0.149 HD
ENDBRANCH   6  13
BRANCH   5  18
ATOM     18  N   LIG d   1      -0.052  78.547 115.979  0.00  0.00     0.381 N 
ATOM     19  H   LIG d   1      -0.832  78.870 115.443  0.00  0.00    -0.090 HD
ATOM     20  H   LIG d   1       0.791  78.781 115.483  0.00  0.00    -0.090 HD
ATOM     21  H   LIG d   1      -0.051  78.982 116.875  0.00  0.00    -0.090 HD
ENDBRANCH   5  18
BRANCH   3  22
ATOM     22  C   LIG d   1       0.177  74.899 119.074  0.00  0.00     0.382 C 
ATOM     23  O   LIG d   1      -0.524  74.180 119.826  0.00  0.00    -0.241 OA
ATOM     24  O   LIG d   1       1.344  75.180 119.406  0.00  0.00    -0.241 OA
ENDBRANCH   3  22
TORSDOF 7
ENDMDL
MODEL 8
REMARK VINA RESULT:      -4.6      2.183      2.744
REMARK  7 active torsions:
REMARK  status: ('A' for Active; 'I' for Inactive)
REMARK    1  A    between atoms: C_2  and  C_3 
REMARK    2  A    between atoms: C_3  and  O_6 
REMARK    3  A    between atoms: C_3  and  C_4 
REMARK    4  A    between atoms: C_7  and  O_6 
REMARK    5  A    between atoms: C_9  and  C_10 
REMARK    6  A    between atoms: N_15  and  C_14 
REMARK    7  A    between atoms: N_20  and  C_19 
REMARK       I    between atoms: C_22  and  N_20 
ROOT
ATOM      1  C   LIG d   1      -0.559  78.992 114.742  0.00  0.00     0.161 C 
ATOM      2  C   LIG d   1      -0.660  80.280 114.190  0.00  0.00     0.016 C 
ATOM      3  C   LIG d   1      -1.516  80.600 113.111  0.00  0.00     0.038 C 
ATOM      4  C   LIG d   1      -2.447  79.680 112.605  0.00  0.00     0.028 C 
ATOM      5  C   LIG d   1      -2.026  78.227 112.794  0.00  0.00    -0.047 C 
ATOM      6  C   LIG d   1      -1.647  78.002 114.276  0.00  0.00     0.091 C 
ENDROOT
BRANCH   1   7
ATOM      7  O   LIG d   1      -0.541  79.077 116.180  0.00  0.00    -0.368 OA
BRANCH   7   8
ATOM      8  C   LIG d   1      -1.314  80.153 116.765  0.00  0.00     0.119 C 
BRANCH   8   9
ATOM      9  C   LIG d   1      -0.470  80.766 117.899  0.00  0.00     0.028 C 
ATOM     10  C   LIG d   1      -1.308  81.638 118.849  0.00  0.00     0.006 C 
ENDBRANCH   8   9
BRANCH   8  11
ATOM     11  C   LIG d   1      -2.581  79.623 117.444  0.00  0.00     0.028 C 
ATOM     12  C   LIG d   1      -3.851  79.878 116.617  0.00  0.00     0.006 C 
ENDBRANCH   8  11
ENDBRANCH   7   8
ENDBRANCH   1   7
BRANCH   6  13
ATOM     13  N   LIG d   1      -1.143  76.627 114.531  0.00  0.00    -0.311 N 
ATOM     14  C   LIG d   1      -1.611  75.843 115.500  0.00  0.00     0.210 C 
ATOM     15  C   LIG d   1      -0.939  74.470 115.602  0.00  0.00     0.109 C 
ATOM     16  O   LIG d   1      -2.541  76.141 116.265  0.00  0.00    -0.276 OA
ATOM     17  H   LIG d   1      -0.410  76.293 113.937  0.00  0.00     0.149 HD
ENDBRANCH   6  13
BRANCH   5  18
ATOM     18  N   LIG d   1      -3.146  77.377 112.349  0.00  0.00     0.381 N 
ATOM     19  H   LIG d   1      -3.954  77.561 112.909  0.00  0.00    -0.090 HD
ATOM     20  H   LIG d   1      -2.891  76.412 112.470  0.00  0.00    -0.090 HD
ATOM     21  H   LIG d   1      -3.350  77.556 111.390  0.00  0.00    -0.090 HD
ENDBRANCH   5  18
BRANCH   3  22
ATOM     22  C   LIG d   1      -1.417  81.841 112.500  0.00  0.00     0.382 C 
ATOM     23  O   LIG d   1      -2.450  82.417 112.082  0.00  0.00    -0.241 OA
ATOM     24  O   LIG d   1      -0.304  82.370 112.322  0.00  0.00    -0.241 OA
ENDBRANCH   3  22
TORSDOF 7
ENDMDL
MODEL 9
REMARK VINA RESULT:      -4.4      2.431      6.022
REMARK  7 active torsions:
REMARK  status: ('A' for Active; 'I' for Inactive)
REMARK    1  A    between atoms: C_2  and  C_3 
REMARK    2  A    between atoms: C_3  and  O_6 
REMARK    3  A    between atoms: C_3  and  C_4 
REMARK    4  A    between atoms: C_7  and  O_6 
REMARK    5  A    between atoms: C_9  and  C_10 
REMARK    6  A    between atoms: N_15  and  C_14 
REMARK    7  A    between atoms: N_20  and  C_19 
REMARK       I    between atoms: C_22  and  N_20 
ROOT
ATOM      1  C   LIG d   1      -3.108  78.518 115.743  0.00  0.00     0.161 C 
ATOM      2  C   LIG d   1      -2.278  77.425 115.443  0.00  0.00     0.016 C 
ATOM      3  C   LIG d   1      -2.312  76.204 116.153  0.00  0.00     0.038 C 
ATOM      4  C   LIG d   1      -3.291  75.937 117.122  0.00  0.00     0.028 C 
ATOM      5  C   LIG d   1      -3.824  77.192 117.806  0.00  0.00    -0.047 C 
ATOM      6  C   LIG d   1      -4.258  78.207 116.723  0.00  0.00     0.091 C 
ENDROOT
BRANCH   1   7
ATOM      7  O   LIG d   1      -3.628  79.085 114.524  0.00  0.00    -0.368 OA
BRANCH   7   8
ATOM      8  C   LIG d   1      -2.696  79.189 113.420  0.00  0.00     0.119 C 
BRANCH   8   9
ATOM      9  C   LIG d   1      -2.689  80.658 112.956  0.00  0.00     0.028 C 
ATOM     10  C   LIG d   1      -1.285  81.140 112.552  0.00  0.00     0.006 C 
ENDBRANCH   8   9
BRANCH   8  11
ATOM     11  C   LIG d   1      -3.175  78.384 112.209  0.00  0.00     0.028 C 
ATOM     12  C   LIG d   1      -2.110  77.410 111.681  0.00  0.00     0.006 C 
ENDBRANCH   8  11
ENDBRANCH   7   8
ENDBRANCH   1   7
BRANCH   6  13
ATOM     13  N   LIG d   1      -4.714  79.496 117.306  0.00  0.00    -0.311 N 
ATOM     14  C   LIG d   1      -5.985  79.756 117.605  0.00  0.00     0.210 C 
ATOM     15  C   LIG d   1      -6.242  81.153 118.177  0.00  0.00     0.109 C 
ATOM     16  O   LIG d   1      -6.920  78.950 117.481  0.00  0.00    -0.276 OA
ATOM     17  H   LIG d   1      -4.016  80.195 117.468  0.00  0.00     0.149 HD
ENDBRANCH   6  13
BRANCH   5  18
ATOM     18  N   LIG d   1      -4.931  76.781 118.690  0.00  0.00     0.381 N 
ATOM     19  H   LIG d   1      -5.686  76.420 118.142  0.00  0.00    -0.090 HD
ATOM     20  H   LIG d   1      -5.263  77.586 119.191  0.00  0.00    -0.090 HD
ATOM     21  H   LIG d   1      -4.616  76.087 119.332  0.00  0.00    -0.090 HD
ENDBRANCH   5  18
BRANCH   3  22
ATOM     22  C   LIG d   1      -1.334  75.248 115.925  0.00  0.00     0.382 C 
ATOM     23  O   LIG d   1      -1.003  74.958 114.750  0.00  0.00    -0.241 OA
ATOM     24  O   LIG d   1      -0.810  74.640 116.877  0.00  0.00    -0.241 OA
ENDBRANCH   3  22
TORSDOF 7
ENDMDL
