MODEL 1
REMARK VINA RESULT:      -5.9      0.000      0.000
REMARK  7 active torsions:
REMARK  status: ('A' for Active; 'I' for Inactive)
REMARK    1  A    between atoms: C_2  and  C_3 
REMARK    2  A    between atoms: C_3  and  O_6 
REMARK    3  A    between atoms: C_3  and  C_4 
REMARK    4  A    between atoms: C_7  and  O_6 
REMARK    5  A    between atoms: C_9  and  C_10 
REMARK    6  A    between atoms: N_15  and  C_14 
REMARK    7  A    between atoms: N_20  and  C_19 
REMARK       I    between atoms: C_22  and  N_20 
ROOT
ATOM      1  C   LIG d   1      -2.853  77.868 114.104  0.00  0.00     0.161 C 
ATOM      2  C   LIG d   1      -3.068  79.062 113.396  0.00  0.00     0.016 C 
ATOM      3  C   LIG d   1      -2.171  80.155 113.423  0.00  0.00     0.038 C 
ATOM      4  C   LIG d   1      -0.916  80.069 114.043  0.00  0.00     0.028 C 
ATOM      5  C   LIG d   1      -0.875  79.067 115.191  0.00  0.00    -0.047 C 
ATOM      6  C   LIG d   1      -1.436  77.714 114.696  0.00  0.00     0.091 C 
ENDROOT
BRANCH   1   7
ATOM      7  O   LIG d   1      -3.170  76.739 113.266  0.00  0.00    -0.368 OA
BRANCH   7   8
ATOM      8  C   LIG d   1      -4.458  76.117 113.497  0.00  0.00     0.119 C 
BRANCH   8   9
ATOM      9  C   LIG d   1      -5.491  76.850 112.619  0.00  0.00     0.028 C 
ATOM     10  C   LIG d   1      -6.893  76.867 113.252  0.00  0.00     0.006 C 
ENDBRANCH   8   9
BRANCH   8  11
ATOM     11  C   LIG d   1      -4.928  76.327 114.939  0.00  0.00     0.028 C 
ATOM     12  C   LIG d   1      -4.926  75.030 115.762  0.00  0.00     0.006 C 
ENDBRANCH   8  11
ENDBRANCH   7   8
ENDBRANCH   1   7
BRANCH   6  13
ATOM     13  N   LIG d   1      -1.510  76.700 115.781  0.00  0.00    -0.311 N 
ATOM     14  C   LIG d   1      -1.152  75.427 115.620  0.00  0.00     0.210 C 
ATOM     15  C   LIG d   1      -1.326  74.545 116.860  0.00  0.00     0.109 C 
ATOM     16  O   LIG d   1      -0.676  74.953 114.577  0.00  0.00    -0.276 OA
ATOM     17  H   LIG d   1      -1.856  77.007 116.669  0.00  0.00     0.149 HD
ENDBRANCH   6  13
BRANCH   5  18
ATOM     18  N   LIG d   1       0.522  78.978 115.656  0.00  0.00     0.381 N 
ATOM     19  H   LIG d   1       0.675  78.096 116.102  0.00  0.00    -0.090 HD
ATOM     20  H   LIG d   1       0.687  79.705 116.330  0.00  0.00    -0.090 HD
ATOM     21  H   LIG d   1       1.145  79.081 114.885  0.00  0.00    -0.090 HD
ENDBRANCH   5  18
BRANCH   3  22
ATOM     22  C   LIG d   1      -2.545  81.365 112.857  0.00  0.00     0.382 C 
ATOM     23  O   LIG d   1      -1.668  82.186 112.496  0.00  0.00    -0.241 OA
ATOM     24  O   LIG d   1      -3.749  81.664 112.744  0.00  0.00    -0.241 OA
ENDBRANCH   3  22
TORSDOF 7
ENDMDL
MODEL 2
REMARK VINA RESULT:      -5.4      1.883      2.187
REMARK  7 active torsions:
REMARK  status: ('A' for Active; 'I' for Inactive)
REMARK    1  A    between atoms: C_2  and  C_3 
REMARK    2  A    between atoms: C_3  and  O_6 
REMARK    3  A    between atoms: C_3  and  C_4 
REMARK    4  A    between atoms: C_7  and  O_6 
REMARK    5  A    between atoms: C_9  and  C_10 
REMARK    6  A    between atoms: N_15  and  C_14 
REMARK    7  A    between atoms: N_20  and  C_19 
REMARK       I    between atoms: C_22  and  N_20 
ROOT
ATOM      1  C   LIG d   1      -2.037  78.666 115.292  0.00  0.00     0.161 C 
ATOM      2  C   LIG d   1      -2.507  79.536 114.294  0.00  0.00     0.016 C 
ATOM      3  C   LIG d   1      -1.737  80.596 113.760  0.00  0.00     0.038 C 
ATOM      4  C   LIG d   1      -0.383  80.765 114.084  0.00  0.00     0.028 C 
ATOM      5  C   LIG d   1      -0.017  80.222 115.461  0.00  0.00    -0.047 C 
ATOM      6  C   LIG d   1      -0.524  78.766 115.578  0.00  0.00     0.091 C 
ENDROOT
BRANCH   1   7
ATOM      7  O   LIG d   1      -2.397  77.309 114.966  0.00  0.00    -0.368 OA
BRANCH   7   8
ATOM      8  C   LIG d   1      -3.647  76.830 115.522  0.00  0.00     0.119 C 
BRANCH   8   9
ATOM      9  C   LIG d   1      -3.734  77.341 116.973  0.00  0.00     0.028 C 
ATOM     10  C   LIG d   1      -5.094  77.987 117.287  0.00  0.00     0.006 C 
ENDBRANCH   8   9
BRANCH   8  11
ATOM     11  C   LIG d   1      -3.659  75.302 115.629  0.00  0.00     0.028 C 
ATOM     12  C   LIG d   1      -5.056  74.701 115.407  0.00  0.00     0.006 C 
ENDBRANCH   8  11
ENDBRANCH   7   8
ENDBRANCH   1   7
BRANCH   6  13
ATOM     13  N   LIG d   1      -0.282  78.187 116.925  0.00  0.00    -0.311 N 
ATOM     14  C   LIG d   1       0.203  76.962 117.120  0.00  0.00     0.210 C 
ATOM     15  C   LIG d   1       0.357  76.554 118.588  0.00  0.00     0.109 C 
ATOM     16  O   LIG d   1       0.550  76.186 116.216  0.00  0.00    -0.276 OA
ATOM     17  H   LIG d   1      -0.507  78.760 117.715  0.00  0.00     0.149 HD
ENDBRANCH   6  13
BRANCH   5  18
ATOM     18  N   LIG d   1       1.446  80.338 115.612  0.00  0.00     0.381 N 
ATOM     19  H   LIG d   1       1.879  80.356 114.711  0.00  0.00    -0.090 HD
ATOM     20  H   LIG d   1       1.786  79.534 116.110  0.00  0.00    -0.090 HD
ATOM     21  H   LIG d   1       1.672  81.168 116.114  0.00  0.00    -0.090 HD
ENDBRANCH   5  18
BRANCH   3  22
ATOM     22  C   LIG d   1      -2.335  81.525 112.922  0.00  0.00     0.382 C 
ATOM     23  O   LIG d   1      -1.635  82.394 112.350  0.00  0.00    -0.241 OA
ATOM     24  O   LIG d   1      -3.571  81.532 112.766  0.00  0.00    -0.241 OA
ENDBRANCH   3  22
TORSDOF 7
ENDMDL
MODEL 3
REMARK VINA RESULT:      -5.3      2.341      5.109
REMARK  7 active torsions:
REMARK  status: ('A' for Active; 'I' for Inactive)
REMARK    1  A    between atoms: C_2  and  C_3 
REMARK    2  A    between atoms: C_3  and  O_6 
REMARK    3  A    between atoms: C_3  and  C_4 
REMARK    4  A    between atoms: C_7  and  O_6 
REMARK    5  A    between atoms: C_9  and  C_10 
REMARK    6  A    between atoms: N_15  and  C_14 
REMARK    7  A    between atoms: N_20  and  C_19 
REMARK       I    between atoms: C_22  and  N_20 
ROOT
ATOM      1  C   LIG d   1      -1.824  75.451 115.160  0.00  0.00     0.161 C 
ATOM      2  C   LIG d   1      -1.578  74.905 116.431  0.00  0.00     0.016 C 
ATOM      3  C   LIG d   1      -0.808  75.557 117.422  0.00  0.00     0.038 C 
ATOM      4  C   LIG d   1      -0.356  76.875 117.262  0.00  0.00     0.028 C 
ATOM      5  C   LIG d   1      -0.151  77.273 115.804  0.00  0.00    -0.047 C 
ATOM      6  C   LIG d   1      -1.433  76.936 115.008  0.00  0.00     0.091 C 
ENDROOT
BRANCH   1   7
ATOM      7  O   LIG d   1      -3.208  75.259 114.806  0.00  0.00    -0.368 OA
BRANCH   7   8
ATOM      8  C   LIG d   1      -4.152  75.252 115.905  0.00  0.00     0.119 C 
BRANCH   8   9
ATOM      9  C   LIG d   1      -5.278  74.265 115.542  0.00  0.00     0.028 C 
ATOM     10  C   LIG d   1      -6.521  74.439 116.431  0.00  0.00     0.006 C 
ENDBRANCH   8   9
BRANCH   8  11
ATOM     11  C   LIG d   1      -4.839  76.612 116.058  0.00  0.00     0.028 C 
ATOM     12  C   LIG d   1      -4.360  77.386 117.296  0.00  0.00     0.006 C 
ENDBRANCH   8  11
ENDBRANCH   7   8
ENDBRANCH   1   7
BRANCH   6  13
ATOM     13  N   LIG d   1      -1.287  77.216 113.555  0.00  0.00    -0.311 N 
ATOM     14  C   LIG d   1      -2.148  77.958 112.862  0.00  0.00     0.210 C 
ATOM     15  C   LIG d   1      -1.822  78.104 111.372  0.00  0.00     0.109 C 
ATOM     16  O   LIG d   1      -3.133  78.536 113.345  0.00  0.00    -0.276 OA
ATOM     17  H   LIG d   1      -0.498  76.811 113.090  0.00  0.00     0.149 HD
ENDBRANCH   6  13
BRANCH   5  18
ATOM     18  N   LIG d   1       0.186  78.708 115.777  0.00  0.00     0.381 N 
ATOM     19  H   LIG d   1       0.766  78.905 114.985  0.00  0.00    -0.090 HD
ATOM     20  H   LIG d   1       0.701  78.937 116.609  0.00  0.00    -0.090 HD
ATOM     21  H   LIG d   1      -0.646  79.254 115.732  0.00  0.00    -0.090 HD
ENDBRANCH   5  18
BRANCH   3  22
ATOM     22  C   LIG d   1      -0.450  74.873 118.574  0.00  0.00     0.382 C 
ATOM     23  O   LIG d   1       0.596  74.180 118.592  0.00  0.00    -0.241 OA
ATOM     24  O   LIG d   1      -1.182  74.905 119.581  0.00  0.00    -0.241 OA
ENDBRANCH   3  22
TORSDOF 7
ENDMDL
MODEL 4
REMARK VINA RESULT:      -5.2      2.923      4.924
REMARK  7 active torsions:
REMARK  status: ('A' for Active; 'I' for Inactive)
REMARK    1  A    between atoms: C_2  and  C_3 
REMARK    2  A    between atoms: C_3  and  O_6 
REMARK    3  A    between atoms: C_3  and  C_4 
REMARK    4  A    between atoms: C_7  and  O_6 
REMARK    5  A    between atoms: C_9  and  C_10 
REMARK    6  A    between atoms: N_15  and  C_14 
REMARK    7  A    between atoms: N_20  and  C_19 
REMARK       I    between atoms: C_22  and  N_20 
ROOT
ATOM      1  C   LIG d   1       0.001  80.002 115.435  0.00  0.00     0.161 C 
ATOM      2  C   LIG d   1      -0.708  80.907 114.628  0.00  0.00     0.016 C 
ATOM      3  C   LIG d   1      -1.842  80.545 113.864  0.00  0.00     0.038 C 
ATOM      4  C   LIG d   1      -2.438  79.280 113.975  0.00  0.00     0.028 C 
ATOM      5  C   LIG d   1      -1.461  78.185 114.391  0.00  0.00    -0.047 C 
ATOM      6  C   LIG d   1      -0.700  78.645 115.655  0.00  0.00     0.091 C 
ENDROOT
BRANCH   1   7
ATOM      7  O   LIG d   1       0.312  80.616 116.701  0.00  0.00    -0.368 OA
BRANCH   7   8
ATOM      8  C   LIG d   1      -0.613  81.632 117.160  0.00  0.00     0.119 C 
BRANCH   8   9
ATOM      9  C   LIG d   1       0.204  82.689 117.928  0.00  0.00     0.028 C 
ATOM     10  C   LIG d   1      -0.663  83.512 118.896  0.00  0.00     0.006 C 
ENDBRANCH   8   9
BRANCH   8  11
ATOM     11  C   LIG d   1      -1.603  81.064 118.182  0.00  0.00     0.028 C 
ATOM     12  C   LIG d   1      -3.006  80.843 117.594  0.00  0.00     0.006 C 
ENDBRANCH   8  11
ENDBRANCH   7   8
ENDBRANCH   1   7
BRANCH   6  13
ATOM     13  N   LIG d   1       0.335  77.667 116.080  0.00  0.00    -0.311 N 
ATOM     14  C   LIG d   1       0.514  77.293 117.345  0.00  0.00     0.210 C 
ATOM     15  C   LIG d   1       1.651  76.290 117.568  0.00  0.00     0.109 C 
ATOM     16  O   LIG d   1      -0.181  77.671 118.300  0.00  0.00    -0.276 OA
ATOM     17  H   LIG d   1       0.924  77.286 115.365  0.00  0.00     0.149 HD
ENDBRANCH   6  13
BRANCH   5  18
ATOM     18  N   LIG d   1      -2.240  76.950 114.602  0.00  0.00     0.381 N 
ATOM     19  H   LIG d   1      -1.900  76.469 115.410  0.00  0.00    -0.090 HD
ATOM     20  H   LIG d   1      -2.121  76.350 113.804  0.00  0.00    -0.090 HD
ATOM     21  H   LIG d   1      -3.205  77.171 114.719  0.00  0.00    -0.090 HD
ENDBRANCH   5  18
BRANCH   3  22
ATOM     22  C   LIG d   1      -2.368  81.443 112.947  0.00  0.00     0.382 C 
ATOM     23  O   LIG d   1      -1.615  82.267 112.374  0.00  0.00    -0.241 OA
ATOM     24  O   LIG d   1      -3.592  81.469 112.719  0.00  0.00    -0.241 OA
ENDBRANCH   3  22
TORSDOF 7
ENDMDL
MODEL 5
REMARK VINA RESULT:      -5.2      2.224      2.961
REMARK  7 active torsions:
REMARK  status: ('A' for Active; 'I' for Inactive)
REMARK    1  A    between atoms: C_2  and  C_3 
REMARK    2  A    between atoms: C_3  and  O_6 
REMARK    3  A    between atoms: C_3  and  C_4 
REMARK    4  A    between atoms: C_7  and  O_6 
REMARK    5  A    between atoms: C_9  and  C_10 
REMARK    6  A    between atoms: N_15  and  C_14 
REMARK    7  A    between atoms: N_20  and  C_19 
REMARK       I    between atoms: C_22  and  N_20 
ROOT
ATOM      1  C   LIG d   1      -3.116  77.418 116.356  0.00  0.00     0.161 C 
ATOM      2  C   LIG d   1      -3.414  77.935 115.084  0.00  0.00     0.016 C 
ATOM      3  C   LIG d   1      -2.550  77.811 113.971  0.00  0.00     0.038 C 
ATOM      4  C   LIG d   1      -1.390  77.025 114.018  0.00  0.00     0.028 C 
ATOM      5  C   LIG d   1      -0.796  76.904 115.417  0.00  0.00    -0.047 C 
ATOM      6  C   LIG d   1      -1.906  76.461 116.397  0.00  0.00     0.091 C 
ENDROOT
BRANCH   1   7
ATOM      7  O   LIG d   1      -4.282  76.775 116.907  0.00  0.00    -0.368 OA
BRANCH   7   8
ATOM      8  C   LIG d   1      -5.447  76.720 116.047  0.00  0.00     0.119 C 
BRANCH   8   9
ATOM      9  C   LIG d   1      -6.625  77.341 116.822  0.00  0.00     0.028 C 
ATOM     10  C   LIG d   1      -7.339  76.318 117.722  0.00  0.00     0.006 C 
ENDBRANCH   8   9
BRANCH   8  11
ATOM     11  C   LIG d   1      -5.864  75.274 115.765  0.00  0.00     0.028 C 
ATOM     12  C   LIG d   1      -4.906  74.554 114.802  0.00  0.00     0.006 C 
ENDBRANCH   8  11
ENDBRANCH   7   8
ENDBRANCH   1   7
BRANCH   6  13
ATOM     13  N   LIG d   1      -1.430  76.400 117.804  0.00  0.00    -0.311 N 
ATOM     14  C   LIG d   1      -1.005  75.280 118.385  0.00  0.00     0.210 C 
ATOM     15  C   LIG d   1      -0.576  75.433 119.848  0.00  0.00     0.109 C 
ATOM     16  O   LIG d   1      -0.911  74.180 117.819  0.00  0.00    -0.276 OA
ATOM     17  H   LIG d   1      -1.442  77.253 118.327  0.00  0.00     0.149 HD
ENDBRANCH   6  13
BRANCH   5  18
ATOM     18  N   LIG d   1       0.326  75.948 115.344  0.00  0.00     0.381 N 
ATOM     19  H   LIG d   1      -0.028  75.020 115.227  0.00  0.00    -0.090 HD
ATOM     20  H   LIG d   1       0.839  75.983 116.207  0.00  0.00    -0.090 HD
ATOM     21  H   LIG d   1       0.924  76.183 114.583  0.00  0.00    -0.090 HD
ENDBRANCH   5  18
BRANCH   3  22
ATOM     22  C   LIG d   1      -2.825  78.512 112.807  0.00  0.00     0.382 C 
ATOM     23  O   LIG d   1      -3.142  79.725 112.865  0.00  0.00    -0.241 OA
ATOM     24  O   LIG d   1      -2.803  77.936 111.703  0.00  0.00    -0.241 OA
ENDBRANCH   3  22
TORSDOF 7
ENDMDL
MODEL 6
REMARK VINA RESULT:      -5.0      2.962      6.151
REMARK  7 active torsions:
REMARK  status: ('A' for Active; 'I' for Inactive)
REMARK    1  A    between atoms: C_2  and  C_3 
REMARK    2  A    between atoms: C_3  and  O_6 
REMARK    3  A    between atoms: C_3  and  C_4 
REMARK    4  A    between atoms: C_7  and  O_6 
REMARK    5  A    between atoms: C_9  and  C_10 
REMARK    6  A    between atoms: N_15  and  C_14 
REMARK    7  A    between atoms: N_20  and  C_19 
REMARK       I    between atoms: C_22  and  N_20 
ROOT
ATOM      1  C   LIG d   1      -1.576  80.487 112.905  0.00  0.00     0.161 C 
ATOM      2  C   LIG d   1      -2.422  79.574 113.556  0.00  0.00     0.016 C 
ATOM      3  C   LIG d   1      -2.504  78.206 113.211  0.00  0.00     0.038 C 
ATOM      4  C   LIG d   1      -1.628  77.622 112.284  0.00  0.00     0.028 C 
ATOM      5  C   LIG d   1      -1.103  78.605 111.243  0.00  0.00    -0.047 C 
ATOM      6  C   LIG d   1      -0.532  79.845 111.967  0.00  0.00     0.091 C 
ENDROOT
BRANCH   1   7
ATOM      7  O   LIG d   1      -0.925  81.329 113.878  0.00  0.00    -0.368 OA
BRANCH   7   8
ATOM      8  C   LIG d   1      -0.090  80.652 114.850  0.00  0.00     0.119 C 
BRANCH   8   9
ATOM      9  C   LIG d   1      -0.580  81.069 116.250  0.00  0.00     0.028 C 
ATOM     10  C   LIG d   1      -1.340  79.940 116.967  0.00  0.00     0.006 C 
ENDBRANCH   8   9
BRANCH   8  11
ATOM     11  C   LIG d   1       1.362  81.132 114.768  0.00  0.00     0.028 C 
ATOM     12  C   LIG d   1       2.079  81.094 116.127  0.00  0.00     0.006 C 
ENDBRANCH   8  11
ENDBRANCH   7   8
ENDBRANCH   1   7
BRANCH   6  13
ATOM     13  N   LIG d   1      -0.074  80.894 111.019  0.00  0.00    -0.311 N 
ATOM     14  C   LIG d   1       1.208  81.193 110.821  0.00  0.00     0.210 C 
ATOM     15  C   LIG d   1       1.461  82.321 109.815  0.00  0.00     0.109 C 
ATOM     16  O   LIG d   1       2.162  80.610 111.358  0.00  0.00    -0.276 OA
ATOM     17  H   LIG d   1      -0.781  81.396 110.518  0.00  0.00     0.149 HD
ENDBRANCH   6  13
BRANCH   5  18
ATOM     18  N   LIG d   1      -0.098  77.897 110.428  0.00  0.00     0.381 N 
ATOM     19  H   LIG d   1      -0.246  78.096 109.459  0.00  0.00    -0.090 HD
ATOM     20  H   LIG d   1      -0.205  76.908 110.567  0.00  0.00    -0.090 HD
ATOM     21  H   LIG d   1       0.819  78.180 110.696  0.00  0.00    -0.090 HD
ENDBRANCH   5  18
BRANCH   3  22
ATOM     22  C   LIG d   1      -3.498  77.415 113.766  0.00  0.00     0.382 C 
ATOM     23  O   LIG d   1      -4.021  77.741 114.859  0.00  0.00    -0.241 OA
ATOM     24  O   LIG d   1      -3.848  76.356 113.211  0.00  0.00    -0.241 OA
ENDBRANCH   3  22
TORSDOF 7
ENDMDL
MODEL 7
REMARK VINA RESULT:      -5.0      2.378      4.549
REMARK  7 active torsions:
REMARK  status: ('A' for Active; 'I' for Inactive)
REMARK    1  A    between atoms: C_2  and  C_3 
REMARK    2  A    between atoms: C_3  and  O_6 
REMARK    3  A    between atoms: C_3  and  C_4 
REMARK    4  A    between atoms: C_7  and  O_6 
REMARK    5  A    between atoms: C_9  and  C_10 
REMARK    6  A    between atoms: N_15  and  C_14 
REMARK    7  A    between atoms: N_20  and  C_19 
REMARK       I    between atoms: C_22  and  N_20 
ROOT
ATOM      1  C   LIG d   1      -2.175  76.077 114.878  0.00  0.00     0.161 C 
ATOM      2  C   LIG d   1      -2.229  75.951 116.276  0.00  0.00     0.016 C 
ATOM      3  C   LIG d   1      -1.806  76.966 117.165  0.00  0.00     0.038 C 
ATOM      4  C   LIG d   1      -1.440  78.242 116.714  0.00  0.00     0.028 C 
ATOM      5  C   LIG d   1      -0.891  78.247 115.291  0.00  0.00    -0.047 C 
ATOM      6  C   LIG d   1      -1.883  77.504 114.368  0.00  0.00     0.091 C 
ENDROOT
BRANCH   1   7
ATOM      7  O   LIG d   1      -3.395  75.577 114.295  0.00  0.00    -0.368 OA
BRANCH   7   8
ATOM      8  C   LIG d   1      -4.541  76.461 114.358  0.00  0.00     0.119 C 
BRANCH   8   9
ATOM      9  C   LIG d   1      -5.629  75.751 115.188  0.00  0.00     0.028 C 
ATOM     10  C   LIG d   1      -5.333  74.255 115.385  0.00  0.00     0.006 C 
ENDBRANCH   8   9
BRANCH   8  11
ATOM     11  C   LIG d   1      -5.160  76.671 112.973  0.00  0.00     0.028 C 
ATOM     12  C   LIG d   1      -6.687  76.834 113.021  0.00  0.00     0.006 C 
ENDBRANCH   8  11
ENDBRANCH   7   8
ENDBRANCH   1   7
BRANCH   6  13
ATOM     13  N   LIG d   1      -1.383  77.389 112.973  0.00  0.00    -0.311 N 
ATOM     14  C   LIG d   1      -1.715  78.239 112.003  0.00  0.00     0.210 C 
ATOM     15  C   LIG d   1      -1.104  77.927 110.633  0.00  0.00     0.109 C 
ATOM     16  O   LIG d   1      -2.432  79.239 112.153  0.00  0.00    -0.276 OA
ATOM     17  H   LIG d   1      -0.770  76.623 112.770  0.00  0.00     0.149 HD
ENDBRANCH   6  13
BRANCH   5  18
ATOM     18  N   LIG d   1      -0.679  79.653 114.899  0.00  0.00     0.381 N 
ATOM     19  H   LIG d   1       0.013  80.069 115.490  0.00  0.00    -0.090 HD
ATOM     20  H   LIG d   1      -1.540  80.157 115.020  0.00  0.00    -0.090 HD
ATOM     21  H   LIG d   1      -0.387  79.702 113.948  0.00  0.00    -0.090 HD
ENDBRANCH   5  18
BRANCH   3  22
ATOM     22  C   LIG d   1      -1.709  76.694 118.522  0.00  0.00     0.382 C 
ATOM     23  O   LIG d   1      -1.087  75.678 118.914  0.00  0.00    -0.241 OA
ATOM     24  O   LIG d   1      -2.273  77.429 119.355  0.00  0.00    -0.241 OA
ENDBRANCH   3  22
TORSDOF 7
ENDMDL
MODEL 8
REMARK VINA RESULT:      -4.9      2.629      4.241
REMARK  7 active torsions:
REMARK  status: ('A' for Active; 'I' for Inactive)
REMARK    1  A    between atoms: C_2  and  C_3 
REMARK    2  A    between atoms: C_3  and  O_6 
REMARK    3  A    between atoms: C_3  and  C_4 
REMARK    4  A    between atoms: C_7  and  O_6 
REMARK    5  A    between atoms: C_9  and  C_10 
REMARK    6  A    between atoms: N_15  and  C_14 
REMARK    7  A    between atoms: N_20  and  C_19 
REMARK       I    between atoms: C_22  and  N_20 
ROOT
ATOM      1  C   LIG d   1      -2.107  79.591 114.644  0.00  0.00     0.161 C 
ATOM      2  C   LIG d   1      -1.099  80.537 114.393  0.00  0.00     0.016 C 
ATOM      3  C   LIG d   1      -0.369  80.594 113.184  0.00  0.00     0.038 C 
ATOM      4  C   LIG d   1      -0.704  79.798 112.078  0.00  0.00     0.028 C 
ATOM      5  C   LIG d   1      -1.380  78.485 112.459  0.00  0.00    -0.047 C 
ATOM      6  C   LIG d   1      -2.562  78.786 113.409  0.00  0.00     0.091 C 
ENDROOT
BRANCH   1   7
ATOM      7  O   LIG d   1      -3.237  80.234 115.267  0.00  0.00    -0.368 OA
BRANCH   7   8
ATOM      8  C   LIG d   1      -3.545  79.812 116.618  0.00  0.00     0.119 C 
BRANCH   8   9
ATOM      9  C   LIG d   1      -3.388  81.042 117.534  0.00  0.00     0.028 C 
ATOM     10  C   LIG d   1      -1.956  81.191 118.075  0.00  0.00     0.006 C 
ENDBRANCH   8   9
BRANCH   8  11
ATOM     11  C   LIG d   1      -2.525  78.792 117.130  0.00  0.00     0.028 C 
ATOM     12  C   LIG d   1      -3.172  77.464 117.556  0.00  0.00     0.006 C 
ENDBRANCH   8  11
ENDBRANCH   7   8
ENDBRANCH   1   7
BRANCH   6  13
ATOM     13  N   LIG d   1      -3.226  77.550 113.896  0.00  0.00    -0.311 N 
ATOM     14  C   LIG d   1      -4.281  76.999 113.297  0.00  0.00     0.210 C 
ATOM     15  C   LIG d   1      -4.824  75.738 113.976  0.00  0.00     0.109 C 
ATOM     16  O   LIG d   1      -4.797  77.417 112.250  0.00  0.00    -0.276 OA
ATOM     17  H   LIG d   1      -2.852  77.127 114.723  0.00  0.00     0.149 HD
ENDBRANCH   6  13
BRANCH   5  18
ATOM     18  N   LIG d   1      -1.797  77.820 111.210  0.00  0.00     0.381 N 
ATOM     19  H   LIG d   1      -1.005  77.395 110.771  0.00  0.00    -0.090 HD
ATOM     20  H   LIG d   1      -2.171  78.511 110.583  0.00  0.00    -0.090 HD
ATOM     21  H   LIG d   1      -2.488  77.129 111.406  0.00  0.00    -0.090 HD
ENDBRANCH   5  18
BRANCH   3  22
ATOM     22  C   LIG d   1       0.735  81.427 113.086  0.00  0.00     0.382 C 
ATOM     23  O   LIG d   1       1.782  81.157 113.722  0.00  0.00    -0.241 OA
ATOM     24  O   LIG d   1       0.682  82.468 112.405  0.00  0.00    -0.241 OA
ENDBRANCH   3  22
TORSDOF 7
ENDMDL
MODEL 9
REMARK VINA RESULT:      -4.9      3.195      4.229
REMARK  7 active torsions:
REMARK  status: ('A' for Active; 'I' for Inactive)
REMARK    1  A    between atoms: C_2  and  C_3 
REMARK    2  A    between atoms: C_3  and  O_6 
REMARK    3  A    between atoms: C_3  and  C_4 
REMARK    4  A    between atoms: C_7  and  O_6 
REMARK    5  A    between atoms: C_9  and  C_10 
REMARK    6  A    between atoms: N_15  and  C_14 
REMARK    7  A    between atoms: N_20  and  C_19 
REMARK       I    between atoms: C_22  and  N_20 
ROOT
ATOM      1  C   LIG d   1      -2.488  79.492 116.496  0.00  0.00     0.161 C 
ATOM      2  C   LIG d   1      -2.700  80.443 115.484  0.00  0.00     0.016 C 
ATOM      3  C   LIG d   1      -2.415  80.206 114.120  0.00  0.00     0.038 C 
ATOM      4  C   LIG d   1      -2.036  78.939 113.652  0.00  0.00     0.028 C 
ATOM      5  C   LIG d   1      -1.325  78.093 114.702  0.00  0.00    -0.047 C 
ATOM      6  C   LIG d   1      -2.180  78.068 115.990  0.00  0.00     0.091 C 
ENDROOT
BRANCH   1   7
ATOM      7  O   LIG d   1      -3.615  79.472 117.393  0.00  0.00    -0.368 OA
BRANCH   7   8
ATOM      8  C   LIG d   1      -4.131  80.765 117.798  0.00  0.00     0.119 C 
BRANCH   8   9
ATOM      9  C   LIG d   1      -3.478  81.121 119.148  0.00  0.00     0.028 C 
ATOM     10  C   LIG d   1      -2.412  82.221 119.012  0.00  0.00     0.006 C 
ENDBRANCH   8   9
BRANCH   8  11
ATOM     11  C   LIG d   1      -5.635  80.702 118.079  0.00  0.00     0.028 C 
ATOM     12  C   LIG d   1      -6.257  82.088 118.309  0.00  0.00     0.006 C 
ENDBRANCH   8  11
ENDBRANCH   7   8
ENDBRANCH   1   7
BRANCH   6  13
ATOM     13  N   LIG d   1      -1.516  77.331 117.097  0.00  0.00    -0.311 N 
ATOM     14  C   LIG d   1      -1.708  76.034 117.332  0.00  0.00     0.210 C 
ATOM     15  C   LIG d   1      -0.942  75.475 118.536  0.00  0.00     0.109 C 
ATOM     16  O   LIG d   1      -2.415  75.286 116.640  0.00  0.00    -0.276 OA
ATOM     17  H   LIG d   1      -0.902  77.854 117.689  0.00  0.00     0.149 HD
ENDBRANCH   6  13
BRANCH   5  18
ATOM     18  N   LIG d   1      -1.110  76.752 114.124  0.00  0.00     0.381 N 
ATOM     19  H   LIG d   1      -1.363  76.756 113.156  0.00  0.00    -0.090 HD
ATOM     20  H   LIG d   1      -1.700  76.094 114.602  0.00  0.00    -0.090 HD
ATOM     21  H   LIG d   1      -0.155  76.487 114.224  0.00  0.00    -0.090 HD
ENDBRANCH   5  18
BRANCH   3  22
ATOM     22  C   LIG d   1      -2.469  81.254 113.214  0.00  0.00     0.382 C 
ATOM     23  O   LIG d   1      -3.562  81.570 112.685  0.00  0.00    -0.241 OA
ATOM     24  O   LIG d   1      -1.431  81.858 112.884  0.00  0.00    -0.241 OA
ENDBRANCH   3  22
TORSDOF 7
ENDMDL
