MODEL 1
REMARK VINA RESULT:      -5.5      0.000      0.000
REMARK  7 active torsions:
REMARK  status: ('A' for Active; 'I' for Inactive)
REMARK    1  A    between atoms: C_2  and  C_3 
REMARK    2  A    between atoms: C_3  and  O_6 
REMARK    3  A    between atoms: C_3  and  C_4 
REMARK    4  A    between atoms: C_7  and  O_6 
REMARK    5  A    between atoms: C_9  and  C_10 
REMARK    6  A    between atoms: N_15  and  C_14 
REMARK    7  A    between atoms: N_20  and  C_19 
REMARK       I    between atoms: C_22  and  N_20 
ROOT
ATOM      1  C   LIG d   1      -2.237  75.783 115.087  0.00  0.00     0.161 C 
ATOM      2  C   LIG d   1      -2.079  75.385 116.425  0.00  0.00     0.016 C 
ATOM      3  C   LIG d   1      -1.391  76.154 117.390  0.00  0.00     0.038 C 
ATOM      4  C   LIG d   1      -0.940  77.455 117.118  0.00  0.00     0.028 C 
ATOM      5  C   LIG d   1      -0.633  77.693 115.643  0.00  0.00    -0.047 C 
ATOM      6  C   LIG d   1      -1.850  77.249 114.799  0.00  0.00     0.091 C 
ENDROOT
BRANCH   1   7
ATOM      7  O   LIG d   1      -3.590  75.529 114.658  0.00  0.00    -0.368 OA
BRANCH   7   8
ATOM      8  C   LIG d   1      -4.580  75.412 115.709  0.00  0.00     0.119 C 
BRANCH   8   9
ATOM      9  C   LIG d   1      -5.565  74.302 115.295  0.00  0.00     0.028 C 
ATOM     10  C   LIG d   1      -6.754  74.180 116.263  0.00  0.00     0.006 C 
ENDBRANCH   8   9
BRANCH   8  11
ATOM     11  C   LIG d   1      -5.427  76.684 115.821  0.00  0.00     0.028 C 
ATOM     12  C   LIG d   1      -5.103  77.505 117.079  0.00  0.00     0.006 C 
ENDBRANCH   8  11
ENDBRANCH   7   8
ENDBRANCH   1   7
BRANCH   6  13
ATOM     13  N   LIG d   1      -1.601  77.370 113.339  0.00  0.00    -0.311 N 
ATOM     14  C   LIG d   1      -2.382  78.069 112.517  0.00  0.00     0.210 C 
ATOM     15  C   LIG d   1      -1.957  78.046 111.046  0.00  0.00     0.109 C 
ATOM     16  O   LIG d   1      -3.368  78.732 112.873  0.00  0.00    -0.276 OA
ATOM     17  H   LIG d   1      -0.804  76.889 112.971  0.00  0.00     0.149 HD
ENDBRANCH   6  13
BRANCH   5  18
ATOM     18  N   LIG d   1      -0.308  79.123 115.481  0.00  0.00     0.381 N 
ATOM     19  H   LIG d   1      -1.144  79.642 115.302  0.00  0.00    -0.090 HD
ATOM     20  H   LIG d   1       0.304  79.229 114.691  0.00  0.00    -0.090 HD
ATOM     21  H   LIG d   1       0.136  79.467 116.304  0.00  0.00    -0.090 HD
ENDBRANCH   5  18
BRANCH   3  22
ATOM     22  C   LIG d   1      -1.111  75.607 118.633  0.00  0.00     0.382 C 
ATOM     23  O   LIG d   1      -1.350  74.396 118.853  0.00  0.00    -0.241 OA
ATOM     24  O   LIG d   1      -0.664  76.321 119.551  0.00  0.00    -0.241 OA
ENDBRANCH   3  22
TORSDOF 7
ENDMDL
MODEL 2
REMARK VINA RESULT:      -5.3      1.590      4.678
REMARK  7 active torsions:
REMARK  status: ('A' for Active; 'I' for Inactive)
REMARK    1  A    between atoms: C_2  and  C_3 
REMARK    2  A    between atoms: C_3  and  O_6 
REMARK    3  A    between atoms: C_3  and  C_4 
REMARK    4  A    between atoms: C_7  and  O_6 
REMARK    5  A    between atoms: C_9  and  C_10 
REMARK    6  A    between atoms: N_15  and  C_14 
REMARK    7  A    between atoms: N_20  and  C_19 
REMARK       I    between atoms: C_22  and  N_20 
ROOT
ATOM      1  C   LIG d   1      -3.434  76.455 115.184  0.00  0.00     0.161 C 
ATOM      2  C   LIG d   1      -3.618  77.111 113.955  0.00  0.00     0.016 C 
ATOM      3  C   LIG d   1      -2.552  77.595 113.164  0.00  0.00     0.038 C 
ATOM      4  C   LIG d   1      -1.212  77.320 113.477  0.00  0.00     0.028 C 
ATOM      5  C   LIG d   1      -0.971  77.099 114.966  0.00  0.00    -0.047 C 
ATOM      6  C   LIG d   1      -1.977  76.048 115.487  0.00  0.00     0.091 C 
ENDROOT
BRANCH   1   7
ATOM      7  O   LIG d   1      -4.302  75.307 115.260  0.00  0.00    -0.368 OA
BRANCH   7   8
ATOM      8  C   LIG d   1      -5.393  75.394 116.209  0.00  0.00     0.119 C 
BRANCH   8   9
ATOM      9  C   LIG d   1      -6.457  74.362 115.787  0.00  0.00     0.028 C 
ATOM     10  C   LIG d   1      -7.552  74.180 116.851  0.00  0.00     0.006 C 
ENDBRANCH   8   9
BRANCH   8  11
ATOM     11  C   LIG d   1      -6.092  76.754 116.131  0.00  0.00     0.028 C 
ATOM     12  C   LIG d   1      -6.031  77.532 117.455  0.00  0.00     0.006 C 
ENDBRANCH   8  11
ENDBRANCH   7   8
ENDBRANCH   1   7
BRANCH   6  13
ATOM     13  N   LIG d   1      -1.866  75.834 116.954  0.00  0.00    -0.311 N 
ATOM     14  C   LIG d   1      -1.068  74.920 117.503  0.00  0.00     0.210 C 
ATOM     15  C   LIG d   1      -1.120  74.852 119.032  0.00  0.00     0.109 C 
ATOM     16  O   LIG d   1      -0.300  74.180 116.870  0.00  0.00    -0.276 OA
ATOM     17  H   LIG d   1      -2.432  76.413 117.543  0.00  0.00     0.149 HD
ENDBRANCH   6  13
BRANCH   5  18
ATOM     18  N   LIG d   1       0.435  76.687 115.134  0.00  0.00     0.381 N 
ATOM     19  H   LIG d   1       0.482  75.864 115.702  0.00  0.00    -0.090 HD
ATOM     20  H   LIG d   1       0.936  77.421 115.601  0.00  0.00    -0.090 HD
ATOM     21  H   LIG d   1       0.847  76.508 114.244  0.00  0.00    -0.090 HD
ENDBRANCH   5  18
BRANCH   3  22
ATOM     22  C   LIG d   1      -2.820  78.398 112.066  0.00  0.00     0.382 C 
ATOM     23  O   LIG d   1      -2.646  77.953 110.906  0.00  0.00    -0.241 OA
ATOM     24  O   LIG d   1      -3.191  79.577 112.221  0.00  0.00    -0.241 OA
ENDBRANCH   3  22
TORSDOF 7
ENDMDL
MODEL 3
REMARK VINA RESULT:      -4.8      2.304      5.230
REMARK  7 active torsions:
REMARK  status: ('A' for Active; 'I' for Inactive)
REMARK    1  A    between atoms: C_2  and  C_3 
REMARK    2  A    between atoms: C_3  and  O_6 
REMARK    3  A    between atoms: C_3  and  C_4 
REMARK    4  A    between atoms: C_7  and  O_6 
REMARK    5  A    between atoms: C_9  and  C_10 
REMARK    6  A    between atoms: N_15  and  C_14 
REMARK    7  A    between atoms: N_20  and  C_19 
REMARK       I    between atoms: C_22  and  N_20 
ROOT
ATOM      1  C   LIG d   1      -1.322  77.054 114.852  0.00  0.00     0.161 C 
ATOM      2  C   LIG d   1      -1.900  77.569 113.680  0.00  0.00     0.016 C 
ATOM      3  C   LIG d   1      -1.609  78.855 113.169  0.00  0.00     0.038 C 
ATOM      4  C   LIG d   1      -0.599  79.659 113.717  0.00  0.00     0.028 C 
ATOM      5  C   LIG d   1      -0.346  79.390 115.197  0.00  0.00    -0.047 C 
ATOM      6  C   LIG d   1      -0.135  77.872 115.401  0.00  0.00     0.091 C 
ENDROOT
BRANCH   1   7
ATOM      7  O   LIG d   1      -0.930  75.683 114.641  0.00  0.00    -0.368 OA
BRANCH   7   8
ATOM      8  C   LIG d   1      -1.587  74.696 115.474  0.00  0.00     0.119 C 
BRANCH   8   9
ATOM      9  C   LIG d   1      -2.734  75.408 116.216  0.00  0.00     0.028 C 
ATOM     10  C   LIG d   1      -4.120  74.941 115.740  0.00  0.00     0.006 C 
ENDBRANCH   8   9
BRANCH   8  11
ATOM     11  C   LIG d   1      -0.651  74.182 116.572  0.00  0.00     0.028 C 
ATOM     12  C   LIG d   1      -1.267  74.286 117.977  0.00  0.00     0.006 C 
ENDBRANCH   8  11
ENDBRANCH   7   8
ENDBRANCH   1   7
BRANCH   6  13
ATOM     13  N   LIG d   1       0.035  77.512 116.833  0.00  0.00    -0.311 N 
ATOM     14  C   LIG d   1       1.224  77.379 117.420  0.00  0.00     0.210 C 
ATOM     15  C   LIG d   1       1.175  76.983 118.898  0.00  0.00     0.109 C 
ATOM     16  O   LIG d   1       2.313  77.585 116.864  0.00  0.00    -0.276 OA
ATOM     17  H   LIG d   1      -0.798  77.358 117.367  0.00  0.00     0.149 HD
ENDBRANCH   6  13
BRANCH   5  18
ATOM     18  N   LIG d   1       0.820  80.196 115.604  0.00  0.00     0.381 N 
ATOM     19  H   LIG d   1       0.541  80.878 116.280  0.00  0.00    -0.090 HD
ATOM     20  H   LIG d   1       1.179  80.679 114.799  0.00  0.00    -0.090 HD
ATOM     21  H   LIG d   1       1.526  79.606 115.988  0.00  0.00    -0.090 HD
ENDBRANCH   5  18
BRANCH   3  22
ATOM     22  C   LIG d   1      -2.361  79.365 112.121  0.00  0.00     0.382 C 
ATOM     23  O   LIG d   1      -2.065  79.073 110.937  0.00  0.00    -0.241 OA
ATOM     24  O   LIG d   1      -3.304  80.148 112.343  0.00  0.00    -0.241 OA
ENDBRANCH   3  22
TORSDOF 7
ENDMDL
MODEL 4
REMARK VINA RESULT:      -4.8      4.366      6.353
REMARK  7 active torsions:
REMARK  status: ('A' for Active; 'I' for Inactive)
REMARK    1  A    between atoms: C_2  and  C_3 
REMARK    2  A    between atoms: C_3  and  O_6 
REMARK    3  A    between atoms: C_3  and  C_4 
REMARK    4  A    between atoms: C_7  and  O_6 
REMARK    5  A    between atoms: C_9  and  C_10 
REMARK    6  A    between atoms: N_15  and  C_14 
REMARK    7  A    between atoms: N_20  and  C_19 
REMARK       I    between atoms: C_22  and  N_20 
ROOT
ATOM      1  C   LIG d   1       0.117  80.614 114.038  0.00  0.00     0.161 C 
ATOM      2  C   LIG d   1       0.816  81.674 114.639  0.00  0.00     0.016 C 
ATOM      3  C   LIG d   1       0.950  82.952 114.048  0.00  0.00     0.038 C 
ATOM      4  C   LIG d   1       0.260  83.304 112.879  0.00  0.00     0.028 C 
ATOM      5  C   LIG d   1      -0.049  82.114 111.976  0.00  0.00    -0.047 C 
ATOM      6  C   LIG d   1      -0.736  81.013 112.816  0.00  0.00     0.091 C 
ENDROOT
BRANCH   1   7
ATOM      7  O   LIG d   1      -0.699  79.948 115.022  0.00  0.00    -0.368 OA
BRANCH   7   8
ATOM      8  C   LIG d   1      -0.168  78.711 115.559  0.00  0.00     0.119 C 
BRANCH   8   9
ATOM      9  C   LIG d   1      -1.126  77.578 115.145  0.00  0.00     0.028 C 
ATOM     10  C   LIG d   1      -0.514  76.651 114.081  0.00  0.00     0.006 C 
ENDBRANCH   8   9
BRANCH   8  11
ATOM     11  C   LIG d   1      -0.184  78.716 117.090  0.00  0.00     0.028 C 
ATOM     12  C   LIG d   1      -0.863  79.965 117.675  0.00  0.00     0.006 C 
ENDBRANCH   8  11
ENDBRANCH   7   8
ENDBRANCH   1   7
BRANCH   6  13
ATOM     13  N   LIG d   1      -0.997  79.779 112.028  0.00  0.00    -0.311 N 
ATOM     14  C   LIG d   1      -2.203  79.228 111.907  0.00  0.00     0.210 C 
ATOM     15  C   LIG d   1      -2.248  77.948 111.067  0.00  0.00     0.109 C 
ATOM     16  O   LIG d   1      -3.246  79.696 112.389  0.00  0.00    -0.276 OA
ATOM     17  H   LIG d   1      -0.212  79.351 111.578  0.00  0.00     0.149 HD
ENDBRANCH   6  13
BRANCH   5  18
ATOM     18  N   LIG d   1      -0.888  82.603 110.866  0.00  0.00     0.381 N 
ATOM     19  H   LIG d   1      -1.180  81.833 110.298  0.00  0.00    -0.090 HD
ATOM     20  H   LIG d   1      -0.344  83.226 110.297  0.00  0.00    -0.090 HD
ATOM     21  H   LIG d   1      -1.685  83.080 111.225  0.00  0.00    -0.090 HD
ENDBRANCH   5  18
BRANCH   3  22
ATOM     22  C   LIG d   1       1.814  83.881 114.608  0.00  0.00     0.382 C 
ATOM     23  O   LIG d   1       1.936  83.952 115.855  0.00  0.00    -0.241 OA
ATOM     24  O   LIG d   1       2.439  84.679 113.884  0.00  0.00    -0.241 OA
ENDBRANCH   3  22
TORSDOF 7
ENDMDL
MODEL 5
REMARK VINA RESULT:      -4.7      2.453      6.167
REMARK  7 active torsions:
REMARK  status: ('A' for Active; 'I' for Inactive)
REMARK    1  A    between atoms: C_2  and  C_3 
REMARK    2  A    between atoms: C_3  and  O_6 
REMARK    3  A    between atoms: C_3  and  C_4 
REMARK    4  A    between atoms: C_7  and  O_6 
REMARK    5  A    between atoms: C_9  and  C_10 
REMARK    6  A    between atoms: N_15  and  C_14 
REMARK    7  A    between atoms: N_20  and  C_19 
REMARK       I    between atoms: C_22  and  N_20 
ROOT
ATOM      1  C   LIG d   1      -0.312  77.117 115.667  0.00  0.00     0.161 C 
ATOM      2  C   LIG d   1      -0.873  77.719 114.528  0.00  0.00     0.016 C 
ATOM      3  C   LIG d   1      -2.144  77.376 114.012  0.00  0.00     0.038 C 
ATOM      4  C   LIG d   1      -3.011  76.509 114.694  0.00  0.00     0.028 C 
ATOM      5  C   LIG d   1      -2.287  75.497 115.576  0.00  0.00    -0.047 C 
ATOM      6  C   LIG d   1      -1.290  76.249 116.487  0.00  0.00     0.091 C 
ENDROOT
BRANCH   1   7
ATOM      7  O   LIG d   1       0.289  78.124 116.505  0.00  0.00    -0.368 OA
BRANCH   7   8
ATOM      8  C   LIG d   1      -0.409  79.392 116.579  0.00  0.00     0.119 C 
BRANCH   8   9
ATOM      9  C   LIG d   1       0.646  80.508 116.449  0.00  0.00     0.028 C 
ATOM     10  C   LIG d   1       0.685  81.117 115.038  0.00  0.00     0.006 C 
ENDBRANCH   8   9
BRANCH   8  11
ATOM     11  C   LIG d   1      -1.049  79.596 117.954  0.00  0.00     0.028 C 
ATOM     12  C   LIG d   1      -0.995  81.058 118.425  0.00  0.00     0.006 C 
ENDBRANCH   8  11
ENDBRANCH   7   8
ENDBRANCH   1   7
BRANCH   6  13
ATOM     13  N   LIG d   1      -0.479  75.326 117.323  0.00  0.00    -0.311 N 
ATOM     14  C   LIG d   1      -0.409  75.410 118.651  0.00  0.00     0.210 C 
ATOM     15  C   LIG d   1       0.500  74.373 119.317  0.00  0.00     0.109 C 
ATOM     16  O   LIG d   1      -1.039  76.224 119.342  0.00  0.00    -0.276 OA
ATOM     17  H   LIG d   1       0.040  74.616 116.846  0.00  0.00     0.149 HD
ENDBRANCH   6  13
BRANCH   5  18
ATOM     18  N   LIG d   1      -3.310  74.751 116.331  0.00  0.00     0.381 N 
ATOM     19  H   LIG d   1      -4.126  74.627 115.765  0.00  0.00    -0.090 HD
ATOM     20  H   LIG d   1      -3.568  75.283 117.143  0.00  0.00    -0.090 HD
ATOM     21  H   LIG d   1      -2.951  73.863 116.607  0.00  0.00    -0.090 HD
ENDBRANCH   5  18
BRANCH   3  22
ATOM     22  C   LIG d   1      -2.543  77.872 112.781  0.00  0.00     0.382 C 
ATOM     23  O   LIG d   1      -2.100  77.359 111.725  0.00  0.00    -0.241 OA
ATOM     24  O   LIG d   1      -3.305  78.855 112.713  0.00  0.00    -0.241 OA
ENDBRANCH   3  22
TORSDOF 7
ENDMDL
MODEL 6
REMARK VINA RESULT:      -4.7      3.351      6.556
REMARK  7 active torsions:
REMARK  status: ('A' for Active; 'I' for Inactive)
REMARK    1  A    between atoms: C_2  and  C_3 
REMARK    2  A    between atoms: C_3  and  O_6 
REMARK    3  A    between atoms: C_3  and  C_4 
REMARK    4  A    between atoms: C_7  and  O_6 
REMARK    5  A    between atoms: C_9  and  C_10 
REMARK    6  A    between atoms: N_15  and  C_14 
REMARK    7  A    between atoms: N_20  and  C_19 
REMARK       I    between atoms: C_22  and  N_20 
ROOT
ATOM      1  C   LIG d   1      -0.190  79.928 114.376  0.00  0.00     0.161 C 
ATOM      2  C   LIG d   1      -0.445  81.204 113.848  0.00  0.00     0.016 C 
ATOM      3  C   LIG d   1      -1.222  81.426 112.688  0.00  0.00     0.038 C 
ATOM      4  C   LIG d   1      -1.927  80.389 112.059  0.00  0.00     0.028 C 
ATOM      5  C   LIG d   1      -1.293  79.017 112.258  0.00  0.00    -0.047 C 
ATOM      6  C   LIG d   1      -1.042  78.794 113.767  0.00  0.00     0.091 C 
ENDROOT
BRANCH   1   7
ATOM      7  O   LIG d   1      -0.339  79.953 115.809  0.00  0.00    -0.368 OA
BRANCH   7   8
ATOM      8  C   LIG d   1       0.854  79.666 116.579  0.00  0.00     0.119 C 
BRANCH   8   9
ATOM      9  C   LIG d   1       0.556  78.431 117.451  0.00  0.00     0.028 C 
ATOM     10  C   LIG d   1      -0.951  78.211 117.663  0.00  0.00     0.006 C 
ENDBRANCH   8   9
BRANCH   8  11
ATOM     11  C   LIG d   1       1.163  80.795 117.567  0.00  0.00     0.028 C 
ATOM     12  C   LIG d   1       0.045  81.846 117.641  0.00  0.00     0.006 C 
ENDBRANCH   8  11
ENDBRANCH   7   8
ENDBRANCH   1   7
BRANCH   6  13
ATOM     13  N   LIG d   1      -0.347  77.510 114.043  0.00  0.00    -0.311 N 
ATOM     14  C   LIG d   1      -0.978  76.401 114.422  0.00  0.00     0.210 C 
ATOM     15  C   LIG d   1      -0.070  75.193 114.674  0.00  0.00     0.109 C 
ATOM     16  O   LIG d   1      -2.208  76.293 114.542  0.00  0.00    -0.276 OA
ATOM     17  H   LIG d   1       0.649  77.500 113.940  0.00  0.00     0.149 HD
ENDBRANCH   6  13
BRANCH   5  18
ATOM     18  N   LIG d   1      -2.202  78.015 111.669  0.00  0.00     0.381 N 
ATOM     19  H   LIG d   1      -2.000  77.111 112.047  0.00  0.00    -0.090 HD
ATOM     20  H   LIG d   1      -2.051  77.983 110.676  0.00  0.00    -0.090 HD
ATOM     21  H   LIG d   1      -3.148  78.260 111.861  0.00  0.00    -0.090 HD
ENDBRANCH   5  18
BRANCH   3  22
ATOM     22  C   LIG d   1      -1.267  82.691 112.122  0.00  0.00     0.382 C 
ATOM     23  O   LIG d   1      -1.379  82.818 110.879  0.00  0.00    -0.241 OA
ATOM     24  O   LIG d   1      -1.151  83.706 112.834  0.00  0.00    -0.241 OA
ENDBRANCH   3  22
TORSDOF 7
ENDMDL
MODEL 7
REMARK VINA RESULT:      -4.7      1.601      2.203
REMARK  7 active torsions:
REMARK  status: ('A' for Active; 'I' for Inactive)
REMARK    1  A    between atoms: C_2  and  C_3 
REMARK    2  A    between atoms: C_3  and  O_6 
REMARK    3  A    between atoms: C_3  and  C_4 
REMARK    4  A    between atoms: C_7  and  O_6 
REMARK    5  A    between atoms: C_9  and  C_10 
REMARK    6  A    between atoms: N_15  and  C_14 
REMARK    7  A    between atoms: N_20  and  C_19 
REMARK       I    between atoms: C_22  and  N_20 
ROOT
ATOM      1  C   LIG d   1      -3.028  76.528 116.199  0.00  0.00     0.161 C 
ATOM      2  C   LIG d   1      -2.458  75.899 117.319  0.00  0.00     0.016 C 
ATOM      3  C   LIG d   1      -1.099  75.517 117.388  0.00  0.00     0.038 C 
ATOM      4  C   LIG d   1      -0.176  75.876 116.395  0.00  0.00     0.028 C 
ATOM      5  C   LIG d   1      -0.809  76.067 115.021  0.00  0.00    -0.047 C 
ATOM      6  C   LIG d   1      -2.012  77.028 115.151  0.00  0.00     0.091 C 
ENDROOT
BRANCH   1   7
ATOM      7  O   LIG d   1      -3.880  77.610 116.627  0.00  0.00    -0.368 OA
BRANCH   7   8
ATOM      8  C   LIG d   1      -5.293  77.456 116.351  0.00  0.00     0.119 C 
BRANCH   8   9
ATOM      9  C   LIG d   1      -6.047  77.617 117.685  0.00  0.00     0.028 C 
ATOM     10  C   LIG d   1      -7.216  78.611 117.583  0.00  0.00     0.006 C 
ENDBRANCH   8   9
BRANCH   8  11
ATOM     11  C   LIG d   1      -5.616  76.038 115.872  0.00  0.00     0.028 C 
ATOM     12  C   LIG d   1      -6.206  76.007 114.453  0.00  0.00     0.006 C 
ENDBRANCH   8  11
ENDBRANCH   7   8
ENDBRANCH   1   7
BRANCH   6  13
ATOM     13  N   LIG d   1      -2.740  77.203 113.867  0.00  0.00    -0.311 N 
ATOM     14  C   LIG d   1      -2.458  78.165 112.990  0.00  0.00     0.210 C 
ATOM     15  C   LIG d   1      -3.342  78.179 111.739  0.00  0.00     0.109 C 
ATOM     16  O   LIG d   1      -1.538  78.987 113.113  0.00  0.00    -0.276 OA
ATOM     17  H   LIG d   1      -3.482  76.560 113.672  0.00  0.00     0.149 HD
ENDBRANCH   6  13
BRANCH   5  18
ATOM     18  N   LIG d   1       0.239  76.572 114.114  0.00  0.00     0.381 N 
ATOM     19  H   LIG d   1       0.618  77.424 114.476  0.00  0.00    -0.090 HD
ATOM     20  H   LIG d   1      -0.172  76.766 113.217  0.00  0.00    -0.090 HD
ATOM     21  H   LIG d   1       0.962  75.894 114.016  0.00  0.00    -0.090 HD
ENDBRANCH   5  18
BRANCH   3  22
ATOM     22  C   LIG d   1      -0.659  74.731 118.443  0.00  0.00     0.382 C 
ATOM     23  O   LIG d   1      -1.483  74.282 119.276  0.00  0.00    -0.241 OA
ATOM     24  O   LIG d   1       0.556  74.503 118.597  0.00  0.00    -0.241 OA
ENDBRANCH   3  22
TORSDOF 7
ENDMDL
MODEL 8
REMARK VINA RESULT:      -4.7      1.765      4.978
REMARK  7 active torsions:
REMARK  status: ('A' for Active; 'I' for Inactive)
REMARK    1  A    between atoms: C_2  and  C_3 
REMARK    2  A    between atoms: C_3  and  O_6 
REMARK    3  A    between atoms: C_3  and  C_4 
REMARK    4  A    between atoms: C_7  and  O_6 
REMARK    5  A    between atoms: C_9  and  C_10 
REMARK    6  A    between atoms: N_15  and  C_14 
REMARK    7  A    between atoms: N_20  and  C_19 
REMARK       I    between atoms: C_22  and  N_20 
ROOT
ATOM      1  C   LIG d   1      -1.947  77.036 115.970  0.00  0.00     0.161 C 
ATOM      2  C   LIG d   1      -2.465  77.527 114.760  0.00  0.00     0.016 C 
ATOM      3  C   LIG d   1      -1.849  77.312 113.506  0.00  0.00     0.038 C 
ATOM      4  C   LIG d   1      -0.747  76.457 113.358  0.00  0.00     0.028 C 
ATOM      5  C   LIG d   1       0.107  76.347 114.616  0.00  0.00    -0.047 C 
ATOM      6  C   LIG d   1      -0.807  76.008 115.815  0.00  0.00     0.091 C 
ENDROOT
BRANCH   1   7
ATOM      7  O   LIG d   1      -3.012  76.486 116.770  0.00  0.00    -0.368 OA
BRANCH   7   8
ATOM      8  C   LIG d   1      -4.350  76.625 116.233  0.00  0.00     0.119 C 
BRANCH   8   9
ATOM      9  C   LIG d   1      -5.191  77.388 117.275  0.00  0.00     0.028 C 
ATOM     10  C   LIG d   1      -6.571  77.795 116.732  0.00  0.00     0.006 C 
ENDBRANCH   8   9
BRANCH   8  11
ATOM     11  C   LIG d   1      -5.034  75.263 116.078  0.00  0.00     0.028 C 
ATOM     12  C   LIG d   1      -5.424  74.954 114.624  0.00  0.00     0.006 C 
ENDBRANCH   8  11
ENDBRANCH   7   8
ENDBRANCH   1   7
BRANCH   6  13
ATOM     13  N   LIG d   1      -0.062  75.965 117.101  0.00  0.00    -0.311 N 
ATOM     14  C   LIG d   1      -0.319  75.085 118.068  0.00  0.00     0.210 C 
ATOM     15  C   LIG d   1       0.553  75.228 119.319  0.00  0.00     0.109 C 
ATOM     16  O   LIG d   1      -1.164  74.180 117.994  0.00  0.00    -0.276 OA
ATOM     17  H   LIG d   1       0.662  76.644 117.232  0.00  0.00     0.149 HD
ENDBRANCH   6  13
BRANCH   5  18
ATOM     18  N   LIG d   1       1.138  75.321 114.366  0.00  0.00     0.381 N 
ATOM     19  H   LIG d   1       0.702  74.436 114.201  0.00  0.00    -0.090 HD
ATOM     20  H   LIG d   1       1.719  75.240 115.182  0.00  0.00    -0.090 HD
ATOM     21  H   LIG d   1       1.692  75.579 113.579  0.00  0.00    -0.090 HD
ENDBRANCH   5  18
BRANCH   3  22
ATOM     22  C   LIG d   1      -2.313  77.988 112.387  0.00  0.00     0.382 C 
ATOM     23  O   LIG d   1      -3.041  79.001 112.524  0.00  0.00    -0.241 OA
ATOM     24  O   LIG d   1      -2.050  77.572 111.243  0.00  0.00    -0.241 OA
ENDBRANCH   3  22
TORSDOF 7
ENDMDL
MODEL 9
REMARK VINA RESULT:      -4.7      4.234      7.019
REMARK  7 active torsions:
REMARK  status: ('A' for Active; 'I' for Inactive)
REMARK    1  A    between atoms: C_2  and  C_3 
REMARK    2  A    between atoms: C_3  and  O_6 
REMARK    3  A    between atoms: C_3  and  C_4 
REMARK    4  A    between atoms: C_7  and  O_6 
REMARK    5  A    between atoms: C_9  and  C_10 
REMARK    6  A    between atoms: N_15  and  C_14 
REMARK    7  A    between atoms: N_20  and  C_19 
REMARK       I    between atoms: C_22  and  N_20 
ROOT
ATOM      1  C   LIG d   1      -0.339  80.755 113.192  0.00  0.00     0.161 C 
ATOM      2  C   LIG d   1      -1.017  79.602 113.622  0.00  0.00     0.016 C 
ATOM      3  C   LIG d   1      -1.463  78.588 112.744  0.00  0.00     0.038 C 
ATOM      4  C   LIG d   1      -1.123  78.584 111.383  0.00  0.00     0.028 C 
ATOM      5  C   LIG d   1      -0.874  79.978 110.817  0.00  0.00    -0.047 C 
ATOM      6  C   LIG d   1       0.138  80.715 111.725  0.00  0.00     0.091 C 
ENDROOT
BRANCH   1   7
ATOM      7  O   LIG d   1       0.770  81.026 114.072  0.00  0.00    -0.368 OA
BRANCH   7   8
ATOM      8  C   LIG d   1       0.545  82.032 115.090  0.00  0.00     0.119 C 
BRANCH   8   9
ATOM      9  C   LIG d   1       1.285  83.310 114.648  0.00  0.00     0.028 C 
ATOM     10  C   LIG d   1       0.329  84.496 114.433  0.00  0.00     0.006 C 
ENDBRANCH   8   9
BRANCH   8  11
ATOM     11  C   LIG d   1       1.188  81.631 116.421  0.00  0.00     0.028 C 
ATOM     12  C   LIG d   1       0.457  82.223 117.637  0.00  0.00     0.006 C 
ENDBRANCH   8  11
ENDBRANCH   7   8
ENDBRANCH   1   7
BRANCH   6  13
ATOM     13  N   LIG d   1       0.374  82.116 111.290  0.00  0.00    -0.311 N 
ATOM     14  C   LIG d   1      -0.600  83.013 111.146  0.00  0.00     0.210 C 
ATOM     15  C   LIG d   1      -0.142  84.395 110.669  0.00  0.00     0.109 C 
ATOM     16  O   LIG d   1      -1.797  82.805 111.399  0.00  0.00    -0.276 OA
ATOM     17  H   LIG d   1       1.319  82.379 111.094  0.00  0.00     0.149 HD
ENDBRANCH   6  13
BRANCH   5  18
ATOM     18  N   LIG d   1      -0.397  79.818 109.431  0.00  0.00     0.381 N 
ATOM     19  H   LIG d   1      -0.514  78.868 109.140  0.00  0.00    -0.090 HD
ATOM     20  H   LIG d   1       0.583  80.039 109.397  0.00  0.00    -0.090 HD
ATOM     21  H   LIG d   1      -0.903  80.424 108.823  0.00  0.00    -0.090 HD
ENDBRANCH   5  18
BRANCH   3  22
ATOM     22  C   LIG d   1      -2.290  77.582 113.219  0.00  0.00     0.382 C 
ATOM     23  O   LIG d   1      -1.845  76.735 114.031  0.00  0.00    -0.241 OA
ATOM     24  O   LIG d   1      -3.463  77.484 112.812  0.00  0.00    -0.241 OA
ENDBRANCH   3  22
TORSDOF 7
ENDMDL
