MODEL 1
REMARK VINA RESULT:      -5.2      0.000      0.000
REMARK  7 active torsions:
REMARK  status: ('A' for Active; 'I' for Inactive)
REMARK    1  A    between atoms: C_2  and  C_3 
REMARK    2  A    between atoms: C_3  and  O_6 
REMARK    3  A    between atoms: C_3  and  C_4 
REMARK    4  A    between atoms: C_7  and  O_6 
REMARK    5  A    between atoms: C_9  and  C_10 
REMARK    6  A    between atoms: N_15  and  C_14 
REMARK    7  A    between atoms: N_20  and  C_19 
REMARK       I    between atoms: C_22  and  N_20 
ROOT
ATOM      1  C   LIG d   1      -2.584  78.299 115.032  0.00  0.00     0.161 C 
ATOM      2  C   LIG d   1      -2.819  79.478 114.305  0.00  0.00     0.016 C 
ATOM      3  C   LIG d   1      -2.456  79.642 112.949  0.00  0.00     0.038 C 
ATOM      4  C   LIG d   1      -1.965  78.577 112.179  0.00  0.00     0.028 C 
ATOM      5  C   LIG d   1      -1.242  77.516 113.003  0.00  0.00    -0.047 C 
ATOM      6  C   LIG d   1      -2.150  77.089 114.178  0.00  0.00     0.091 C 
ENDROOT
BRANCH   1   7
ATOM      7  O   LIG d   1      -3.746  77.968 115.817  0.00  0.00    -0.368 OA
BRANCH   7   8
ATOM      8  C   LIG d   1      -3.588  78.047 117.255  0.00  0.00     0.119 C 
BRANCH   8   9
ATOM      9  C   LIG d   1      -4.524  79.161 117.763  0.00  0.00     0.028 C 
ATOM     10  C   LIG d   1      -6.010  78.799 117.601  0.00  0.00     0.006 C 
ENDBRANCH   8   9
BRANCH   8  11
ATOM     11  C   LIG d   1      -2.176  78.498 117.636  0.00  0.00     0.028 C 
ATOM     12  C   LIG d   1      -2.173  79.683 118.615  0.00  0.00     0.006 C 
ENDBRANCH   8  11
ENDBRANCH   7   8
ENDBRANCH   1   7
BRANCH   6  13
ATOM     13  N   LIG d   1      -1.486  76.115 115.083  0.00  0.00    -0.311 N 
ATOM     14  C   LIG d   1      -2.098  75.045 115.585  0.00  0.00     0.210 C 
ATOM     15  C   LIG d   1      -1.237  74.182 116.513  0.00  0.00     0.109 C 
ATOM     16  O   LIG d   1      -3.264  74.710 115.325  0.00  0.00    -0.276 OA
ATOM     17  H   LIG d   1      -0.530  76.293 115.321  0.00  0.00     0.149 HD
ENDBRANCH   6  13
BRANCH   5  18
ATOM     18  N   LIG d   1      -0.905  76.402 112.097  0.00  0.00     0.381 N 
ATOM     19  H   LIG d   1      -0.146  75.873 112.479  0.00  0.00    -0.090 HD
ATOM     20  H   LIG d   1      -0.614  76.778 111.213  0.00  0.00    -0.090 HD
ATOM     21  H   LIG d   1      -1.699  75.813 111.971  0.00  0.00    -0.090 HD
ENDBRANCH   5  18
BRANCH   3  22
ATOM     22  C   LIG d   1      -2.546  80.894 112.359  0.00  0.00     0.382 C 
ATOM     23  O   LIG d   1      -3.671  81.395 112.121  0.00  0.00    -0.241 OA
ATOM     24  O   LIG d   1      -1.516  81.509 112.023  0.00  0.00    -0.241 OA
ENDBRANCH   3  22
TORSDOF 7
ENDMDL
MODEL 2
REMARK VINA RESULT:      -5.1      2.275      3.063
REMARK  7 active torsions:
REMARK  status: ('A' for Active; 'I' for Inactive)
REMARK    1  A    between atoms: C_2  and  C_3 
REMARK    2  A    between atoms: C_3  and  O_6 
REMARK    3  A    between atoms: C_3  and  C_4 
REMARK    4  A    between atoms: C_7  and  O_6 
REMARK    5  A    between atoms: C_9  and  C_10 
REMARK    6  A    between atoms: N_15  and  C_14 
REMARK    7  A    between atoms: N_20  and  C_19 
REMARK       I    between atoms: C_22  and  N_20 
ROOT
ATOM      1  C   LIG d   1      -2.790  76.756 115.103  0.00  0.00     0.161 C 
ATOM      2  C   LIG d   1      -2.992  77.583 113.985  0.00  0.00     0.016 C 
ATOM      3  C   LIG d   1      -2.028  78.504 113.514  0.00  0.00     0.038 C 
ATOM      4  C   LIG d   1      -0.729  78.552 114.041  0.00  0.00     0.028 C 
ATOM      5  C   LIG d   1      -0.647  78.092 115.493  0.00  0.00    -0.047 C 
ATOM      6  C   LIG d   1      -1.338  76.715 115.623  0.00  0.00     0.091 C 
ENDROOT
BRANCH   1   7
ATOM      7  O   LIG d   1      -3.257  75.423 114.815  0.00  0.00    -0.368 OA
BRANCH   7   8
ATOM      8  C   LIG d   1      -4.333  74.930 115.650  0.00  0.00     0.119 C 
BRANCH   8   9
ATOM      9  C   LIG d   1      -5.500  74.544 114.721  0.00  0.00     0.028 C 
ATOM     10  C   LIG d   1      -6.296  75.768 114.238  0.00  0.00     0.006 C 
ENDBRANCH   8   9
BRANCH   8  11
ATOM     11  C   LIG d   1      -4.885  76.034 116.557  0.00  0.00     0.028 C 
ATOM     12  C   LIG d   1      -4.862  75.649 118.045  0.00  0.00     0.006 C 
ENDBRANCH   8  11
ENDBRANCH   7   8
ENDBRANCH   1   7
BRANCH   6  13
ATOM     13  N   LIG d   1      -1.377  76.231 117.028  0.00  0.00    -0.311 N 
ATOM     14  C   LIG d   1      -0.964  75.020 117.397  0.00  0.00     0.210 C 
ATOM     15  C   LIG d   1      -1.110  74.715 118.891  0.00  0.00     0.109 C 
ATOM     16  O   LIG d   1      -0.461  74.181 116.634  0.00  0.00    -0.276 OA
ATOM     17  H   LIG d   1      -1.741  76.859 117.717  0.00  0.00     0.149 HD
ENDBRANCH   6  13
BRANCH   5  18
ATOM     18  N   LIG d   1       0.778  78.062 115.871  0.00  0.00     0.381 N 
ATOM     19  H   LIG d   1       1.251  77.347 115.354  0.00  0.00    -0.090 HD
ATOM     20  H   LIG d   1       0.851  77.844 116.849  0.00  0.00    -0.090 HD
ATOM     21  H   LIG d   1       1.198  78.947 115.689  0.00  0.00    -0.090 HD
ENDBRANCH   5  18
BRANCH   3  22
ATOM     22  C   LIG d   1      -2.374  79.417 112.530  0.00  0.00     0.382 C 
ATOM     23  O   LIG d   1      -3.093  80.404 112.815  0.00  0.00    -0.241 OA
ATOM     24  O   LIG d   1      -2.012  79.242 111.351  0.00  0.00    -0.241 OA
ENDBRANCH   3  22
TORSDOF 7
ENDMDL
MODEL 3
REMARK VINA RESULT:      -4.6      2.790      5.725
REMARK  7 active torsions:
REMARK  status: ('A' for Active; 'I' for Inactive)
REMARK    1  A    between atoms: C_2  and  C_3 
REMARK    2  A    between atoms: C_3  and  O_6 
REMARK    3  A    between atoms: C_3  and  C_4 
REMARK    4  A    between atoms: C_7  and  O_6 
REMARK    5  A    between atoms: C_9  and  C_10 
REMARK    6  A    between atoms: N_15  and  C_14 
REMARK    7  A    between atoms: N_20  and  C_19 
REMARK       I    between atoms: C_22  and  N_20 
ROOT
ATOM      1  C   LIG d   1      -1.327  75.648 115.231  0.00  0.00     0.161 C 
ATOM      2  C   LIG d   1      -0.775  75.063 116.383  0.00  0.00     0.016 C 
ATOM      3  C   LIG d   1      -0.079  75.797 117.371  0.00  0.00     0.038 C 
ATOM      4  C   LIG d   1      -0.019  77.198 117.348  0.00  0.00     0.028 C 
ATOM      5  C   LIG d   1      -0.126  77.787 115.945  0.00  0.00    -0.047 C 
ATOM      6  C   LIG d   1      -1.367  77.190 115.244  0.00  0.00     0.091 C 
ENDROOT
BRANCH   1   7
ATOM      7  O   LIG d   1      -2.645  75.114 114.996  0.00  0.00    -0.368 OA
BRANCH   7   8
ATOM      8  C   LIG d   1      -3.745  75.850 115.585  0.00  0.00     0.119 C 
BRANCH   8   9
ATOM      9  C   LIG d   1      -4.262  75.031 116.783  0.00  0.00     0.028 C 
ATOM     10  C   LIG d   1      -3.950  75.702 118.131  0.00  0.00     0.006 C 
ENDBRANCH   8   9
BRANCH   8  11
ATOM     11  C   LIG d   1      -4.930  75.949 114.620  0.00  0.00     0.028 C 
ATOM     12  C   LIG d   1      -5.820  74.696 114.639  0.00  0.00     0.006 C 
ENDBRANCH   8  11
ENDBRANCH   7   8
ENDBRANCH   1   7
BRANCH   6  13
ATOM     13  N   LIG d   1      -1.499  77.649 113.837  0.00  0.00    -0.311 N 
ATOM     14  C   LIG d   1      -2.200  78.723 113.478  0.00  0.00     0.210 C 
ATOM     15  C   LIG d   1      -2.222  79.008 111.973  0.00  0.00     0.109 C 
ATOM     16  O   LIG d   1      -2.778  79.485 114.266  0.00  0.00    -0.276 OA
ATOM     17  H   LIG d   1      -1.035  77.106 113.135  0.00  0.00     0.149 HD
ENDBRANCH   6  13
BRANCH   5  18
ATOM     18  N   LIG d   1      -0.187  79.254 116.080  0.00  0.00     0.381 N 
ATOM     19  H   LIG d   1      -0.171  79.506 117.049  0.00  0.00    -0.090 HD
ATOM     20  H   LIG d   1      -1.051  79.581 115.684  0.00  0.00    -0.090 HD
ATOM     21  H   LIG d   1       0.583  79.673 115.608  0.00  0.00    -0.090 HD
ENDBRANCH   5  18
BRANCH   3  22
ATOM     22  C   LIG d   1       0.600  75.125 118.376  0.00  0.00     0.382 C 
ATOM     23  O   LIG d   1       1.854  75.125 118.393  0.00  0.00    -0.241 OA
ATOM     24  O   LIG d   1      -0.026  74.481 119.239  0.00  0.00    -0.241 OA
ENDBRANCH   3  22
TORSDOF 7
ENDMDL
MODEL 4
REMARK VINA RESULT:      -4.5      2.403      3.292
REMARK  7 active torsions:
REMARK  status: ('A' for Active; 'I' for Inactive)
REMARK    1  A    between atoms: C_2  and  C_3 
REMARK    2  A    between atoms: C_3  and  O_6 
REMARK    3  A    between atoms: C_3  and  C_4 
REMARK    4  A    between atoms: C_7  and  O_6 
REMARK    5  A    between atoms: C_9  and  C_10 
REMARK    6  A    between atoms: N_15  and  C_14 
REMARK    7  A    between atoms: N_20  and  C_19 
REMARK       I    between atoms: C_22  and  N_20 
ROOT
ATOM      1  C   LIG d   1      -0.783  78.541 114.285  0.00  0.00     0.161 C 
ATOM      2  C   LIG d   1      -0.020  79.373 113.449  0.00  0.00     0.016 C 
ATOM      3  C   LIG d   1      -0.365  79.657 112.108  0.00  0.00     0.038 C 
ATOM      4  C   LIG d   1      -1.586  79.245 111.554  0.00  0.00     0.028 C 
ATOM      5  C   LIG d   1      -2.150  77.984 112.199  0.00  0.00    -0.047 C 
ATOM      6  C   LIG d   1      -2.176  78.173 113.733  0.00  0.00     0.091 C 
ENDROOT
BRANCH   1   7
ATOM      7  O   LIG d   1      -0.904  79.138 115.591  0.00  0.00    -0.368 OA
BRANCH   7   8
ATOM      8  C   LIG d   1       0.081  78.729 116.572  0.00  0.00     0.119 C 
BRANCH   8   9
ATOM      9  C   LIG d   1      -0.635  77.834 117.602  0.00  0.00     0.028 C 
ATOM     10  C   LIG d   1      -0.344  76.340 117.384  0.00  0.00     0.006 C 
ENDBRANCH   8   9
BRANCH   8  11
ATOM     11  C   LIG d   1       0.604  79.928 117.369  0.00  0.00     0.028 C 
ATOM     12  C   LIG d   1       1.874  80.541 116.759  0.00  0.00     0.006 C 
ENDBRANCH   8  11
ENDBRANCH   7   8
ENDBRANCH   1   7
BRANCH   6  13
ATOM     13  N   LIG d   1      -2.636  76.953 114.446  0.00  0.00    -0.311 N 
ATOM     14  C   LIG d   1      -3.576  76.965 115.389  0.00  0.00     0.210 C 
ATOM     15  C   LIG d   1      -3.886  75.600 116.012  0.00  0.00     0.109 C 
ATOM     16  O   LIG d   1      -4.207  77.972 115.746  0.00  0.00    -0.276 OA
ATOM     17  H   LIG d   1      -2.199  76.087 114.197  0.00  0.00     0.149 HD
ENDBRANCH   6  13
BRANCH   5  18
ATOM     18  N   LIG d   1      -3.487  77.747 111.622  0.00  0.00     0.381 N 
ATOM     19  H   LIG d   1      -4.191  77.973 112.295  0.00  0.00    -0.090 HD
ATOM     20  H   LIG d   1      -3.573  76.773 111.390  0.00  0.00    -0.090 HD
ATOM     21  H   LIG d   1      -3.608  78.303 110.804  0.00  0.00    -0.090 HD
ENDBRANCH   5  18
BRANCH   3  22
ATOM     22  C   LIG d   1       0.536  80.326 111.294  0.00  0.00     0.382 C 
ATOM     23  O   LIG d   1       1.737  80.430 111.640  0.00  0.00    -0.241 OA
ATOM     24  O   LIG d   1       0.153  80.866 110.238  0.00  0.00    -0.241 OA
ENDBRANCH   3  22
TORSDOF 7
ENDMDL
MODEL 5
REMARK VINA RESULT:      -4.5      2.660      5.477
REMARK  7 active torsions:
REMARK  status: ('A' for Active; 'I' for Inactive)
REMARK    1  A    between atoms: C_2  and  C_3 
REMARK    2  A    between atoms: C_3  and  O_6 
REMARK    3  A    between atoms: C_3  and  C_4 
REMARK    4  A    between atoms: C_7  and  O_6 
REMARK    5  A    between atoms: C_9  and  C_10 
REMARK    6  A    between atoms: N_15  and  C_14 
REMARK    7  A    between atoms: N_20  and  C_19 
REMARK       I    between atoms: C_22  and  N_20 
ROOT
ATOM      1  C   LIG d   1      -1.604  77.587 114.519  0.00  0.00     0.161 C 
ATOM      2  C   LIG d   1      -2.896  77.141 114.194  0.00  0.00     0.016 C 
ATOM      3  C   LIG d   1      -3.733  76.452 115.102  0.00  0.00     0.038 C 
ATOM      4  C   LIG d   1      -3.391  76.294 116.453  0.00  0.00     0.028 C 
ATOM      5  C   LIG d   1      -1.886  76.283 116.699  0.00  0.00    -0.047 C 
ATOM      6  C   LIG d   1      -1.257  77.522 116.022  0.00  0.00     0.091 C 
ENDROOT
BRANCH   1   7
ATOM      7  O   LIG d   1      -1.408  78.924 114.017  0.00  0.00    -0.368 OA
BRANCH   7   8
ATOM      8  C   LIG d   1      -0.775  79.030 112.718  0.00  0.00     0.119 C 
BRANCH   8   9
ATOM      9  C   LIG d   1       0.488  79.896 112.889  0.00  0.00     0.028 C 
ATOM     10  C   LIG d   1       1.034  80.409 111.546  0.00  0.00     0.006 C 
ENDBRANCH   8   9
BRANCH   8  11
ATOM     11  C   LIG d   1      -1.659  79.793 111.728  0.00  0.00     0.028 C 
ATOM     12  C   LIG d   1      -2.621  80.772 112.419  0.00  0.00     0.006 C 
ENDBRANCH   8  11
ENDBRANCH   7   8
ENDBRANCH   1   7
BRANCH   6  13
ATOM     13  N   LIG d   1       0.224  77.544 116.142  0.00  0.00    -0.311 N 
ATOM     14  C   LIG d   1       0.921  78.647 116.409  0.00  0.00     0.210 C 
ATOM     15  C   LIG d   1       2.440  78.453 116.470  0.00  0.00     0.109 C 
ATOM     16  O   LIG d   1       0.425  79.761 116.633  0.00  0.00    -0.276 OA
ATOM     17  H   LIG d   1       0.706  76.677 116.006  0.00  0.00     0.149 HD
ENDBRANCH   6  13
BRANCH   5  18
ATOM     18  N   LIG d   1      -1.673  76.252 118.158  0.00  0.00     0.381 N 
ATOM     19  H   LIG d   1      -0.789  76.665 118.381  0.00  0.00    -0.090 HD
ATOM     20  H   LIG d   1      -1.660  75.295 118.464  0.00  0.00    -0.090 HD
ATOM     21  H   LIG d   1      -2.404  76.746 118.620  0.00  0.00    -0.090 HD
ENDBRANCH   5  18
BRANCH   3  22
ATOM     22  C   LIG d   1      -4.911  75.877 114.649  0.00  0.00     0.382 C 
ATOM     23  O   LIG d   1      -4.935  74.663 114.333  0.00  0.00    -0.241 OA
ATOM     24  O   LIG d   1      -5.939  76.566 114.512  0.00  0.00    -0.241 OA
ENDBRANCH   3  22
TORSDOF 7
ENDMDL
MODEL 6
REMARK VINA RESULT:      -4.4      2.400      3.280
REMARK  7 active torsions:
REMARK  status: ('A' for Active; 'I' for Inactive)
REMARK    1  A    between atoms: C_2  and  C_3 
REMARK    2  A    between atoms: C_3  and  O_6 
REMARK    3  A    between atoms: C_3  and  C_4 
REMARK    4  A    between atoms: C_7  and  O_6 
REMARK    5  A    between atoms: C_9  and  C_10 
REMARK    6  A    between atoms: N_15  and  C_14 
REMARK    7  A    between atoms: N_20  and  C_19 
REMARK       I    between atoms: C_22  and  N_20 
ROOT
ATOM      1  C   LIG d   1      -1.527  77.712 114.822  0.00  0.00     0.161 C 
ATOM      2  C   LIG d   1      -0.565  78.622 114.351  0.00  0.00     0.016 C 
ATOM      3  C   LIG d   1      -0.608  79.202 113.062  0.00  0.00     0.038 C 
ATOM      4  C   LIG d   1      -1.706  79.026 112.206  0.00  0.00     0.028 C 
ATOM      5  C   LIG d   1      -2.453  77.718 112.440  0.00  0.00    -0.047 C 
ATOM      6  C   LIG d   1      -2.790  77.595 113.944  0.00  0.00     0.091 C 
ENDROOT
BRANCH   1   7
ATOM      7  O   LIG d   1      -1.888  78.041 116.178  0.00  0.00    -0.368 OA
BRANCH   7   8
ATOM      8  C   LIG d   1      -1.228  77.276 117.216  0.00  0.00     0.119 C 
BRANCH   8   9
ATOM      9  C   LIG d   1      -0.811  75.926 116.603  0.00  0.00     0.028 C 
ATOM     10  C   LIG d   1       0.673  75.602 116.848  0.00  0.00     0.006 C 
ENDBRANCH   8   9
BRANCH   8  11
ATOM     11  C   LIG d   1      -2.195  76.925 118.350  0.00  0.00     0.028 C 
ATOM     12  C   LIG d   1      -2.787  75.513 118.213  0.00  0.00     0.006 C 
ENDBRANCH   8  11
ENDBRANCH   7   8
ENDBRANCH   1   7
BRANCH   6  13
ATOM     13  N   LIG d   1      -3.449  76.304 114.273  0.00  0.00    -0.311 N 
ATOM     14  C   LIG d   1      -4.530  76.208 115.044  0.00  0.00     0.210 C 
ATOM     15  C   LIG d   1      -5.037  74.781 115.274  0.00  0.00     0.109 C 
ATOM     16  O   LIG d   1      -5.138  77.172 115.534  0.00  0.00    -0.276 OA
ATOM     17  H   LIG d   1      -3.040  75.473 113.892  0.00  0.00     0.149 HD
ENDBRANCH   6  13
BRANCH   5  18
ATOM     18  N   LIG d   1      -3.650  77.729 111.579  0.00  0.00     0.381 N 
ATOM     19  H   LIG d   1      -4.134  78.599 111.681  0.00  0.00    -0.090 HD
ATOM     20  H   LIG d   1      -4.266  76.989 111.868  0.00  0.00    -0.090 HD
ATOM     21  H   LIG d   1      -3.386  77.597 110.627  0.00  0.00    -0.090 HD
ENDBRANCH   5  18
BRANCH   3  22
ATOM     22  C   LIG d   1       0.475  79.936 112.603  0.00  0.00     0.382 C 
ATOM     23  O   LIG d   1       0.628  80.123 111.372  0.00  0.00    -0.241 OA
ATOM     24  O   LIG d   1       1.325  80.374 113.400  0.00  0.00    -0.241 OA
ENDBRANCH   3  22
TORSDOF 7
ENDMDL
MODEL 7
REMARK VINA RESULT:      -4.4      1.672      2.334
REMARK  7 active torsions:
REMARK  status: ('A' for Active; 'I' for Inactive)
REMARK    1  A    between atoms: C_2  and  C_3 
REMARK    2  A    between atoms: C_3  and  O_6 
REMARK    3  A    between atoms: C_3  and  C_4 
REMARK    4  A    between atoms: C_7  and  O_6 
REMARK    5  A    between atoms: C_9  and  C_10 
REMARK    6  A    between atoms: N_15  and  C_14 
REMARK    7  A    between atoms: N_20  and  C_19 
REMARK       I    between atoms: C_22  and  N_20 
ROOT
ATOM      1  C   LIG d   1      -2.409  78.005 116.180  0.00  0.00     0.161 C 
ATOM      2  C   LIG d   1      -2.675  78.864 115.101  0.00  0.00     0.016 C 
ATOM      3  C   LIG d   1      -2.279  78.590 113.772  0.00  0.00     0.038 C 
ATOM      4  C   LIG d   1      -1.719  77.358 113.404  0.00  0.00     0.028 C 
ATOM      5  C   LIG d   1      -0.974  76.668 114.542  0.00  0.00    -0.047 C 
ATOM      6  C   LIG d   1      -1.897  76.605 115.781  0.00  0.00     0.091 C 
ENDROOT
BRANCH   1   7
ATOM      7  O   LIG d   1      -3.578  77.892 117.014  0.00  0.00    -0.368 OA
BRANCH   7   8
ATOM      8  C   LIG d   1      -4.849  77.814 116.323  0.00  0.00     0.119 C 
BRANCH   8   9
ATOM      9  C   LIG d   1      -5.877  78.608 117.153  0.00  0.00     0.028 C 
ATOM     10  C   LIG d   1      -5.236  79.780 117.915  0.00  0.00     0.006 C 
ENDBRANCH   8   9
BRANCH   8  11
ATOM     11  C   LIG d   1      -5.378  76.377 116.289  0.00  0.00     0.028 C 
ATOM     12  C   LIG d   1      -5.329  75.757 114.884  0.00  0.00     0.006 C 
ENDBRANCH   8  11
ENDBRANCH   7   8
ENDBRANCH   1   7
BRANCH   6  13
ATOM     13  N   LIG d   1      -1.216  76.020 116.965  0.00  0.00    -0.311 N 
ATOM     14  C   LIG d   1      -1.643  74.923 117.588  0.00  0.00     0.210 C 
ATOM     15  C   LIG d   1      -0.807  74.501 118.801  0.00  0.00     0.109 C 
ATOM     16  O   LIG d   1      -2.615  74.241 117.232  0.00  0.00    -0.276 OA
ATOM     17  H   LIG d   1      -0.401  76.493 117.302  0.00  0.00     0.149 HD
ENDBRANCH   6  13
BRANCH   5  18
ATOM     18  N   LIG d   1      -0.561  75.336 114.061  0.00  0.00     0.381 N 
ATOM     19  H   LIG d   1      -1.315  74.907 113.563  0.00  0.00    -0.090 HD
ATOM     20  H   LIG d   1      -0.337  74.759 114.853  0.00  0.00    -0.090 HD
ATOM     21  H   LIG d   1       0.234  75.420 113.467  0.00  0.00    -0.090 HD
ENDBRANCH   5  18
BRANCH   3  22
ATOM     22  C   LIG d   1      -2.407  79.571 112.800  0.00  0.00     0.382 C 
ATOM     23  O   LIG d   1      -2.996  80.646 113.068  0.00  0.00    -0.241 OA
ATOM     24  O   LIG d   1      -1.980  79.378 111.646  0.00  0.00    -0.241 OA
ENDBRANCH   3  22
TORSDOF 7
ENDMDL
MODEL 8
REMARK VINA RESULT:      -4.3      2.693      5.019
REMARK  7 active torsions:
REMARK  status: ('A' for Active; 'I' for Inactive)
REMARK    1  A    between atoms: C_2  and  C_3 
REMARK    2  A    between atoms: C_3  and  O_6 
REMARK    3  A    between atoms: C_3  and  C_4 
REMARK    4  A    between atoms: C_7  and  O_6 
REMARK    5  A    between atoms: C_9  and  C_10 
REMARK    6  A    between atoms: N_15  and  C_14 
REMARK    7  A    between atoms: N_20  and  C_19 
REMARK       I    between atoms: C_22  and  N_20 
ROOT
ATOM      1  C   LIG d   1      -1.057  78.735 114.638  0.00  0.00     0.161 C 
ATOM      2  C   LIG d   1      -1.975  77.759 115.060  0.00  0.00     0.016 C 
ATOM      3  C   LIG d   1      -2.899  77.133 114.193  0.00  0.00     0.038 C 
ATOM      4  C   LIG d   1      -2.866  77.332 112.805  0.00  0.00     0.028 C 
ATOM      5  C   LIG d   1      -2.291  78.686 112.401  0.00  0.00    -0.047 C 
ATOM      6  C   LIG d   1      -0.931  78.885 113.107  0.00  0.00     0.091 C 
ENDROOT
BRANCH   1   7
ATOM      7  O   LIG d   1       0.234  78.478 115.224  0.00  0.00    -0.368 OA
BRANCH   7   8
ATOM      8  C   LIG d   1       0.240  78.157 116.637  0.00  0.00     0.119 C 
BRANCH   8   9
ATOM      9  C   LIG d   1       0.795  79.382 117.388  0.00  0.00     0.028 C 
ATOM     10  C   LIG d   1      -0.313  80.206 118.067  0.00  0.00     0.006 C 
ENDBRANCH   8   9
BRANCH   8  11
ATOM     11  C   LIG d   1       1.215  77.017 116.945  0.00  0.00     0.028 C 
ATOM     12  C   LIG d   1       0.503  75.689 117.251  0.00  0.00     0.006 C 
ENDBRANCH   8  11
ENDBRANCH   7   8
ENDBRANCH   1   7
BRANCH   6  13
ATOM     13  N   LIG d   1      -0.339  80.220 112.833  0.00  0.00    -0.311 N 
ATOM     14  C   LIG d   1       0.373  80.497 111.742  0.00  0.00     0.210 C 
ATOM     15  C   LIG d   1       0.908  81.930 111.665  0.00  0.00     0.109 C 
ATOM     16  O   LIG d   1       0.585  79.701 110.815  0.00  0.00    -0.276 OA
ATOM     17  H   LIG d   1      -0.489  80.935 113.518  0.00  0.00     0.149 HD
ENDBRANCH   6  13
BRANCH   5  18
ATOM     18  N   LIG d   1      -2.187  78.705 110.930  0.00  0.00     0.381 N 
ATOM     19  H   LIG d   1      -1.834  77.828 110.604  0.00  0.00    -0.090 HD
ATOM     20  H   LIG d   1      -1.541  79.426 110.659  0.00  0.00    -0.090 HD
ATOM     21  H   LIG d   1      -3.081  78.882 110.527  0.00  0.00    -0.090 HD
ENDBRANCH   5  18
BRANCH   3  22
ATOM     22  C   LIG d   1      -3.897  76.326 114.718  0.00  0.00     0.382 C 
ATOM     23  O   LIG d   1      -5.029  76.808 114.965  0.00  0.00    -0.241 OA
ATOM     24  O   LIG d   1      -3.666  75.133 114.991  0.00  0.00    -0.241 OA
ENDBRANCH   3  22
TORSDOF 7
ENDMDL
MODEL 9
REMARK VINA RESULT:      -4.2      2.500      5.092
REMARK  7 active torsions:
REMARK  status: ('A' for Active; 'I' for Inactive)
REMARK    1  A    between atoms: C_2  and  C_3 
REMARK    2  A    between atoms: C_3  and  O_6 
REMARK    3  A    between atoms: C_3  and  C_4 
REMARK    4  A    between atoms: C_7  and  O_6 
REMARK    5  A    between atoms: C_9  and  C_10 
REMARK    6  A    between atoms: N_15  and  C_14 
REMARK    7  A    between atoms: N_20  and  C_19 
REMARK       I    between atoms: C_22  and  N_20 
ROOT
ATOM      1  C   LIG d   1      -1.389  78.651 115.151  0.00  0.00     0.161 C 
ATOM      2  C   LIG d   1      -1.746  77.535 115.925  0.00  0.00     0.016 C 
ATOM      3  C   LIG d   1      -1.794  76.217 115.415  0.00  0.00     0.038 C 
ATOM      4  C   LIG d   1      -1.340  75.905 114.125  0.00  0.00     0.028 C 
ATOM      5  C   LIG d   1      -1.449  77.069 113.146  0.00  0.00    -0.047 C 
ATOM      6  C   LIG d   1      -0.784  78.315 113.772  0.00  0.00     0.091 C 
ENDROOT
BRANCH   1   7
ATOM      7  O   LIG d   1      -0.494  79.499 115.898  0.00  0.00    -0.368 OA
BRANCH   7   8
ATOM      8  C   LIG d   1      -0.144  79.041 117.228  0.00  0.00     0.119 C 
BRANCH   8   9
ATOM      9  C   LIG d   1      -0.494  80.172 118.214  0.00  0.00     0.028 C 
ATOM     10  C   LIG d   1      -1.842  79.940 118.918  0.00  0.00     0.006 C 
ENDBRANCH   8   9
BRANCH   8  11
ATOM     11  C   LIG d   1       1.367  78.835 117.366  0.00  0.00     0.028 C 
ATOM     12  C   LIG d   1       2.132  79.143 116.069  0.00  0.00     0.006 C 
ENDBRANCH   8  11
ENDBRANCH   7   8
ENDBRANCH   1   7
BRANCH   6  13
ATOM     13  N   LIG d   1      -0.920  79.522 112.915  0.00  0.00    -0.311 N 
ATOM     14  C   LIG d   1       0.117  80.248 112.501  0.00  0.00     0.210 C 
ATOM     15  C   LIG d   1      -0.247  81.463 111.642  0.00  0.00     0.109 C 
ATOM     16  O   LIG d   1       1.305  79.983 112.737  0.00  0.00    -0.276 OA
ATOM     17  H   LIG d   1      -1.848  79.791 112.650  0.00  0.00     0.149 HD
ENDBRANCH   6  13
BRANCH   5  18
ATOM     18  N   LIG d   1      -0.816  76.649 111.882  0.00  0.00     0.381 N 
ATOM     19  H   LIG d   1      -0.036  76.052 112.075  0.00  0.00    -0.090 HD
ATOM     20  H   LIG d   1      -0.477  77.464 111.401  0.00  0.00    -0.090 HD
ATOM     21  H   LIG d   1      -1.477  76.169 111.312  0.00  0.00    -0.090 HD
ENDBRANCH   5  18
BRANCH   3  22
ATOM     22  C   LIG d   1      -2.339  75.201 116.186  0.00  0.00     0.382 C 
ATOM     23  O   LIG d   1      -2.321  75.285 117.437  0.00  0.00    -0.241 OA
ATOM     24  O   LIG d   1      -2.808  74.182 115.646  0.00  0.00    -0.241 OA
ENDBRANCH   3  22
TORSDOF 7
ENDMDL
