MODEL 1
REMARK VINA RESULT:      -5.2      0.000      0.000
REMARK  7 active torsions:
REMARK  status: ('A' for Active; 'I' for Inactive)
REMARK    1  A    between atoms: C_2  and  C_3 
REMARK    2  A    between atoms: C_3  and  O_6 
REMARK    3  A    between atoms: C_3  and  C_4 
REMARK    4  A    between atoms: C_7  and  O_6 
REMARK    5  A    between atoms: C_9  and  C_10 
REMARK    6  A    between atoms: N_15  and  C_14 
REMARK    7  A    between atoms: N_20  and  C_19 
REMARK       I    between atoms: C_22  and  N_20 
ROOT
ATOM      1  C   LIG d   1      -2.874  77.780 114.167  0.00  0.00     0.161 C 
ATOM      2  C   LIG d   1      -3.170  78.902 113.375  0.00  0.00     0.016 C 
ATOM      3  C   LIG d   1      -2.386  80.078 113.368  0.00  0.00     0.038 C 
ATOM      4  C   LIG d   1      -1.159  80.155 114.043  0.00  0.00     0.028 C 
ATOM      5  C   LIG d   1      -1.075  79.233 115.255  0.00  0.00    -0.047 C 
ATOM      6  C   LIG d   1      -1.479  77.804 114.826  0.00  0.00     0.091 C 
ENDROOT
BRANCH   1   7
ATOM      7  O   LIG d   1      -3.042  76.577 113.392  0.00  0.00    -0.368 OA
BRANCH   7   8
ATOM      8  C   LIG d   1      -3.918  75.571 113.957  0.00  0.00     0.119 C 
BRANCH   8   9
ATOM      9  C   LIG d   1      -4.910  75.149 112.855  0.00  0.00     0.028 C 
ATOM     10  C   LIG d   1      -5.674  76.346 112.264  0.00  0.00     0.006 C 
ENDBRANCH   8   9
BRANCH   8  11
ATOM     11  C   LIG d   1      -4.783  76.153 115.079  0.00  0.00     0.028 C 
ATOM     12  C   LIG d   1      -4.836  75.248 116.320  0.00  0.00     0.006 C 
ENDBRANCH   8  11
ENDBRANCH   7   8
ENDBRANCH   1   7
BRANCH   6  13
ATOM     13  N   LIG d   1      -1.506  76.855 115.969  0.00  0.00    -0.311 N 
ATOM     14  C   LIG d   1      -0.992  75.627 115.916  0.00  0.00     0.210 C 
ATOM     15  C   LIG d   1      -1.143  74.806 117.200  0.00  0.00     0.109 C 
ATOM     16  O   LIG d   1      -0.396  75.152 114.937  0.00  0.00    -0.276 OA
ATOM     17  H   LIG d   1      -1.942  77.170 116.813  0.00  0.00     0.149 HD
ENDBRANCH   6  13
BRANCH   5  18
ATOM     18  N   LIG d   1       0.300  79.312 115.781  0.00  0.00     0.381 N 
ATOM     19  H   LIG d   1       0.336  79.964 116.539  0.00  0.00    -0.090 HD
ATOM     20  H   LIG d   1       0.909  79.641 115.052  0.00  0.00    -0.090 HD
ATOM     21  H   LIG d   1       0.599  78.413 116.092  0.00  0.00    -0.090 HD
ENDBRANCH   5  18
BRANCH   3  22
ATOM     22  C   LIG d   1      -2.848  81.208 112.711  0.00  0.00     0.382 C 
ATOM     23  O   LIG d   1      -4.072  81.335 112.466  0.00  0.00    -0.241 OA
ATOM     24  O   LIG d   1      -2.051  82.082 112.320  0.00  0.00    -0.241 OA
ENDBRANCH   3  22
TORSDOF 7
ENDMDL
MODEL 2
REMARK VINA RESULT:      -5.1      2.100      4.885
REMARK  7 active torsions:
REMARK  status: ('A' for Active; 'I' for Inactive)
REMARK    1  A    between atoms: C_2  and  C_3 
REMARK    2  A    between atoms: C_3  and  O_6 
REMARK    3  A    between atoms: C_3  and  C_4 
REMARK    4  A    between atoms: C_7  and  O_6 
REMARK    5  A    between atoms: C_9  and  C_10 
REMARK    6  A    between atoms: N_15  and  C_14 
REMARK    7  A    between atoms: N_20  and  C_19 
REMARK       I    between atoms: C_22  and  N_20 
ROOT
ATOM      1  C   LIG d   1      -2.290  75.992 114.336  0.00  0.00     0.161 C 
ATOM      2  C   LIG d   1      -2.477  75.363 115.578  0.00  0.00     0.016 C 
ATOM      3  C   LIG d   1      -2.448  76.053 116.812  0.00  0.00     0.038 C 
ATOM      4  C   LIG d   1      -2.379  77.453 116.878  0.00  0.00     0.028 C 
ATOM      5  C   LIG d   1      -1.683  78.082 115.676  0.00  0.00    -0.047 C 
ATOM      6  C   LIG d   1      -2.325  77.534 114.381  0.00  0.00     0.091 C 
ENDROOT
BRANCH   1   7
ATOM      7  O   LIG d   1      -3.255  75.496 113.387  0.00  0.00    -0.368 OA
BRANCH   7   8
ATOM      8  C   LIG d   1      -4.629  75.900 113.606  0.00  0.00     0.119 C 
BRANCH   8   9
ATOM      9  C   LIG d   1      -5.444  74.626 113.903  0.00  0.00     0.028 C 
ATOM     10  C   LIG d   1      -6.132  74.677 115.278  0.00  0.00     0.006 C 
ENDBRANCH   8   9
BRANCH   8  11
ATOM     11  C   LIG d   1      -5.247  76.488 112.334  0.00  0.00     0.028 C 
ATOM     12  C   LIG d   1      -6.776  76.616 112.417  0.00  0.00     0.006 C 
ENDBRANCH   8  11
ENDBRANCH   7   8
ENDBRANCH   1   7
BRANCH   6  13
ATOM     13  N   LIG d   1      -1.646  78.034 113.156  0.00  0.00    -0.311 N 
ATOM     14  C   LIG d   1      -2.093  79.064 112.439  0.00  0.00     0.210 C 
ATOM     15  C   LIG d   1      -1.255  79.403 111.203  0.00  0.00     0.109 C 
ATOM     16  O   LIG d   1      -3.086  79.749 112.728  0.00  0.00    -0.276 OA
ATOM     17  H   LIG d   1      -0.816  77.556 112.867  0.00  0.00     0.149 HD
ENDBRANCH   6  13
BRANCH   5  18
ATOM     18  N   LIG d   1      -1.803  79.546 115.807  0.00  0.00     0.381 N 
ATOM     19  H   LIG d   1      -1.157  79.879 116.494  0.00  0.00    -0.090 HD
ATOM     20  H   LIG d   1      -2.734  79.769 116.114  0.00  0.00    -0.090 HD
ATOM     21  H   LIG d   1      -1.622  79.983 114.930  0.00  0.00    -0.090 HD
ENDBRANCH   5  18
BRANCH   3  22
ATOM     22  C   LIG d   1      -2.448  75.337 118.000  0.00  0.00     0.382 C 
ATOM     23  O   LIG d   1      -1.964  74.180 118.034  0.00  0.00    -0.241 OA
ATOM     24  O   LIG d   1      -2.965  75.817 119.026  0.00  0.00    -0.241 OA
ENDBRANCH   3  22
TORSDOF 7
ENDMDL
MODEL 3
REMARK VINA RESULT:      -5.1      1.331      2.050
REMARK  7 active torsions:
REMARK  status: ('A' for Active; 'I' for Inactive)
REMARK    1  A    between atoms: C_2  and  C_3 
REMARK    2  A    between atoms: C_3  and  O_6 
REMARK    3  A    between atoms: C_3  and  C_4 
REMARK    4  A    between atoms: C_7  and  O_6 
REMARK    5  A    between atoms: C_9  and  C_10 
REMARK    6  A    between atoms: N_15  and  C_14 
REMARK    7  A    between atoms: N_20  and  C_19 
REMARK       I    between atoms: C_22  and  N_20 
ROOT
ATOM      1  C   LIG d   1      -2.274  78.006 114.293  0.00  0.00     0.161 C 
ATOM      2  C   LIG d   1      -2.661  79.031 113.413  0.00  0.00     0.016 C 
ATOM      3  C   LIG d   1      -2.156  80.349 113.484  0.00  0.00     0.038 C 
ATOM      4  C   LIG d   1      -1.109  80.697 114.351  0.00  0.00     0.028 C 
ATOM      5  C   LIG d   1      -1.042  79.824 115.600  0.00  0.00    -0.047 C 
ATOM      6  C   LIG d   1      -1.052  78.338 115.174  0.00  0.00     0.091 C 
ENDROOT
BRANCH   1   7
ATOM      7  O   LIG d   1      -2.045  76.789 113.555  0.00  0.00    -0.368 OA
BRANCH   7   8
ATOM      8  C   LIG d   1      -2.582  75.578 114.142  0.00  0.00     0.119 C 
BRANCH   8   9
ATOM      9  C   LIG d   1      -1.725  74.400 113.637  0.00  0.00     0.028 C 
ATOM     10  C   LIG d   1      -0.222  74.627 113.867  0.00  0.00     0.006 C 
ENDBRANCH   8   9
BRANCH   8  11
ATOM     11  C   LIG d   1      -3.999  75.295 113.636  0.00  0.00     0.028 C 
ATOM     12  C   LIG d   1      -5.046  75.304 114.761  0.00  0.00     0.006 C 
ENDBRANCH   8  11
ENDBRANCH   7   8
ENDBRANCH   1   7
BRANCH   6  13
ATOM     13  N   LIG d   1      -1.073  77.415 116.339  0.00  0.00    -0.311 N 
ATOM     14  C   LIG d   1       0.025  76.883 116.873  0.00  0.00     0.210 C 
ATOM     15  C   LIG d   1      -0.223  75.941 118.056  0.00  0.00     0.109 C 
ATOM     16  O   LIG d   1       1.182  77.126 116.500  0.00  0.00    -0.276 OA
ATOM     17  H   LIG d   1      -1.969  77.188 116.724  0.00  0.00     0.149 HD
ENDBRANCH   6  13
BRANCH   5  18
ATOM     18  N   LIG d   1       0.173  80.204 116.344  0.00  0.00     0.381 N 
ATOM     19  H   LIG d   1       0.396  81.162 116.163  0.00  0.00    -0.090 HD
ATOM     20  H   LIG d   1       0.939  79.637 116.028  0.00  0.00    -0.090 HD
ATOM     21  H   LIG d   1       0.031  80.068 117.321  0.00  0.00    -0.090 HD
ENDBRANCH   5  18
BRANCH   3  22
ATOM     22  C   LIG d   1      -2.727  81.347 112.708  0.00  0.00     0.382 C 
ATOM     23  O   LIG d   1      -2.002  82.229 112.188  0.00  0.00    -0.241 OA
ATOM     24  O   LIG d   1      -3.962  81.401 112.558  0.00  0.00    -0.241 OA
ENDBRANCH   3  22
TORSDOF 7
ENDMDL
MODEL 4
REMARK VINA RESULT:      -5.0      2.735      4.185
REMARK  7 active torsions:
REMARK  status: ('A' for Active; 'I' for Inactive)
REMARK    1  A    between atoms: C_2  and  C_3 
REMARK    2  A    between atoms: C_3  and  O_6 
REMARK    3  A    between atoms: C_3  and  C_4 
REMARK    4  A    between atoms: C_7  and  O_6 
REMARK    5  A    between atoms: C_9  and  C_10 
REMARK    6  A    between atoms: N_15  and  C_14 
REMARK    7  A    between atoms: N_20  and  C_19 
REMARK       I    between atoms: C_22  and  N_20 
ROOT
ATOM      1  C   LIG d   1      -1.870  79.816 116.059  0.00  0.00     0.161 C 
ATOM      2  C   LIG d   1      -2.369  80.675 115.066  0.00  0.00     0.016 C 
ATOM      3  C   LIG d   1      -2.568  80.280 113.723  0.00  0.00     0.038 C 
ATOM      4  C   LIG d   1      -2.423  78.946 113.313  0.00  0.00     0.028 C 
ATOM      5  C   LIG d   1      -1.437  78.154 114.167  0.00  0.00    -0.047 C 
ATOM      6  C   LIG d   1      -1.811  78.328 115.656  0.00  0.00     0.091 C 
ENDROOT
BRANCH   1   7
ATOM      7  O   LIG d   1      -2.632  79.978 117.272  0.00  0.00    -0.368 OA
BRANCH   7   8
ATOM      8  C   LIG d   1      -3.341  81.233 117.417  0.00  0.00     0.119 C 
BRANCH   8   9
ATOM      9  C   LIG d   1      -2.776  81.942 118.662  0.00  0.00     0.028 C 
ATOM     10  C   LIG d   1      -1.358  82.490 118.433  0.00  0.00     0.006 C 
ENDBRANCH   8   9
BRANCH   8  11
ATOM     11  C   LIG d   1      -4.825  81.002 117.719  0.00  0.00     0.028 C 
ATOM     12  C   LIG d   1      -5.202  79.513 117.753  0.00  0.00     0.006 C 
ENDBRANCH   8  11
ENDBRANCH   7   8
ENDBRANCH   1   7
BRANCH   6  13
ATOM     13  N   LIG d   1      -0.848  77.654 116.565  0.00  0.00    -0.311 N 
ATOM     14  C   LIG d   1      -1.019  76.417 117.029  0.00  0.00     0.210 C 
ATOM     15  C   LIG d   1       0.084  75.920 117.968  0.00  0.00     0.109 C 
ATOM     16  O   LIG d   1      -1.964  75.673 116.726  0.00  0.00    -0.276 OA
ATOM     17  H   LIG d   1      -0.036  78.174 116.837  0.00  0.00     0.149 HD
ENDBRANCH   6  13
BRANCH   5  18
ATOM     18  N   LIG d   1      -1.487  76.750 113.718  0.00  0.00     0.381 N 
ATOM     19  H   LIG d   1      -1.276  76.142 114.483  0.00  0.00    -0.090 HD
ATOM     20  H   LIG d   1      -0.792  76.612 113.005  0.00  0.00    -0.090 HD
ATOM     21  H   LIG d   1      -2.391  76.540 113.356  0.00  0.00    -0.090 HD
ENDBRANCH   5  18
BRANCH   3  22
ATOM     22  C   LIG d   1      -2.877  81.233 112.764  0.00  0.00     0.382 C 
ATOM     23  O   LIG d   1      -4.074  81.441 112.452  0.00  0.00    -0.241 OA
ATOM     24  O   LIG d   1      -1.973  81.856 112.177  0.00  0.00    -0.241 OA
ENDBRANCH   3  22
TORSDOF 7
ENDMDL
MODEL 5
REMARK VINA RESULT:      -4.9      2.130      4.505
REMARK  7 active torsions:
REMARK  status: ('A' for Active; 'I' for Inactive)
REMARK    1  A    between atoms: C_2  and  C_3 
REMARK    2  A    between atoms: C_3  and  O_6 
REMARK    3  A    between atoms: C_3  and  C_4 
REMARK    4  A    between atoms: C_7  and  O_6 
REMARK    5  A    between atoms: C_9  and  C_10 
REMARK    6  A    between atoms: N_15  and  C_14 
REMARK    7  A    between atoms: N_20  and  C_19 
REMARK       I    between atoms: C_22  and  N_20 
ROOT
ATOM      1  C   LIG d   1      -1.596  77.717 113.966  0.00  0.00     0.161 C 
ATOM      2  C   LIG d   1      -2.866  77.351 113.491  0.00  0.00     0.016 C 
ATOM      3  C   LIG d   1      -3.632  76.301 114.048  0.00  0.00     0.038 C 
ATOM      4  C   LIG d   1      -3.240  75.640 115.222  0.00  0.00     0.028 C 
ATOM      5  C   LIG d   1      -1.731  75.634 115.440  0.00  0.00    -0.047 C 
ATOM      6  C   LIG d   1      -1.201  77.081 115.315  0.00  0.00     0.091 C 
ENDROOT
BRANCH   1   7
ATOM      7  O   LIG d   1      -1.498  79.153 114.041  0.00  0.00    -0.368 OA
BRANCH   7   8
ATOM      8  C   LIG d   1      -2.732  79.863 114.308  0.00  0.00     0.119 C 
BRANCH   8   9
ATOM      9  C   LIG d   1      -2.822  81.029 113.305  0.00  0.00     0.028 C 
ATOM     10  C   LIG d   1      -1.467  81.342 112.646  0.00  0.00     0.006 C 
ENDBRANCH   8   9
BRANCH   8  11
ATOM     11  C   LIG d   1      -2.710  80.520 115.692  0.00  0.00     0.028 C 
ATOM     12  C   LIG d   1      -3.459  79.699 116.753  0.00  0.00     0.006 C 
ENDBRANCH   8  11
ENDBRANCH   7   8
ENDBRANCH   1   7
BRANCH   6  13
ATOM     13  N   LIG d   1       0.279  77.154 115.431  0.00  0.00    -0.311 N 
ATOM     14  C   LIG d   1       0.912  77.429 116.570  0.00  0.00     0.210 C 
ATOM     15  C   LIG d   1       2.440  77.475 116.466  0.00  0.00     0.109 C 
ATOM     16  O   LIG d   1       0.355  77.606 117.664  0.00  0.00    -0.276 OA
ATOM     17  H   LIG d   1       0.810  76.993 114.598  0.00  0.00     0.149 HD
ENDBRANCH   6  13
BRANCH   5  18
ATOM     18  N   LIG d   1      -1.474  75.036 116.763  0.00  0.00     0.381 N 
ATOM     19  H   LIG d   1      -0.488  74.946 116.908  0.00  0.00    -0.090 HD
ATOM     20  H   LIG d   1      -1.882  74.118 116.790  0.00  0.00    -0.090 HD
ATOM     21  H   LIG d   1      -1.871  75.605 117.478  0.00  0.00    -0.090 HD
ENDBRANCH   5  18
BRANCH   3  22
ATOM     22  C   LIG d   1      -4.784  75.875 113.406  0.00  0.00     0.382 C 
ATOM     23  O   LIG d   1      -5.873  76.461 113.618  0.00  0.00    -0.241 OA
ATOM     24  O   LIG d   1      -4.758  74.885 112.651  0.00  0.00    -0.241 OA
ENDBRANCH   3  22
TORSDOF 7
ENDMDL
MODEL 6
REMARK VINA RESULT:      -4.9      1.856      2.539
REMARK  7 active torsions:
REMARK  status: ('A' for Active; 'I' for Inactive)
REMARK    1  A    between atoms: C_2  and  C_3 
REMARK    2  A    between atoms: C_3  and  O_6 
REMARK    3  A    between atoms: C_3  and  C_4 
REMARK    4  A    between atoms: C_7  and  O_6 
REMARK    5  A    between atoms: C_9  and  C_10 
REMARK    6  A    between atoms: N_15  and  C_14 
REMARK    7  A    between atoms: N_20  and  C_19 
REMARK       I    between atoms: C_22  and  N_20 
ROOT
ATOM      1  C   LIG d   1      -2.296  78.065 114.685  0.00  0.00     0.161 C 
ATOM      2  C   LIG d   1      -2.419  79.007 113.651  0.00  0.00     0.016 C 
ATOM      3  C   LIG d   1      -2.526  80.399 113.874  0.00  0.00     0.038 C 
ATOM      4  C   LIG d   1      -2.365  80.959 115.150  0.00  0.00     0.028 C 
ATOM      5  C   LIG d   1      -2.744  80.009 116.281  0.00  0.00    -0.047 C 
ATOM      6  C   LIG d   1      -2.007  78.666 116.077  0.00  0.00     0.091 C 
ENDROOT
BRANCH   1   7
ATOM      7  O   LIG d   1      -1.292  77.090 114.342  0.00  0.00    -0.368 OA
BRANCH   7   8
ATOM      8  C   LIG d   1      -1.781  75.803 113.890  0.00  0.00     0.119 C 
BRANCH   8   9
ATOM      9  C   LIG d   1      -3.150  75.568 114.555  0.00  0.00     0.028 C 
ATOM     10  C   LIG d   1      -4.178  74.963 113.585  0.00  0.00     0.006 C 
ENDBRANCH   8   9
BRANCH   8  11
ATOM     11  C   LIG d   1      -0.887  74.662 114.385  0.00  0.00     0.028 C 
ATOM     12  C   LIG d   1       0.112  74.182 113.321  0.00  0.00     0.006 C 
ENDBRANCH   8  11
ENDBRANCH   7   8
ENDBRANCH   1   7
BRANCH   6  13
ATOM     13  N   LIG d   1      -2.387  77.651 117.093  0.00  0.00    -0.311 N 
ATOM     14  C   LIG d   1      -1.506  76.860 117.705  0.00  0.00     0.210 C 
ATOM     15  C   LIG d   1      -2.111  75.870 118.704  0.00  0.00     0.109 C 
ATOM     16  O   LIG d   1      -0.278  76.908 117.538  0.00  0.00    -0.276 OA
ATOM     17  H   LIG d   1      -3.360  77.566 117.312  0.00  0.00     0.149 HD
ENDBRANCH   6  13
BRANCH   5  18
ATOM     18  N   LIG d   1      -2.397  80.671 117.554  0.00  0.00     0.381 N 
ATOM     19  H   LIG d   1      -2.762  81.602 117.561  0.00  0.00    -0.090 HD
ATOM     20  H   LIG d   1      -1.397  80.723 117.631  0.00  0.00    -0.090 HD
ATOM     21  H   LIG d   1      -2.770  80.154 118.319  0.00  0.00    -0.090 HD
ENDBRANCH   5  18
BRANCH   3  22
ATOM     22  C   LIG d   1      -2.837  81.242 112.819  0.00  0.00     0.382 C 
ATOM     23  O   LIG d   1      -1.926  81.873 112.231  0.00  0.00    -0.241 OA
ATOM     24  O   LIG d   1      -4.022  81.415 112.476  0.00  0.00    -0.241 OA
ENDBRANCH   3  22
TORSDOF 7
ENDMDL
MODEL 7
REMARK VINA RESULT:      -4.8      2.240      3.182
REMARK  7 active torsions:
REMARK  status: ('A' for Active; 'I' for Inactive)
REMARK    1  A    between atoms: C_2  and  C_3 
REMARK    2  A    between atoms: C_3  and  O_6 
REMARK    3  A    between atoms: C_3  and  C_4 
REMARK    4  A    between atoms: C_7  and  O_6 
REMARK    5  A    between atoms: C_9  and  C_10 
REMARK    6  A    between atoms: N_15  and  C_14 
REMARK    7  A    between atoms: N_20  and  C_19 
REMARK       I    between atoms: C_22  and  N_20 
ROOT
ATOM      1  C   LIG d   1      -2.984  76.206 116.019  0.00  0.00     0.161 C 
ATOM      2  C   LIG d   1      -3.176  77.188 115.033  0.00  0.00     0.016 C 
ATOM      3  C   LIG d   1      -2.360  77.308 113.884  0.00  0.00     0.038 C 
ATOM      4  C   LIG d   1      -1.384  76.352 113.566  0.00  0.00     0.028 C 
ATOM      5  C   LIG d   1      -0.821  75.631 114.786  0.00  0.00    -0.047 C 
ATOM      6  C   LIG d   1      -1.994  75.087 115.633  0.00  0.00     0.091 C 
ENDROOT
BRANCH   1   7
ATOM      7  O   LIG d   1      -4.254  75.641 116.400  0.00  0.00    -0.368 OA
BRANCH   7   8
ATOM      8  C   LIG d   1      -5.348  75.849 115.473  0.00  0.00     0.119 C 
BRANCH   8   9
ATOM      9  C   LIG d   1      -6.604  76.172 116.304  0.00  0.00     0.028 C 
ATOM     10  C   LIG d   1      -7.227  74.916 116.938  0.00  0.00     0.006 C 
ENDBRANCH   8   9
BRANCH   8  11
ATOM     11  C   LIG d   1      -5.684  74.564 114.711  0.00  0.00     0.028 C 
ATOM     12  C   LIG d   1      -5.021  74.501 113.326  0.00  0.00     0.006 C 
ENDBRANCH   8  11
ENDBRANCH   7   8
ENDBRANCH   1   7
BRANCH   6  13
ATOM     13  N   LIG d   1      -1.533  74.441 116.889  0.00  0.00    -0.311 N 
ATOM     14  C   LIG d   1      -0.718  75.031 117.762  0.00  0.00     0.210 C 
ATOM     15  C   LIG d   1      -0.351  74.181 118.982  0.00  0.00     0.109 C 
ATOM     16  O   LIG d   1      -0.290  76.190 117.657  0.00  0.00    -0.276 OA
ATOM     17  H   LIG d   1      -1.858  73.511 117.069  0.00  0.00     0.149 HD
ENDBRANCH   6  13
BRANCH   5  18
ATOM     18  N   LIG d   1       0.083  74.571 114.300  0.00  0.00     0.381 N 
ATOM     19  H   LIG d   1       0.954  74.972 114.017  0.00  0.00    -0.090 HD
ATOM     20  H   LIG d   1      -0.336  74.129 113.500  0.00  0.00    -0.090 HD
ATOM     21  H   LIG d   1       0.236  73.898 115.018  0.00  0.00    -0.090 HD
ENDBRANCH   5  18
BRANCH   3  22
ATOM     22  C   LIG d   1      -2.491  78.415 113.060  0.00  0.00     0.382 C 
ATOM     23  O   LIG d   1      -3.000  79.472 113.507  0.00  0.00    -0.241 OA
ATOM     24  O   LIG d   1      -2.149  78.357 111.864  0.00  0.00    -0.241 OA
ENDBRANCH   3  22
TORSDOF 7
ENDMDL
MODEL 8
REMARK VINA RESULT:      -4.8      2.778      6.210
REMARK  7 active torsions:
REMARK  status: ('A' for Active; 'I' for Inactive)
REMARK    1  A    between atoms: C_2  and  C_3 
REMARK    2  A    between atoms: C_3  and  O_6 
REMARK    3  A    between atoms: C_3  and  C_4 
REMARK    4  A    between atoms: C_7  and  O_6 
REMARK    5  A    between atoms: C_9  and  C_10 
REMARK    6  A    between atoms: N_15  and  C_14 
REMARK    7  A    between atoms: N_20  and  C_19 
REMARK       I    between atoms: C_22  and  N_20 
ROOT
ATOM      1  C   LIG d   1      -2.127  80.318 114.635  0.00  0.00     0.161 C 
ATOM      2  C   LIG d   1      -2.571  79.109 115.196  0.00  0.00     0.016 C 
ATOM      3  C   LIG d   1      -2.653  77.898 114.470  0.00  0.00     0.038 C 
ATOM      4  C   LIG d   1      -2.149  77.780 113.166  0.00  0.00     0.028 C 
ATOM      5  C   LIG d   1      -2.157  79.094 112.392  0.00  0.00    -0.047 C 
ATOM      6  C   LIG d   1      -1.468  80.183 113.246  0.00  0.00     0.091 C 
ENDROOT
BRANCH   1   7
ATOM      7  O   LIG d   1      -1.233  80.981 115.551  0.00  0.00    -0.368 OA
BRANCH   7   8
ATOM      8  C   LIG d   1      -1.299  80.548 116.932  0.00  0.00     0.119 C 
BRANCH   8   9
ATOM      9  C   LIG d   1      -1.914  81.701 117.750  0.00  0.00     0.028 C 
ATOM     10  C   LIG d   1      -0.845  82.621 118.363  0.00  0.00     0.006 C 
ENDBRANCH   8   9
BRANCH   8  11
ATOM     11  C   LIG d   1       0.100  80.337 117.518  0.00  0.00     0.028 C 
ATOM     12  C   LIG d   1       1.070  79.681 116.522  0.00  0.00     0.006 C 
ENDBRANCH   8  11
ENDBRANCH   7   8
ENDBRANCH   1   7
BRANCH   6  13
ATOM     13  N   LIG d   1      -1.507  81.521 112.599  0.00  0.00    -0.311 N 
ATOM     14  C   LIG d   1      -0.540  81.980 111.807  0.00  0.00     0.210 C 
ATOM     15  C   LIG d   1      -0.770  83.392 111.259  0.00  0.00     0.109 C 
ATOM     16  O   LIG d   1       0.471  81.341 111.482  0.00  0.00    -0.276 OA
ATOM     17  H   LIG d   1      -2.307  82.094 112.784  0.00  0.00     0.149 HD
ENDBRANCH   6  13
BRANCH   5  18
ATOM     18  N   LIG d   1      -1.480  78.857 111.103  0.00  0.00     0.381 N 
ATOM     19  H   LIG d   1      -0.697  78.249 111.239  0.00  0.00    -0.090 HD
ATOM     20  H   LIG d   1      -1.141  79.733 110.747  0.00  0.00    -0.090 HD
ATOM     21  H   LIG d   1      -2.117  78.450 110.454  0.00  0.00    -0.090 HD
ENDBRANCH   5  18
BRANCH   3  22
ATOM     22  C   LIG d   1      -3.281  76.799 115.035  0.00  0.00     0.382 C 
ATOM     23  O   LIG d   1      -2.730  75.673 114.995  0.00  0.00    -0.241 OA
ATOM     24  O   LIG d   1      -4.412  76.910 115.546  0.00  0.00    -0.241 OA
ENDBRANCH   3  22
TORSDOF 7
ENDMDL
MODEL 9
REMARK VINA RESULT:      -4.8      2.842      4.689
REMARK  7 active torsions:
REMARK  status: ('A' for Active; 'I' for Inactive)
REMARK    1  A    between atoms: C_2  and  C_3 
REMARK    2  A    between atoms: C_3  and  O_6 
REMARK    3  A    between atoms: C_3  and  C_4 
REMARK    4  A    between atoms: C_7  and  O_6 
REMARK    5  A    between atoms: C_9  and  C_10 
REMARK    6  A    between atoms: N_15  and  C_14 
REMARK    7  A    between atoms: N_20  and  C_19 
REMARK       I    between atoms: C_22  and  N_20 
ROOT
ATOM      1  C   LIG d   1      -1.771  80.004 116.037  0.00  0.00     0.161 C 
ATOM      2  C   LIG d   1      -2.339  80.809 115.035  0.00  0.00     0.016 C 
ATOM      3  C   LIG d   1      -2.535  80.374 113.704  0.00  0.00     0.038 C 
ATOM      4  C   LIG d   1      -2.312  79.044 113.319  0.00  0.00     0.028 C 
ATOM      5  C   LIG d   1      -1.265  78.334 114.170  0.00  0.00    -0.047 C 
ATOM      6  C   LIG d   1      -1.625  78.514 115.662  0.00  0.00     0.091 C 
ENDROOT
BRANCH   1   7
ATOM      7  O   LIG d   1      -2.522  80.142 117.259  0.00  0.00    -0.368 OA
BRANCH   7   8
ATOM      8  C   LIG d   1      -1.898  80.927 118.305  0.00  0.00     0.119 C 
BRANCH   8   9
ATOM      9  C   LIG d   1      -2.887  82.041 118.701  0.00  0.00     0.028 C 
ATOM     10  C   LIG d   1      -4.353  81.618 118.510  0.00  0.00     0.006 C 
ENDBRANCH   8   9
BRANCH   8  11
ATOM     11  C   LIG d   1      -0.653  81.656 117.788  0.00  0.00     0.028 C 
ATOM     12  C   LIG d   1      -0.418  83.004 118.487  0.00  0.00     0.006 C 
ENDBRANCH   8  11
ENDBRANCH   7   8
ENDBRANCH   1   7
BRANCH   6  13
ATOM     13  N   LIG d   1      -0.605  77.921 116.567  0.00  0.00    -0.311 N 
ATOM     14  C   LIG d   1      -0.854  76.896 117.380  0.00  0.00     0.210 C 
ATOM     15  C   LIG d   1       0.331  76.453 118.243  0.00  0.00     0.109 C 
ATOM     16  O   LIG d   1      -1.935  76.291 117.444  0.00  0.00    -0.276 OA
ATOM     17  H   LIG d   1       0.308  78.332 116.556  0.00  0.00     0.149 HD
ENDBRANCH   6  13
BRANCH   5  18
ATOM     18  N   LIG d   1      -1.232  76.921 113.750  0.00  0.00     0.381 N 
ATOM     19  H   LIG d   1      -0.394  76.739 113.235  0.00  0.00    -0.090 HD
ATOM     20  H   LIG d   1      -2.016  76.743 113.147  0.00  0.00    -0.090 HD
ATOM     21  H   LIG d   1      -1.276  76.326 114.548  0.00  0.00    -0.090 HD
ENDBRANCH   5  18
BRANCH   3  22
ATOM     22  C   LIG d   1      -2.920  81.286 112.733  0.00  0.00     0.382 C 
ATOM     23  O   LIG d   1      -2.066  82.037 112.204  0.00  0.00    -0.241 OA
ATOM     24  O   LIG d   1      -4.118  81.398 112.411  0.00  0.00    -0.241 OA
ENDBRANCH   3  22
TORSDOF 7
ENDMDL
