MODEL 1
REMARK VINA RESULT:      -5.3      0.000      0.000
REMARK  7 active torsions:
REMARK  status: ('A' for Active; 'I' for Inactive)
REMARK    1  A    between atoms: C_2  and  C_3 
REMARK    2  A    between atoms: C_3  and  O_6 
REMARK    3  A    between atoms: C_3  and  C_4 
REMARK    4  A    between atoms: C_7  and  O_6 
REMARK    5  A    between atoms: C_9  and  C_10 
REMARK    6  A    between atoms: N_15  and  C_14 
REMARK    7  A    between atoms: N_20  and  C_19 
REMARK       I    between atoms: C_22  and  N_20 
ROOT
ATOM      1  C   LIG d   1      -3.005  75.634 115.865  0.00  0.00     0.161 C 
ATOM      2  C   LIG d   1      -3.212  76.590 114.856  0.00  0.00     0.016 C 
ATOM      3  C   LIG d   1      -2.198  77.016 113.968  0.00  0.00     0.038 C 
ATOM      4  C   LIG d   1      -0.938  76.400 113.931  0.00  0.00     0.028 C 
ATOM      5  C   LIG d   1      -0.526  75.783 115.263  0.00  0.00    -0.047 C 
ATOM      6  C   LIG d   1      -1.668  74.871 115.768  0.00  0.00     0.091 C 
ENDROOT
BRANCH   1   7
ATOM      7  O   LIG d   1      -4.110  74.708 115.895  0.00  0.00    -0.368 OA
BRANCH   7   8
ATOM      8  C   LIG d   1      -5.418  75.268 115.624  0.00  0.00     0.119 C 
BRANCH   8   9
ATOM      9  C   LIG d   1      -6.018  75.716 116.971  0.00  0.00     0.028 C 
ATOM     10  C   LIG d   1      -5.916  77.236 117.182  0.00  0.00     0.006 C 
ENDBRANCH   8   9
BRANCH   8  11
ATOM     11  C   LIG d   1      -6.379  74.204 115.086  0.00  0.00     0.028 C 
ATOM     12  C   LIG d   1      -7.721  74.180 115.834  0.00  0.00     0.006 C 
ENDBRANCH   8  11
ENDBRANCH   7   8
ENDBRANCH   1   7
BRANCH   6  13
ATOM     13  N   LIG d   1      -1.382  74.293 117.107  0.00  0.00    -0.311 N 
ATOM     14  C   LIG d   1      -1.197  75.031 118.200  0.00  0.00     0.210 C 
ATOM     15  C   LIG d   1      -0.894  74.236 119.474  0.00  0.00     0.109 C 
ATOM     16  O   LIG d   1      -1.288  76.267 118.242  0.00  0.00    -0.276 OA
ATOM     17  H   LIG d   1      -1.322  73.295 117.170  0.00  0.00     0.149 HD
ENDBRANCH   6  13
BRANCH   5  18
ATOM     18  N   LIG d   1       0.740  75.058 115.046  0.00  0.00     0.381 N 
ATOM     19  H   LIG d   1       1.451  75.698 114.754  0.00  0.00    -0.090 HD
ATOM     20  H   LIG d   1       0.606  74.381 114.315  0.00  0.00    -0.090 HD
ATOM     21  H   LIG d   1       1.019  74.600 115.886  0.00  0.00    -0.090 HD
ENDBRANCH   5  18
BRANCH   3  22
ATOM     22  C   LIG d   1      -2.428  78.097 113.131  0.00  0.00     0.382 C 
ATOM     23  O   LIG d   1      -1.949  79.222 113.413  0.00  0.00    -0.241 OA
ATOM     24  O   LIG d   1      -3.145  77.972 112.120  0.00  0.00    -0.241 OA
ENDBRANCH   3  22
TORSDOF 7
ENDMDL
MODEL 2
REMARK VINA RESULT:      -5.3      5.237      8.625
REMARK  7 active torsions:
REMARK  status: ('A' for Active; 'I' for Inactive)
REMARK    1  A    between atoms: C_2  and  C_3 
REMARK    2  A    between atoms: C_3  and  O_6 
REMARK    3  A    between atoms: C_3  and  C_4 
REMARK    4  A    between atoms: C_7  and  O_6 
REMARK    5  A    between atoms: C_9  and  C_10 
REMARK    6  A    between atoms: N_15  and  C_14 
REMARK    7  A    between atoms: N_20  and  C_19 
REMARK       I    between atoms: C_22  and  N_20 
ROOT
ATOM      1  C   LIG d   1      -1.579  81.795 112.293  0.00  0.00     0.161 C 
ATOM      2  C   LIG d   1      -2.255  80.668 112.790  0.00  0.00     0.016 C 
ATOM      3  C   LIG d   1      -2.003  79.350 112.346  0.00  0.00     0.038 C 
ATOM      4  C   LIG d   1      -0.944  79.051 111.476  0.00  0.00     0.028 C 
ATOM      5  C   LIG d   1      -0.563  80.212 110.563  0.00  0.00    -0.047 C 
ATOM      6  C   LIG d   1      -0.344  81.476 111.425  0.00  0.00     0.091 C 
ENDROOT
BRANCH   1   7
ATOM      7  O   LIG d   1      -1.215  82.666 113.382  0.00  0.00    -0.368 OA
BRANCH   7   8
ATOM      8  C   LIG d   1       0.167  82.605 113.812  0.00  0.00     0.119 C 
BRANCH   8   9
ATOM      9  C   LIG d   1       0.241  81.619 114.994  0.00  0.00     0.028 C 
ATOM     10  C   LIG d   1       1.303  82.023 116.031  0.00  0.00     0.006 C 
ENDBRANCH   8   9
BRANCH   8  11
ATOM     11  C   LIG d   1       0.635  83.950 114.377  0.00  0.00     0.028 C 
ATOM     12  C   LIG d   1       1.637  84.665 113.457  0.00  0.00     0.006 C 
ENDBRANCH   8  11
ENDBRANCH   7   8
ENDBRANCH   1   7
BRANCH   6  13
ATOM     13  N   LIG d   1      -0.050  82.679 110.602  0.00  0.00    -0.311 N 
ATOM     14  C   LIG d   1       1.183  83.055 110.267  0.00  0.00     0.210 C 
ATOM     15  C   LIG d   1       1.264  84.336 109.431  0.00  0.00     0.109 C 
ATOM     16  O   LIG d   1       2.216  82.431 110.556  0.00  0.00    -0.276 OA
ATOM     17  H   LIG d   1      -0.832  83.226 110.298  0.00  0.00     0.149 HD
ENDBRANCH   6  13
BRANCH   5  18
ATOM     18  N   LIG d   1       0.639  79.810 109.809  0.00  0.00     0.381 N 
ATOM     19  H   LIG d   1       0.528  78.876 109.467  0.00  0.00    -0.090 HD
ATOM     20  H   LIG d   1       1.431  79.828 110.426  0.00  0.00    -0.090 HD
ATOM     21  H   LIG d   1       0.788  80.434 109.047  0.00  0.00    -0.090 HD
ENDBRANCH   5  18
BRANCH   3  22
ATOM     22  C   LIG d   1      -2.841  78.319 112.742  0.00  0.00     0.382 C 
ATOM     23  O   LIG d   1      -2.831  77.925 113.933  0.00  0.00    -0.241 OA
ATOM     24  O   LIG d   1      -3.576  77.749 111.913  0.00  0.00    -0.241 OA
ENDBRANCH   3  22
TORSDOF 7
ENDMDL
MODEL 3
REMARK VINA RESULT:      -5.1      2.177      4.476
REMARK  7 active torsions:
REMARK  status: ('A' for Active; 'I' for Inactive)
REMARK    1  A    between atoms: C_2  and  C_3 
REMARK    2  A    between atoms: C_3  and  O_6 
REMARK    3  A    between atoms: C_3  and  C_4 
REMARK    4  A    between atoms: C_7  and  O_6 
REMARK    5  A    between atoms: C_9  and  C_10 
REMARK    6  A    between atoms: N_15  and  C_14 
REMARK    7  A    between atoms: N_20  and  C_19 
REMARK       I    between atoms: C_22  and  N_20 
ROOT
ATOM      1  C   LIG d   1      -3.381  76.426 117.453  0.00  0.00     0.161 C 
ATOM      2  C   LIG d   1      -2.431  76.963 118.338  0.00  0.00     0.016 C 
ATOM      3  C   LIG d   1      -1.039  76.943 118.091  0.00  0.00     0.038 C 
ATOM      4  C   LIG d   1      -0.510  76.517 116.864  0.00  0.00     0.028 C 
ATOM      5  C   LIG d   1      -1.391  75.501 116.144  0.00  0.00    -0.047 C 
ATOM      6  C   LIG d   1      -2.831  76.057 116.060  0.00  0.00     0.091 C 
ENDROOT
BRANCH   1   7
ATOM      7  O   LIG d   1      -4.497  77.329 117.328  0.00  0.00    -0.368 OA
BRANCH   7   8
ATOM      8  C   LIG d   1      -5.722  76.924 117.988  0.00  0.00     0.119 C 
BRANCH   8   9
ATOM      9  C   LIG d   1      -6.775  76.666 116.893  0.00  0.00     0.028 C 
ATOM     10  C   LIG d   1      -7.229  75.198 116.849  0.00  0.00     0.006 C 
ENDBRANCH   8   9
BRANCH   8  11
ATOM     11  C   LIG d   1      -6.296  78.058 118.843  0.00  0.00     0.028 C 
ATOM     12  C   LIG d   1      -7.689  78.510 118.376  0.00  0.00     0.006 C 
ENDBRANCH   8  11
ENDBRANCH   7   8
ENDBRANCH   1   7
BRANCH   6  13
ATOM     13  N   LIG d   1      -3.777  75.090 115.444  0.00  0.00    -0.311 N 
ATOM     14  C   LIG d   1      -4.376  75.295 114.273  0.00  0.00     0.210 C 
ATOM     15  C   LIG d   1      -5.329  74.180 113.830  0.00  0.00     0.109 C 
ATOM     16  O   LIG d   1      -4.185  76.279 113.543  0.00  0.00    -0.276 OA
ATOM     17  H   LIG d   1      -3.965  74.249 115.954  0.00  0.00     0.149 HD
ENDBRANCH   6  13
BRANCH   5  18
ATOM     18  N   LIG d   1      -0.790  75.249 114.821  0.00  0.00     0.381 N 
ATOM     19  H   LIG d   1      -1.292  74.520 114.355  0.00  0.00    -0.090 HD
ATOM     20  H   LIG d   1       0.160  74.946 114.948  0.00  0.00    -0.090 HD
ATOM     21  H   LIG d   1      -0.811  76.080 114.273  0.00  0.00    -0.090 HD
ENDBRANCH   5  18
BRANCH   3  22
ATOM     22  C   LIG d   1      -0.158  77.316 119.095  0.00  0.00     0.382 C 
ATOM     23  O   LIG d   1      -0.470  78.231 119.895  0.00  0.00    -0.241 OA
ATOM     24  O   LIG d   1       0.963  76.780 119.183  0.00  0.00    -0.241 OA
ENDBRANCH   3  22
TORSDOF 7
ENDMDL
MODEL 4
REMARK VINA RESULT:      -4.8      2.105      4.583
REMARK  7 active torsions:
REMARK  status: ('A' for Active; 'I' for Inactive)
REMARK    1  A    between atoms: C_2  and  C_3 
REMARK    2  A    between atoms: C_3  and  O_6 
REMARK    3  A    between atoms: C_3  and  C_4 
REMARK    4  A    between atoms: C_7  and  O_6 
REMARK    5  A    between atoms: C_9  and  C_10 
REMARK    6  A    between atoms: N_15  and  C_14 
REMARK    7  A    between atoms: N_20  and  C_19 
REMARK       I    between atoms: C_22  and  N_20 
ROOT
ATOM      1  C   LIG d   1      -2.913  74.959 115.889  0.00  0.00     0.161 C 
ATOM      2  C   LIG d   1      -4.134  75.064 115.202  0.00  0.00     0.016 C 
ATOM      3  C   LIG d   1      -5.160  75.964 115.571  0.00  0.00     0.038 C 
ATOM      4  C   LIG d   1      -4.973  76.933 116.568  0.00  0.00     0.028 C 
ATOM      5  C   LIG d   1      -3.946  76.528 117.621  0.00  0.00    -0.047 C 
ATOM      6  C   LIG d   1      -2.647  76.085 116.910  0.00  0.00     0.091 C 
ENDROOT
BRANCH   1   7
ATOM      7  O   LIG d   1      -1.827  74.872 114.945  0.00  0.00    -0.368 OA
BRANCH   7   8
ATOM      8  C   LIG d   1      -0.924  76.004 114.907  0.00  0.00     0.119 C 
BRANCH   8   9
ATOM      9  C   LIG d   1      -1.089  76.682 113.533  0.00  0.00     0.028 C 
ATOM     10  C   LIG d   1      -2.170  77.776 113.544  0.00  0.00     0.006 C 
ENDBRANCH   8   9
BRANCH   8  11
ATOM     11  C   LIG d   1       0.538  75.552 114.963  0.00  0.00     0.028 C 
ATOM     12  C   LIG d   1       0.862  74.454 113.938  0.00  0.00     0.006 C 
ENDBRANCH   8  11
ENDBRANCH   7   8
ENDBRANCH   1   7
BRANCH   6  13
ATOM     13  N   LIG d   1      -1.619  75.593 117.864  0.00  0.00    -0.311 N 
ATOM     14  C   LIG d   1      -0.691  76.377 118.410  0.00  0.00     0.210 C 
ATOM     15  C   LIG d   1       0.285  75.664 119.352  0.00  0.00     0.109 C 
ATOM     16  O   LIG d   1      -0.604  77.601 118.230  0.00  0.00    -0.276 OA
ATOM     17  H   LIG d   1      -1.636  74.618 118.090  0.00  0.00     0.149 HD
ENDBRANCH   6  13
BRANCH   5  18
ATOM     18  N   LIG d   1      -3.750  77.682 118.518  0.00  0.00     0.381 N 
ATOM     19  H   LIG d   1      -4.485  77.713 119.196  0.00  0.00    -0.090 HD
ATOM     20  H   LIG d   1      -3.786  78.527 117.975  0.00  0.00    -0.090 HD
ATOM     21  H   LIG d   1      -2.868  77.611 118.977  0.00  0.00    -0.090 HD
ENDBRANCH   5  18
BRANCH   3  22
ATOM     22  C   LIG d   1      -6.405  75.873 114.966  0.00  0.00     0.382 C 
ATOM     23  O   LIG d   1      -7.371  75.376 115.593  0.00  0.00    -0.241 OA
ATOM     24  O   LIG d   1      -6.562  76.240 113.787  0.00  0.00    -0.241 OA
ENDBRANCH   3  22
TORSDOF 7
ENDMDL
MODEL 5
REMARK VINA RESULT:      -4.6      2.627      5.301
REMARK  7 active torsions:
REMARK  status: ('A' for Active; 'I' for Inactive)
REMARK    1  A    between atoms: C_2  and  C_3 
REMARK    2  A    between atoms: C_3  and  O_6 
REMARK    3  A    between atoms: C_3  and  C_4 
REMARK    4  A    between atoms: C_7  and  O_6 
REMARK    5  A    between atoms: C_9  and  C_10 
REMARK    6  A    between atoms: N_15  and  C_14 
REMARK    7  A    between atoms: N_20  and  C_19 
REMARK       I    between atoms: C_22  and  N_20 
ROOT
ATOM      1  C   LIG d   1      -3.067  76.492 117.052  0.00  0.00     0.161 C 
ATOM      2  C   LIG d   1      -4.282  76.810 117.682  0.00  0.00     0.016 C 
ATOM      3  C   LIG d   1      -5.546  76.437 117.169  0.00  0.00     0.038 C 
ATOM      4  C   LIG d   1      -5.675  75.585 116.062  0.00  0.00     0.028 C 
ATOM      5  C   LIG d   1      -4.492  75.656 115.102  0.00  0.00    -0.047 C 
ATOM      6  C   LIG d   1      -3.183  75.468 115.903  0.00  0.00     0.091 C 
ENDROOT
BRANCH   1   7
ATOM      7  O   LIG d   1      -2.112  76.039 118.032  0.00  0.00    -0.368 OA
BRANCH   7   8
ATOM      8  C   LIG d   1      -1.373  77.074 118.726  0.00  0.00     0.119 C 
BRANCH   8   9
ATOM      9  C   LIG d   1      -0.521  77.817 117.678  0.00  0.00     0.028 C 
ATOM     10  C   LIG d   1       0.943  77.347 117.672  0.00  0.00     0.006 C 
ENDBRANCH   8   9
BRANCH   8  11
ATOM     11  C   LIG d   1      -0.368  76.473 119.713  0.00  0.00     0.028 C 
ATOM     12  C   LIG d   1      -0.573  74.966 119.930  0.00  0.00     0.006 C 
ENDBRANCH   8  11
ENDBRANCH   7   8
ENDBRANCH   1   7
BRANCH   6  13
ATOM     13  N   LIG d   1      -1.973  75.608 115.052  0.00  0.00    -0.311 N 
ATOM     14  C   LIG d   1      -0.825  74.981 115.302  0.00  0.00     0.210 C 
ATOM     15  C   LIG d   1       0.304  75.280 114.311  0.00  0.00     0.109 C 
ATOM     16  O   LIG d   1      -0.644  74.180 116.232  0.00  0.00    -0.276 OA
ATOM     17  H   LIG d   1      -2.041  76.215 114.259  0.00  0.00     0.149 HD
ENDBRANCH   6  13
BRANCH   5  18
ATOM     18  N   LIG d   1      -4.692  74.621 114.071  0.00  0.00     0.381 N 
ATOM     19  H   LIG d   1      -5.197  73.849 114.459  0.00  0.00    -0.090 HD
ATOM     20  H   LIG d   1      -3.795  74.289 113.765  0.00  0.00    -0.090 HD
ATOM     21  H   LIG d   1      -5.195  75.001 113.299  0.00  0.00    -0.090 HD
ENDBRANCH   5  18
BRANCH   3  22
ATOM     22  C   LIG d   1      -6.699  76.951 117.743  0.00  0.00     0.382 C 
ATOM     23  O   LIG d   1      -6.963  78.172 117.632  0.00  0.00    -0.241 OA
ATOM     24  O   LIG d   1      -7.455  76.217 118.407  0.00  0.00    -0.241 OA
ENDBRANCH   3  22
TORSDOF 7
ENDMDL
MODEL 6
REMARK VINA RESULT:      -4.6      5.696      8.778
REMARK  7 active torsions:
REMARK  status: ('A' for Active; 'I' for Inactive)
REMARK    1  A    between atoms: C_2  and  C_3 
REMARK    2  A    between atoms: C_3  and  O_6 
REMARK    3  A    between atoms: C_3  and  C_4 
REMARK    4  A    between atoms: C_7  and  O_6 
REMARK    5  A    between atoms: C_9  and  C_10 
REMARK    6  A    between atoms: N_15  and  C_14 
REMARK    7  A    between atoms: N_20  and  C_19 
REMARK       I    between atoms: C_22  and  N_20 
ROOT
ATOM      1  C   LIG d   1       0.333  81.907 113.153  0.00  0.00     0.161 C 
ATOM      2  C   LIG d   1      -0.793  81.131 113.473  0.00  0.00     0.016 C 
ATOM      3  C   LIG d   1      -1.359  80.180 112.592  0.00  0.00     0.038 C 
ATOM      4  C   LIG d   1      -0.741  79.831 111.382  0.00  0.00     0.028 C 
ATOM      5  C   LIG d   1       0.114  80.948 110.794  0.00  0.00    -0.047 C 
ATOM      6  C   LIG d   1       1.086  81.461 111.882  0.00  0.00     0.091 C 
ENDROOT
BRANCH   1   7
ATOM      7  O   LIG d   1       1.233  81.950 114.278  0.00  0.00    -0.368 OA
BRANCH   7   8
ATOM      8  C   LIG d   1       0.783  82.714 115.424  0.00  0.00     0.119 C 
BRANCH   8   9
ATOM      9  C   LIG d   1       1.433  84.109 115.334  0.00  0.00     0.028 C 
ATOM     10  C   LIG d   1       2.298  84.434 116.563  0.00  0.00     0.006 C 
ENDBRANCH   8   9
BRANCH   8  11
ATOM     11  C   LIG d   1       1.299  82.111 116.734  0.00  0.00     0.028 C 
ATOM     12  C   LIG d   1       1.051  80.597 116.831  0.00  0.00     0.006 C 
ENDBRANCH   8  11
ENDBRANCH   7   8
ENDBRANCH   1   7
BRANCH   6  13
ATOM     13  N   LIG d   1       1.903  82.612 111.415  0.00  0.00    -0.311 N 
ATOM     14  C   LIG d   1       1.424  83.584 110.641  0.00  0.00     0.210 C 
ATOM     15  C   LIG d   1       2.440  84.665 110.259  0.00  0.00     0.109 C 
ATOM     16  O   LIG d   1       0.247  83.671 110.262  0.00  0.00    -0.276 OA
ATOM     17  H   LIG d   1       2.862  82.637 111.702  0.00  0.00     0.149 HD
ENDBRANCH   6  13
BRANCH   5  18
ATOM     18  N   LIG d   1       0.806  80.404 109.610  0.00  0.00     0.381 N 
ATOM     19  H   LIG d   1       0.957  81.132 108.941  0.00  0.00    -0.090 HD
ATOM     20  H   LIG d   1       0.224  79.703 109.187  0.00  0.00    -0.090 HD
ATOM     21  H   LIG d   1       1.678  80.004 109.879  0.00  0.00    -0.090 HD
ENDBRANCH   5  18
BRANCH   3  22
ATOM     22  C   LIG d   1      -2.578  79.596 112.902  0.00  0.00     0.382 C 
ATOM     23  O   LIG d   1      -2.613  78.538 113.574  0.00  0.00    -0.241 OA
ATOM     24  O   LIG d   1      -3.640  80.091 112.480  0.00  0.00    -0.241 OA
ENDBRANCH   3  22
TORSDOF 7
ENDMDL
MODEL 7
REMARK VINA RESULT:      -4.4      4.466      6.907
REMARK  7 active torsions:
REMARK  status: ('A' for Active; 'I' for Inactive)
REMARK    1  A    between atoms: C_2  and  C_3 
REMARK    2  A    between atoms: C_3  and  O_6 
REMARK    3  A    between atoms: C_3  and  C_4 
REMARK    4  A    between atoms: C_7  and  O_6 
REMARK    5  A    between atoms: C_9  and  C_10 
REMARK    6  A    between atoms: N_15  and  C_14 
REMARK    7  A    between atoms: N_20  and  C_19 
REMARK       I    between atoms: C_22  and  N_20 
ROOT
ATOM      1  C   LIG d   1      -0.235  80.556 114.275  0.00  0.00     0.161 C 
ATOM      2  C   LIG d   1      -0.259  81.849 113.727  0.00  0.00     0.016 C 
ATOM      3  C   LIG d   1      -1.095  82.222 112.649  0.00  0.00     0.038 C 
ATOM      4  C   LIG d   1      -2.078  81.361 112.141  0.00  0.00     0.028 C 
ATOM      5  C   LIG d   1      -1.745  79.884 112.326  0.00  0.00    -0.047 C 
ATOM      6  C   LIG d   1      -1.380  79.634 113.808  0.00  0.00     0.091 C 
ENDROOT
BRANCH   1   7
ATOM      7  O   LIG d   1      -0.211  80.635 115.714  0.00  0.00    -0.368 OA
BRANCH   7   8
ATOM      8  C   LIG d   1       1.083  80.881 116.318  0.00  0.00     0.119 C 
BRANCH   8   9
ATOM      9  C   LIG d   1       1.349  79.741 117.321  0.00  0.00     0.028 C 
ATOM     10  C   LIG d   1       0.102  78.878 117.572  0.00  0.00     0.006 C 
ENDBRANCH   8   9
BRANCH   8  11
ATOM     11  C   LIG d   1       1.073  82.163 117.155  0.00  0.00     0.028 C 
ATOM     12  C   LIG d   1       1.766  83.340 116.450  0.00  0.00     0.006 C 
ENDBRANCH   8  11
ENDBRANCH   7   8
ENDBRANCH   1   7
BRANCH   6  13
ATOM     13  N   LIG d   1      -0.959  78.231 114.058  0.00  0.00    -0.311 N 
ATOM     14  C   LIG d   1      -1.810  77.255 114.370  0.00  0.00     0.210 C 
ATOM     15  C   LIG d   1      -1.164  75.886 114.608  0.00  0.00     0.109 C 
ATOM     16  O   LIG d   1      -3.041  77.385 114.441  0.00  0.00    -0.276 OA
ATOM     17  H   LIG d   1       0.019  78.030 113.991  0.00  0.00     0.149 HD
ENDBRANCH   6  13
BRANCH   5  18
ATOM     18  N   LIG d   1      -2.914  79.104 111.879  0.00  0.00     0.381 N 
ATOM     19  H   LIG d   1      -2.616  78.367 111.271  0.00  0.00    -0.090 HD
ATOM     20  H   LIG d   1      -3.530  79.708 111.364  0.00  0.00    -0.090 HD
ATOM     21  H   LIG d   1      -3.391  78.722 112.666  0.00  0.00    -0.090 HD
ENDBRANCH   5  18
BRANCH   3  22
ATOM     22  C   LIG d   1      -0.923  83.457 112.041  0.00  0.00     0.382 C 
ATOM     23  O   LIG d   1      -1.021  83.561 110.795  0.00  0.00    -0.241 OA
ATOM     24  O   LIG d   1      -0.626  84.459 112.719  0.00  0.00    -0.241 OA
ENDBRANCH   3  22
TORSDOF 7
ENDMDL
MODEL 8
REMARK VINA RESULT:      -4.4      2.549      5.659
REMARK  7 active torsions:
REMARK  status: ('A' for Active; 'I' for Inactive)
REMARK    1  A    between atoms: C_2  and  C_3 
REMARK    2  A    between atoms: C_3  and  O_6 
REMARK    3  A    between atoms: C_3  and  C_4 
REMARK    4  A    between atoms: C_7  and  O_6 
REMARK    5  A    between atoms: C_9  and  C_10 
REMARK    6  A    between atoms: N_15  and  C_14 
REMARK    7  A    between atoms: N_20  and  C_19 
REMARK       I    between atoms: C_22  and  N_20 
ROOT
ATOM      1  C   LIG d   1      -1.641  77.144 114.598  0.00  0.00     0.161 C 
ATOM      2  C   LIG d   1      -2.709  76.380 115.097  0.00  0.00     0.016 C 
ATOM      3  C   LIG d   1      -3.938  76.221 114.415  0.00  0.00     0.038 C 
ATOM      4  C   LIG d   1      -4.127  76.695 113.108  0.00  0.00     0.028 C 
ATOM      5  C   LIG d   1      -3.258  77.901 112.769  0.00  0.00    -0.047 C 
ATOM      6  C   LIG d   1      -1.789  77.577 113.124  0.00  0.00     0.091 C 
ENDROOT
BRANCH   1   7
ATOM      7  O   LIG d   1      -0.401  76.435 114.790  0.00  0.00    -0.368 OA
BRANCH   7   8
ATOM      8  C   LIG d   1      -0.516  75.054 115.211  0.00  0.00     0.119 C 
BRANCH   8   9
ATOM      9  C   LIG d   1      -0.218  75.004 116.723  0.00  0.00     0.028 C 
ATOM     10  C   LIG d   1       0.650  76.185 117.189  0.00  0.00     0.006 C 
ENDBRANCH   8   9
BRANCH   8  11
ATOM     11  C   LIG d   1       0.559  74.181 114.558  0.00  0.00     0.028 C 
ATOM     12  C   LIG d   1       0.938  74.659 113.147  0.00  0.00     0.006 C 
ENDBRANCH   8  11
ENDBRANCH   7   8
ENDBRANCH   1   7
BRANCH   6  13
ATOM     13  N   LIG d   1      -0.883  78.734 112.902  0.00  0.00    -0.311 N 
ATOM     14  C   LIG d   1      -1.256  80.001 113.076  0.00  0.00     0.210 C 
ATOM     15  C   LIG d   1      -0.174  81.041 112.773  0.00  0.00     0.109 C 
ATOM     16  O   LIG d   1      -2.371  80.360 113.483  0.00  0.00    -0.276 OA
ATOM     17  H   LIG d   1       0.050  78.532 112.600  0.00  0.00     0.149 HD
ENDBRANCH   6  13
BRANCH   5  18
ATOM     18  N   LIG d   1      -3.454  78.204 111.339  0.00  0.00     0.381 N 
ATOM     19  H   LIG d   1      -3.536  77.352 110.820  0.00  0.00    -0.090 HD
ATOM     20  H   LIG d   1      -2.651  78.704 110.999  0.00  0.00    -0.090 HD
ATOM     21  H   LIG d   1      -4.275  78.756 111.217  0.00  0.00    -0.090 HD
ENDBRANCH   5  18
BRANCH   3  22
ATOM     22  C   LIG d   1      -5.007  75.615 115.057  0.00  0.00     0.382 C 
ATOM     23  O   LIG d   1      -4.905  74.434 115.467  0.00  0.00    -0.241 OA
ATOM     24  O   LIG d   1      -6.087  76.220 115.193  0.00  0.00    -0.241 OA
ENDBRANCH   3  22
TORSDOF 7
ENDMDL
MODEL 9
REMARK VINA RESULT:      -4.2      2.661      5.602
REMARK  7 active torsions:
REMARK  status: ('A' for Active; 'I' for Inactive)
REMARK    1  A    between atoms: C_2  and  C_3 
REMARK    2  A    between atoms: C_3  and  O_6 
REMARK    3  A    between atoms: C_3  and  C_4 
REMARK    4  A    between atoms: C_7  and  O_6 
REMARK    5  A    between atoms: C_9  and  C_10 
REMARK    6  A    between atoms: N_15  and  C_14 
REMARK    7  A    between atoms: N_20  and  C_19 
REMARK       I    between atoms: C_22  and  N_20 
ROOT
ATOM      1  C   LIG d   1      -3.751  76.503 116.937  0.00  0.00     0.161 C 
ATOM      2  C   LIG d   1      -4.995  76.587 117.585  0.00  0.00     0.016 C 
ATOM      3  C   LIG d   1      -6.181  76.016 117.069  0.00  0.00     0.038 C 
ATOM      4  C   LIG d   1      -6.174  75.188 115.937  0.00  0.00     0.028 C 
ATOM      5  C   LIG d   1      -5.033  75.491 114.972  0.00  0.00    -0.047 C 
ATOM      6  C   LIG d   1      -3.702  75.509 115.758  0.00  0.00     0.091 C 
ENDROOT
BRANCH   1   7
ATOM      7  O   LIG d   1      -2.721  76.194 117.896  0.00  0.00    -0.368 OA
BRANCH   7   8
ATOM      8  C   LIG d   1      -1.923  77.312 118.356  0.00  0.00     0.119 C 
BRANCH   8   9
ATOM      9  C   LIG d   1      -0.459  76.836 118.433  0.00  0.00     0.028 C 
ATOM     10  C   LIG d   1       0.186  76.697 117.043  0.00  0.00     0.006 C 
ENDBRANCH   8   9
BRANCH   8  11
ATOM     11  C   LIG d   1      -2.295  77.710 119.787  0.00  0.00     0.028 C 
ATOM     12  C   LIG d   1      -2.682  79.192 119.912  0.00  0.00     0.006 C 
ENDBRANCH   8  11
ENDBRANCH   7   8
ENDBRANCH   1   7
BRANCH   6  13
ATOM     13  N   LIG d   1      -2.545  75.881 114.904  0.00  0.00    -0.311 N 
ATOM     14  C   LIG d   1      -2.502  76.991 114.169  0.00  0.00     0.210 C 
ATOM     15  C   LIG d   1      -1.223  77.173 113.346  0.00  0.00     0.109 C 
ATOM     16  O   LIG d   1      -3.389  77.858 114.146  0.00  0.00    -0.276 OA
ATOM     17  H   LIG d   1      -1.768  75.249 114.887  0.00  0.00     0.149 HD
ENDBRANCH   6  13
BRANCH   5  18
ATOM     18  N   LIG d   1      -5.064  74.467 113.910  0.00  0.00     0.381 N 
ATOM     19  H   LIG d   1      -5.569  74.814 113.119  0.00  0.00    -0.090 HD
ATOM     20  H   LIG d   1      -5.541  73.653 114.257  0.00  0.00    -0.090 HD
ATOM     21  H   LIG d   1      -4.135  74.227 113.641  0.00  0.00    -0.090 HD
ENDBRANCH   5  18
BRANCH   3  22
ATOM     22  C   LIG d   1      -7.399  76.306 117.666  0.00  0.00     0.382 C 
ATOM     23  O   LIG d   1      -7.821  77.487 117.687  0.00  0.00    -0.241 OA
ATOM     24  O   LIG d   1      -8.060  75.408 118.221  0.00  0.00    -0.241 OA
ENDBRANCH   3  22
TORSDOF 7
ENDMDL
