MODEL 1
REMARK VINA RESULT:      -5.3      0.000      0.000
REMARK  7 active torsions:
REMARK  status: ('A' for Active; 'I' for Inactive)
REMARK    1  A    between atoms: C_2  and  C_3 
REMARK    2  A    between atoms: C_3  and  O_6 
REMARK    3  A    between atoms: C_3  and  C_4 
REMARK    4  A    between atoms: C_7  and  O_6 
REMARK    5  A    between atoms: C_9  and  C_10 
REMARK    6  A    between atoms: N_15  and  C_14 
REMARK    7  A    between atoms: N_20  and  C_19 
REMARK       I    between atoms: C_22  and  N_20 
ROOT
ATOM      1  C   LIG d   1      -1.810  75.503 115.253  0.00  0.00     0.161 C 
ATOM      2  C   LIG d   1      -1.642  74.884 116.503  0.00  0.00     0.016 C 
ATOM      3  C   LIG d   1      -0.888  75.451 117.557  0.00  0.00     0.038 C 
ATOM      4  C   LIG d   1      -0.372  76.753 117.482  0.00  0.00     0.028 C 
ATOM      5  C   LIG d   1      -0.088  77.212 116.056  0.00  0.00    -0.047 C 
ATOM      6  C   LIG d   1      -1.348  76.974 115.192  0.00  0.00     0.091 C 
ENDROOT
BRANCH   1   7
ATOM      7  O   LIG d   1      -3.185  75.391 114.834  0.00  0.00    -0.368 OA
BRANCH   7   8
ATOM      8  C   LIG d   1      -4.168  75.298 115.894  0.00  0.00     0.119 C 
BRANCH   8   9
ATOM      9  C   LIG d   1      -5.243  74.291 115.440  0.00  0.00     0.028 C 
ATOM     10  C   LIG d   1      -6.551  74.429 116.238  0.00  0.00     0.006 C 
ENDBRANCH   8   9
BRANCH   8  11
ATOM     11  C   LIG d   1      -4.910  76.625 116.083  0.00  0.00     0.028 C 
ATOM     12  C   LIG d   1      -4.438  77.400 117.324  0.00  0.00     0.006 C 
ENDBRANCH   8  11
ENDBRANCH   7   8
ENDBRANCH   1   7
BRANCH   6  13
ATOM     13  N   LIG d   1      -1.129  77.317 113.763  0.00  0.00    -0.311 N 
ATOM     14  C   LIG d   1      -1.878  78.194 113.097  0.00  0.00     0.210 C 
ATOM     15  C   LIG d   1      -1.494  78.387 111.626  0.00  0.00     0.109 C 
ATOM     16  O   LIG d   1      -2.803  78.855 113.592  0.00  0.00    -0.276 OA
ATOM     17  H   LIG d   1      -0.379  76.851 113.292  0.00  0.00     0.149 HD
ENDBRANCH   6  13
BRANCH   5  18
ATOM     18  N   LIG d   1       0.312  78.630 116.115  0.00  0.00     0.381 N 
ATOM     19  H   LIG d   1      -0.493  79.204 116.271  0.00  0.00    -0.090 HD
ATOM     20  H   LIG d   1       0.718  78.891 115.234  0.00  0.00    -0.090 HD
ATOM     21  H   LIG d   1       0.974  78.768 116.847  0.00  0.00    -0.090 HD
ENDBRANCH   5  18
BRANCH   3  22
ATOM     22  C   LIG d   1      -0.608  74.695 118.685  0.00  0.00     0.382 C 
ATOM     23  O   LIG d   1      -1.545  74.180 119.342  0.00  0.00    -0.241 OA
ATOM     24  O   LIG d   1       0.565  74.560 119.081  0.00  0.00    -0.241 OA
ENDBRANCH   3  22
TORSDOF 7
ENDMDL
MODEL 2
REMARK VINA RESULT:      -5.1      1.913      4.896
REMARK  7 active torsions:
REMARK  status: ('A' for Active; 'I' for Inactive)
REMARK    1  A    between atoms: C_2  and  C_3 
REMARK    2  A    between atoms: C_3  and  O_6 
REMARK    3  A    between atoms: C_3  and  C_4 
REMARK    4  A    between atoms: C_7  and  O_6 
REMARK    5  A    between atoms: C_9  and  C_10 
REMARK    6  A    between atoms: N_15  and  C_14 
REMARK    7  A    between atoms: N_20  and  C_19 
REMARK       I    between atoms: C_22  and  N_20 
ROOT
ATOM      1  C   LIG d   1      -2.833  76.692 115.691  0.00  0.00     0.161 C 
ATOM      2  C   LIG d   1      -3.106  77.684 114.734  0.00  0.00     0.016 C 
ATOM      3  C   LIG d   1      -2.340  77.864 113.559  0.00  0.00     0.038 C 
ATOM      4  C   LIG d   1      -1.334  76.962 113.185  0.00  0.00     0.028 C 
ATOM      5  C   LIG d   1      -0.693  76.244 114.368  0.00  0.00    -0.047 C 
ATOM      6  C   LIG d   1      -1.807  75.629 115.245  0.00  0.00     0.091 C 
ENDROOT
BRANCH   1   7
ATOM      7  O   LIG d   1      -4.061  76.062 116.106  0.00  0.00    -0.368 OA
BRANCH   7   8
ATOM      8  C   LIG d   1      -5.274  76.565 115.494  0.00  0.00     0.119 C 
BRANCH   8   9
ATOM      9  C   LIG d   1      -6.244  76.941 116.631  0.00  0.00     0.028 C 
ATOM     10  C   LIG d   1      -5.992  78.358 117.173  0.00  0.00     0.006 C 
ENDBRANCH   8   9
BRANCH   8  11
ATOM     11  C   LIG d   1      -5.990  75.473 114.695  0.00  0.00     0.028 C 
ATOM     12  C   LIG d   1      -5.048  74.339 114.260  0.00  0.00     0.006 C 
ENDBRANCH   8  11
ENDBRANCH   7   8
ENDBRANCH   1   7
BRANCH   6  13
ATOM     13  N   LIG d   1      -1.272  74.979 116.470  0.00  0.00    -0.311 N 
ATOM     14  C   LIG d   1      -0.539  75.621 117.379  0.00  0.00     0.210 C 
ATOM     15  C   LIG d   1      -0.070  74.759 118.556  0.00  0.00     0.109 C 
ATOM     16  O   LIG d   1      -0.260  76.828 117.338  0.00  0.00    -0.276 OA
ATOM     17  H   LIG d   1      -1.477  74.008 116.598  0.00  0.00     0.149 HD
ENDBRANCH   6  13
BRANCH   5  18
ATOM     18  N   LIG d   1       0.239  75.236 113.827  0.00  0.00     0.381 N 
ATOM     19  H   LIG d   1      -0.049  74.321 114.111  0.00  0.00    -0.090 HD
ATOM     20  H   LIG d   1       1.156  75.409 114.199  0.00  0.00    -0.090 HD
ATOM     21  H   LIG d   1       0.260  75.291 112.832  0.00  0.00    -0.090 HD
ENDBRANCH   5  18
BRANCH   3  22
ATOM     22  C   LIG d   1      -2.553  78.980 112.765  0.00  0.00     0.382 C 
ATOM     23  O   LIG d   1      -3.087  80.005 113.254  0.00  0.00    -0.241 OA
ATOM     24  O   LIG d   1      -2.258  78.960 111.555  0.00  0.00    -0.241 OA
ENDBRANCH   3  22
TORSDOF 7
ENDMDL
MODEL 3
REMARK VINA RESULT:      -5.0      2.369      5.614
REMARK  7 active torsions:
REMARK  status: ('A' for Active; 'I' for Inactive)
REMARK    1  A    between atoms: C_2  and  C_3 
REMARK    2  A    between atoms: C_3  and  O_6 
REMARK    3  A    between atoms: C_3  and  C_4 
REMARK    4  A    between atoms: C_7  and  O_6 
REMARK    5  A    between atoms: C_9  and  C_10 
REMARK    6  A    between atoms: N_15  and  C_14 
REMARK    7  A    between atoms: N_20  and  C_19 
REMARK       I    between atoms: C_22  and  N_20 
ROOT
ATOM      1  C   LIG d   1      -1.513  77.516 114.049  0.00  0.00     0.161 C 
ATOM      2  C   LIG d   1      -2.735  77.074 113.516  0.00  0.00     0.016 C 
ATOM      3  C   LIG d   1      -3.660  76.287 114.238  0.00  0.00     0.038 C 
ATOM      4  C   LIG d   1      -3.494  76.013 115.604  0.00  0.00     0.028 C 
ATOM      5  C   LIG d   1      -2.035  76.011 116.048  0.00  0.00    -0.047 C 
ATOM      6  C   LIG d   1      -1.364  77.321 115.573  0.00  0.00     0.091 C 
ENDROOT
BRANCH   1   7
ATOM      7  O   LIG d   1      -1.297  78.897 113.698  0.00  0.00    -0.368 OA
BRANCH   7   8
ATOM      8  C   LIG d   1      -1.813  79.315 112.410  0.00  0.00     0.119 C 
BRANCH   8   9
ATOM      9  C   LIG d   1      -0.610  79.729 111.541  0.00  0.00     0.028 C 
ATOM     10  C   LIG d   1      -0.748  79.258 110.084  0.00  0.00     0.006 C 
ENDBRANCH   8   9
BRANCH   8  11
ATOM     11  C   LIG d   1      -2.675  80.575 112.538  0.00  0.00     0.028 C 
ATOM     12  C   LIG d   1      -1.845  81.868 112.517  0.00  0.00     0.006 C 
ENDBRANCH   8  11
ENDBRANCH   7   8
ENDBRANCH   1   7
BRANCH   6  13
ATOM     13  N   LIG d   1       0.086  77.363 115.893  0.00  0.00    -0.311 N 
ATOM     14  C   LIG d   1       0.592  78.052 116.914  0.00  0.00     0.210 C 
ATOM     15  C   LIG d   1       2.116  77.977 117.053  0.00  0.00     0.109 C 
ATOM     16  O   LIG d   1      -0.079  78.693 117.737  0.00  0.00    -0.276 OA
ATOM     17  H   LIG d   1       0.701  76.846 115.295  0.00  0.00     0.149 HD
ENDBRANCH   6  13
BRANCH   5  18
ATOM     18  N   LIG d   1      -2.015  75.850 117.514  0.00  0.00     0.381 N 
ATOM     19  H   LIG d   1      -1.073  75.729 117.829  0.00  0.00    -0.090 HD
ATOM     20  H   LIG d   1      -2.537  75.027 117.758  0.00  0.00    -0.090 HD
ATOM     21  H   LIG d   1      -2.419  76.650 117.950  0.00  0.00    -0.090 HD
ENDBRANCH   5  18
BRANCH   3  22
ATOM     22  C   LIG d   1      -4.748  75.730 113.583  0.00  0.00     0.382 C 
ATOM     23  O   LIG d   1      -4.972  74.499 113.672  0.00  0.00    -0.241 OA
ATOM     24  O   LIG d   1      -5.484  76.437 112.868  0.00  0.00    -0.241 OA
ENDBRANCH   3  22
TORSDOF 7
ENDMDL
MODEL 4
REMARK VINA RESULT:      -4.7      2.313      4.962
REMARK  7 active torsions:
REMARK  status: ('A' for Active; 'I' for Inactive)
REMARK    1  A    between atoms: C_2  and  C_3 
REMARK    2  A    between atoms: C_3  and  O_6 
REMARK    3  A    between atoms: C_3  and  C_4 
REMARK    4  A    between atoms: C_7  and  O_6 
REMARK    5  A    between atoms: C_9  and  C_10 
REMARK    6  A    between atoms: N_15  and  C_14 
REMARK    7  A    between atoms: N_20  and  C_19 
REMARK       I    between atoms: C_22  and  N_20 
ROOT
ATOM      1  C   LIG d   1      -3.612  77.404 114.915  0.00  0.00     0.161 C 
ATOM      2  C   LIG d   1      -3.222  77.460 113.567  0.00  0.00     0.016 C 
ATOM      3  C   LIG d   1      -1.926  77.119 113.116  0.00  0.00     0.038 C 
ATOM      4  C   LIG d   1      -0.970  76.549 113.971  0.00  0.00     0.028 C 
ATOM      5  C   LIG d   1      -1.151  76.946 115.432  0.00  0.00    -0.047 C 
ATOM      6  C   LIG d   1      -2.617  76.680 115.846  0.00  0.00     0.091 C 
ENDROOT
BRANCH   1   7
ATOM      7  O   LIG d   1      -4.921  76.810 115.021  0.00  0.00    -0.368 OA
BRANCH   7   8
ATOM      8  C   LIG d   1      -5.243  75.799 114.036  0.00  0.00     0.119 C 
BRANCH   8   9
ATOM      9  C   LIG d   1      -6.661  76.099 113.511  0.00  0.00     0.028 C 
ATOM     10  C   LIG d   1      -6.655  76.600 112.057  0.00  0.00     0.006 C 
ENDBRANCH   8   9
BRANCH   8  11
ATOM     11  C   LIG d   1      -5.333  74.409 114.672  0.00  0.00     0.028 C 
ATOM     12  C   LIG d   1      -5.733  74.457 116.155  0.00  0.00     0.006 C 
ENDBRANCH   8  11
ENDBRANCH   7   8
ENDBRANCH   1   7
BRANCH   6  13
ATOM     13  N   LIG d   1      -2.901  77.119 117.237  0.00  0.00    -0.311 N 
ATOM     14  C   LIG d   1      -2.805  76.314 118.294  0.00  0.00     0.210 C 
ATOM     15  C   LIG d   1      -3.162  76.963 119.635  0.00  0.00     0.109 C 
ATOM     16  O   LIG d   1      -2.427  75.134 118.252  0.00  0.00    -0.276 OA
ATOM     17  H   LIG d   1      -3.185  78.071 117.366  0.00  0.00     0.149 HD
ENDBRANCH   6  13
BRANCH   5  18
ATOM     18  N   LIG d   1      -0.177  76.175 116.227  0.00  0.00     0.381 N 
ATOM     19  H   LIG d   1      -0.474  76.136 117.182  0.00  0.00    -0.090 HD
ATOM     20  H   LIG d   1       0.712  76.642 116.193  0.00  0.00    -0.090 HD
ATOM     21  H   LIG d   1      -0.090  75.253 115.860  0.00  0.00    -0.090 HD
ENDBRANCH   5  18
BRANCH   3  22
ATOM     22  C   LIG d   1      -1.562  77.384 111.805  0.00  0.00     0.382 C 
ATOM     23  O   LIG d   1      -1.504  78.569 111.398  0.00  0.00    -0.241 OA
ATOM     24  O   LIG d   1      -1.336  76.451 111.011  0.00  0.00    -0.241 OA
ENDBRANCH   3  22
TORSDOF 7
ENDMDL
MODEL 5
REMARK VINA RESULT:      -4.6      2.054      4.960
REMARK  7 active torsions:
REMARK  status: ('A' for Active; 'I' for Inactive)
REMARK    1  A    between atoms: C_2  and  C_3 
REMARK    2  A    between atoms: C_3  and  O_6 
REMARK    3  A    between atoms: C_3  and  C_4 
REMARK    4  A    between atoms: C_7  and  O_6 
REMARK    5  A    between atoms: C_9  and  C_10 
REMARK    6  A    between atoms: N_15  and  C_14 
REMARK    7  A    between atoms: N_20  and  C_19 
REMARK       I    between atoms: C_22  and  N_20 
ROOT
ATOM      1  C   LIG d   1      -3.112  77.847 116.209  0.00  0.00     0.161 C 
ATOM      2  C   LIG d   1      -3.517  77.600 114.887  0.00  0.00     0.016 C 
ATOM      3  C   LIG d   1      -2.669  77.038 113.905  0.00  0.00     0.038 C 
ATOM      4  C   LIG d   1      -1.395  76.542 114.221  0.00  0.00     0.028 C 
ATOM      5  C   LIG d   1      -0.759  77.229 115.425  0.00  0.00    -0.047 C 
ATOM      6  C   LIG d   1      -1.762  77.210 116.601  0.00  0.00     0.091 C 
ENDROOT
BRANCH   1   7
ATOM      7  O   LIG d   1      -4.146  77.432 117.123  0.00  0.00    -0.368 OA
BRANCH   7   8
ATOM      8  C   LIG d   1      -5.503  77.484 116.616  0.00  0.00     0.119 C 
BRANCH   8   9
ATOM      9  C   LIG d   1      -6.280  78.496 117.479  0.00  0.00     0.028 C 
ATOM     10  C   LIG d   1      -6.151  78.206 118.984  0.00  0.00     0.006 C 
ENDBRANCH   8   9
BRANCH   8  11
ATOM     11  C   LIG d   1      -6.222  76.146 116.812  0.00  0.00     0.028 C 
ATOM     12  C   LIG d   1      -6.888  75.634 115.525  0.00  0.00     0.006 C 
ENDBRANCH   8  11
ENDBRANCH   7   8
ENDBRANCH   1   7
BRANCH   6  13
ATOM     13  N   LIG d   1      -1.252  77.937 117.793  0.00  0.00    -0.311 N 
ATOM     14  C   LIG d   1      -0.594  77.344 118.787  0.00  0.00     0.210 C 
ATOM     15  C   LIG d   1      -0.173  78.273 119.930  0.00  0.00     0.109 C 
ATOM     16  O   LIG d   1      -0.290  76.141 118.816  0.00  0.00    -0.276 OA
ATOM     17  H   LIG d   1      -1.427  78.922 117.836  0.00  0.00     0.149 HD
ENDBRANCH   6  13
BRANCH   5  18
ATOM     18  N   LIG d   1       0.500  76.524 115.727  0.00  0.00     0.381 N 
ATOM     19  H   LIG d   1       0.791  76.735 116.661  0.00  0.00    -0.090 HD
ATOM     20  H   LIG d   1       1.212  76.845 115.095  0.00  0.00    -0.090 HD
ATOM     21  H   LIG d   1       0.374  75.541 115.625  0.00  0.00    -0.090 HD
ENDBRANCH   5  18
BRANCH   3  22
ATOM     22  C   LIG d   1      -3.078  77.004 112.581  0.00  0.00     0.382 C 
ATOM     23  O   LIG d   1      -2.226  76.938 111.662  0.00  0.00    -0.241 OA
ATOM     24  O   LIG d   1      -4.287  77.084 112.291  0.00  0.00    -0.241 OA
ENDBRANCH   3  22
TORSDOF 7
ENDMDL
MODEL 6
REMARK VINA RESULT:      -4.1      2.177      5.071
REMARK  7 active torsions:
REMARK  status: ('A' for Active; 'I' for Inactive)
REMARK    1  A    between atoms: C_2  and  C_3 
REMARK    2  A    between atoms: C_3  and  O_6 
REMARK    3  A    between atoms: C_3  and  C_4 
REMARK    4  A    between atoms: C_7  and  O_6 
REMARK    5  A    between atoms: C_9  and  C_10 
REMARK    6  A    between atoms: N_15  and  C_14 
REMARK    7  A    between atoms: N_20  and  C_19 
REMARK       I    between atoms: C_22  and  N_20 
ROOT
ATOM      1  C   LIG d   1      -3.523  76.795 116.270  0.00  0.00     0.161 C 
ATOM      2  C   LIG d   1      -3.417  77.614 115.134  0.00  0.00     0.016 C 
ATOM      3  C   LIG d   1      -2.504  77.370 114.082  0.00  0.00     0.038 C 
ATOM      4  C   LIG d   1      -1.736  76.198 114.023  0.00  0.00     0.028 C 
ATOM      5  C   LIG d   1      -1.444  75.596 115.393  0.00  0.00    -0.047 C 
ATOM      6  C   LIG d   1      -2.772  75.451 116.171  0.00  0.00     0.091 C 
ENDROOT
BRANCH   1   7
ATOM      7  O   LIG d   1      -4.912  76.570 116.583  0.00  0.00    -0.368 OA
BRANCH   7   8
ATOM      8  C   LIG d   1      -5.416  77.241 117.764  0.00  0.00     0.119 C 
BRANCH   8   9
ATOM      9  C   LIG d   1      -6.417  78.314 117.295  0.00  0.00     0.028 C 
ATOM     10  C   LIG d   1      -6.940  79.176 118.457  0.00  0.00     0.006 C 
ENDBRANCH   8   9
BRANCH   8  11
ATOM     11  C   LIG d   1      -4.305  78.010 118.485  0.00  0.00     0.028 C 
ATOM     12  C   LIG d   1      -4.091  77.532 119.930  0.00  0.00     0.006 C 
ENDBRANCH   8  11
ENDBRANCH   7   8
ENDBRANCH   1   7
BRANCH   6  13
ATOM     13  N   LIG d   1      -2.566  74.947 117.554  0.00  0.00    -0.311 N 
ATOM     14  C   LIG d   1      -1.556  75.333 118.332  0.00  0.00     0.210 C 
ATOM     15  C   LIG d   1      -1.518  74.676 119.716  0.00  0.00     0.109 C 
ATOM     16  O   LIG d   1      -0.706  76.180 118.019  0.00  0.00    -0.276 OA
ATOM     17  H   LIG d   1      -3.228  74.280 117.900  0.00  0.00     0.149 HD
ENDBRANCH   6  13
BRANCH   5  18
ATOM     18  N   LIG d   1      -0.756  74.309 115.177  0.00  0.00     0.381 N 
ATOM     19  H   LIG d   1      -0.827  73.745 116.000  0.00  0.00    -0.090 HD
ATOM     20  H   LIG d   1       0.217  74.486 114.999  0.00  0.00    -0.090 HD
ATOM     21  H   LIG d   1      -1.162  73.832 114.402  0.00  0.00    -0.090 HD
ENDBRANCH   5  18
BRANCH   3  22
ATOM     22  C   LIG d   1      -2.325  78.326 113.093  0.00  0.00     0.382 C 
ATOM     23  O   LIG d   1      -1.655  78.049 112.068  0.00  0.00    -0.241 OA
ATOM     24  O   LIG d   1      -2.786  79.474 113.233  0.00  0.00    -0.241 OA
ENDBRANCH   3  22
TORSDOF 7
ENDMDL
MODEL 7
REMARK VINA RESULT:      -4.1      2.066      3.480
REMARK  7 active torsions:
REMARK  status: ('A' for Active; 'I' for Inactive)
REMARK    1  A    between atoms: C_2  and  C_3 
REMARK    2  A    between atoms: C_3  and  O_6 
REMARK    3  A    between atoms: C_3  and  C_4 
REMARK    4  A    between atoms: C_7  and  O_6 
REMARK    5  A    between atoms: C_9  and  C_10 
REMARK    6  A    between atoms: N_15  and  C_14 
REMARK    7  A    between atoms: N_20  and  C_19 
REMARK       I    between atoms: C_22  and  N_20 
ROOT
ATOM      1  C   LIG d   1      -2.207  75.731 117.652  0.00  0.00     0.161 C 
ATOM      2  C   LIG d   1      -1.009  76.013 118.329  0.00  0.00     0.016 C 
ATOM      3  C   LIG d   1       0.150  76.505 117.686  0.00  0.00     0.038 C 
ATOM      4  C   LIG d   1       0.142  76.894 116.338  0.00  0.00     0.028 C 
ATOM      5  C   LIG d   1      -0.896  76.154 115.501  0.00  0.00    -0.047 C 
ATOM      6  C   LIG d   1      -2.270  76.253 116.202  0.00  0.00     0.091 C 
ENDROOT
BRANCH   1   7
ATOM      7  O   LIG d   1      -3.326  76.228 118.412  0.00  0.00    -0.368 OA
BRANCH   7   8
ATOM      8  C   LIG d   1      -3.684  77.614 118.187  0.00  0.00     0.119 C 
BRANCH   8   9
ATOM      9  C   LIG d   1      -3.478  78.367 119.516  0.00  0.00     0.028 C 
ATOM     10  C   LIG d   1      -2.237  79.276 119.489  0.00  0.00     0.006 C 
ENDBRANCH   8   9
BRANCH   8  11
ATOM     11  C   LIG d   1      -5.175  77.760 117.866  0.00  0.00     0.028 C 
ATOM     12  C   LIG d   1      -5.945  78.533 118.948  0.00  0.00     0.006 C 
ENDBRANCH   8  11
ENDBRANCH   7   8
ENDBRANCH   1   7
BRANCH   6  13
ATOM     13  N   LIG d   1      -3.325  75.485 115.492  0.00  0.00    -0.311 N 
ATOM     14  C   LIG d   1      -4.163  76.030 114.612  0.00  0.00     0.210 C 
ATOM     15  C   LIG d   1      -5.188  75.064 114.010  0.00  0.00     0.109 C 
ATOM     16  O   LIG d   1      -4.134  77.216 114.248  0.00  0.00    -0.276 OA
ATOM     17  H   LIG d   1      -3.399  74.509 115.704  0.00  0.00     0.149 HD
ENDBRANCH   6  13
BRANCH   5  18
ATOM     18  N   LIG d   1      -0.890  76.752 114.152  0.00  0.00     0.381 N 
ATOM     19  H   LIG d   1      -0.043  77.268 114.015  0.00  0.00    -0.090 HD
ATOM     20  H   LIG d   1      -1.663  77.389 114.076  0.00  0.00    -0.090 HD
ATOM     21  H   LIG d   1      -0.968  76.039 113.462  0.00  0.00    -0.090 HD
ENDBRANCH   5  18
BRANCH   3  22
ATOM     22  C   LIG d   1       1.346  76.575 118.384  0.00  0.00     0.382 C 
ATOM     23  O   LIG d   1       1.504  75.895 119.426  0.00  0.00    -0.241 OA
ATOM     24  O   LIG d   1       2.252  77.344 118.010  0.00  0.00    -0.241 OA
ENDBRANCH   3  22
TORSDOF 7
ENDMDL
MODEL 8
REMARK VINA RESULT:      -4.1      2.439      4.983
REMARK  7 active torsions:
REMARK  status: ('A' for Active; 'I' for Inactive)
REMARK    1  A    between atoms: C_2  and  C_3 
REMARK    2  A    between atoms: C_3  and  O_6 
REMARK    3  A    between atoms: C_3  and  C_4 
REMARK    4  A    between atoms: C_7  and  O_6 
REMARK    5  A    between atoms: C_9  and  C_10 
REMARK    6  A    between atoms: N_15  and  C_14 
REMARK    7  A    between atoms: N_20  and  C_19 
REMARK       I    between atoms: C_22  and  N_20 
ROOT
ATOM      1  C   LIG d   1      -2.323  77.138 115.817  0.00  0.00     0.161 C 
ATOM      2  C   LIG d   1      -2.987  77.645 114.687  0.00  0.00     0.016 C 
ATOM      3  C   LIG d   1      -2.584  77.371 113.360  0.00  0.00     0.038 C 
ATOM      4  C   LIG d   1      -1.573  76.443 113.069  0.00  0.00     0.028 C 
ATOM      5  C   LIG d   1      -0.546  76.295 114.187  0.00  0.00    -0.047 C 
ATOM      6  C   LIG d   1      -1.287  76.035 115.518  0.00  0.00     0.091 C 
ENDROOT
BRANCH   1   7
ATOM      7  O   LIG d   1      -3.288  76.672 116.782  0.00  0.00    -0.368 OA
BRANCH   7   8
ATOM      8  C   LIG d   1      -3.895  77.687 117.618  0.00  0.00     0.119 C 
BRANCH   8   9
ATOM      9  C   LIG d   1      -3.089  77.749 118.930  0.00  0.00     0.028 C 
ATOM     10  C   LIG d   1      -2.701  76.354 119.447  0.00  0.00     0.006 C 
ENDBRANCH   8   9
BRANCH   8  11
ATOM     11  C   LIG d   1      -5.315  77.291 118.033  0.00  0.00     0.028 C 
ATOM     12  C   LIG d   1      -6.384  78.253 117.492  0.00  0.00     0.006 C 
ENDBRANCH   8  11
ENDBRANCH   7   8
ENDBRANCH   1   7
BRANCH   6  13
ATOM     13  N   LIG d   1      -0.361  75.961 116.678  0.00  0.00    -0.311 N 
ATOM     14  C   LIG d   1       0.257  77.024 117.191  0.00  0.00     0.210 C 
ATOM     15  C   LIG d   1       1.185  76.724 118.372  0.00  0.00     0.109 C 
ATOM     16  O   LIG d   1       0.100  78.191 116.800  0.00  0.00    -0.276 OA
ATOM     17  H   LIG d   1      -0.200  75.057 117.077  0.00  0.00     0.149 HD
ENDBRANCH   6  13
BRANCH   5  18
ATOM     18  N   LIG d   1       0.368  75.200 113.810  0.00  0.00     0.381 N 
ATOM     19  H   LIG d   1       1.009  75.022 114.557  0.00  0.00    -0.090 HD
ATOM     20  H   LIG d   1       0.895  75.480 113.002  0.00  0.00    -0.090 HD
ATOM     21  H   LIG d   1      -0.153  74.376 113.606  0.00  0.00    -0.090 HD
ENDBRANCH   5  18
BRANCH   3  22
ATOM     22  C   LIG d   1      -3.168  78.060 112.308  0.00  0.00     0.382 C 
ATOM     23  O   LIG d   1      -2.980  79.295 112.186  0.00  0.00    -0.241 OA
ATOM     24  O   LIG d   1      -3.917  77.471 111.506  0.00  0.00    -0.241 OA
ENDBRANCH   3  22
TORSDOF 7
ENDMDL
MODEL 9
REMARK VINA RESULT:      -4.0      2.504      6.061
REMARK  7 active torsions:
REMARK  status: ('A' for Active; 'I' for Inactive)
REMARK    1  A    between atoms: C_2  and  C_3 
REMARK    2  A    between atoms: C_3  and  O_6 
REMARK    3  A    between atoms: C_3  and  C_4 
REMARK    4  A    between atoms: C_7  and  O_6 
REMARK    5  A    between atoms: C_9  and  C_10 
REMARK    6  A    between atoms: N_15  and  C_14 
REMARK    7  A    between atoms: N_20  and  C_19 
REMARK       I    between atoms: C_22  and  N_20 
ROOT
ATOM      1  C   LIG d   1      -1.488  76.971 116.090  0.00  0.00     0.161 C 
ATOM      2  C   LIG d   1      -1.589  77.264 114.719  0.00  0.00     0.016 C 
ATOM      3  C   LIG d   1      -2.764  77.052 113.963  0.00  0.00     0.038 C 
ATOM      4  C   LIG d   1      -3.974  76.671 114.563  0.00  0.00     0.028 C 
ATOM      5  C   LIG d   1      -3.787  75.881 115.854  0.00  0.00    -0.047 C 
ATOM      6  C   LIG d   1      -2.830  76.660 116.785  0.00  0.00     0.091 C 
ENDROOT
BRANCH   1   7
ATOM      7  O   LIG d   1      -0.808  78.045 116.770  0.00  0.00    -0.368 OA
BRANCH   7   8
ATOM      8  C   LIG d   1       0.583  77.812 117.099  0.00  0.00     0.119 C 
BRANCH   8   9
ATOM      9  C   LIG d   1       0.641  77.359 118.571  0.00  0.00     0.028 C 
ATOM     10  C   LIG d   1       1.704  76.273 118.809  0.00  0.00     0.006 C 
ENDBRANCH   8   9
BRANCH   8  11
ATOM     11  C   LIG d   1       1.395  79.109 117.041  0.00  0.00     0.028 C 
ATOM     12  C   LIG d   1       0.950  80.138 118.092  0.00  0.00     0.006 C 
ENDBRANCH   8  11
ENDBRANCH   7   8
ENDBRANCH   1   7
BRANCH   6  13
ATOM     13  N   LIG d   1      -2.527  75.917 118.036  0.00  0.00    -0.311 N 
ATOM     14  C   LIG d   1      -1.809  74.796 118.067  0.00  0.00     0.210 C 
ATOM     15  C   LIG d   1      -1.632  74.180 119.458  0.00  0.00     0.109 C 
ATOM     16  O   LIG d   1      -1.275  74.270 117.079  0.00  0.00    -0.276 OA
ATOM     17  H   LIG d   1      -2.895  76.291 118.889  0.00  0.00     0.149 HD
ENDBRANCH   6  13
BRANCH   5  18
ATOM     18  N   LIG d   1      -5.123  75.670 116.444  0.00  0.00     0.381 N 
ATOM     19  H   LIG d   1      -5.340  74.693 116.448  0.00  0.00    -0.090 HD
ATOM     20  H   LIG d   1      -5.806  76.143 115.880  0.00  0.00    -0.090 HD
ATOM     21  H   LIG d   1      -5.145  76.026 117.374  0.00  0.00    -0.090 HD
ENDBRANCH   5  18
BRANCH   3  22
ATOM     22  C   LIG d   1      -2.727  77.182 112.583  0.00  0.00     0.382 C 
ATOM     23  O   LIG d   1      -1.715  76.804 111.945  0.00  0.00    -0.241 OA
ATOM     24  O   LIG d   1      -3.673  77.715 111.972  0.00  0.00    -0.241 OA
ENDBRANCH   3  22
TORSDOF 7
ENDMDL
