MODEL 1
REMARK VINA RESULT:      -5.6      0.000      0.000
REMARK  7 active torsions:
REMARK  status: ('A' for Active; 'I' for Inactive)
REMARK    1  A    between atoms: C_2  and  C_3 
REMARK    2  A    between atoms: C_3  and  O_6 
REMARK    3  A    between atoms: C_3  and  C_4 
REMARK    4  A    between atoms: C_7  and  O_6 
REMARK    5  A    between atoms: C_9  and  C_10 
REMARK    6  A    between atoms: N_15  and  C_14 
REMARK    7  A    between atoms: N_20  and  C_19 
REMARK       I    between atoms: C_22  and  N_20 
ROOT
ATOM      1  C   LIG d   1      -2.701  78.084 116.535  0.00  0.00     0.161 C 
ATOM      2  C   LIG d   1      -2.989  78.910 115.436  0.00  0.00     0.016 C 
ATOM      3  C   LIG d   1      -2.318  78.815 114.195  0.00  0.00     0.038 C 
ATOM      4  C   LIG d   1      -1.412  77.780 113.919  0.00  0.00     0.028 C 
ATOM      5  C   LIG d   1      -0.721  77.232 115.163  0.00  0.00    -0.047 C 
ATOM      6  C   LIG d   1      -1.794  76.877 116.218  0.00  0.00     0.091 C 
ENDROOT
BRANCH   1   7
ATOM      7  O   LIG d   1      -3.928  77.641 117.148  0.00  0.00    -0.368 OA
BRANCH   7   8
ATOM      8  C   LIG d   1      -5.107  77.669 116.306  0.00  0.00     0.119 C 
BRANCH   8   9
ATOM      9  C   LIG d   1      -6.301  78.070 117.195  0.00  0.00     0.028 C 
ATOM     10  C   LIG d   1      -7.358  76.957 117.294  0.00  0.00     0.006 C 
ENDBRANCH   8   9
BRANCH   8  11
ATOM     11  C   LIG d   1      -5.446  76.273 115.776  0.00  0.00     0.028 C 
ATOM     12  C   LIG d   1      -5.247  76.147 114.258  0.00  0.00     0.006 C 
ENDBRANCH   8  11
ENDBRANCH   7   8
ENDBRANCH   1   7
BRANCH   6  13
ATOM     13  N   LIG d   1      -1.199  76.413 117.498  0.00  0.00    -0.311 N 
ATOM     14  C   LIG d   1      -1.025  75.128 117.802  0.00  0.00     0.210 C 
ATOM     15  C   LIG d   1      -0.412  74.867 119.181  0.00  0.00     0.109 C 
ATOM     16  O   LIG d   1      -1.290  74.180 117.047  0.00  0.00    -0.276 OA
ATOM     17  H   LIG d   1      -0.926  77.116 118.156  0.00  0.00     0.149 HD
ENDBRANCH   6  13
BRANCH   5  18
ATOM     18  N   LIG d   1       0.089  76.071 114.748  0.00  0.00     0.381 N 
ATOM     19  H   LIG d   1       1.056  76.249 114.933  0.00  0.00    -0.090 HD
ATOM     20  H   LIG d   1      -0.024  75.933 113.759  0.00  0.00    -0.090 HD
ATOM     21  H   LIG d   1      -0.206  75.257 115.240  0.00  0.00    -0.090 HD
ENDBRANCH   5  18
BRANCH   3  22
ATOM     22  C   LIG d   1      -2.522  79.787 113.227  0.00  0.00     0.382 C 
ATOM     23  O   LIG d   1      -3.192  80.812 113.500  0.00  0.00    -0.241 OA
ATOM     24  O   LIG d   1      -2.082  79.631 112.072  0.00  0.00    -0.241 OA
ENDBRANCH   3  22
TORSDOF 7
ENDMDL
MODEL 2
REMARK VINA RESULT:      -5.4      1.999      4.905
REMARK  7 active torsions:
REMARK  status: ('A' for Active; 'I' for Inactive)
REMARK    1  A    between atoms: C_2  and  C_3 
REMARK    2  A    between atoms: C_3  and  O_6 
REMARK    3  A    between atoms: C_3  and  C_4 
REMARK    4  A    between atoms: C_7  and  O_6 
REMARK    5  A    between atoms: C_9  and  C_10 
REMARK    6  A    between atoms: N_15  and  C_14 
REMARK    7  A    between atoms: N_20  and  C_19 
REMARK       I    between atoms: C_22  and  N_20 
ROOT
ATOM      1  C   LIG d   1      -2.174  75.954 114.996  0.00  0.00     0.161 C 
ATOM      2  C   LIG d   1      -2.117  75.572 116.347  0.00  0.00     0.016 C 
ATOM      3  C   LIG d   1      -1.475  76.340 117.346  0.00  0.00     0.038 C 
ATOM      4  C   LIG d   1      -0.975  77.625 117.087  0.00  0.00     0.028 C 
ATOM      5  C   LIG d   1      -0.563  77.832 115.633  0.00  0.00    -0.047 C 
ATOM      6  C   LIG d   1      -1.731  77.405 114.715  0.00  0.00     0.091 C 
ENDROOT
BRANCH   1   7
ATOM      7  O   LIG d   1      -3.500  75.726 114.480  0.00  0.00    -0.368 OA
BRANCH   7   8
ATOM      8  C   LIG d   1      -4.555  75.603 115.465  0.00  0.00     0.119 C 
BRANCH   8   9
ATOM      9  C   LIG d   1      -5.438  74.409 115.051  0.00  0.00     0.028 C 
ATOM     10  C   LIG d   1      -6.608  74.180 116.023  0.00  0.00     0.006 C 
ENDBRANCH   8   9
BRANCH   8  11
ATOM     11  C   LIG d   1      -5.483  76.821 115.443  0.00  0.00     0.028 C 
ATOM     12  C   LIG d   1      -5.296  77.734 116.665  0.00  0.00     0.006 C 
ENDBRANCH   8  11
ENDBRANCH   7   8
ENDBRANCH   1   7
BRANCH   6  13
ATOM     13  N   LIG d   1      -1.381  77.497 113.273  0.00  0.00    -0.311 N 
ATOM     14  C   LIG d   1      -2.153  78.095 112.368  0.00  0.00     0.210 C 
ATOM     15  C   LIG d   1      -1.616  78.059 110.934  0.00  0.00     0.109 C 
ATOM     16  O   LIG d   1      -3.217  78.680 112.622  0.00  0.00    -0.276 OA
ATOM     17  H   LIG d   1      -0.520  77.075 112.985  0.00  0.00     0.149 HD
ENDBRANCH   6  13
BRANCH   5  18
ATOM     18  N   LIG d   1      -0.192  79.251 115.474  0.00  0.00     0.381 N 
ATOM     19  H   LIG d   1      -0.072  79.673 116.373  0.00  0.00    -0.090 HD
ATOM     20  H   LIG d   1      -0.936  79.730 114.997  0.00  0.00    -0.090 HD
ATOM     21  H   LIG d   1       0.651  79.326 114.948  0.00  0.00    -0.090 HD
ENDBRANCH   5  18
BRANCH   3  22
ATOM     22  C   LIG d   1      -1.294  75.806 118.613  0.00  0.00     0.382 C 
ATOM     23  O   LIG d   1      -0.806  74.658 118.745  0.00  0.00    -0.241 OA
ATOM     24  O   LIG d   1      -1.653  76.440 119.623  0.00  0.00    -0.241 OA
ENDBRANCH   3  22
TORSDOF 7
ENDMDL
MODEL 3
REMARK VINA RESULT:      -5.1      2.076      4.538
REMARK  7 active torsions:
REMARK  status: ('A' for Active; 'I' for Inactive)
REMARK    1  A    between atoms: C_2  and  C_3 
REMARK    2  A    between atoms: C_3  and  O_6 
REMARK    3  A    between atoms: C_3  and  C_4 
REMARK    4  A    between atoms: C_7  and  O_6 
REMARK    5  A    between atoms: C_9  and  C_10 
REMARK    6  A    between atoms: N_15  and  C_14 
REMARK    7  A    between atoms: N_20  and  C_19 
REMARK       I    between atoms: C_22  and  N_20 
ROOT
ATOM      1  C   LIG d   1      -3.468  77.473 115.726  0.00  0.00     0.161 C 
ATOM      2  C   LIG d   1      -3.238  77.484 117.111  0.00  0.00     0.016 C 
ATOM      3  C   LIG d   1      -2.090  78.056 117.706  0.00  0.00     0.038 C 
ATOM      4  C   LIG d   1      -1.159  78.795 116.960  0.00  0.00     0.028 C 
ATOM      5  C   LIG d   1      -1.089  78.378 115.495  0.00  0.00    -0.047 C 
ATOM      6  C   LIG d   1      -2.519  78.372 114.906  0.00  0.00     0.091 C 
ENDROOT
BRANCH   1   7
ATOM      7  O   LIG d   1      -4.841  77.817 115.455  0.00  0.00    -0.368 OA
BRANCH   7   8
ATOM      8  C   LIG d   1      -5.699  76.729 115.031  0.00  0.00     0.119 C 
BRANCH   8   9
ATOM      9  C   LIG d   1      -6.568  76.327 116.239  0.00  0.00     0.028 C 
ATOM     10  C   LIG d   1      -6.852  77.512 117.177  0.00  0.00     0.006 C 
ENDBRANCH   8   9
BRANCH   8  11
ATOM     11  C   LIG d   1      -4.884  75.480 114.684  0.00  0.00     0.028 C 
ATOM     12  C   LIG d   1      -5.553  74.181 115.161  0.00  0.00     0.006 C 
ENDBRANCH   8  11
ENDBRANCH   7   8
ENDBRANCH   1   7
BRANCH   6  13
ATOM     13  N   LIG d   1      -2.550  77.894 113.499  0.00  0.00    -0.311 N 
ATOM     14  C   LIG d   1      -2.456  78.705 112.447  0.00  0.00     0.210 C 
ATOM     15  C   LIG d   1      -2.530  78.009 111.084  0.00  0.00     0.109 C 
ATOM     16  O   LIG d   1      -2.285  79.932 112.513  0.00  0.00    -0.276 OA
ATOM     17  H   LIG d   1      -2.654  76.909 113.354  0.00  0.00     0.149 HD
ENDBRANCH   6  13
BRANCH   5  18
ATOM     18  N   LIG d   1      -0.184  79.318 114.807  0.00  0.00     0.381 N 
ATOM     19  H   LIG d   1       0.089  80.046 115.435  0.00  0.00    -0.090 HD
ATOM     20  H   LIG d   1      -0.674  79.735 114.035  0.00  0.00    -0.090 HD
ATOM     21  H   LIG d   1       0.622  78.835 114.476  0.00  0.00    -0.090 HD
ENDBRANCH   5  18
BRANCH   3  22
ATOM     22  C   LIG d   1      -1.843  77.857 119.055  0.00  0.00     0.382 C 
ATOM     23  O   LIG d   1      -1.409  78.800 119.759  0.00  0.00    -0.241 OA
ATOM     24  O   LIG d   1      -2.007  76.734 119.569  0.00  0.00    -0.241 OA
ENDBRANCH   3  22
TORSDOF 7
ENDMDL
MODEL 4
REMARK VINA RESULT:      -5.1      1.243      1.990
REMARK  7 active torsions:
REMARK  status: ('A' for Active; 'I' for Inactive)
REMARK    1  A    between atoms: C_2  and  C_3 
REMARK    2  A    between atoms: C_3  and  O_6 
REMARK    3  A    between atoms: C_3  and  C_4 
REMARK    4  A    between atoms: C_7  and  O_6 
REMARK    5  A    between atoms: C_9  and  C_10 
REMARK    6  A    between atoms: N_15  and  C_14 
REMARK    7  A    between atoms: N_20  and  C_19 
REMARK       I    between atoms: C_22  and  N_20 
ROOT
ATOM      1  C   LIG d   1      -2.912  78.160 116.212  0.00  0.00     0.161 C 
ATOM      2  C   LIG d   1      -3.083  79.052 115.141  0.00  0.00     0.016 C 
ATOM      3  C   LIG d   1      -2.329  78.988 113.947  0.00  0.00     0.038 C 
ATOM      4  C   LIG d   1      -1.452  77.926 113.680  0.00  0.00     0.028 C 
ATOM      5  C   LIG d   1      -0.877  77.285 114.939  0.00  0.00    -0.047 C 
ATOM      6  C   LIG d   1      -2.038  76.928 115.895  0.00  0.00     0.091 C 
ENDROOT
BRANCH   1   7
ATOM      7  O   LIG d   1      -4.199  77.745 116.713  0.00  0.00    -0.368 OA
BRANCH   7   8
ATOM      8  C   LIG d   1      -4.929  78.729 117.487  0.00  0.00     0.119 C 
BRANCH   8   9
ATOM      9  C   LIG d   1      -4.292  78.778 118.890  0.00  0.00     0.028 C 
ATOM     10  C   LIG d   1      -3.761  80.177 119.244  0.00  0.00     0.006 C 
ENDBRANCH   8   9
BRANCH   8  11
ATOM     11  C   LIG d   1      -6.379  78.294 117.715  0.00  0.00     0.028 C 
ATOM     12  C   LIG d   1      -7.284  79.451 118.166  0.00  0.00     0.006 C 
ENDBRANCH   8  11
ENDBRANCH   7   8
ENDBRANCH   1   7
BRANCH   6  13
ATOM     13  N   LIG d   1      -1.558  76.373 117.187  0.00  0.00    -0.311 N 
ATOM     14  C   LIG d   1      -1.389  75.070 117.408  0.00  0.00     0.210 C 
ATOM     15  C   LIG d   1      -0.905  74.710 118.816  0.00  0.00     0.109 C 
ATOM     16  O   LIG d   1      -1.563  74.181 116.560  0.00  0.00    -0.276 OA
ATOM     17  H   LIG d   1      -1.363  77.026 117.920  0.00  0.00     0.149 HD
ENDBRANCH   6  13
BRANCH   5  18
ATOM     18  N   LIG d   1      -0.091  76.109 114.521  0.00  0.00     0.381 N 
ATOM     19  H   LIG d   1       0.013  76.107 113.526  0.00  0.00    -0.090 HD
ATOM     20  H   LIG d   1      -0.585  75.276 114.788  0.00  0.00    -0.090 HD
ATOM     21  H   LIG d   1       0.805  76.126 114.955  0.00  0.00    -0.090 HD
ENDBRANCH   5  18
BRANCH   3  22
ATOM     22  C   LIG d   1      -2.420  80.015 113.020  0.00  0.00     0.382 C 
ATOM     23  O   LIG d   1      -3.374  80.828 113.077  0.00  0.00    -0.241 OA
ATOM     24  O   LIG d   1      -1.584  80.114 112.102  0.00  0.00    -0.241 OA
ENDBRANCH   3  22
TORSDOF 7
ENDMDL
MODEL 5
REMARK VINA RESULT:      -4.6      2.479      3.686
REMARK  7 active torsions:
REMARK  status: ('A' for Active; 'I' for Inactive)
REMARK    1  A    between atoms: C_2  and  C_3 
REMARK    2  A    between atoms: C_3  and  O_6 
REMARK    3  A    between atoms: C_3  and  C_4 
REMARK    4  A    between atoms: C_7  and  O_6 
REMARK    5  A    between atoms: C_9  and  C_10 
REMARK    6  A    between atoms: N_15  and  C_14 
REMARK    7  A    between atoms: N_20  and  C_19 
REMARK       I    between atoms: C_22  and  N_20 
ROOT
ATOM      1  C   LIG d   1      -1.862  77.824 115.470  0.00  0.00     0.161 C 
ATOM      2  C   LIG d   1      -3.090  77.605 114.824  0.00  0.00     0.016 C 
ATOM      3  C   LIG d   1      -3.747  76.353 114.804  0.00  0.00     0.038 C 
ATOM      4  C   LIG d   1      -3.291  75.265 115.562  0.00  0.00     0.028 C 
ATOM      5  C   LIG d   1      -1.788  75.294 115.822  0.00  0.00    -0.047 C 
ATOM      6  C   LIG d   1      -1.405  76.677 116.396  0.00  0.00     0.091 C 
ENDROOT
BRANCH   1   7
ATOM      7  O   LIG d   1      -1.907  79.067 116.198  0.00  0.00    -0.368 OA
BRANCH   7   8
ATOM      8  C   LIG d   1      -2.338  78.982 117.579  0.00  0.00     0.119 C 
BRANCH   8   9
ATOM      9  C   LIG d   1      -3.811  79.431 117.634  0.00  0.00     0.028 C 
ATOM     10  C   LIG d   1      -4.761  78.281 118.006  0.00  0.00     0.006 C 
ENDBRANCH   8   9
BRANCH   8  11
ATOM     11  C   LIG d   1      -1.577  79.976 118.462  0.00  0.00     0.028 C 
ATOM     12  C   LIG d   1      -0.109  80.145 118.041  0.00  0.00     0.006 C 
ENDBRANCH   8  11
ENDBRANCH   7   8
ENDBRANCH   1   7
BRANCH   6  13
ATOM     13  N   LIG d   1       0.060  76.820 116.600  0.00  0.00    -0.311 N 
ATOM     14  C   LIG d   1       0.673  76.522 117.744  0.00  0.00     0.210 C 
ATOM     15  C   LIG d   1       2.187  76.761 117.748  0.00  0.00     0.109 C 
ATOM     16  O   LIG d   1       0.113  76.052 118.746  0.00  0.00    -0.276 OA
ATOM     17  H   LIG d   1       0.596  77.165 115.828  0.00  0.00     0.149 HD
ENDBRANCH   6  13
BRANCH   5  18
ATOM     18  N   LIG d   1      -1.472  74.180 116.736  0.00  0.00     0.381 N 
ATOM     19  H   LIG d   1      -2.271  73.586 116.835  0.00  0.00    -0.090 HD
ATOM     20  H   LIG d   1      -1.245  74.556 117.640  0.00  0.00    -0.090 HD
ATOM     21  H   LIG d   1      -0.701  73.657 116.382  0.00  0.00    -0.090 HD
ENDBRANCH   5  18
BRANCH   3  22
ATOM     22  C   LIG d   1      -4.851  76.170 113.986  0.00  0.00     0.382 C 
ATOM     23  O   LIG d   1      -5.447  75.066 113.975  0.00  0.00    -0.241 OA
ATOM     24  O   LIG d   1      -5.233  77.080 113.227  0.00  0.00    -0.241 OA
ENDBRANCH   3  22
TORSDOF 7
ENDMDL
MODEL 6
REMARK VINA RESULT:      -4.5      1.945      2.401
REMARK  7 active torsions:
REMARK  status: ('A' for Active; 'I' for Inactive)
REMARK    1  A    between atoms: C_2  and  C_3 
REMARK    2  A    between atoms: C_3  and  O_6 
REMARK    3  A    between atoms: C_3  and  C_4 
REMARK    4  A    between atoms: C_7  and  O_6 
REMARK    5  A    between atoms: C_9  and  C_10 
REMARK    6  A    between atoms: N_15  and  C_14 
REMARK    7  A    between atoms: N_20  and  C_19 
REMARK       I    between atoms: C_22  and  N_20 
ROOT
ATOM      1  C   LIG d   1      -2.716  78.525 116.425  0.00  0.00     0.161 C 
ATOM      2  C   LIG d   1      -3.189  78.590 115.104  0.00  0.00     0.016 C 
ATOM      3  C   LIG d   1      -2.537  77.970 114.013  0.00  0.00     0.038 C 
ATOM      4  C   LIG d   1      -1.443  77.111 114.194  0.00  0.00     0.028 C 
ATOM      5  C   LIG d   1      -0.630  77.421 115.446  0.00  0.00    -0.047 C 
ATOM      6  C   LIG d   1      -1.586  77.500 116.658  0.00  0.00     0.091 C 
ENDROOT
BRANCH   1   7
ATOM      7  O   LIG d   1      -3.814  78.274 117.325  0.00  0.00    -0.368 OA
BRANCH   7   8
ATOM      8  C   LIG d   1      -5.122  78.696 116.867  0.00  0.00     0.119 C 
BRANCH   8   9
ATOM      9  C   LIG d   1      -5.557  79.886 117.745  0.00  0.00     0.028 C 
ATOM     10  C   LIG d   1      -7.026  79.782 118.188  0.00  0.00     0.006 C 
ENDBRANCH   8   9
BRANCH   8  11
ATOM     11  C   LIG d   1      -6.174  77.609 117.108  0.00  0.00     0.028 C 
ATOM     12  C   LIG d   1      -6.252  76.591 115.959  0.00  0.00     0.006 C 
ENDBRANCH   8  11
ENDBRANCH   7   8
ENDBRANCH   1   7
BRANCH   6  13
ATOM     13  N   LIG d   1      -0.883  77.883 117.910  0.00  0.00    -0.311 N 
ATOM     14  C   LIG d   1      -0.259  79.048 118.074  0.00  0.00     0.210 C 
ATOM     15  C   LIG d   1       0.419  79.232 119.436  0.00  0.00     0.109 C 
ATOM     16  O   LIG d   1      -0.229  79.958 117.233  0.00  0.00    -0.276 OA
ATOM     17  H   LIG d   1      -0.885  77.215 118.656  0.00  0.00     0.149 HD
ENDBRANCH   6  13
BRANCH   5  18
ATOM     18  N   LIG d   1       0.393  76.367 115.585  0.00  0.00     0.381 N 
ATOM     19  H   LIG d   1       0.908  76.504 116.432  0.00  0.00    -0.090 HD
ATOM     20  H   LIG d   1       1.034  76.432 114.813  0.00  0.00    -0.090 HD
ATOM     21  H   LIG d   1      -0.040  75.470 115.592  0.00  0.00    -0.090 HD
ENDBRANCH   5  18
BRANCH   3  22
ATOM     22  C   LIG d   1      -2.956  78.240 112.719  0.00  0.00     0.382 C 
ATOM     23  O   LIG d   1      -2.360  79.107 112.035  0.00  0.00    -0.241 OA
ATOM     24  O   LIG d   1      -3.948  77.658 112.242  0.00  0.00    -0.241 OA
ENDBRANCH   3  22
TORSDOF 7
ENDMDL
MODEL 7
REMARK VINA RESULT:      -4.5      2.698      4.768
REMARK  7 active torsions:
REMARK  status: ('A' for Active; 'I' for Inactive)
REMARK    1  A    between atoms: C_2  and  C_3 
REMARK    2  A    between atoms: C_3  and  O_6 
REMARK    3  A    between atoms: C_3  and  C_4 
REMARK    4  A    between atoms: C_7  and  O_6 
REMARK    5  A    between atoms: C_9  and  C_10 
REMARK    6  A    between atoms: N_15  and  C_14 
REMARK    7  A    between atoms: N_20  and  C_19 
REMARK       I    between atoms: C_22  and  N_20 
ROOT
ATOM      1  C   LIG d   1      -4.210  77.935 116.640  0.00  0.00     0.161 C 
ATOM      2  C   LIG d   1      -5.581  78.164 116.847  0.00  0.00     0.016 C 
ATOM      3  C   LIG d   1      -6.081  79.089 117.793  0.00  0.00     0.038 C 
ATOM      4  C   LIG d   1      -5.236  79.963 118.494  0.00  0.00     0.028 C 
ATOM      5  C   LIG d   1      -3.825  79.417 118.686  0.00  0.00    -0.047 C 
ATOM      6  C   LIG d   1      -3.274  78.958 117.317  0.00  0.00     0.091 C 
ENDROOT
BRANCH   1   7
ATOM      7  O   LIG d   1      -3.935  77.861 115.227  0.00  0.00    -0.368 OA
BRANCH   7   8
ATOM      8  C   LIG d   1      -3.753  76.531 114.682  0.00  0.00     0.119 C 
BRANCH   8   9
ATOM      9  C   LIG d   1      -5.147  75.991 114.305  0.00  0.00     0.028 C 
ATOM     10  C   LIG d   1      -5.432  74.617 114.934  0.00  0.00     0.006 C 
ENDBRANCH   8   9
BRANCH   8  11
ATOM     11  C   LIG d   1      -3.215  75.564 115.740  0.00  0.00     0.028 C 
ATOM     12  C   LIG d   1      -1.768  75.125 115.465  0.00  0.00     0.006 C 
ENDBRANCH   8  11
ENDBRANCH   7   8
ENDBRANCH   1   7
BRANCH   6  13
ATOM     13  N   LIG d   1      -1.930  78.333 117.427  0.00  0.00    -0.311 N 
ATOM     14  C   LIG d   1      -0.926  78.601 116.594  0.00  0.00     0.210 C 
ATOM     15  C   LIG d   1       0.369  77.833 116.874  0.00  0.00     0.109 C 
ATOM     16  O   LIG d   1      -0.975  79.427 115.671  0.00  0.00    -0.276 OA
ATOM     17  H   LIG d   1      -1.793  77.673 118.168  0.00  0.00     0.149 HD
ENDBRANCH   6  13
BRANCH   5  18
ATOM     18  N   LIG d   1      -3.016  80.482 119.307  0.00  0.00     0.381 N 
ATOM     19  H   LIG d   1      -2.132  80.551 118.843  0.00  0.00    -0.090 HD
ATOM     20  H   LIG d   1      -2.849  80.245 120.269  0.00  0.00    -0.090 HD
ATOM     21  H   LIG d   1      -3.497  81.353 119.251  0.00  0.00    -0.090 HD
ENDBRANCH   5  18
BRANCH   3  22
ATOM     22  C   LIG d   1      -7.438  79.119 118.074  0.00  0.00     0.382 C 
ATOM     23  O   LIG d   1      -8.060  80.208 118.048  0.00  0.00    -0.241 OA
ATOM     24  O   LIG d   1      -8.039  78.077 118.396  0.00  0.00    -0.241 OA
ENDBRANCH   3  22
TORSDOF 7
ENDMDL
MODEL 8
REMARK VINA RESULT:      -4.5      1.958      2.583
REMARK  7 active torsions:
REMARK  status: ('A' for Active; 'I' for Inactive)
REMARK    1  A    between atoms: C_2  and  C_3 
REMARK    2  A    between atoms: C_3  and  O_6 
REMARK    3  A    between atoms: C_3  and  C_4 
REMARK    4  A    between atoms: C_7  and  O_6 
REMARK    5  A    between atoms: C_9  and  C_10 
REMARK    6  A    between atoms: N_15  and  C_14 
REMARK    7  A    between atoms: N_20  and  C_19 
REMARK       I    between atoms: C_22  and  N_20 
ROOT
ATOM      1  C   LIG d   1      -2.102  79.039 116.133  0.00  0.00     0.161 C 
ATOM      2  C   LIG d   1      -2.731  78.991 114.878  0.00  0.00     0.016 C 
ATOM      3  C   LIG d   1      -2.405  78.043 113.880  0.00  0.00     0.038 C 
ATOM      4  C   LIG d   1      -1.527  76.978 114.128  0.00  0.00     0.028 C 
ATOM      5  C   LIG d   1      -0.493  77.284 115.207  0.00  0.00    -0.047 C 
ATOM      6  C   LIG d   1      -1.220  77.817 116.462  0.00  0.00     0.091 C 
ENDROOT
BRANCH   1   7
ATOM      7  O   LIG d   1      -3.087  79.239 117.166  0.00  0.00    -0.368 OA
BRANCH   7   8
ATOM      8  C   LIG d   1      -3.617  78.040 117.782  0.00  0.00     0.119 C 
BRANCH   8   9
ATOM      9  C   LIG d   1      -5.112  77.955 117.419  0.00  0.00     0.028 C 
ATOM     10  C   LIG d   1      -5.386  76.947 116.290  0.00  0.00     0.006 C 
ENDBRANCH   8   9
BRANCH   8  11
ATOM     11  C   LIG d   1      -3.576  78.133 119.310  0.00  0.00     0.028 C 
ATOM     12  C   LIG d   1      -2.866  79.401 119.811  0.00  0.00     0.006 C 
ENDBRANCH   8  11
ENDBRANCH   7   8
ENDBRANCH   1   7
BRANCH   6  13
ATOM     13  N   LIG d   1      -0.275  78.220 117.537  0.00  0.00    -0.311 N 
ATOM     14  C   LIG d   1       0.068  77.424 118.548  0.00  0.00     0.210 C 
ATOM     15  C   LIG d   1       1.040  78.043 119.557  0.00  0.00     0.109 C 
ATOM     16  O   LIG d   1      -0.316  76.253 118.688  0.00  0.00    -0.276 OA
ATOM     17  H   LIG d   1       0.108  79.143 117.484  0.00  0.00     0.149 HD
ENDBRANCH   6  13
BRANCH   5  18
ATOM     18  N   LIG d   1       0.266  76.045 115.461  0.00  0.00     0.381 N 
ATOM     19  H   LIG d   1      -0.349  75.334 115.803  0.00  0.00    -0.090 HD
ATOM     20  H   LIG d   1       0.960  76.227 116.165  0.00  0.00    -0.090 HD
ATOM     21  H   LIG d   1       0.707  75.737 114.622  0.00  0.00    -0.090 HD
ENDBRANCH   5  18
BRANCH   3  22
ATOM     22  C   LIG d   1      -2.931  78.180 112.605  0.00  0.00     0.382 C 
ATOM     23  O   LIG d   1      -4.015  77.621 112.310  0.00  0.00    -0.241 OA
ATOM     24  O   LIG d   1      -2.313  78.819 111.732  0.00  0.00    -0.241 OA
ENDBRANCH   3  22
TORSDOF 7
ENDMDL
MODEL 9
REMARK VINA RESULT:      -4.4      2.503      4.575
REMARK  7 active torsions:
REMARK  status: ('A' for Active; 'I' for Inactive)
REMARK    1  A    between atoms: C_2  and  C_3 
REMARK    2  A    between atoms: C_3  and  O_6 
REMARK    3  A    between atoms: C_3  and  C_4 
REMARK    4  A    between atoms: C_7  and  O_6 
REMARK    5  A    between atoms: C_9  and  C_10 
REMARK    6  A    between atoms: N_15  and  C_14 
REMARK    7  A    between atoms: N_20  and  C_19 
REMARK       I    between atoms: C_22  and  N_20 
ROOT
ATOM      1  C   LIG d   1      -2.759  78.524 115.883  0.00  0.00     0.161 C 
ATOM      2  C   LIG d   1      -1.513  79.131 116.116  0.00  0.00     0.016 C 
ATOM      3  C   LIG d   1      -0.369  78.419 116.543  0.00  0.00     0.038 C 
ATOM      4  C   LIG d   1      -0.353  77.018 116.621  0.00  0.00     0.028 C 
ATOM      5  C   LIG d   1      -1.727  76.411 116.883  0.00  0.00    -0.047 C 
ATOM      6  C   LIG d   1      -2.731  76.982 115.856  0.00  0.00     0.091 C 
ENDROOT
BRANCH   1   7
ATOM      7  O   LIG d   1      -3.331  79.037 114.664  0.00  0.00    -0.368 OA
BRANCH   7   8
ATOM      8  C   LIG d   1      -2.482  78.988 113.491  0.00  0.00     0.119 C 
BRANCH   8   9
ATOM      9  C   LIG d   1      -2.400  80.416 112.918  0.00  0.00     0.028 C 
ATOM     10  C   LIG d   1      -0.953  80.853 112.635  0.00  0.00     0.006 C 
ENDBRANCH   8   9
BRANCH   8  11
ATOM     11  C   LIG d   1      -3.113  78.142 112.381  0.00  0.00     0.028 C 
ATOM     12  C   LIG d   1      -2.197  77.987 111.156  0.00  0.00     0.006 C 
ENDBRANCH   8  11
ENDBRANCH   7   8
ENDBRANCH   1   7
BRANCH   6  13
ATOM     13  N   LIG d   1      -4.118  76.503 116.093  0.00  0.00    -0.311 N 
ATOM     14  C   LIG d   1      -4.799  75.764 115.219  0.00  0.00     0.210 C 
ATOM     15  C   LIG d   1      -6.221  75.395 115.652  0.00  0.00     0.109 C 
ATOM     16  O   LIG d   1      -4.348  75.351 114.139  0.00  0.00    -0.276 OA
ATOM     17  H   LIG d   1      -4.550  76.766 116.958  0.00  0.00     0.149 HD
ENDBRANCH   6  13
BRANCH   5  18
ATOM     18  N   LIG d   1      -1.589  74.945 116.803  0.00  0.00     0.381 N 
ATOM     19  H   LIG d   1      -2.078  74.601 116.001  0.00  0.00    -0.090 HD
ATOM     20  H   LIG d   1      -1.999  74.534 117.623  0.00  0.00    -0.090 HD
ATOM     21  H   LIG d   1      -0.626  74.696 116.744  0.00  0.00    -0.090 HD
ENDBRANCH   5  18
BRANCH   3  22
ATOM     22  C   LIG d   1       0.765  79.113 116.936  0.00  0.00     0.382 C 
ATOM     23  O   LIG d   1       1.620  78.556 117.667  0.00  0.00    -0.241 OA
ATOM     24  O   LIG d   1       0.924  80.304 116.606  0.00  0.00    -0.241 OA
ENDBRANCH   3  22
TORSDOF 7
ENDMDL
