MODEL 1
REMARK VINA RESULT:      -5.3      0.000      0.000
REMARK  7 active torsions:
REMARK  status: ('A' for Active; 'I' for Inactive)
REMARK    1  A    between atoms: C_2  and  C_3 
REMARK    2  A    between atoms: C_3  and  O_6 
REMARK    3  A    between atoms: C_3  and  C_4 
REMARK    4  A    between atoms: C_7  and  O_6 
REMARK    5  A    between atoms: C_9  and  C_10 
REMARK    6  A    between atoms: N_15  and  C_14 
REMARK    7  A    between atoms: N_20  and  C_19 
REMARK       I    between atoms: C_22  and  N_20 
ROOT
ATOM      1  C   LIG d   1      -2.765  77.463 116.416  0.00  0.00     0.161 C 
ATOM      2  C   LIG d   1      -3.120  78.009 115.171  0.00  0.00     0.016 C 
ATOM      3  C   LIG d   1      -2.292  77.941 114.027  0.00  0.00     0.038 C 
ATOM      4  C   LIG d   1      -1.110  77.184 114.011  0.00  0.00     0.028 C 
ATOM      5  C   LIG d   1      -0.466  77.038 115.386  0.00  0.00    -0.047 C 
ATOM      6  C   LIG d   1      -1.530  76.538 116.389  0.00  0.00     0.091 C 
ENDROOT
BRANCH   1   7
ATOM      7  O   LIG d   1      -3.895  76.774 116.987  0.00  0.00    -0.368 OA
BRANCH   7   8
ATOM      8  C   LIG d   1      -4.915  76.340 116.054  0.00  0.00     0.119 C 
BRANCH   8   9
ATOM      9  C   LIG d   1      -6.278  76.483 116.758  0.00  0.00     0.028 C 
ATOM     10  C   LIG d   1      -7.398  75.722 116.029  0.00  0.00     0.006 C 
ENDBRANCH   8   9
BRANCH   8  11
ATOM     11  C   LIG d   1      -4.778  74.849 115.733  0.00  0.00     0.028 C 
ATOM     12  C   LIG d   1      -4.367  74.588 114.275  0.00  0.00     0.006 C 
ENDBRANCH   8  11
ENDBRANCH   7   8
ENDBRANCH   1   7
BRANCH   6  13
ATOM     13  N   LIG d   1      -1.004  76.449 117.776  0.00  0.00    -0.311 N 
ATOM     14  C   LIG d   1      -0.440  75.351 118.276  0.00  0.00     0.210 C 
ATOM     15  C   LIG d   1       0.016  75.466 119.734  0.00  0.00     0.109 C 
ATOM     16  O   LIG d   1      -0.245  74.303 117.642  0.00  0.00    -0.276 OA
ATOM     17  H   LIG d   1      -1.093  77.263 118.351  0.00  0.00     0.149 HD
ENDBRANCH   6  13
BRANCH   5  18
ATOM     18  N   LIG d   1       0.676  76.116 115.246  0.00  0.00     0.381 N 
ATOM     19  H   LIG d   1       1.121  75.991 116.134  0.00  0.00    -0.090 HD
ATOM     20  H   LIG d   1       1.344  76.518 114.612  0.00  0.00    -0.090 HD
ATOM     21  H   LIG d   1       0.364  75.236 114.897  0.00  0.00    -0.090 HD
ENDBRANCH   5  18
BRANCH   3  22
ATOM     22  C   LIG d   1      -2.624  78.667 112.894  0.00  0.00     0.382 C 
ATOM     23  O   LIG d   1      -2.867  79.895 112.985  0.00  0.00    -0.241 OA
ATOM     24  O   LIG d   1      -2.727  78.102 111.789  0.00  0.00    -0.241 OA
ENDBRANCH   3  22
TORSDOF 7
ENDMDL
MODEL 2
REMARK VINA RESULT:      -5.1      2.383      4.535
REMARK  7 active torsions:
REMARK  status: ('A' for Active; 'I' for Inactive)
REMARK    1  A    between atoms: C_2  and  C_3 
REMARK    2  A    between atoms: C_3  and  O_6 
REMARK    3  A    between atoms: C_3  and  C_4 
REMARK    4  A    between atoms: C_7  and  O_6 
REMARK    5  A    between atoms: C_9  and  C_10 
REMARK    6  A    between atoms: N_15  and  C_14 
REMARK    7  A    between atoms: N_20  and  C_19 
REMARK       I    between atoms: C_22  and  N_20 
ROOT
ATOM      1  C   LIG d   1      -3.102  77.178 117.183  0.00  0.00     0.161 C 
ATOM      2  C   LIG d   1      -2.261  77.931 118.020  0.00  0.00     0.016 C 
ATOM      3  C   LIG d   1      -0.850  77.870 117.964  0.00  0.00     0.038 C 
ATOM      4  C   LIG d   1      -0.178  77.158 116.959  0.00  0.00     0.028 C 
ATOM      5  C   LIG d   1      -0.979  75.984 116.409  0.00  0.00    -0.047 C 
ATOM      6  C   LIG d   1      -2.387  76.481 116.007  0.00  0.00     0.091 C 
ENDROOT
BRANCH   1   7
ATOM      7  O   LIG d   1      -4.176  78.006 116.697  0.00  0.00    -0.368 OA
BRANCH   7   8
ATOM      8  C   LIG d   1      -5.424  77.926 117.428  0.00  0.00     0.119 C 
BRANCH   8   9
ATOM      9  C   LIG d   1      -6.355  76.974 116.652  0.00  0.00     0.028 C 
ATOM     10  C   LIG d   1      -6.538  75.623 117.364  0.00  0.00     0.006 C 
ENDBRANCH   8   9
BRANCH   8  11
ATOM     11  C   LIG d   1      -6.148  79.276 117.446  0.00  0.00     0.028 C 
ATOM     12  C   LIG d   1      -7.525  79.205 118.124  0.00  0.00     0.006 C 
ENDBRANCH   8  11
ENDBRANCH   7   8
ENDBRANCH   1   7
BRANCH   6  13
ATOM     13  N   LIG d   1      -3.265  75.378 115.537  0.00  0.00    -0.311 N 
ATOM     14  C   LIG d   1      -3.933  75.413 114.385  0.00  0.00     0.210 C 
ATOM     15  C   LIG d   1      -4.797  74.180 114.101  0.00  0.00     0.109 C 
ATOM     16  O   LIG d   1      -3.868  76.334 113.557  0.00  0.00    -0.276 OA
ATOM     17  H   LIG d   1      -3.351  74.578 116.132  0.00  0.00     0.149 HD
ENDBRANCH   6  13
BRANCH   5  18
ATOM     18  N   LIG d   1      -0.221  75.417 115.278  0.00  0.00     0.381 N 
ATOM     19  H   LIG d   1      -0.803  74.791 114.759  0.00  0.00    -0.090 HD
ATOM     20  H   LIG d   1       0.560  74.897 115.638  0.00  0.00    -0.090 HD
ATOM     21  H   LIG d   1       0.104  76.149 114.684  0.00  0.00    -0.090 HD
ENDBRANCH   5  18
BRANCH   3  22
ATOM     22  C   LIG d   1      -0.096  78.493 118.947  0.00  0.00     0.382 C 
ATOM     23  O   LIG d   1      -0.201  79.730 119.127  0.00  0.00    -0.241 OA
ATOM     24  O   LIG d   1       0.721  77.841 119.625  0.00  0.00    -0.241 OA
ENDBRANCH   3  22
TORSDOF 7
ENDMDL
MODEL 3
REMARK VINA RESULT:      -5.1      2.430      4.803
REMARK  7 active torsions:
REMARK  status: ('A' for Active; 'I' for Inactive)
REMARK    1  A    between atoms: C_2  and  C_3 
REMARK    2  A    between atoms: C_3  and  O_6 
REMARK    3  A    between atoms: C_3  and  C_4 
REMARK    4  A    between atoms: C_7  and  O_6 
REMARK    5  A    between atoms: C_9  and  C_10 
REMARK    6  A    between atoms: N_15  and  C_14 
REMARK    7  A    between atoms: N_20  and  C_19 
REMARK       I    between atoms: C_22  and  N_20 
ROOT
ATOM      1  C   LIG d   1      -1.132  77.582 114.596  0.00  0.00     0.161 C 
ATOM      2  C   LIG d   1      -2.331  77.008 114.141  0.00  0.00     0.016 C 
ATOM      3  C   LIG d   1      -3.232  76.317 114.985  0.00  0.00     0.038 C 
ATOM      4  C   LIG d   1      -3.067  76.286 116.378  0.00  0.00     0.028 C 
ATOM      5  C   LIG d   1      -1.613  76.417 116.819  0.00  0.00    -0.047 C 
ATOM      6  C   LIG d   1      -0.990  77.654 116.131  0.00  0.00     0.091 C 
ENDROOT
BRANCH   1   7
ATOM      7  O   LIG d   1      -0.967  78.891 114.016  0.00  0.00    -0.368 OA
BRANCH   7   8
ATOM      8  C   LIG d   1      -1.800  79.190 112.869  0.00  0.00     0.119 C 
BRANCH   8   9
ATOM      9  C   LIG d   1      -0.898  79.156 111.620  0.00  0.00     0.028 C 
ATOM     10  C   LIG d   1      -1.257  78.002 110.668  0.00  0.00     0.006 C 
ENDBRANCH   8   9
BRANCH   8  11
ATOM     11  C   LIG d   1      -2.348  80.619 112.935  0.00  0.00     0.028 C 
ATOM     12  C   LIG d   1      -1.241  81.684 112.885  0.00  0.00     0.006 C 
ENDBRANCH   8  11
ENDBRANCH   7   8
ENDBRANCH   1   7
BRANCH   6  13
ATOM     13  N   LIG d   1       0.455  77.807 116.442  0.00  0.00    -0.311 N 
ATOM     14  C   LIG d   1       0.910  78.485 117.494  0.00  0.00     0.210 C 
ATOM     15  C   LIG d   1       2.436  78.538 117.619  0.00  0.00     0.109 C 
ATOM     16  O   LIG d   1       0.194  79.021 118.354  0.00  0.00    -0.276 OA
ATOM     17  H   LIG d   1       1.105  77.378 115.813  0.00  0.00     0.149 HD
ENDBRANCH   6  13
BRANCH   5  18
ATOM     18  N   LIG d   1      -1.600  76.508 118.291  0.00  0.00     0.381 N 
ATOM     19  H   LIG d   1      -2.451  76.132 118.661  0.00  0.00    -0.090 HD
ATOM     20  H   LIG d   1      -1.541  77.475 118.557  0.00  0.00    -0.090 HD
ATOM     21  H   LIG d   1      -0.821  76.006 118.657  0.00  0.00    -0.090 HD
ENDBRANCH   5  18
BRANCH   3  22
ATOM     22  C   LIG d   1      -4.291  75.615 114.431  0.00  0.00     0.382 C 
ATOM     23  O   LIG d   1      -4.082  74.529 113.838  0.00  0.00    -0.241 OA
ATOM     24  O   LIG d   1      -5.447  76.076 114.477  0.00  0.00    -0.241 OA
ENDBRANCH   3  22
TORSDOF 7
ENDMDL
MODEL 4
REMARK VINA RESULT:      -4.9      1.710      4.860
REMARK  7 active torsions:
REMARK  status: ('A' for Active; 'I' for Inactive)
REMARK    1  A    between atoms: C_2  and  C_3 
REMARK    2  A    between atoms: C_3  and  O_6 
REMARK    3  A    between atoms: C_3  and  C_4 
REMARK    4  A    between atoms: C_7  and  O_6 
REMARK    5  A    between atoms: C_9  and  C_10 
REMARK    6  A    between atoms: N_15  and  C_14 
REMARK    7  A    between atoms: N_20  and  C_19 
REMARK       I    between atoms: C_22  and  N_20 
ROOT
ATOM      1  C   LIG d   1      -1.774  75.577 114.999  0.00  0.00     0.161 C 
ATOM      2  C   LIG d   1      -1.540  75.220 116.337  0.00  0.00     0.016 C 
ATOM      3  C   LIG d   1      -0.819  76.030 117.244  0.00  0.00     0.038 C 
ATOM      4  C   LIG d   1      -0.409  77.330 116.913  0.00  0.00     0.028 C 
ATOM      5  C   LIG d   1      -0.182  77.532 115.418  0.00  0.00    -0.047 C 
ATOM      6  C   LIG d   1      -1.431  77.041 114.650  0.00  0.00     0.091 C 
ENDROOT
BRANCH   1   7
ATOM      7  O   LIG d   1      -3.141  75.285 114.647  0.00  0.00    -0.368 OA
BRANCH   7   8
ATOM      8  C   LIG d   1      -4.079  75.207 115.748  0.00  0.00     0.119 C 
BRANCH   8   9
ATOM      9  C   LIG d   1      -5.164  74.184 115.359  0.00  0.00     0.028 C 
ATOM     10  C   LIG d   1      -6.405  74.273 116.263  0.00  0.00     0.006 C 
ENDBRANCH   8   9
BRANCH   8  11
ATOM     11  C   LIG d   1      -4.822  76.532 115.942  0.00  0.00     0.028 C 
ATOM     12  C   LIG d   1      -4.310  77.331 117.150  0.00  0.00     0.006 C 
ENDBRANCH   8  11
ENDBRANCH   7   8
ENDBRANCH   1   7
BRANCH   6  13
ATOM     13  N   LIG d   1      -1.259  77.124 113.176  0.00  0.00    -0.311 N 
ATOM     14  C   LIG d   1      -1.952  77.958 112.403  0.00  0.00     0.210 C 
ATOM     15  C   LIG d   1      -1.634  77.868 110.907  0.00  0.00     0.109 C 
ATOM     16  O   LIG d   1      -2.776  78.786 112.818  0.00  0.00    -0.276 OA
ATOM     17  H   LIG d   1      -0.587  76.509 112.760  0.00  0.00     0.149 HD
ENDBRANCH   6  13
BRANCH   5  18
ATOM     18  N   LIG d   1       0.106  78.962 115.200  0.00  0.00     0.381 N 
ATOM     19  H   LIG d   1       0.452  79.371 116.045  0.00  0.00    -0.090 HD
ATOM     20  H   LIG d   1      -0.747  79.430 114.949  0.00  0.00    -0.090 HD
ATOM     21  H   LIG d   1       0.778  79.067 114.472  0.00  0.00    -0.090 HD
ENDBRANCH   5  18
BRANCH   3  22
ATOM     22  C   LIG d   1      -0.466  75.525 118.486  0.00  0.00     0.382 C 
ATOM     23  O   LIG d   1      -0.898  76.069 119.530  0.00  0.00    -0.241 OA
ATOM     24  O   LIG d   1       0.315  74.559 118.576  0.00  0.00    -0.241 OA
ENDBRANCH   3  22
TORSDOF 7
ENDMDL
MODEL 5
REMARK VINA RESULT:      -4.8      2.499      3.393
REMARK  7 active torsions:
REMARK  status: ('A' for Active; 'I' for Inactive)
REMARK    1  A    between atoms: C_2  and  C_3 
REMARK    2  A    between atoms: C_3  and  O_6 
REMARK    3  A    between atoms: C_3  and  C_4 
REMARK    4  A    between atoms: C_7  and  O_6 
REMARK    5  A    between atoms: C_9  and  C_10 
REMARK    6  A    between atoms: N_15  and  C_14 
REMARK    7  A    between atoms: N_20  and  C_19 
REMARK       I    between atoms: C_22  and  N_20 
ROOT
ATOM      1  C   LIG d   1      -3.540  77.749 116.877  0.00  0.00     0.161 C 
ATOM      2  C   LIG d   1      -4.333  77.007 115.985  0.00  0.00     0.016 C 
ATOM      3  C   LIG d   1      -3.868  75.863 115.298  0.00  0.00     0.038 C 
ATOM      4  C   LIG d   1      -2.617  75.290 115.573  0.00  0.00     0.028 C 
ATOM      5  C   LIG d   1      -1.592  76.293 116.092  0.00  0.00    -0.047 C 
ATOM      6  C   LIG d   1      -2.210  77.075 117.274  0.00  0.00     0.091 C 
ENDROOT
BRANCH   1   7
ATOM      7  O   LIG d   1      -4.305  78.078 118.053  0.00  0.00    -0.368 OA
BRANCH   7   8
ATOM      8  C   LIG d   1      -5.695  78.422 117.834  0.00  0.00     0.119 C 
BRANCH   8   9
ATOM      9  C   LIG d   1      -5.930  79.816 118.446  0.00  0.00     0.028 C 
ATOM     10  C   LIG d   1      -7.104  80.558 117.785  0.00  0.00     0.006 C 
ENDBRANCH   8   9
BRANCH   8  11
ATOM     11  C   LIG d   1      -6.630  77.480 118.599  0.00  0.00     0.028 C 
ATOM     12  C   LIG d   1      -7.715  76.861 117.705  0.00  0.00     0.006 C 
ENDBRANCH   8  11
ENDBRANCH   7   8
ENDBRANCH   1   7
BRANCH   6  13
ATOM     13  N   LIG d   1      -1.304  78.136 117.787  0.00  0.00    -0.311 N 
ATOM     14  C   LIG d   1      -0.475  77.958 118.814  0.00  0.00     0.210 C 
ATOM     15  C   LIG d   1       0.357  79.187 119.193  0.00  0.00     0.109 C 
ATOM     16  O   LIG d   1      -0.326  76.890 119.426  0.00  0.00    -0.276 OA
ATOM     17  H   LIG d   1      -1.336  79.025 117.328  0.00  0.00     0.149 HD
ENDBRANCH   6  13
BRANCH   5  18
ATOM     18  N   LIG d   1      -0.381  75.539 116.467  0.00  0.00     0.381 N 
ATOM     19  H   LIG d   1      -0.634  74.617 116.761  0.00  0.00    -0.090 HD
ATOM     20  H   LIG d   1       0.066  76.005 117.237  0.00  0.00    -0.090 HD
ATOM     21  H   LIG d   1       0.243  75.489 115.692  0.00  0.00    -0.090 HD
ENDBRANCH   5  18
BRANCH   3  22
ATOM     22  C   LIG d   1      -4.643  75.302 114.294  0.00  0.00     0.382 C 
ATOM     23  O   LIG d   1      -4.254  74.262 113.709  0.00  0.00    -0.241 OA
ATOM     24  O   LIG d   1      -5.703  75.847 113.936  0.00  0.00    -0.241 OA
ENDBRANCH   3  22
TORSDOF 7
ENDMDL
MODEL 6
REMARK VINA RESULT:      -4.7      1.142      2.008
REMARK  7 active torsions:
REMARK  status: ('A' for Active; 'I' for Inactive)
REMARK    1  A    between atoms: C_2  and  C_3 
REMARK    2  A    between atoms: C_3  and  O_6 
REMARK    3  A    between atoms: C_3  and  C_4 
REMARK    4  A    between atoms: C_7  and  O_6 
REMARK    5  A    between atoms: C_9  and  C_10 
REMARK    6  A    between atoms: N_15  and  C_14 
REMARK    7  A    between atoms: N_20  and  C_19 
REMARK       I    between atoms: C_22  and  N_20 
ROOT
ATOM      1  C   LIG d   1      -2.525  77.594 116.514  0.00  0.00     0.161 C 
ATOM      2  C   LIG d   1      -3.005  78.114 115.301  0.00  0.00     0.016 C 
ATOM      3  C   LIG d   1      -2.393  77.865 114.051  0.00  0.00     0.038 C 
ATOM      4  C   LIG d   1      -1.340  76.949 113.910  0.00  0.00     0.028 C 
ATOM      5  C   LIG d   1      -0.503  76.790 115.174  0.00  0.00    -0.047 C 
ATOM      6  C   LIG d   1      -1.443  76.503 116.367  0.00  0.00     0.091 C 
ENDROOT
BRANCH   1   7
ATOM      7  O   LIG d   1      -3.625  77.104 117.306  0.00  0.00    -0.368 OA
BRANCH   7   8
ATOM      8  C   LIG d   1      -4.906  77.742 117.080  0.00  0.00     0.119 C 
BRANCH   8   9
ATOM      9  C   LIG d   1      -5.359  78.359 118.417  0.00  0.00     0.028 C 
ATOM     10  C   LIG d   1      -4.211  79.071 119.154  0.00  0.00     0.006 C 
ENDBRANCH   8   9
BRANCH   8  11
ATOM     11  C   LIG d   1      -5.985  76.716 116.722  0.00  0.00     0.028 C 
ATOM     12  C   LIG d   1      -6.883  76.354 117.915  0.00  0.00     0.006 C 
ENDBRANCH   8  11
ENDBRANCH   7   8
ENDBRANCH   1   7
BRANCH   6  13
ATOM     13  N   LIG d   1      -0.712  76.417 117.658  0.00  0.00    -0.311 N 
ATOM     14  C   LIG d   1      -0.225  75.279 118.151  0.00  0.00     0.210 C 
ATOM     15  C   LIG d   1       0.477  75.410 119.506  0.00  0.00     0.109 C 
ATOM     16  O   LIG d   1      -0.281  74.180 117.579  0.00  0.00    -0.276 OA
ATOM     17  H   LIG d   1      -0.594  77.268 118.173  0.00  0.00     0.149 HD
ENDBRANCH   6  13
BRANCH   5  18
ATOM     18  N   LIG d   1       0.470  75.708 114.931  0.00  0.00     0.381 N 
ATOM     19  H   LIG d   1       1.353  76.099 114.671  0.00  0.00    -0.090 HD
ATOM     20  H   LIG d   1       0.140  75.139 114.172  0.00  0.00    -0.090 HD
ATOM     21  H   LIG d   1       0.574  75.152 115.752  0.00  0.00    -0.090 HD
ENDBRANCH   5  18
BRANCH   3  22
ATOM     22  C   LIG d   1      -2.810  78.567 112.930  0.00  0.00     0.382 C 
ATOM     23  O   LIG d   1      -3.157  77.947 111.896  0.00  0.00    -0.241 OA
ATOM     24  O   LIG d   1      -2.800  79.812 112.925  0.00  0.00    -0.241 OA
ENDBRANCH   3  22
TORSDOF 7
ENDMDL
MODEL 7
REMARK VINA RESULT:      -4.5      1.147      1.831
REMARK  7 active torsions:
REMARK  status: ('A' for Active; 'I' for Inactive)
REMARK    1  A    between atoms: C_2  and  C_3 
REMARK    2  A    between atoms: C_3  and  O_6 
REMARK    3  A    between atoms: C_3  and  C_4 
REMARK    4  A    between atoms: C_7  and  O_6 
REMARK    5  A    between atoms: C_9  and  C_10 
REMARK    6  A    between atoms: N_15  and  C_14 
REMARK    7  A    between atoms: N_20  and  C_19 
REMARK       I    between atoms: C_22  and  N_20 
ROOT
ATOM      1  C   LIG d   1      -3.002  77.091 115.962  0.00  0.00     0.161 C 
ATOM      2  C   LIG d   1      -3.198  77.443 114.616  0.00  0.00     0.016 C 
ATOM      3  C   LIG d   1      -2.163  77.448 113.654  0.00  0.00     0.038 C 
ATOM      4  C   LIG d   1      -0.882  76.952 113.940  0.00  0.00     0.028 C 
ATOM      5  C   LIG d   1      -0.506  77.061 115.413  0.00  0.00    -0.047 C 
ATOM      6  C   LIG d   1      -1.636  76.441 116.267  0.00  0.00     0.091 C 
ENDROOT
BRANCH   1   7
ATOM      7  O   LIG d   1      -4.074  76.236 116.405  0.00  0.00    -0.368 OA
BRANCH   7   8
ATOM      8  C   LIG d   1      -5.058  76.847 117.276  0.00  0.00     0.119 C 
BRANCH   8   9
ATOM      9  C   LIG d   1      -6.449  76.545 116.686  0.00  0.00     0.028 C 
ATOM     10  C   LIG d   1      -6.380  75.601 115.474  0.00  0.00     0.006 C 
ENDBRANCH   8   9
BRANCH   8  11
ATOM     11  C   LIG d   1      -4.937  78.373 117.269  0.00  0.00     0.028 C 
ATOM     12  C   LIG d   1      -5.413  79.014 118.582  0.00  0.00     0.006 C 
ENDBRANCH   8  11
ENDBRANCH   7   8
ENDBRANCH   1   7
BRANCH   6  13
ATOM     13  N   LIG d   1      -1.387  76.581 117.725  0.00  0.00    -0.311 N 
ATOM     14  C   LIG d   1      -0.686  75.700 118.437  0.00  0.00     0.210 C 
ATOM     15  C   LIG d   1      -0.566  76.024 119.930  0.00  0.00     0.109 C 
ATOM     16  O   LIG d   1      -0.125  74.698 117.969  0.00  0.00    -0.276 OA
ATOM     17  H   LIG d   1      -1.779  77.382 118.180  0.00  0.00     0.149 HD
ENDBRANCH   6  13
BRANCH   5  18
ATOM     18  N   LIG d   1       0.792  76.384 115.593  0.00  0.00     0.381 N 
ATOM     19  H   LIG d   1       1.349  76.890 116.252  0.00  0.00    -0.090 HD
ATOM     20  H   LIG d   1       1.277  76.373 114.713  0.00  0.00    -0.090 HD
ATOM     21  H   LIG d   1       0.649  75.452 115.914  0.00  0.00    -0.090 HD
ENDBRANCH   5  18
BRANCH   3  22
ATOM     22  C   LIG d   1      -2.394  77.991 112.399  0.00  0.00     0.382 C 
ATOM     23  O   LIG d   1      -1.509  78.685 111.843  0.00  0.00    -0.241 OA
ATOM     24  O   LIG d   1      -3.493  77.832 111.834  0.00  0.00    -0.241 OA
ENDBRANCH   3  22
TORSDOF 7
ENDMDL
MODEL 8
REMARK VINA RESULT:      -4.5      2.707      4.977
REMARK  7 active torsions:
REMARK  status: ('A' for Active; 'I' for Inactive)
REMARK    1  A    between atoms: C_2  and  C_3 
REMARK    2  A    between atoms: C_3  and  O_6 
REMARK    3  A    between atoms: C_3  and  C_4 
REMARK    4  A    between atoms: C_7  and  O_6 
REMARK    5  A    between atoms: C_9  and  C_10 
REMARK    6  A    between atoms: N_15  and  C_14 
REMARK    7  A    between atoms: N_20  and  C_19 
REMARK       I    between atoms: C_22  and  N_20 
ROOT
ATOM      1  C   LIG d   1      -3.403  77.891 116.802  0.00  0.00     0.161 C 
ATOM      2  C   LIG d   1      -4.647  78.308 117.303  0.00  0.00     0.016 C 
ATOM      3  C   LIG d   1      -5.798  77.486 117.312  0.00  0.00     0.038 C 
ATOM      4  C   LIG d   1      -5.743  76.131 116.956  0.00  0.00     0.028 C 
ATOM      5  C   LIG d   1      -4.626  75.808 115.969  0.00  0.00    -0.047 C 
ATOM      6  C   LIG d   1      -3.296  76.380 116.512  0.00  0.00     0.091 C 
ENDROOT
BRANCH   1   7
ATOM      7  O   LIG d   1      -2.352  78.305 117.697  0.00  0.00    -0.368 OA
BRANCH   7   8
ATOM      8  C   LIG d   1      -2.690  78.336 119.106  0.00  0.00     0.119 C 
BRANCH   8   9
ATOM      9  C   LIG d   1      -2.481  79.780 119.601  0.00  0.00     0.028 C 
ATOM     10  C   LIG d   1      -3.808  80.485 119.930  0.00  0.00     0.006 C 
ENDBRANCH   8   9
BRANCH   8  11
ATOM     11  C   LIG d   1      -1.722  77.481 119.930  0.00  0.00     0.028 C 
ATOM     12  C   LIG d   1      -0.735  76.690 119.058  0.00  0.00     0.006 C 
ENDBRANCH   8  11
ENDBRANCH   7   8
ENDBRANCH   1   7
BRANCH   6  13
ATOM     13  N   LIG d   1      -2.167  76.182 115.567  0.00  0.00    -0.311 N 
ATOM     14  C   LIG d   1      -1.300  75.175 115.660  0.00  0.00     0.210 C 
ATOM     15  C   LIG d   1      -0.199  75.168 114.596  0.00  0.00     0.109 C 
ATOM     16  O   LIG d   1      -1.358  74.268 116.505  0.00  0.00    -0.276 OA
ATOM     17  H   LIG d   1      -2.064  76.854 114.832  0.00  0.00     0.149 HD
ENDBRANCH   6  13
BRANCH   5  18
ATOM     18  N   LIG d   1      -4.597  74.344 115.791  0.00  0.00     0.381 N 
ATOM     19  H   LIG d   1      -4.048  74.111 114.988  0.00  0.00    -0.090 HD
ATOM     20  H   LIG d   1      -5.534  74.017 115.638  0.00  0.00    -0.090 HD
ATOM     21  H   LIG d   1      -4.214  73.910 116.602  0.00  0.00    -0.090 HD
ENDBRANCH   5  18
BRANCH   3  22
ATOM     22  C   LIG d   1      -7.029  78.031 117.643  0.00  0.00     0.382 C 
ATOM     23  O   LIG d   1      -7.919  77.307 118.151  0.00  0.00    -0.241 OA
ATOM     24  O   LIG d   1      -7.277  79.227 117.399  0.00  0.00    -0.241 OA
ENDBRANCH   3  22
TORSDOF 7
ENDMDL
MODEL 9
REMARK VINA RESULT:      -4.5      2.349      3.414
REMARK  7 active torsions:
REMARK  status: ('A' for Active; 'I' for Inactive)
REMARK    1  A    between atoms: C_2  and  C_3 
REMARK    2  A    between atoms: C_3  and  O_6 
REMARK    3  A    between atoms: C_3  and  C_4 
REMARK    4  A    between atoms: C_7  and  O_6 
REMARK    5  A    between atoms: C_9  and  C_10 
REMARK    6  A    between atoms: N_15  and  C_14 
REMARK    7  A    between atoms: N_20  and  C_19 
REMARK       I    between atoms: C_22  and  N_20 
ROOT
ATOM      1  C   LIG d   1      -2.449  77.614 116.088  0.00  0.00     0.161 C 
ATOM      2  C   LIG d   1      -3.535  77.051 115.398  0.00  0.00     0.016 C 
ATOM      3  C   LIG d   1      -3.633  75.674 115.091  0.00  0.00     0.038 C 
ATOM      4  C   LIG d   1      -2.717  74.736 115.589  0.00  0.00     0.028 C 
ATOM      5  C   LIG d   1      -1.336  75.325 115.862  0.00  0.00    -0.047 C 
ATOM      6  C   LIG d   1      -1.494  76.590 116.736  0.00  0.00     0.091 C 
ENDROOT
BRANCH   1   7
ATOM      7  O   LIG d   1      -2.928  78.547 117.076  0.00  0.00    -0.368 OA
BRANCH   7   8
ATOM      8  C   LIG d   1      -3.835  78.012 118.072  0.00  0.00     0.119 C 
BRANCH   8   9
ATOM      9  C   LIG d   1      -5.111  78.874 118.047  0.00  0.00     0.028 C 
ATOM     10  C   LIG d   1      -6.346  78.081 117.587  0.00  0.00     0.006 C 
ENDBRANCH   8   9
BRANCH   8  11
ATOM     11  C   LIG d   1      -3.266  78.170 119.485  0.00  0.00     0.028 C 
ATOM     12  C   LIG d   1      -2.148  79.221 119.564  0.00  0.00     0.006 C 
ENDBRANCH   8  11
ENDBRANCH   7   8
ENDBRANCH   1   7
BRANCH   6  13
ATOM     13  N   LIG d   1      -0.198  77.275 116.980  0.00  0.00    -0.311 N 
ATOM     14  C   LIG d   1       0.566  77.041 118.046  0.00  0.00     0.210 C 
ATOM     15  C   LIG d   1       1.852  77.870 118.114  0.00  0.00     0.109 C 
ATOM     16  O   LIG d   1       0.316  76.203 118.925  0.00  0.00    -0.276 OA
ATOM     17  H   LIG d   1       0.097  77.949 116.301  0.00  0.00     0.149 HD
ENDBRANCH   6  13
BRANCH   5  18
ATOM     18  N   LIG d   1      -0.524  74.275 116.506  0.00  0.00     0.381 N 
ATOM     19  H   LIG d   1      -0.575  73.431 115.970  0.00  0.00    -0.090 HD
ATOM     20  H   LIG d   1      -0.896  74.091 117.421  0.00  0.00    -0.090 HD
ATOM     21  H   LIG d   1       0.424  74.574 116.578  0.00  0.00    -0.090 HD
ENDBRANCH   5  18
BRANCH   3  22
ATOM     22  C   LIG d   1      -4.636  75.229 114.243  0.00  0.00     0.382 C 
ATOM     23  O   LIG d   1      -4.952  75.906 113.236  0.00  0.00    -0.241 OA
ATOM     24  O   LIG d   1      -5.259  74.181 114.498  0.00  0.00    -0.241 OA
ENDBRANCH   3  22
TORSDOF 7
ENDMDL
