MODEL 1
REMARK VINA RESULT:      -5.6      0.000      0.000
REMARK  7 active torsions:
REMARK  status: ('A' for Active; 'I' for Inactive)
REMARK    1  A    between atoms: C_2  and  C_3 
REMARK    2  A    between atoms: C_3  and  O_6 
REMARK    3  A    between atoms: C_3  and  C_4 
REMARK    4  A    between atoms: C_7  and  O_6 
REMARK    5  A    between atoms: C_9  and  C_10 
REMARK    6  A    between atoms: N_15  and  C_14 
REMARK    7  A    between atoms: N_20  and  C_19 
REMARK       I    between atoms: C_22  and  N_20 
ROOT
ATOM      1  C   LIG d   1      -2.764  77.284 115.852  0.00  0.00     0.161 C 
ATOM      2  C   LIG d   1      -3.175  77.761 114.596  0.00  0.00     0.016 C 
ATOM      3  C   LIG d   1      -2.368  77.696 113.437  0.00  0.00     0.038 C 
ATOM      4  C   LIG d   1      -1.146  77.007 113.422  0.00  0.00     0.028 C 
ATOM      5  C   LIG d   1      -0.466  76.950 114.786  0.00  0.00    -0.047 C 
ATOM      6  C   LIG d   1      -1.479  76.429 115.831  0.00  0.00     0.091 C 
ENDROOT
BRANCH   1   7
ATOM      7  O   LIG d   1      -3.841  76.554 116.473  0.00  0.00    -0.368 OA
BRANCH   7   8
ATOM      8  C   LIG d   1      -5.082  76.493 115.729  0.00  0.00     0.119 C 
BRANCH   8   9
ATOM      9  C   LIG d   1      -6.193  77.062 116.633  0.00  0.00     0.028 C 
ATOM     10  C   LIG d   1      -7.493  76.245 116.551  0.00  0.00     0.006 C 
ENDBRANCH   8   9
BRANCH   8  11
ATOM     11  C   LIG d   1      -5.492  75.044 115.447  0.00  0.00     0.028 C 
ATOM     12  C   LIG d   1      -5.282  74.641 113.979  0.00  0.00     0.006 C 
ENDBRANCH   8  11
ENDBRANCH   7   8
ENDBRANCH   1   7
BRANCH   6  13
ATOM     13  N   LIG d   1      -0.921  76.423 117.208  0.00  0.00    -0.311 N 
ATOM     14  C   LIG d   1      -0.827  75.324 117.955  0.00  0.00     0.210 C 
ATOM     15  C   LIG d   1      -0.239  75.542 119.353  0.00  0.00     0.109 C 
ATOM     16  O   LIG d   1      -1.144  74.185 117.582  0.00  0.00    -0.276 OA
ATOM     17  H   LIG d   1      -0.610  77.299 117.578  0.00  0.00     0.149 HD
ENDBRANCH   6  13
BRANCH   5  18
ATOM     18  N   LIG d   1       0.724  76.088 114.655  0.00  0.00     0.381 N 
ATOM     19  H   LIG d   1       1.461  76.595 114.207  0.00  0.00    -0.090 HD
ATOM     20  H   LIG d   1       0.491  75.297 114.081  0.00  0.00    -0.090 HD
ATOM     21  H   LIG d   1       1.022  75.779 115.554  0.00  0.00    -0.090 HD
ENDBRANCH   5  18
BRANCH   3  22
ATOM     22  C   LIG d   1      -2.764  78.359 112.286  0.00  0.00     0.382 C 
ATOM     23  O   LIG d   1      -3.795  77.990 111.673  0.00  0.00    -0.241 OA
ATOM     24  O   LIG d   1      -2.080  79.293 111.827  0.00  0.00    -0.241 OA
ENDBRANCH   3  22
TORSDOF 7
ENDMDL
MODEL 2
REMARK VINA RESULT:      -5.4      2.398      3.208
REMARK  7 active torsions:
REMARK  status: ('A' for Active; 'I' for Inactive)
REMARK    1  A    between atoms: C_2  and  C_3 
REMARK    2  A    between atoms: C_3  and  O_6 
REMARK    3  A    between atoms: C_3  and  C_4 
REMARK    4  A    between atoms: C_7  and  O_6 
REMARK    5  A    between atoms: C_9  and  C_10 
REMARK    6  A    between atoms: N_15  and  C_14 
REMARK    7  A    between atoms: N_20  and  C_19 
REMARK       I    between atoms: C_22  and  N_20 
ROOT
ATOM      1  C   LIG d   1      -2.667  78.459 114.992  0.00  0.00     0.161 C 
ATOM      2  C   LIG d   1      -2.906  79.662 114.306  0.00  0.00     0.016 C 
ATOM      3  C   LIG d   1      -2.414  79.929 113.008  0.00  0.00     0.038 C 
ATOM      4  C   LIG d   1      -1.772  78.945 112.242  0.00  0.00     0.028 C 
ATOM      5  C   LIG d   1      -1.068  77.886 113.083  0.00  0.00    -0.047 C 
ATOM      6  C   LIG d   1      -2.062  77.332 114.128  0.00  0.00     0.091 C 
ENDROOT
BRANCH   1   7
ATOM      7  O   LIG d   1      -3.880  78.009 115.626  0.00  0.00    -0.368 OA
BRANCH   7   8
ATOM      8  C   LIG d   1      -4.122  78.508 116.965  0.00  0.00     0.119 C 
BRANCH   8   9
ATOM      9  C   LIG d   1      -3.885  77.342 117.944  0.00  0.00     0.028 C 
ATOM     10  C   LIG d   1      -2.447  77.317 118.490  0.00  0.00     0.006 C 
ENDBRANCH   8   9
BRANCH   8  11
ATOM     11  C   LIG d   1      -5.589  78.905 117.154  0.00  0.00     0.028 C 
ATOM     12  C   LIG d   1      -6.190  78.359 118.459  0.00  0.00     0.006 C 
ENDBRANCH   8  11
ENDBRANCH   7   8
ENDBRANCH   1   7
BRANCH   6  13
ATOM     13  N   LIG d   1      -1.430  76.351 115.048  0.00  0.00    -0.311 N 
ATOM     14  C   LIG d   1      -1.971  75.171 115.346  0.00  0.00     0.210 C 
ATOM     15  C   LIG d   1      -1.164  74.319 116.331  0.00  0.00     0.109 C 
ATOM     16  O   LIG d   1      -3.027  74.735 114.862  0.00  0.00    -0.276 OA
ATOM     17  H   LIG d   1      -0.556  76.610 115.461  0.00  0.00     0.149 HD
ENDBRANCH   6  13
BRANCH   5  18
ATOM     18  N   LIG d   1      -0.560  76.851 112.163  0.00  0.00     0.381 N 
ATOM     19  H   LIG d   1      -0.287  76.041 112.682  0.00  0.00    -0.090 HD
ATOM     20  H   LIG d   1       0.250  77.208 111.687  0.00  0.00    -0.090 HD
ATOM     21  H   LIG d   1      -1.263  76.609 111.500  0.00  0.00    -0.090 HD
ENDBRANCH   5  18
BRANCH   3  22
ATOM     22  C   LIG d   1      -2.529  81.206 112.479  0.00  0.00     0.382 C 
ATOM     23  O   LIG d   1      -1.498  81.849 112.165  0.00  0.00    -0.241 OA
ATOM     24  O   LIG d   1      -3.647  81.740 112.353  0.00  0.00    -0.241 OA
ENDBRANCH   3  22
TORSDOF 7
ENDMDL
MODEL 3
REMARK VINA RESULT:      -5.2      0.923      1.179
REMARK  7 active torsions:
REMARK  status: ('A' for Active; 'I' for Inactive)
REMARK    1  A    between atoms: C_2  and  C_3 
REMARK    2  A    between atoms: C_3  and  O_6 
REMARK    3  A    between atoms: C_3  and  C_4 
REMARK    4  A    between atoms: C_7  and  O_6 
REMARK    5  A    between atoms: C_9  and  C_10 
REMARK    6  A    between atoms: N_15  and  C_14 
REMARK    7  A    between atoms: N_20  and  C_19 
REMARK       I    between atoms: C_22  and  N_20 
ROOT
ATOM      1  C   LIG d   1      -2.754  77.520 116.076  0.00  0.00     0.161 C 
ATOM      2  C   LIG d   1      -3.074  78.275 114.935  0.00  0.00     0.016 C 
ATOM      3  C   LIG d   1      -2.247  78.342 113.790  0.00  0.00     0.038 C 
ATOM      4  C   LIG d   1      -1.110  77.532 113.648  0.00  0.00     0.028 C 
ATOM      5  C   LIG d   1      -0.479  77.135 114.978  0.00  0.00    -0.047 C 
ATOM      6  C   LIG d   1      -1.573  76.543 115.895  0.00  0.00     0.091 C 
ENDROOT
BRANCH   1   7
ATOM      7  O   LIG d   1      -3.923  76.813 116.537  0.00  0.00    -0.368 OA
BRANCH   7   8
ATOM      8  C   LIG d   1      -5.178  77.183 115.915  0.00  0.00     0.119 C 
BRANCH   8   9
ATOM      9  C   LIG d   1      -6.096  77.739 117.021  0.00  0.00     0.028 C 
ATOM     10  C   LIG d   1      -5.844  79.230 117.299  0.00  0.00     0.006 C 
ENDBRANCH   8   9
BRANCH   8  11
ATOM     11  C   LIG d   1      -5.908  75.957 115.360  0.00  0.00     0.028 C 
ATOM     12  C   LIG d   1      -5.513  75.633 113.911  0.00  0.00     0.006 C 
ENDBRANCH   8  11
ENDBRANCH   7   8
ENDBRANCH   1   7
BRANCH   6  13
ATOM     13  N   LIG d   1      -1.058  76.206 117.248  0.00  0.00    -0.311 N 
ATOM     14  C   LIG d   1      -1.391  75.096 117.904  0.00  0.00     0.210 C 
ATOM     15  C   LIG d   1      -0.763  74.953 119.294  0.00  0.00     0.109 C 
ATOM     16  O   LIG d   1      -2.123  74.202 117.454  0.00  0.00    -0.276 OA
ATOM     17  H   LIG d   1      -0.433  76.863 117.675  0.00  0.00     0.149 HD
ENDBRANCH   6  13
BRANCH   5  18
ATOM     18  N   LIG d   1       0.610  76.184 114.688  0.00  0.00     0.381 N 
ATOM     19  H   LIG d   1       1.247  76.153 115.459  0.00  0.00    -0.090 HD
ATOM     20  H   LIG d   1       1.111  76.500 113.877  0.00  0.00    -0.090 HD
ATOM     21  H   LIG d   1       0.234  75.276 114.523  0.00  0.00    -0.090 HD
ENDBRANCH   5  18
BRANCH   3  22
ATOM     22  C   LIG d   1      -2.534  79.256 112.788  0.00  0.00     0.382 C 
ATOM     23  O   LIG d   1      -3.188  80.293 113.054  0.00  0.00    -0.241 OA
ATOM     24  O   LIG d   1      -2.186  79.035 111.612  0.00  0.00    -0.241 OA
ENDBRANCH   3  22
TORSDOF 7
ENDMDL
MODEL 4
REMARK VINA RESULT:      -5.1      1.710      4.889
REMARK  7 active torsions:
REMARK  status: ('A' for Active; 'I' for Inactive)
REMARK    1  A    between atoms: C_2  and  C_3 
REMARK    2  A    between atoms: C_3  and  O_6 
REMARK    3  A    between atoms: C_3  and  C_4 
REMARK    4  A    between atoms: C_7  and  O_6 
REMARK    5  A    between atoms: C_9  and  C_10 
REMARK    6  A    between atoms: N_15  and  C_14 
REMARK    7  A    between atoms: N_20  and  C_19 
REMARK       I    between atoms: C_22  and  N_20 
ROOT
ATOM      1  C   LIG d   1      -1.699  75.906 114.917  0.00  0.00     0.161 C 
ATOM      2  C   LIG d   1      -1.500  75.511 116.250  0.00  0.00     0.016 C 
ATOM      3  C   LIG d   1      -0.807  76.297 117.200  0.00  0.00     0.038 C 
ATOM      4  C   LIG d   1      -0.394  77.608 116.917  0.00  0.00     0.028 C 
ATOM      5  C   LIG d   1      -0.127  77.853 115.436  0.00  0.00    -0.047 C 
ATOM      6  C   LIG d   1      -1.352  77.380 114.621  0.00  0.00     0.091 C 
ENDROOT
BRANCH   1   7
ATOM      7  O   LIG d   1      -3.054  75.620 114.519  0.00  0.00    -0.368 OA
BRANCH   7   8
ATOM      8  C   LIG d   1      -4.022  75.503 115.592  0.00  0.00     0.119 C 
BRANCH   8   9
ATOM      9  C   LIG d   1      -5.060  74.448 115.165  0.00  0.00     0.028 C 
ATOM     10  C   LIG d   1      -6.497  74.859 115.526  0.00  0.00     0.006 C 
ENDBRANCH   8   9
BRANCH   8  11
ATOM     11  C   LIG d   1      -4.814  76.802 115.772  0.00  0.00     0.028 C 
ATOM     12  C   LIG d   1      -4.445  77.550 117.063  0.00  0.00     0.006 C 
ENDBRANCH   8  11
ENDBRANCH   7   8
ENDBRANCH   1   7
BRANCH   6  13
ATOM     13  N   LIG d   1      -1.141  77.507 113.155  0.00  0.00    -0.311 N 
ATOM     14  C   LIG d   1      -2.052  78.009 112.323  0.00  0.00     0.210 C 
ATOM     15  C   LIG d   1      -1.639  78.031 110.848  0.00  0.00     0.109 C 
ATOM     16  O   LIG d   1      -3.150  78.469 112.671  0.00  0.00    -0.276 OA
ATOM     17  H   LIG d   1      -0.265  77.187 112.791  0.00  0.00     0.149 HD
ENDBRANCH   6  13
BRANCH   5  18
ATOM     18  N   LIG d   1       0.160  79.290 115.267  0.00  0.00     0.381 N 
ATOM     19  H   LIG d   1      -0.640  79.753 114.886  0.00  0.00    -0.090 HD
ATOM     20  H   LIG d   1       0.923  79.395 114.622  0.00  0.00    -0.090 HD
ATOM     21  H   LIG d   1       0.400  79.695 116.145  0.00  0.00    -0.090 HD
ENDBRANCH   5  18
BRANCH   3  22
ATOM     22  C   LIG d   1      -0.486  75.757 118.436  0.00  0.00     0.382 C 
ATOM     23  O   LIG d   1      -0.967  74.651 118.781  0.00  0.00    -0.241 OA
ATOM     24  O   LIG d   1       0.244  76.383 119.228  0.00  0.00    -0.241 OA
ENDBRANCH   3  22
TORSDOF 7
ENDMDL
MODEL 5
REMARK VINA RESULT:      -5.0      1.103      1.706
REMARK  7 active torsions:
REMARK  status: ('A' for Active; 'I' for Inactive)
REMARK    1  A    between atoms: C_2  and  C_3 
REMARK    2  A    between atoms: C_3  and  O_6 
REMARK    3  A    between atoms: C_3  and  C_4 
REMARK    4  A    between atoms: C_7  and  O_6 
REMARK    5  A    between atoms: C_9  and  C_10 
REMARK    6  A    between atoms: N_15  and  C_14 
REMARK    7  A    between atoms: N_20  and  C_19 
REMARK       I    between atoms: C_22  and  N_20 
ROOT
ATOM      1  C   LIG d   1      -3.282  76.957 115.052  0.00  0.00     0.161 C 
ATOM      2  C   LIG d   1      -3.352  77.495 113.757  0.00  0.00     0.016 C 
ATOM      3  C   LIG d   1      -2.220  77.689 112.932  0.00  0.00     0.038 C 
ATOM      4  C   LIG d   1      -0.951  77.213 113.293  0.00  0.00     0.028 C 
ATOM      5  C   LIG d   1      -0.745  77.119 114.801  0.00  0.00    -0.047 C 
ATOM      6  C   LIG d   1      -1.921  76.330 115.419  0.00  0.00     0.091 C 
ENDROOT
BRANCH   1   7
ATOM      7  O   LIG d   1      -4.343  75.999 115.241  0.00  0.00    -0.368 OA
BRANCH   7   8
ATOM      8  C   LIG d   1      -5.352  76.349 116.220  0.00  0.00     0.119 C 
BRANCH   8   9
ATOM      9  C   LIG d   1      -6.721  76.287 115.515  0.00  0.00     0.028 C 
ATOM     10  C   LIG d   1      -7.658  75.243 116.145  0.00  0.00     0.006 C 
ENDBRANCH   8   9
BRANCH   8  11
ATOM     11  C   LIG d   1      -5.199  77.801 116.682  0.00  0.00     0.028 C 
ATOM     12  C   LIG d   1      -6.096  78.142 117.882  0.00  0.00     0.006 C 
ENDBRANCH   8  11
ENDBRANCH   7   8
ENDBRANCH   1   7
BRANCH   6  13
ATOM     13  N   LIG d   1      -1.842  76.263 116.902  0.00  0.00    -0.311 N 
ATOM     14  C   LIG d   1      -1.380  75.204 117.565  0.00  0.00     0.210 C 
ATOM     15  C   LIG d   1      -1.403  75.335 119.091  0.00  0.00     0.109 C 
ATOM     16  O   LIG d   1      -0.924  74.181 117.033  0.00  0.00    -0.276 OA
ATOM     17  H   LIG d   1      -2.162  77.063 117.412  0.00  0.00     0.149 HD
ENDBRANCH   6  13
BRANCH   5  18
ATOM     18  N   LIG d   1       0.565  76.481 115.033  0.00  0.00     0.381 N 
ATOM     19  H   LIG d   1       0.469  75.743 115.702  0.00  0.00    -0.090 HD
ATOM     20  H   LIG d   1       1.198  77.165 115.407  0.00  0.00    -0.090 HD
ATOM     21  H   LIG d   1       0.924  76.119 114.177  0.00  0.00    -0.090 HD
ENDBRANCH   5  18
BRANCH   3  22
ATOM     22  C   LIG d   1      -2.345  78.400 111.749  0.00  0.00     0.382 C 
ATOM     23  O   LIG d   1      -2.417  79.653 111.775  0.00  0.00    -0.241 OA
ATOM     24  O   LIG d   1      -2.432  77.804 110.659  0.00  0.00    -0.241 OA
ENDBRANCH   3  22
TORSDOF 7
ENDMDL
MODEL 6
REMARK VINA RESULT:      -4.8      2.145      2.923
REMARK  7 active torsions:
REMARK  status: ('A' for Active; 'I' for Inactive)
REMARK    1  A    between atoms: C_2  and  C_3 
REMARK    2  A    between atoms: C_3  and  O_6 
REMARK    3  A    between atoms: C_3  and  C_4 
REMARK    4  A    between atoms: C_7  and  O_6 
REMARK    5  A    between atoms: C_9  and  C_10 
REMARK    6  A    between atoms: N_15  and  C_14 
REMARK    7  A    between atoms: N_20  and  C_19 
REMARK       I    between atoms: C_22  and  N_20 
ROOT
ATOM      1  C   LIG d   1      -2.133  77.220 115.219  0.00  0.00     0.161 C 
ATOM      2  C   LIG d   1      -2.576  77.258 113.886  0.00  0.00     0.016 C 
ATOM      3  C   LIG d   1      -2.039  78.132 112.912  0.00  0.00     0.038 C 
ATOM      4  C   LIG d   1      -0.912  78.926 113.170  0.00  0.00     0.028 C 
ATOM      5  C   LIG d   1      -0.751  79.290 114.642  0.00  0.00    -0.047 C 
ATOM      6  C   LIG d   1      -0.830  78.000 115.490  0.00  0.00     0.091 C 
ENDROOT
BRANCH   1   7
ATOM      7  O   LIG d   1      -1.997  75.851 115.649  0.00  0.00    -0.368 OA
BRANCH   7   8
ATOM      8  C   LIG d   1      -3.056  75.340 116.495  0.00  0.00     0.119 C 
BRANCH   8   9
ATOM      9  C   LIG d   1      -2.414  74.371 117.506  0.00  0.00     0.028 C 
ATOM     10  C   LIG d   1      -0.994  74.800 117.911  0.00  0.00     0.006 C 
ENDBRANCH   8   9
BRANCH   8  11
ATOM     11  C   LIG d   1      -4.049  74.492 115.694  0.00  0.00     0.028 C 
ATOM     12  C   LIG d   1      -5.355  75.240 115.383  0.00  0.00     0.006 C 
ENDBRANCH   8  11
ENDBRANCH   7   8
ENDBRANCH   1   7
BRANCH   6  13
ATOM     13  N   LIG d   1      -0.766  78.276 116.949  0.00  0.00    -0.311 N 
ATOM     14  C   LIG d   1       0.373  78.319 117.637  0.00  0.00     0.210 C 
ATOM     15  C   LIG d   1       0.213  78.599 119.135  0.00  0.00     0.109 C 
ATOM     16  O   LIG d   1       1.503  78.184 117.144  0.00  0.00    -0.276 OA
ATOM     17  H   LIG d   1      -1.635  78.428 117.423  0.00  0.00     0.149 HD
ENDBRANCH   6  13
BRANCH   5  18
ATOM     18  N   LIG d   1       0.533  80.001 114.788  0.00  0.00     0.381 N 
ATOM     19  H   LIG d   1       1.278  79.428 114.443  0.00  0.00    -0.090 HD
ATOM     20  H   LIG d   1       0.698  80.178 115.763  0.00  0.00    -0.090 HD
ATOM     21  H   LIG d   1       0.506  80.861 114.286  0.00  0.00    -0.090 HD
ENDBRANCH   5  18
BRANCH   3  22
ATOM     22  C   LIG d   1      -2.657  78.246 111.676  0.00  0.00     0.382 C 
ATOM     23  O   LIG d   1      -2.011  78.674 110.690  0.00  0.00    -0.241 OA
ATOM     24  O   LIG d   1      -3.864  77.969 111.545  0.00  0.00    -0.241 OA
ENDBRANCH   3  22
TORSDOF 7
ENDMDL
MODEL 7
REMARK VINA RESULT:      -4.8      2.826      4.527
REMARK  7 active torsions:
REMARK  status: ('A' for Active; 'I' for Inactive)
REMARK    1  A    between atoms: C_2  and  C_3 
REMARK    2  A    between atoms: C_3  and  O_6 
REMARK    3  A    between atoms: C_3  and  C_4 
REMARK    4  A    between atoms: C_7  and  O_6 
REMARK    5  A    between atoms: C_9  and  C_10 
REMARK    6  A    between atoms: N_15  and  C_14 
REMARK    7  A    between atoms: N_20  and  C_19 
REMARK       I    between atoms: C_22  and  N_20 
ROOT
ATOM      1  C   LIG d   1      -3.152  78.128 116.568  0.00  0.00     0.161 C 
ATOM      2  C   LIG d   1      -2.171  79.007 117.056  0.00  0.00     0.016 C 
ATOM      3  C   LIG d   1      -0.834  79.013 116.596  0.00  0.00     0.038 C 
ATOM      4  C   LIG d   1      -0.422  78.236 115.503  0.00  0.00     0.028 C 
ATOM      5  C   LIG d   1      -1.252  76.971 115.312  0.00  0.00    -0.047 C 
ATOM      6  C   LIG d   1      -2.750  77.350 115.298  0.00  0.00     0.091 C 
ENDROOT
BRANCH   1   7
ATOM      7  O   LIG d   1      -4.384  78.844 116.349  0.00  0.00    -0.368 OA
BRANCH   7   8
ATOM      8  C   LIG d   1      -5.397  78.700 117.375  0.00  0.00     0.119 C 
BRANCH   8   9
ATOM      9  C   LIG d   1      -6.419  77.662 116.873  0.00  0.00     0.028 C 
ATOM     10  C   LIG d   1      -7.685  77.617 117.745  0.00  0.00     0.006 C 
ENDBRANCH   8   9
BRANCH   8  11
ATOM     11  C   LIG d   1      -6.192  79.996 117.559  0.00  0.00     0.028 C 
ATOM     12  C   LIG d   1      -5.830  80.738 118.855  0.00  0.00     0.006 C 
ENDBRANCH   8  11
ENDBRANCH   7   8
ENDBRANCH   1   7
BRANCH   6  13
ATOM     13  N   LIG d   1      -3.635  76.160 115.200  0.00  0.00    -0.311 N 
ATOM     14  C   LIG d   1      -4.456  75.940 114.175  0.00  0.00     0.210 C 
ATOM     15  C   LIG d   1      -5.296  74.663 114.282  0.00  0.00     0.109 C 
ATOM     16  O   LIG d   1      -4.546  76.663 113.172  0.00  0.00    -0.276 OA
ATOM     17  H   LIG d   1      -3.603  75.505 115.956  0.00  0.00     0.149 HD
ENDBRANCH   6  13
BRANCH   5  18
ATOM     18  N   LIG d   1      -0.805  76.330 114.061  0.00  0.00     0.381 N 
ATOM     19  H   LIG d   1       0.037  76.763 113.740  0.00  0.00    -0.090 HD
ATOM     20  H   LIG d   1      -1.513  76.458 113.360  0.00  0.00    -0.090 HD
ATOM     21  H   LIG d   1      -0.650  75.357 114.213  0.00  0.00    -0.090 HD
ENDBRANCH   5  18
BRANCH   3  22
ATOM     22  C   LIG d   1       0.117  79.773 117.259  0.00  0.00     0.382 C 
ATOM     23  O   LIG d   1       1.298  79.359 117.352  0.00  0.00    -0.241 OA
ATOM     24  O   LIG d   1      -0.200  80.848 117.804  0.00  0.00    -0.241 OA
ENDBRANCH   3  22
TORSDOF 7
ENDMDL
MODEL 8
REMARK VINA RESULT:      -4.8      2.107      4.880
REMARK  7 active torsions:
REMARK  status: ('A' for Active; 'I' for Inactive)
REMARK    1  A    between atoms: C_2  and  C_3 
REMARK    2  A    between atoms: C_3  and  O_6 
REMARK    3  A    between atoms: C_3  and  C_4 
REMARK    4  A    between atoms: C_7  and  O_6 
REMARK    5  A    between atoms: C_9  and  C_10 
REMARK    6  A    between atoms: N_15  and  C_14 
REMARK    7  A    between atoms: N_20  and  C_19 
REMARK       I    between atoms: C_22  and  N_20 
ROOT
ATOM      1  C   LIG d   1      -3.234  76.864 114.689  0.00  0.00     0.161 C 
ATOM      2  C   LIG d   1      -3.186  76.753 116.088  0.00  0.00     0.016 C 
ATOM      3  C   LIG d   1      -2.234  77.424 116.890  0.00  0.00     0.038 C 
ATOM      4  C   LIG d   1      -1.354  78.377 116.355  0.00  0.00     0.028 C 
ATOM      5  C   LIG d   1      -1.031  78.145 114.883  0.00  0.00    -0.047 C 
ATOM      6  C   LIG d   1      -2.353  77.985 114.098  0.00  0.00     0.091 C 
ENDROOT
BRANCH   1   7
ATOM      7  O   LIG d   1      -4.600  77.020 114.258  0.00  0.00    -0.368 OA
BRANCH   7   8
ATOM      8  C   LIG d   1      -5.226  75.846 113.685  0.00  0.00     0.119 C 
BRANCH   8   9
ATOM      9  C   LIG d   1      -6.640  76.252 113.226  0.00  0.00     0.028 C 
ATOM     10  C   LIG d   1      -6.642  76.893 111.829  0.00  0.00     0.006 C 
ENDBRANCH   8   9
BRANCH   8  11
ATOM     11  C   LIG d   1      -5.440  74.758 114.742  0.00  0.00     0.028 C 
ATOM     12  C   LIG d   1      -6.601  75.075 115.698  0.00  0.00     0.006 C 
ENDBRANCH   8  11
ENDBRANCH   7   8
ENDBRANCH   1   7
BRANCH   6  13
ATOM     13  N   LIG d   1      -2.127  77.671 112.663  0.00  0.00    -0.311 N 
ATOM     14  C   LIG d   1      -2.116  78.594 111.703  0.00  0.00     0.210 C 
ATOM     15  C   LIG d   1      -1.884  78.053 110.289  0.00  0.00     0.109 C 
ATOM     16  O   LIG d   1      -2.244  79.813 111.893  0.00  0.00    -0.276 OA
ATOM     17  H   LIG d   1      -1.983  76.709 112.425  0.00  0.00     0.149 HD
ENDBRANCH   6  13
BRANCH   5  18
ATOM     18  N   LIG d   1      -0.218  79.285 114.420  0.00  0.00     0.381 N 
ATOM     19  H   LIG d   1       0.678  78.961 114.116  0.00  0.00    -0.090 HD
ATOM     20  H   LIG d   1      -0.080  79.919 115.187  0.00  0.00    -0.090 HD
ATOM     21  H   LIG d   1      -0.681  79.753 113.671  0.00  0.00    -0.090 HD
ENDBRANCH   5  18
BRANCH   3  22
ATOM     22  C   LIG d   1      -2.129  77.114 118.237  0.00  0.00     0.382 C 
ATOM     23  O   LIG d   1      -2.274  75.928 118.621  0.00  0.00    -0.241 OA
ATOM     24  O   LIG d   1      -1.935  78.012 119.079  0.00  0.00    -0.241 OA
ENDBRANCH   3  22
TORSDOF 7
ENDMDL
MODEL 9
REMARK VINA RESULT:      -4.7      2.546      4.835
REMARK  7 active torsions:
REMARK  status: ('A' for Active; 'I' for Inactive)
REMARK    1  A    between atoms: C_2  and  C_3 
REMARK    2  A    between atoms: C_3  and  O_6 
REMARK    3  A    between atoms: C_3  and  C_4 
REMARK    4  A    between atoms: C_7  and  O_6 
REMARK    5  A    between atoms: C_9  and  C_10 
REMARK    6  A    between atoms: N_15  and  C_14 
REMARK    7  A    between atoms: N_20  and  C_19 
REMARK       I    between atoms: C_22  and  N_20 
ROOT
ATOM      1  C   LIG d   1      -1.619  78.135 114.930  0.00  0.00     0.161 C 
ATOM      2  C   LIG d   1      -2.822  78.500 115.558  0.00  0.00     0.016 C 
ATOM      3  C   LIG d   1      -3.184  78.070 116.855  0.00  0.00     0.038 C 
ATOM      4  C   LIG d   1      -2.294  77.364 117.678  0.00  0.00     0.028 C 
ATOM      5  C   LIG d   1      -1.270  76.545 116.900  0.00  0.00    -0.047 C 
ATOM      6  C   LIG d   1      -0.587  77.457 115.856  0.00  0.00     0.091 C 
ENDROOT
BRANCH   1   7
ATOM      7  O   LIG d   1      -1.035  79.285 114.287  0.00  0.00    -0.368 OA
BRANCH   7   8
ATOM      8  C   LIG d   1      -0.905  79.211 112.845  0.00  0.00     0.119 C 
BRANCH   8   9
ATOM      9  C   LIG d   1      -1.336  80.575 112.271  0.00  0.00     0.028 C 
ATOM     10  C   LIG d   1      -2.753  80.977 112.713  0.00  0.00     0.006 C 
ENDBRANCH   8   9
BRANCH   8  11
ATOM     11  C   LIG d   1      -1.882  78.194 112.249  0.00  0.00     0.028 C 
ATOM     12  C   LIG d   1      -1.735  78.048 110.726  0.00  0.00     0.006 C 
ENDBRANCH   8  11
ENDBRANCH   7   8
ENDBRANCH   1   7
BRANCH   6  13
ATOM     13  N   LIG d   1       0.370  76.715 114.994  0.00  0.00    -0.311 N 
ATOM     14  C   LIG d   1       0.042  75.622 114.307  0.00  0.00     0.210 C 
ATOM     15  C   LIG d   1       1.184  75.000 113.497  0.00  0.00     0.109 C 
ATOM     16  O   LIG d   1      -1.094  75.128 114.265  0.00  0.00    -0.276 OA
ATOM     17  H   LIG d   1       1.307  77.065 114.945  0.00  0.00     0.149 HD
ENDBRANCH   6  13
BRANCH   5  18
ATOM     18  N   LIG d   1      -0.323  75.973 117.875  0.00  0.00     0.381 N 
ATOM     19  H   LIG d   1      -0.767  75.236 118.386  0.00  0.00    -0.090 HD
ATOM     20  H   LIG d   1      -0.054  76.690 118.526  0.00  0.00    -0.090 HD
ATOM     21  H   LIG d   1       0.482  75.623 117.404  0.00  0.00    -0.090 HD
ENDBRANCH   5  18
BRANCH   3  22
ATOM     22  C   LIG d   1      -4.466  78.313 117.326  0.00  0.00     0.382 C 
ATOM     23  O   LIG d   1      -5.414  78.457 116.517  0.00  0.00    -0.241 OA
ATOM     24  O   LIG d   1      -4.678  78.433 118.547  0.00  0.00    -0.241 OA
ENDBRANCH   3  22
TORSDOF 7
ENDMDL
