MODEL 1
REMARK VINA RESULT:      -5.0      0.000      0.000
REMARK  7 active torsions:
REMARK  status: ('A' for Active; 'I' for Inactive)
REMARK    1  A    between atoms: C_2  and  C_3 
REMARK    2  A    between atoms: C_3  and  O_6 
REMARK    3  A    between atoms: C_3  and  C_4 
REMARK    4  A    between atoms: C_7  and  O_6 
REMARK    5  A    between atoms: C_9  and  C_10 
REMARK    6  A    between atoms: N_15  and  C_14 
REMARK    7  A    between atoms: N_20  and  C_19 
REMARK       I    between atoms: C_22  and  N_20 
ROOT
ATOM      1  C   LIG d   1      -2.499  78.209 116.047  0.00  0.00     0.161 C 
ATOM      2  C   LIG d   1      -2.831  79.062 114.981  0.00  0.00     0.016 C 
ATOM      3  C   LIG d   1      -2.322  78.905 113.672  0.00  0.00     0.038 C 
ATOM      4  C   LIG d   1      -1.559  77.787 113.302  0.00  0.00     0.028 C 
ATOM      5  C   LIG d   1      -0.785  77.171 114.463  0.00  0.00    -0.047 C 
ATOM      6  C   LIG d   1      -1.757  76.920 115.637  0.00  0.00     0.091 C 
ENDROOT
BRANCH   1   7
ATOM      7  O   LIG d   1      -3.684  77.887 116.802  0.00  0.00    -0.368 OA
BRANCH   7   8
ATOM      8  C   LIG d   1      -4.902  77.719 116.035  0.00  0.00     0.119 C 
BRANCH   8   9
ATOM      9  C   LIG d   1      -6.060  78.293 116.875  0.00  0.00     0.028 C 
ATOM     10  C   LIG d   1      -5.795  79.738 117.331  0.00  0.00     0.006 C 
ENDBRANCH   8   9
BRANCH   8  11
ATOM     11  C   LIG d   1      -5.239  76.238 115.839  0.00  0.00     0.028 C 
ATOM     12  C   LIG d   1      -5.100  75.784 114.378  0.00  0.00     0.006 C 
ENDBRANCH   8  11
ENDBRANCH   7   8
ENDBRANCH   1   7
BRANCH   6  13
ATOM     13  N   LIG d   1      -1.065  76.396 116.844  0.00  0.00    -0.311 N 
ATOM     14  C   LIG d   1      -1.386  75.244 117.431  0.00  0.00     0.210 C 
ATOM     15  C   LIG d   1      -0.560  74.901 118.674  0.00  0.00     0.109 C 
ATOM     16  O   LIG d   1      -2.253  74.459 117.021  0.00  0.00    -0.276 OA
ATOM     17  H   LIG d   1      -0.327  76.955 117.225  0.00  0.00     0.149 HD
ENDBRANCH   6  13
BRANCH   5  18
ATOM     18  N   LIG d   1      -0.145  75.938 113.967  0.00  0.00     0.381 N 
ATOM     19  H   LIG d   1      -0.748  75.156 114.128  0.00  0.00    -0.090 HD
ATOM     20  H   LIG d   1       0.709  75.788 114.475  0.00  0.00    -0.090 HD
ATOM     21  H   LIG d   1       0.049  76.022 112.993  0.00  0.00    -0.090 HD
ENDBRANCH   5  18
BRANCH   3  22
ATOM     22  C   LIG d   1      -2.541  79.895 112.726  0.00  0.00     0.382 C 
ATOM     23  O   LIG d   1      -3.412  80.775 112.930  0.00  0.00    -0.241 OA
ATOM     24  O   LIG d   1      -1.911  79.893 111.652  0.00  0.00    -0.241 OA
ENDBRANCH   3  22
TORSDOF 7
ENDMDL
MODEL 2
REMARK VINA RESULT:      -4.9      1.323      1.712
REMARK  7 active torsions:
REMARK  status: ('A' for Active; 'I' for Inactive)
REMARK    1  A    between atoms: C_2  and  C_3 
REMARK    2  A    between atoms: C_3  and  O_6 
REMARK    3  A    between atoms: C_3  and  C_4 
REMARK    4  A    between atoms: C_7  and  O_6 
REMARK    5  A    between atoms: C_9  and  C_10 
REMARK    6  A    between atoms: N_15  and  C_14 
REMARK    7  A    between atoms: N_20  and  C_19 
REMARK       I    between atoms: C_22  and  N_20 
ROOT
ATOM      1  C   LIG d   1      -2.798  77.381 116.045  0.00  0.00     0.161 C 
ATOM      2  C   LIG d   1      -3.166  77.780 114.749  0.00  0.00     0.016 C 
ATOM      3  C   LIG d   1      -2.384  77.513 113.602  0.00  0.00     0.038 C 
ATOM      4  C   LIG d   1      -1.248  76.692 113.653  0.00  0.00     0.028 C 
ATOM      5  C   LIG d   1      -0.564  76.689 115.016  0.00  0.00    -0.047 C 
ATOM      6  C   LIG d   1      -1.618  76.389 116.106  0.00  0.00     0.091 C 
ENDROOT
BRANCH   1   7
ATOM      7  O   LIG d   1      -3.943  76.841 116.734  0.00  0.00    -0.368 OA
BRANCH   7   8
ATOM      8  C   LIG d   1      -5.094  76.531 115.910  0.00  0.00     0.119 C 
BRANCH   8   9
ATOM      9  C   LIG d   1      -6.354  76.908 116.715  0.00  0.00     0.028 C 
ATOM     10  C   LIG d   1      -7.576  76.062 116.321  0.00  0.00     0.006 C 
ENDBRANCH   8   9
BRANCH   8  11
ATOM     11  C   LIG d   1      -5.210  75.025 115.658  0.00  0.00     0.028 C 
ATOM     12  C   LIG d   1      -4.857  74.634 114.215  0.00  0.00     0.006 C 
ENDBRANCH   8  11
ENDBRANCH   7   8
ENDBRANCH   1   7
BRANCH   6  13
ATOM     13  N   LIG d   1      -1.049  76.451 117.477  0.00  0.00    -0.311 N 
ATOM     14  C   LIG d   1      -0.986  75.400 118.293  0.00  0.00     0.210 C 
ATOM     15  C   LIG d   1      -0.380  75.686 119.671  0.00  0.00     0.109 C 
ATOM     16  O   LIG d   1      -1.345  74.251 117.995  0.00  0.00    -0.276 OA
ATOM     17  H   LIG d   1      -0.706  77.338 117.789  0.00  0.00     0.149 HD
ENDBRANCH   6  13
BRANCH   5  18
ATOM     18  N   LIG d   1       0.520  75.690 114.969  0.00  0.00     0.381 N 
ATOM     19  H   LIG d   1       0.429  75.131 114.144  0.00  0.00    -0.090 HD
ATOM     20  H   LIG d   1       0.441  75.087 115.769  0.00  0.00    -0.090 HD
ATOM     21  H   LIG d   1       1.405  76.146 114.974  0.00  0.00    -0.090 HD
ENDBRANCH   5  18
BRANCH   3  22
ATOM     22  C   LIG d   1      -2.716  78.103 112.392  0.00  0.00     0.382 C 
ATOM     23  O   LIG d   1      -2.546  77.474 111.319  0.00  0.00    -0.241 OA
ATOM     24  O   LIG d   1      -3.141  79.273 112.355  0.00  0.00    -0.241 OA
ENDBRANCH   3  22
TORSDOF 7
ENDMDL
MODEL 3
REMARK VINA RESULT:      -4.8      3.091      5.373
REMARK  7 active torsions:
REMARK  status: ('A' for Active; 'I' for Inactive)
REMARK    1  A    between atoms: C_2  and  C_3 
REMARK    2  A    between atoms: C_3  and  O_6 
REMARK    3  A    between atoms: C_3  and  C_4 
REMARK    4  A    between atoms: C_7  and  O_6 
REMARK    5  A    between atoms: C_9  and  C_10 
REMARK    6  A    between atoms: N_15  and  C_14 
REMARK    7  A    between atoms: N_20  and  C_19 
REMARK       I    between atoms: C_22  and  N_20 
ROOT
ATOM      1  C   LIG d   1      -1.613  79.546 114.190  0.00  0.00     0.161 C 
ATOM      2  C   LIG d   1      -2.405  78.404 114.395  0.00  0.00     0.016 C 
ATOM      3  C   LIG d   1      -2.776  77.518 113.358  0.00  0.00     0.038 C 
ATOM      4  C   LIG d   1      -2.250  77.631 112.063  0.00  0.00     0.028 C 
ATOM      5  C   LIG d   1      -1.851  79.056 111.694  0.00  0.00    -0.047 C 
ATOM      6  C   LIG d   1      -0.938  79.625 112.804  0.00  0.00     0.091 C 
ENDROOT
BRANCH   1   7
ATOM      7  O   LIG d   1      -0.625  79.650 115.234  0.00  0.00    -0.368 OA
BRANCH   7   8
ATOM      8  C   LIG d   1      -0.903  78.913 116.450  0.00  0.00     0.119 C 
BRANCH   8   9
ATOM      9  C   LIG d   1      -1.117  79.942 117.577  0.00  0.00     0.028 C 
ATOM     10  C   LIG d   1      -2.556  79.927 118.120  0.00  0.00     0.006 C 
ENDBRANCH   8   9
BRANCH   8  11
ATOM     11  C   LIG d   1       0.306  78.080 116.886  0.00  0.00     0.028 C 
ATOM     12  C   LIG d   1       0.306  76.667 116.282  0.00  0.00     0.006 C 
ENDBRANCH   8  11
ENDBRANCH   7   8
ENDBRANCH   1   7
BRANCH   6  13
ATOM     13  N   LIG d   1      -0.570  81.044 112.563  0.00  0.00    -0.311 N 
ATOM     14  C   LIG d   1       0.519  81.415 111.892  0.00  0.00     0.210 C 
ATOM     15  C   LIG d   1       0.722  82.929 111.775  0.00  0.00     0.109 C 
ATOM     16  O   LIG d   1       1.319  80.634 111.355  0.00  0.00    -0.276 OA
ATOM     17  H   LIG d   1      -1.181  81.744 112.937  0.00  0.00     0.149 HD
ENDBRANCH   6  13
BRANCH   5  18
ATOM     18  N   LIG d   1      -1.193  79.006 110.374  0.00  0.00     0.381 N 
ATOM     19  H   LIG d   1      -0.639  79.828 110.241  0.00  0.00    -0.090 HD
ATOM     20  H   LIG d   1      -1.899  78.983 109.660  0.00  0.00    -0.090 HD
ATOM     21  H   LIG d   1      -0.618  78.195 110.309  0.00  0.00    -0.090 HD
ENDBRANCH   5  18
BRANCH   3  22
ATOM     22  C   LIG d   1      -3.714  76.527 113.604  0.00  0.00     0.382 C 
ATOM     23  O   LIG d   1      -3.378  75.484 114.216  0.00  0.00    -0.241 OA
ATOM     24  O   LIG d   1      -4.880  76.643 113.184  0.00  0.00    -0.241 OA
ENDBRANCH   3  22
TORSDOF 7
ENDMDL
MODEL 4
REMARK VINA RESULT:      -4.7      1.948      5.099
REMARK  7 active torsions:
REMARK  status: ('A' for Active; 'I' for Inactive)
REMARK    1  A    between atoms: C_2  and  C_3 
REMARK    2  A    between atoms: C_3  and  O_6 
REMARK    3  A    between atoms: C_3  and  C_4 
REMARK    4  A    between atoms: C_7  and  O_6 
REMARK    5  A    between atoms: C_9  and  C_10 
REMARK    6  A    between atoms: N_15  and  C_14 
REMARK    7  A    between atoms: N_20  and  C_19 
REMARK       I    between atoms: C_22  and  N_20 
ROOT
ATOM      1  C   LIG d   1      -1.870  75.707 114.822  0.00  0.00     0.161 C 
ATOM      2  C   LIG d   1      -1.611  75.272 116.132  0.00  0.00     0.016 C 
ATOM      3  C   LIG d   1      -0.926  76.054 117.091  0.00  0.00     0.038 C 
ATOM      4  C   LIG d   1      -0.585  77.393 116.848  0.00  0.00     0.028 C 
ATOM      5  C   LIG d   1      -0.377  77.707 115.371  0.00  0.00    -0.047 C 
ATOM      6  C   LIG d   1      -1.604  77.206 114.574  0.00  0.00     0.091 C 
ENDROOT
BRANCH   1   7
ATOM      7  O   LIG d   1      -3.222  75.370 114.454  0.00  0.00    -0.368 OA
BRANCH   7   8
ATOM      8  C   LIG d   1      -4.206  75.435 115.515  0.00  0.00     0.119 C 
BRANCH   8   9
ATOM      9  C   LIG d   1      -5.188  74.265 115.308  0.00  0.00     0.028 C 
ATOM     10  C   LIG d   1      -6.245  74.182 116.422  0.00  0.00     0.006 C 
ENDBRANCH   8   9
BRANCH   8  11
ATOM     11  C   LIG d   1      -5.059  76.703 115.409  0.00  0.00     0.028 C 
ATOM     12  C   LIG d   1      -4.726  77.738 116.495  0.00  0.00     0.006 C 
ENDBRANCH   8  11
ENDBRANCH   7   8
ENDBRANCH   1   7
BRANCH   6  13
ATOM     13  N   LIG d   1      -1.444  77.398 113.109  0.00  0.00    -0.311 N 
ATOM     14  C   LIG d   1      -2.355  78.000 112.345  0.00  0.00     0.210 C 
ATOM     15  C   LIG d   1      -2.002  78.075 110.856  0.00  0.00     0.109 C 
ATOM     16  O   LIG d   1      -3.406  78.507 112.764  0.00  0.00    -0.276 OA
ATOM     17  H   LIG d   1      -0.606  77.045 112.691  0.00  0.00     0.149 HD
ENDBRANCH   6  13
BRANCH   5  18
ATOM     18  N   LIG d   1      -0.164  79.161 115.250  0.00  0.00     0.381 N 
ATOM     19  H   LIG d   1       0.177  79.527 116.116  0.00  0.00    -0.090 HD
ATOM     20  H   LIG d   1      -1.043  79.603 115.045  0.00  0.00    -0.090 HD
ATOM     21  H   LIG d   1       0.489  79.351 114.521  0.00  0.00    -0.090 HD
ENDBRANCH   5  18
BRANCH   3  22
ATOM     22  C   LIG d   1      -0.541  75.484 118.294  0.00  0.00     0.382 C 
ATOM     23  O   LIG d   1       0.321  76.050 119.009  0.00  0.00    -0.241 OA
ATOM     24  O   LIG d   1      -1.012  74.388 118.654  0.00  0.00    -0.241 OA
ENDBRANCH   3  22
TORSDOF 7
ENDMDL
MODEL 5
REMARK VINA RESULT:      -4.7      1.214      2.000
REMARK  7 active torsions:
REMARK  status: ('A' for Active; 'I' for Inactive)
REMARK    1  A    between atoms: C_2  and  C_3 
REMARK    2  A    between atoms: C_3  and  O_6 
REMARK    3  A    between atoms: C_3  and  C_4 
REMARK    4  A    between atoms: C_7  and  O_6 
REMARK    5  A    between atoms: C_9  and  C_10 
REMARK    6  A    between atoms: N_15  and  C_14 
REMARK    7  A    between atoms: N_20  and  C_19 
REMARK       I    between atoms: C_22  and  N_20 
ROOT
ATOM      1  C   LIG d   1      -2.732  78.828 115.773  0.00  0.00     0.161 C 
ATOM      2  C   LIG d   1      -2.962  79.734 114.725  0.00  0.00     0.016 C 
ATOM      3  C   LIG d   1      -2.425  79.575 113.427  0.00  0.00     0.038 C 
ATOM      4  C   LIG d   1      -1.739  78.412 113.045  0.00  0.00     0.028 C 
ATOM      5  C   LIG d   1      -1.052  77.705 114.209  0.00  0.00    -0.047 C 
ATOM      6  C   LIG d   1      -2.079  77.497 115.346  0.00  0.00     0.091 C 
ENDROOT
BRANCH   1   7
ATOM      7  O   LIG d   1      -3.962  78.578 116.482  0.00  0.00    -0.368 OA
BRANCH   7   8
ATOM      8  C   LIG d   1      -3.921  78.770 117.917  0.00  0.00     0.119 C 
BRANCH   8   9
ATOM      9  C   LIG d   1      -4.690  77.602 118.563  0.00  0.00     0.028 C 
ATOM     10  C   LIG d   1      -5.400  76.720 117.523  0.00  0.00     0.006 C 
ENDBRANCH   8   9
BRANCH   8  11
ATOM     11  C   LIG d   1      -4.681  80.034 118.332  0.00  0.00     0.028 C 
ATOM     12  C   LIG d   1      -5.836  80.374 117.377  0.00  0.00     0.006 C 
ENDBRANCH   8  11
ENDBRANCH   7   8
ENDBRANCH   1   7
BRANCH   6  13
ATOM     13  N   LIG d   1      -1.468  76.887 116.556  0.00  0.00    -0.311 N 
ATOM     14  C   LIG d   1      -1.794  75.678 117.012  0.00  0.00     0.210 C 
ATOM     15  C   LIG d   1      -1.060  75.248 118.286  0.00  0.00     0.109 C 
ATOM     16  O   LIG d   1      -2.598  74.909 116.464  0.00  0.00    -0.276 OA
ATOM     17  H   LIG d   1      -0.783  77.429 117.044  0.00  0.00     0.149 HD
ENDBRANCH   6  13
BRANCH   5  18
ATOM     18  N   LIG d   1      -0.495  76.439 113.695  0.00  0.00     0.381 N 
ATOM     19  H   LIG d   1      -1.084  76.078 112.972  0.00  0.00    -0.090 HD
ATOM     20  H   LIG d   1      -0.467  75.769 114.443  0.00  0.00    -0.090 HD
ATOM     21  H   LIG d   1       0.424  76.591 113.340  0.00  0.00    -0.090 HD
ENDBRANCH   5  18
BRANCH   3  22
ATOM     22  C   LIG d   1      -2.537  80.605 112.505  0.00  0.00     0.382 C 
ATOM     23  O   LIG d   1      -3.592  81.282 112.447  0.00  0.00    -0.241 OA
ATOM     24  O   LIG d   1      -1.614  80.837 111.702  0.00  0.00    -0.241 OA
ENDBRANCH   3  22
TORSDOF 7
ENDMDL
MODEL 6
REMARK VINA RESULT:      -4.5      2.934      4.401
REMARK  7 active torsions:
REMARK  status: ('A' for Active; 'I' for Inactive)
REMARK    1  A    between atoms: C_2  and  C_3 
REMARK    2  A    between atoms: C_3  and  O_6 
REMARK    3  A    between atoms: C_3  and  C_4 
REMARK    4  A    between atoms: C_7  and  O_6 
REMARK    5  A    between atoms: C_9  and  C_10 
REMARK    6  A    between atoms: N_15  and  C_14 
REMARK    7  A    between atoms: N_20  and  C_19 
REMARK       I    between atoms: C_22  and  N_20 
ROOT
ATOM      1  C   LIG d   1      -5.168  77.878 116.871  0.00  0.00     0.161 C 
ATOM      2  C   LIG d   1      -5.929  79.051 117.003  0.00  0.00     0.016 C 
ATOM      3  C   LIG d   1      -5.502  80.177 117.744  0.00  0.00     0.038 C 
ATOM      4  C   LIG d   1      -4.209  80.263 118.283  0.00  0.00     0.028 C 
ATOM      5  C   LIG d   1      -3.595  78.904 118.603  0.00  0.00    -0.047 C 
ATOM      6  C   LIG d   1      -3.709  77.996 117.358  0.00  0.00     0.091 C 
ENDROOT
BRANCH   1   7
ATOM      7  O   LIG d   1      -5.204  77.423 115.503  0.00  0.00    -0.368 OA
BRANCH   7   8
ATOM      8  C   LIG d   1      -6.069  76.293 115.231  0.00  0.00     0.119 C 
BRANCH   8   9
ATOM      9  C   LIG d   1      -6.525  75.721 116.587  0.00  0.00     0.028 C 
ATOM     10  C   LIG d   1      -6.482  74.184 116.620  0.00  0.00     0.006 C 
ENDBRANCH   8   9
BRANCH   8  11
ATOM     11  C   LIG d   1      -5.301  75.157 114.549  0.00  0.00     0.028 C 
ATOM     12  C   LIG d   1      -3.837  75.519 114.254  0.00  0.00     0.006 C 
ENDBRANCH   8  11
ENDBRANCH   7   8
ENDBRANCH   1   7
BRANCH   6  13
ATOM     13  N   LIG d   1      -3.207  76.620 117.613  0.00  0.00    -0.311 N 
ATOM     14  C   LIG d   1      -1.970  76.224 117.318  0.00  0.00     0.210 C 
ATOM     15  C   LIG d   1      -1.665  74.759 117.643  0.00  0.00     0.109 C 
ATOM     16  O   LIG d   1      -1.087  76.956 116.847  0.00  0.00    -0.276 OA
ATOM     17  H   LIG d   1      -3.849  75.969 118.021  0.00  0.00     0.149 HD
ENDBRANCH   6  13
BRANCH   5  18
ATOM     18  N   LIG d   1      -2.201  79.134 119.026  0.00  0.00     0.381 N 
ATOM     19  H   LIG d   1      -1.989  80.111 118.979  0.00  0.00    -0.090 HD
ATOM     20  H   LIG d   1      -1.586  78.648 118.398  0.00  0.00    -0.090 HD
ATOM     21  H   LIG d   1      -2.067  78.802 119.956  0.00  0.00    -0.090 HD
ENDBRANCH   5  18
BRANCH   3  22
ATOM     22  C   LIG d   1      -6.387  81.216 117.987  0.00  0.00     0.382 C 
ATOM     23  O   LIG d   1      -7.063  81.697 117.046  0.00  0.00    -0.241 OA
ATOM     24  O   LIG d   1      -6.485  81.709 119.127  0.00  0.00    -0.241 OA
ENDBRANCH   3  22
TORSDOF 7
ENDMDL
MODEL 7
REMARK VINA RESULT:      -4.4      2.493      4.029
REMARK  7 active torsions:
REMARK  status: ('A' for Active; 'I' for Inactive)
REMARK    1  A    between atoms: C_2  and  C_3 
REMARK    2  A    between atoms: C_3  and  O_6 
REMARK    3  A    between atoms: C_3  and  C_4 
REMARK    4  A    between atoms: C_7  and  O_6 
REMARK    5  A    between atoms: C_9  and  C_10 
REMARK    6  A    between atoms: N_15  and  C_14 
REMARK    7  A    between atoms: N_20  and  C_19 
REMARK       I    between atoms: C_22  and  N_20 
ROOT
ATOM      1  C   LIG d   1      -3.006  78.633 116.637  0.00  0.00     0.161 C 
ATOM      2  C   LIG d   1      -2.026  79.474 117.188  0.00  0.00     0.016 C 
ATOM      3  C   LIG d   1      -0.675  79.475 116.769  0.00  0.00     0.038 C 
ATOM      4  C   LIG d   1      -0.244  78.734 115.658  0.00  0.00     0.028 C 
ATOM      5  C   LIG d   1      -1.087  77.492 115.393  0.00  0.00    -0.047 C 
ATOM      6  C   LIG d   1      -2.578  77.898 115.349  0.00  0.00     0.091 C 
ENDROOT
BRANCH   1   7
ATOM      7  O   LIG d   1      -4.218  79.378 116.409  0.00  0.00    -0.368 OA
BRANCH   7   8
ATOM      8  C   LIG d   1      -5.236  79.270 117.434  0.00  0.00     0.119 C 
BRANCH   8   9
ATOM      9  C   LIG d   1      -6.224  78.174 116.993  0.00  0.00     0.028 C 
ATOM     10  C   LIG d   1      -6.031  76.861 117.771  0.00  0.00     0.006 C 
ENDBRANCH   8   9
BRANCH   8  11
ATOM     11  C   LIG d   1      -6.068  80.552 117.531  0.00  0.00     0.028 C 
ATOM     12  C   LIG d   1      -7.521  80.289 117.959  0.00  0.00     0.006 C 
ENDBRANCH   8  11
ENDBRANCH   7   8
ENDBRANCH   1   7
BRANCH   6  13
ATOM     13  N   LIG d   1      -3.479  76.729 115.177  0.00  0.00    -0.311 N 
ATOM     14  C   LIG d   1      -3.997  76.368 114.005  0.00  0.00     0.210 C 
ATOM     15  C   LIG d   1      -4.917  75.144 114.053  0.00  0.00     0.109 C 
ATOM     16  O   LIG d   1      -3.756  76.926 112.924  0.00  0.00    -0.276 OA
ATOM     17  H   LIG d   1      -3.702  76.201 115.998  0.00  0.00     0.149 HD
ENDBRANCH   6  13
BRANCH   5  18
ATOM     18  N   LIG d   1      -0.613  76.893 114.131  0.00  0.00     0.381 N 
ATOM     19  H   LIG d   1      -0.167  76.017 114.319  0.00  0.00    -0.090 HD
ATOM     20  H   LIG d   1       0.062  77.508 113.713  0.00  0.00    -0.090 HD
ATOM     21  H   LIG d   1      -1.380  76.756 113.510  0.00  0.00    -0.090 HD
ENDBRANCH   5  18
BRANCH   3  22
ATOM     22  C   LIG d   1       0.267  80.192 117.490  0.00  0.00     0.382 C 
ATOM     23  O   LIG d   1       1.305  79.622 117.906  0.00  0.00    -0.241 OA
ATOM     24  O   LIG d   1       0.073  81.390 117.767  0.00  0.00    -0.241 OA
ENDBRANCH   3  22
TORSDOF 7
ENDMDL
MODEL 8
REMARK VINA RESULT:      -4.4      1.595      2.305
REMARK  7 active torsions:
REMARK  status: ('A' for Active; 'I' for Inactive)
REMARK    1  A    between atoms: C_2  and  C_3 
REMARK    2  A    between atoms: C_3  and  O_6 
REMARK    3  A    between atoms: C_3  and  C_4 
REMARK    4  A    between atoms: C_7  and  O_6 
REMARK    5  A    between atoms: C_9  and  C_10 
REMARK    6  A    between atoms: N_15  and  C_14 
REMARK    7  A    between atoms: N_20  and  C_19 
REMARK       I    between atoms: C_22  and  N_20 
ROOT
ATOM      1  C   LIG d   1      -2.647  77.518 115.561  0.00  0.00     0.161 C 
ATOM      2  C   LIG d   1      -2.946  78.192 114.365  0.00  0.00     0.016 C 
ATOM      3  C   LIG d   1      -2.047  79.075 113.724  0.00  0.00     0.038 C 
ATOM      4  C   LIG d   1      -0.722  79.228 114.159  0.00  0.00     0.028 C 
ATOM      5  C   LIG d   1      -0.538  78.957 115.648  0.00  0.00    -0.047 C 
ATOM      6  C   LIG d   1      -1.167  77.587 115.990  0.00  0.00     0.091 C 
ENDROOT
BRANCH   1   7
ATOM      7  O   LIG d   1      -3.079  76.146 115.470  0.00  0.00    -0.368 OA
BRANCH   7   8
ATOM      8  C   LIG d   1      -4.082  75.728 116.429  0.00  0.00     0.119 C 
BRANCH   8   9
ATOM      9  C   LIG d   1      -5.233  75.076 115.640  0.00  0.00     0.028 C 
ATOM     10  C   LIG d   1      -4.866  74.822 114.168  0.00  0.00     0.006 C 
ENDBRANCH   8   9
BRANCH   8  11
ATOM     11  C   LIG d   1      -4.708  76.931 117.140  0.00  0.00     0.028 C 
ATOM     12  C   LIG d   1      -6.130  77.242 116.644  0.00  0.00     0.006 C 
ENDBRANCH   8  11
ENDBRANCH   7   8
ENDBRANCH   1   7
BRANCH   6  13
ATOM     13  N   LIG d   1      -1.105  77.282 117.444  0.00  0.00    -0.311 N 
ATOM     14  C   LIG d   1      -0.462  76.229 117.945  0.00  0.00     0.210 C 
ATOM     15  C   LIG d   1      -0.539  76.089 119.468  0.00  0.00     0.109 C 
ATOM     16  O   LIG d   1       0.192  75.415 117.276  0.00  0.00    -0.276 OA
ATOM     17  H   LIG d   1      -1.582  77.909 118.062  0.00  0.00     0.149 HD
ENDBRANCH   6  13
BRANCH   5  18
ATOM     18  N   LIG d   1       0.908  79.018 115.937  0.00  0.00     0.381 N 
ATOM     19  H   LIG d   1       1.286  78.092 115.967  0.00  0.00    -0.090 HD
ATOM     20  H   LIG d   1       1.042  79.443 116.837  0.00  0.00    -0.090 HD
ATOM     21  H   LIG d   1       1.373  79.552 115.236  0.00  0.00    -0.090 HD
ENDBRANCH   5  18
BRANCH   3  22
ATOM     22  C   LIG d   1      -2.484  79.846 112.658  0.00  0.00     0.382 C 
ATOM     23  O   LIG d   1      -3.403  80.683 112.825  0.00  0.00    -0.241 OA
ATOM     24  O   LIG d   1      -2.001  79.684 111.521  0.00  0.00    -0.241 OA
ENDBRANCH   3  22
TORSDOF 7
ENDMDL
MODEL 9
REMARK VINA RESULT:      -4.3      2.448      4.908
REMARK  7 active torsions:
REMARK  status: ('A' for Active; 'I' for Inactive)
REMARK    1  A    between atoms: C_2  and  C_3 
REMARK    2  A    between atoms: C_3  and  O_6 
REMARK    3  A    between atoms: C_3  and  C_4 
REMARK    4  A    between atoms: C_7  and  O_6 
REMARK    5  A    between atoms: C_9  and  C_10 
REMARK    6  A    between atoms: N_15  and  C_14 
REMARK    7  A    between atoms: N_20  and  C_19 
REMARK       I    between atoms: C_22  and  N_20 
ROOT
ATOM      1  C   LIG d   1      -1.386  76.859 114.795  0.00  0.00     0.161 C 
ATOM      2  C   LIG d   1      -2.558  76.194 114.398  0.00  0.00     0.016 C 
ATOM      3  C   LIG d   1      -3.612  75.877 115.286  0.00  0.00     0.038 C 
ATOM      4  C   LIG d   1      -3.631  76.340 116.609  0.00  0.00     0.028 C 
ATOM      5  C   LIG d   1      -2.240  76.581 117.187  0.00  0.00    -0.047 C 
ATOM      6  C   LIG d   1      -1.438  77.471 116.211  0.00  0.00     0.091 C 
ENDROOT
BRANCH   1   7
ATOM      7  O   LIG d   1      -1.045  77.869 113.825  0.00  0.00    -0.368 OA
BRANCH   7   8
ATOM      8  C   LIG d   1      -2.154  78.465 113.108  0.00  0.00     0.119 C 
BRANCH   8   9
ATOM      9  C   LIG d   1      -1.682  78.736 111.667  0.00  0.00     0.028 C 
ATOM     10  C   LIG d   1      -2.303  77.761 110.653  0.00  0.00     0.006 C 
ENDBRANCH   8   9
BRANCH   8  11
ATOM     11  C   LIG d   1      -2.514  79.839 113.682  0.00  0.00     0.028 C 
ATOM     12  C   LIG d   1      -2.857  80.868 112.593  0.00  0.00     0.006 C 
ENDBRANCH   8  11
ENDBRANCH   7   8
ENDBRANCH   1   7
BRANCH   6  13
ATOM     13  N   LIG d   1      -0.038  77.685 116.660  0.00  0.00    -0.311 N 
ATOM     14  C   LIG d   1       0.528  78.888 116.746  0.00  0.00     0.210 C 
ATOM     15  C   LIG d   1       1.988  78.884 117.211  0.00  0.00     0.109 C 
ATOM     16  O   LIG d   1      -0.049  79.960 116.512  0.00  0.00    -0.276 OA
ATOM     17  H   LIG d   1       0.494  76.872 116.899  0.00  0.00     0.149 HD
ENDBRANCH   6  13
BRANCH   5  18
ATOM     18  N   LIG d   1      -2.410  77.191 118.519  0.00  0.00     0.381 N 
ATOM     19  H   LIG d   1      -3.220  77.778 118.522  0.00  0.00    -0.090 HD
ATOM     20  H   LIG d   1      -1.608  77.761 118.721  0.00  0.00    -0.090 HD
ATOM     21  H   LIG d   1      -2.504  76.480 119.211  0.00  0.00    -0.090 HD
ENDBRANCH   5  18
BRANCH   3  22
ATOM     22  C   LIG d   1      -4.643  75.053 114.862  0.00  0.00     0.382 C 
ATOM     23  O   LIG d   1      -5.558  74.733 115.658  0.00  0.00    -0.241 OA
ATOM     24  O   LIG d   1      -4.647  74.589 113.705  0.00  0.00    -0.241 OA
ENDBRANCH   3  22
TORSDOF 7
ENDMDL
