MODEL 1
REMARK VINA RESULT:      -5.2      0.000      0.000
REMARK  7 active torsions:
REMARK  status: ('A' for Active; 'I' for Inactive)
REMARK    1  A    between atoms: C_2  and  C_3 
REMARK    2  A    between atoms: C_3  and  O_6 
REMARK    3  A    between atoms: C_3  and  C_4 
REMARK    4  A    between atoms: C_7  and  O_6 
REMARK    5  A    between atoms: C_9  and  C_10 
REMARK    6  A    between atoms: N_15  and  C_14 
REMARK    7  A    between atoms: N_20  and  C_19 
REMARK       I    between atoms: C_22  and  N_20 
ROOT
ATOM      1  C   LIG d   1      -2.062  75.454 114.973  0.00  0.00     0.161 C 
ATOM      2  C   LIG d   1      -1.945  74.859 116.240  0.00  0.00     0.016 C 
ATOM      3  C   LIG d   1      -1.199  75.424 117.299  0.00  0.00     0.038 C 
ATOM      4  C   LIG d   1      -0.639  76.707 117.210  0.00  0.00     0.028 C 
ATOM      5  C   LIG d   1      -0.305  77.124 115.782  0.00  0.00    -0.047 C 
ATOM      6  C   LIG d   1      -1.550  76.907 114.891  0.00  0.00     0.091 C 
ENDROOT
BRANCH   1   7
ATOM      7  O   LIG d   1      -3.428  75.378 114.521  0.00  0.00    -0.368 OA
BRANCH   7   8
ATOM      8  C   LIG d   1      -4.433  75.219 115.553  0.00  0.00     0.119 C 
BRANCH   8   9
ATOM      9  C   LIG d   1      -5.467  74.199 115.039  0.00  0.00     0.028 C 
ATOM     10  C   LIG d   1      -6.748  74.184 115.889  0.00  0.00     0.006 C 
ENDBRANCH   8   9
BRANCH   8  11
ATOM     11  C   LIG d   1      -5.217  76.517 115.771  0.00  0.00     0.028 C 
ATOM     12  C   LIG d   1      -4.680  77.346 116.949  0.00  0.00     0.006 C 
ENDBRANCH   8  11
ENDBRANCH   7   8
ENDBRANCH   1   7
BRANCH   6  13
ATOM     13  N   LIG d   1      -1.283  77.211 113.461  0.00  0.00    -0.311 N 
ATOM     14  C   LIG d   1      -2.104  77.933 112.700  0.00  0.00     0.210 C 
ATOM     15  C   LIG d   1      -1.650  78.110 111.247  0.00  0.00     0.109 C 
ATOM     16  O   LIG d   1      -3.148  78.471 113.098  0.00  0.00    -0.276 OA
ATOM     17  H   LIG d   1      -0.442  76.840 113.065  0.00  0.00     0.149 HD
ENDBRANCH   6  13
BRANCH   5  18
ATOM     18  N   LIG d   1       0.141  78.529 115.820  0.00  0.00     0.381 N 
ATOM     19  H   LIG d   1      -0.440  79.086 115.226  0.00  0.00    -0.090 HD
ATOM     20  H   LIG d   1       1.084  78.581 115.476  0.00  0.00    -0.090 HD
ATOM     21  H   LIG d   1       0.101  78.874 116.754  0.00  0.00    -0.090 HD
ENDBRANCH   5  18
BRANCH   3  22
ATOM     22  C   LIG d   1      -0.974  74.686 118.451  0.00  0.00     0.382 C 
ATOM     23  O   LIG d   1       0.156  74.182 118.662  0.00  0.00    -0.241 OA
ATOM     24  O   LIG d   1      -1.898  74.481 119.261  0.00  0.00    -0.241 OA
ENDBRANCH   3  22
TORSDOF 7
ENDMDL
MODEL 2
REMARK VINA RESULT:      -5.2      2.349      5.389
REMARK  7 active torsions:
REMARK  status: ('A' for Active; 'I' for Inactive)
REMARK    1  A    between atoms: C_2  and  C_3 
REMARK    2  A    between atoms: C_3  and  O_6 
REMARK    3  A    between atoms: C_3  and  C_4 
REMARK    4  A    between atoms: C_7  and  O_6 
REMARK    5  A    between atoms: C_9  and  C_10 
REMARK    6  A    between atoms: N_15  and  C_14 
REMARK    7  A    between atoms: N_20  and  C_19 
REMARK       I    between atoms: C_22  and  N_20 
ROOT
ATOM      1  C   LIG d   1      -1.634  78.508 115.115  0.00  0.00     0.161 C 
ATOM      2  C   LIG d   1      -2.110  79.735 114.626  0.00  0.00     0.016 C 
ATOM      3  C   LIG d   1      -2.223  80.033 113.248  0.00  0.00     0.038 C 
ATOM      4  C   LIG d   1      -2.007  79.061 112.260  0.00  0.00     0.028 C 
ATOM      5  C   LIG d   1      -1.040  77.964 112.690  0.00  0.00    -0.047 C 
ATOM      6  C   LIG d   1      -1.499  77.397 114.053  0.00  0.00     0.091 C 
ENDROOT
BRANCH   1   7
ATOM      7  O   LIG d   1      -2.464  78.061 116.205  0.00  0.00    -0.368 OA
BRANCH   7   8
ATOM      8  C   LIG d   1      -3.893  78.221 116.025  0.00  0.00     0.119 C 
BRANCH   8   9
ATOM      9  C   LIG d   1      -4.419  79.045 117.217  0.00  0.00     0.028 C 
ATOM     10  C   LIG d   1      -5.928  78.853 117.442  0.00  0.00     0.006 C 
ENDBRANCH   8   9
BRANCH   8  11
ATOM     11  C   LIG d   1      -4.620  76.876 116.110  0.00  0.00     0.028 C 
ATOM     12  C   LIG d   1      -5.167  76.409 114.752  0.00  0.00     0.006 C 
ENDBRANCH   8  11
ENDBRANCH   7   8
ENDBRANCH   1   7
BRANCH   6  13
ATOM     13  N   LIG d   1      -0.560  76.376 114.587  0.00  0.00    -0.311 N 
ATOM     14  C   LIG d   1      -0.952  75.190 115.048  0.00  0.00     0.210 C 
ATOM     15  C   LIG d   1       0.176  74.294 115.571  0.00  0.00     0.109 C 
ATOM     16  O   LIG d   1      -2.123  74.781 115.045  0.00  0.00    -0.276 OA
ATOM     17  H   LIG d   1       0.413  76.612 114.598  0.00  0.00     0.149 HD
ENDBRANCH   6  13
BRANCH   5  18
ATOM     18  N   LIG d   1      -1.013  76.948 111.620  0.00  0.00     0.381 N 
ATOM     19  H   LIG d   1      -0.330  76.250 111.833  0.00  0.00    -0.090 HD
ATOM     20  H   LIG d   1      -0.753  77.392 110.757  0.00  0.00    -0.090 HD
ATOM     21  H   LIG d   1      -1.912  76.527 111.528  0.00  0.00    -0.090 HD
ENDBRANCH   5  18
BRANCH   3  22
ATOM     22  C   LIG d   1      -2.517  81.327 112.847  0.00  0.00     0.382 C 
ATOM     23  O   LIG d   1      -3.711  81.702 112.763  0.00  0.00    -0.241 OA
ATOM     24  O   LIG d   1      -1.604  82.111 112.525  0.00  0.00    -0.241 OA
ENDBRANCH   3  22
TORSDOF 7
ENDMDL
MODEL 3
REMARK VINA RESULT:      -5.2      2.197      5.273
REMARK  7 active torsions:
REMARK  status: ('A' for Active; 'I' for Inactive)
REMARK    1  A    between atoms: C_2  and  C_3 
REMARK    2  A    between atoms: C_3  and  O_6 
REMARK    3  A    between atoms: C_3  and  C_4 
REMARK    4  A    between atoms: C_7  and  O_6 
REMARK    5  A    between atoms: C_9  and  C_10 
REMARK    6  A    between atoms: N_15  and  C_14 
REMARK    7  A    between atoms: N_20  and  C_19 
REMARK       I    between atoms: C_22  and  N_20 
ROOT
ATOM      1  C   LIG d   1      -2.148  78.309 115.021  0.00  0.00     0.161 C 
ATOM      2  C   LIG d   1      -2.565  79.263 114.078  0.00  0.00     0.016 C 
ATOM      3  C   LIG d   1      -1.745  80.323 113.627  0.00  0.00     0.038 C 
ATOM      4  C   LIG d   1      -0.390  80.412 113.979  0.00  0.00     0.028 C 
ATOM      5  C   LIG d   1      -0.068  79.763 115.321  0.00  0.00    -0.047 C 
ATOM      6  C   LIG d   1      -0.637  78.326 115.332  0.00  0.00     0.091 C 
ENDROOT
BRANCH   1   7
ATOM      7  O   LIG d   1      -2.558  76.993 114.599  0.00  0.00    -0.368 OA
BRANCH   7   8
ATOM      8  C   LIG d   1      -3.857  76.551 115.066  0.00  0.00     0.119 C 
BRANCH   8   9
ATOM      9  C   LIG d   1      -4.026  77.056 116.512  0.00  0.00     0.028 C 
ATOM     10  C   LIG d   1      -5.403  77.697 116.752  0.00  0.00     0.006 C 
ENDBRANCH   8   9
BRANCH   8  11
ATOM     11  C   LIG d   1      -3.924  75.023 115.160  0.00  0.00     0.028 C 
ATOM     12  C   LIG d   1      -5.301  74.463 114.772  0.00  0.00     0.006 C 
ENDBRANCH   8  11
ENDBRANCH   7   8
ENDBRANCH   1   7
BRANCH   6  13
ATOM     13  N   LIG d   1      -0.439  77.648 116.640  0.00  0.00    -0.311 N 
ATOM     14  C   LIG d   1       0.051  76.416 116.760  0.00  0.00     0.210 C 
ATOM     15  C   LIG d   1       0.154  75.899 118.199  0.00  0.00     0.109 C 
ATOM     16  O   LIG d   1       0.441  75.714 115.815  0.00  0.00    -0.276 OA
ATOM     17  H   LIG d   1      -0.700  78.158 117.461  0.00  0.00     0.149 HD
ENDBRANCH   6  13
BRANCH   5  18
ATOM     18  N   LIG d   1       1.396  79.807 115.497  0.00  0.00     0.381 N 
ATOM     19  H   LIG d   1       1.839  79.256 114.790  0.00  0.00    -0.090 HD
ATOM     20  H   LIG d   1       1.627  79.416 116.393  0.00  0.00    -0.090 HD
ATOM     21  H   LIG d   1       1.717  80.749 115.445  0.00  0.00    -0.090 HD
ENDBRANCH   5  18
BRANCH   3  22
ATOM     22  C   LIG d   1      -2.291  81.330 112.846  0.00  0.00     0.382 C 
ATOM     23  O   LIG d   1      -1.551  82.225 112.371  0.00  0.00    -0.241 OA
ATOM     24  O   LIG d   1      -3.520  81.380 112.648  0.00  0.00    -0.241 OA
ENDBRANCH   3  22
TORSDOF 7
ENDMDL
MODEL 4
REMARK VINA RESULT:      -4.8      2.692      5.763
REMARK  7 active torsions:
REMARK  status: ('A' for Active; 'I' for Inactive)
REMARK    1  A    between atoms: C_2  and  C_3 
REMARK    2  A    between atoms: C_3  and  O_6 
REMARK    3  A    between atoms: C_3  and  C_4 
REMARK    4  A    between atoms: C_7  and  O_6 
REMARK    5  A    between atoms: C_9  and  C_10 
REMARK    6  A    between atoms: N_15  and  C_14 
REMARK    7  A    between atoms: N_20  and  C_19 
REMARK       I    between atoms: C_22  and  N_20 
ROOT
ATOM      1  C   LIG d   1      -3.043  78.832 116.092  0.00  0.00     0.161 C 
ATOM      2  C   LIG d   1      -3.046  79.866 115.141  0.00  0.00     0.016 C 
ATOM      3  C   LIG d   1      -2.320  79.811 113.929  0.00  0.00     0.038 C 
ATOM      4  C   LIG d   1      -1.658  78.646 113.514  0.00  0.00     0.028 C 
ATOM      5  C   LIG d   1      -1.211  77.758 114.670  0.00  0.00    -0.047 C 
ATOM      6  C   LIG d   1      -2.416  77.508 115.606  0.00  0.00     0.091 C 
ENDROOT
BRANCH   1   7
ATOM      7  O   LIG d   1      -4.383  78.605 116.572  0.00  0.00    -0.368 OA
BRANCH   7   8
ATOM      8  C   LIG d   1      -4.951  79.654 117.395  0.00  0.00     0.119 C 
BRANCH   8   9
ATOM      9  C   LIG d   1      -4.202  79.642 118.742  0.00  0.00     0.028 C 
ATOM     10  C   LIG d   1      -3.612  81.017 119.097  0.00  0.00     0.006 C 
ENDBRANCH   8   9
BRANCH   8  11
ATOM     11  C   LIG d   1      -6.413  79.360 117.741  0.00  0.00     0.028 C 
ATOM     12  C   LIG d   1      -7.219  80.631 118.054  0.00  0.00     0.006 C 
ENDBRANCH   8  11
ENDBRANCH   7   8
ENDBRANCH   1   7
BRANCH   6  13
ATOM     13  N   LIG d   1      -2.045  76.718 116.809  0.00  0.00    -0.311 N 
ATOM     14  C   LIG d   1      -2.200  75.398 116.894  0.00  0.00     0.210 C 
ATOM     15  C   LIG d   1      -1.773  74.782 118.230  0.00  0.00     0.109 C 
ATOM     16  O   LIG d   1      -2.620  74.674 115.979  0.00  0.00    -0.276 OA
ATOM     17  H   LIG d   1      -1.668  77.221 117.587  0.00  0.00     0.149 HD
ENDBRANCH   6  13
BRANCH   5  18
ATOM     18  N   LIG d   1      -0.661  76.517 114.093  0.00  0.00     0.381 N 
ATOM     19  H   LIG d   1      -0.821  75.752 114.718  0.00  0.00    -0.090 HD
ATOM     20  H   LIG d   1       0.331  76.626 113.974  0.00  0.00    -0.090 HD
ATOM     21  H   LIG d   1      -1.089  76.331 113.213  0.00  0.00    -0.090 HD
ENDBRANCH   5  18
BRANCH   3  22
ATOM     22  C   LIG d   1      -2.219  80.944 113.136  0.00  0.00     0.382 C 
ATOM     23  O   LIG d   1      -3.254  81.473 112.665  0.00  0.00    -0.241 OA
ATOM     24  O   LIG d   1      -1.103  81.417 112.851  0.00  0.00    -0.241 OA
ENDBRANCH   3  22
TORSDOF 7
ENDMDL
MODEL 5
REMARK VINA RESULT:      -4.8      3.949      6.151
REMARK  7 active torsions:
REMARK  status: ('A' for Active; 'I' for Inactive)
REMARK    1  A    between atoms: C_2  and  C_3 
REMARK    2  A    between atoms: C_3  and  O_6 
REMARK    3  A    between atoms: C_3  and  C_4 
REMARK    4  A    between atoms: C_7  and  O_6 
REMARK    5  A    between atoms: C_9  and  C_10 
REMARK    6  A    between atoms: N_15  and  C_14 
REMARK    7  A    between atoms: N_20  and  C_19 
REMARK       I    between atoms: C_22  and  N_20 
ROOT
ATOM      1  C   LIG d   1      -1.381  80.461 113.287  0.00  0.00     0.161 C 
ATOM      2  C   LIG d   1      -2.407  79.570 112.931  0.00  0.00     0.016 C 
ATOM      3  C   LIG d   1      -2.311  78.662 111.852  0.00  0.00     0.038 C 
ATOM      4  C   LIG d   1      -1.115  78.478 111.143  0.00  0.00     0.028 C 
ATOM      5  C   LIG d   1      -0.216  79.710 111.140  0.00  0.00    -0.047 C 
ATOM      6  C   LIG d   1      -0.027  80.197 112.595  0.00  0.00     0.091 C 
ENDROOT
BRANCH   1   7
ATOM      7  O   LIG d   1      -1.218  80.472 114.719  0.00  0.00    -0.368 OA
BRANCH   7   8
ATOM      8  C   LIG d   1      -1.636  79.274 115.417  0.00  0.00     0.119 C 
BRANCH   8   9
ATOM      9  C   LIG d   1      -2.208  79.708 116.781  0.00  0.00     0.028 C 
ATOM     10  C   LIG d   1      -3.740  79.585 116.840  0.00  0.00     0.006 C 
ENDBRANCH   8   9
BRANCH   8  11
ATOM     11  C   LIG d   1      -0.440  78.376 115.748  0.00  0.00     0.028 C 
ATOM     12  C   LIG d   1      -0.629  76.930 115.264  0.00  0.00     0.006 C 
ENDBRANCH   8  11
ENDBRANCH   7   8
ENDBRANCH   1   7
BRANCH   6  13
ATOM     13  N   LIG d   1       0.770  81.448 112.675  0.00  0.00    -0.311 N 
ATOM     14  C   LIG d   1       0.437  82.572 112.042  0.00  0.00     0.210 C 
ATOM     15  C   LIG d   1       1.407  83.740 112.243  0.00  0.00     0.109 C 
ATOM     16  O   LIG d   1      -0.588  82.722 111.359  0.00  0.00    -0.276 OA
ATOM     17  H   LIG d   1       1.601  81.425 113.233  0.00  0.00     0.149 HD
ENDBRANCH   6  13
BRANCH   5  18
ATOM     18  N   LIG d   1       1.052  79.336 110.486  0.00  0.00     0.381 N 
ATOM     19  H   LIG d   1       1.054  79.659 109.540  0.00  0.00    -0.090 HD
ATOM     20  H   LIG d   1       1.130  78.334 110.477  0.00  0.00    -0.090 HD
ATOM     21  H   LIG d   1       1.821  79.731 110.982  0.00  0.00    -0.090 HD
ENDBRANCH   5  18
BRANCH   3  22
ATOM     22  C   LIG d   1      -3.433  77.955 111.446  0.00  0.00     0.382 C 
ATOM     23  O   LIG d   1      -4.333  77.678 112.274  0.00  0.00    -0.241 OA
ATOM     24  O   LIG d   1      -3.535  77.552 110.271  0.00  0.00    -0.241 OA
ENDBRANCH   3  22
TORSDOF 7
ENDMDL
MODEL 6
REMARK VINA RESULT:      -4.7      1.752      4.936
REMARK  7 active torsions:
REMARK  status: ('A' for Active; 'I' for Inactive)
REMARK    1  A    between atoms: C_2  and  C_3 
REMARK    2  A    between atoms: C_3  and  O_6 
REMARK    3  A    between atoms: C_3  and  C_4 
REMARK    4  A    between atoms: C_7  and  O_6 
REMARK    5  A    between atoms: C_9  and  C_10 
REMARK    6  A    between atoms: N_15  and  C_14 
REMARK    7  A    between atoms: N_20  and  C_19 
REMARK       I    between atoms: C_22  and  N_20 
ROOT
ATOM      1  C   LIG d   1      -3.304  77.032 116.091  0.00  0.00     0.161 C 
ATOM      2  C   LIG d   1      -3.517  77.483 114.777  0.00  0.00     0.016 C 
ATOM      3  C   LIG d   1      -2.520  77.458 113.775  0.00  0.00     0.038 C 
ATOM      4  C   LIG d   1      -1.279  76.836 113.978  0.00  0.00     0.028 C 
ATOM      5  C   LIG d   1      -0.842  76.820 115.439  0.00  0.00    -0.047 C 
ATOM      6  C   LIG d   1      -1.992  76.248 116.301  0.00  0.00     0.091 C 
ENDROOT
BRANCH   1   7
ATOM      7  O   LIG d   1      -4.432  76.247 116.526  0.00  0.00    -0.368 OA
BRANCH   7   8
ATOM      8  C   LIG d   1      -5.726  76.655 116.020  0.00  0.00     0.119 C 
BRANCH   8   9
ATOM      9  C   LIG d   1      -6.466  77.374 117.164  0.00  0.00     0.028 C 
ATOM     10  C   LIG d   1      -7.970  77.056 117.182  0.00  0.00     0.006 C 
ENDBRANCH   8   9
BRANCH   8  11
ATOM     11  C   LIG d   1      -6.596  75.442 115.673  0.00  0.00     0.028 C 
ATOM     12  C   LIG d   1      -5.768  74.200 115.309  0.00  0.00     0.006 C 
ENDBRANCH   8  11
ENDBRANCH   7   8
ENDBRANCH   1   7
BRANCH   6  13
ATOM     13  N   LIG d   1      -1.679  76.275 117.753  0.00  0.00    -0.311 N 
ATOM     14  C   LIG d   1      -1.137  75.248 118.406  0.00  0.00     0.210 C 
ATOM     15  C   LIG d   1      -0.915  75.479 119.904  0.00  0.00     0.109 C 
ATOM     16  O   LIG d   1      -0.789  74.180 117.880  0.00  0.00    -0.276 OA
ATOM     17  H   LIG d   1      -1.900  77.115 118.252  0.00  0.00     0.149 HD
ENDBRANCH   6  13
BRANCH   5  18
ATOM     18  N   LIG d   1       0.396  76.023 115.525  0.00  0.00     0.381 N 
ATOM     19  H   LIG d   1       0.701  75.974 116.477  0.00  0.00    -0.090 HD
ATOM     20  H   LIG d   1       1.113  76.478 114.988  0.00  0.00    -0.090 HD
ATOM     21  H   LIG d   1       0.237  75.106 115.172  0.00  0.00    -0.090 HD
ENDBRANCH   5  18
BRANCH   3  22
ATOM     22  C   LIG d   1      -2.747  78.095 112.565  0.00  0.00     0.382 C 
ATOM     23  O   LIG d   1      -2.542  77.486 111.487  0.00  0.00    -0.241 OA
ATOM     24  O   LIG d   1      -3.111  79.286 112.536  0.00  0.00    -0.241 OA
ENDBRANCH   3  22
TORSDOF 7
ENDMDL
MODEL 7
REMARK VINA RESULT:      -4.6      3.047      4.399
REMARK  7 active torsions:
REMARK  status: ('A' for Active; 'I' for Inactive)
REMARK    1  A    between atoms: C_2  and  C_3 
REMARK    2  A    between atoms: C_3  and  O_6 
REMARK    3  A    between atoms: C_3  and  C_4 
REMARK    4  A    between atoms: C_7  and  O_6 
REMARK    5  A    between atoms: C_9  and  C_10 
REMARK    6  A    between atoms: N_15  and  C_14 
REMARK    7  A    between atoms: N_20  and  C_19 
REMARK       I    between atoms: C_22  and  N_20 
ROOT
ATOM      1  C   LIG d   1      -3.175  78.319 116.481  0.00  0.00     0.161 C 
ATOM      2  C   LIG d   1      -2.278  79.362 116.764  0.00  0.00     0.016 C 
ATOM      3  C   LIG d   1      -1.074  79.567 116.051  0.00  0.00     0.038 C 
ATOM      4  C   LIG d   1      -0.757  78.827 114.902  0.00  0.00     0.028 C 
ATOM      5  C   LIG d   1      -1.387  77.438 114.883  0.00  0.00    -0.047 C 
ATOM      6  C   LIG d   1      -2.902  77.570 115.160  0.00  0.00     0.091 C 
ENDROOT
BRANCH   1   7
ATOM      7  O   LIG d   1      -4.527  78.818 116.504  0.00  0.00    -0.368 OA
BRANCH   7   8
ATOM      8  C   LIG d   1      -5.363  78.348 117.590  0.00  0.00     0.119 C 
BRANCH   8   9
ATOM      9  C   LIG d   1      -6.561  77.608 116.966  0.00  0.00     0.028 C 
ATOM     10  C   LIG d   1      -7.880  77.901 117.703  0.00  0.00     0.006 C 
ENDBRANCH   8   9
BRANCH   8  11
ATOM     11  C   LIG d   1      -5.970  79.517 118.372  0.00  0.00     0.028 C 
ATOM     12  C   LIG d   1      -5.543  80.887 117.821  0.00  0.00     0.006 C 
ENDBRANCH   8  11
ENDBRANCH   7   8
ENDBRANCH   1   7
BRANCH   6  13
ATOM     13  N   LIG d   1      -3.580  76.250 115.243  0.00  0.00    -0.311 N 
ATOM     14  C   LIG d   1      -4.649  75.928 114.516  0.00  0.00     0.210 C 
ATOM     15  C   LIG d   1      -5.204  74.523 114.770  0.00  0.00     0.109 C 
ATOM     16  O   LIG d   1      -5.171  76.661 113.663  0.00  0.00    -0.276 OA
ATOM     17  H   LIG d   1      -3.203  75.583 115.887  0.00  0.00     0.149 HD
ENDBRANCH   6  13
BRANCH   5  18
ATOM     18  N   LIG d   1      -1.089  76.832 113.572  0.00  0.00     0.381 N 
ATOM     19  H   LIG d   1      -1.465  77.404 112.841  0.00  0.00    -0.090 HD
ATOM     20  H   LIG d   1      -1.528  75.930 113.523  0.00  0.00    -0.090 HD
ATOM     21  H   LIG d   1      -0.104  76.738 113.455  0.00  0.00    -0.090 HD
ENDBRANCH   5  18
BRANCH   3  22
ATOM     22  C   LIG d   1      -0.152  80.495 116.512  0.00  0.00     0.382 C 
ATOM     23  O   LIG d   1      -0.370  81.118 117.579  0.00  0.00    -0.241 OA
ATOM     24  O   LIG d   1       0.872  80.749 115.851  0.00  0.00    -0.241 OA
ENDBRANCH   3  22
TORSDOF 7
ENDMDL
MODEL 8
REMARK VINA RESULT:      -4.5      3.389      6.087
REMARK  7 active torsions:
REMARK  status: ('A' for Active; 'I' for Inactive)
REMARK    1  A    between atoms: C_2  and  C_3 
REMARK    2  A    between atoms: C_3  and  O_6 
REMARK    3  A    between atoms: C_3  and  C_4 
REMARK    4  A    between atoms: C_7  and  O_6 
REMARK    5  A    between atoms: C_9  and  C_10 
REMARK    6  A    between atoms: N_15  and  C_14 
REMARK    7  A    between atoms: N_20  and  C_19 
REMARK       I    between atoms: C_22  and  N_20 
ROOT
ATOM      1  C   LIG d   1      -4.032  78.331 116.405  0.00  0.00     0.161 C 
ATOM      2  C   LIG d   1      -4.110  77.117 115.702  0.00  0.00     0.016 C 
ATOM      3  C   LIG d   1      -5.269  76.308 115.673  0.00  0.00     0.038 C 
ATOM      4  C   LIG d   1      -6.486  76.736 116.225  0.00  0.00     0.028 C 
ATOM      5  C   LIG d   1      -6.316  77.722 117.376  0.00  0.00    -0.047 C 
ATOM      6  C   LIG d   1      -5.384  78.868 116.920  0.00  0.00     0.091 C 
ENDROOT
BRANCH   1   7
ATOM      7  O   LIG d   1      -3.376  79.325 115.592  0.00  0.00    -0.368 OA
BRANCH   7   8
ATOM      8  C   LIG d   1      -2.249  78.863 114.807  0.00  0.00     0.119 C 
BRANCH   8   9
ATOM      9  C   LIG d   1      -0.991  79.577 115.338  0.00  0.00     0.028 C 
ATOM     10  C   LIG d   1      -0.211  78.719 116.348  0.00  0.00     0.006 C 
ENDBRANCH   8   9
BRANCH   8  11
ATOM     11  C   LIG d   1      -2.375  79.296 113.344  0.00  0.00     0.028 C 
ATOM     12  C   LIG d   1      -2.441  80.823 113.178  0.00  0.00     0.006 C 
ENDBRANCH   8  11
ENDBRANCH   7   8
ENDBRANCH   1   7
BRANCH   6  13
ATOM     13  N   LIG d   1      -5.097  79.834 118.013  0.00  0.00    -0.311 N 
ATOM     14  C   LIG d   1      -5.721  81.003 118.141  0.00  0.00     0.210 C 
ATOM     15  C   LIG d   1      -5.260  81.856 119.327  0.00  0.00     0.109 C 
ATOM     16  O   LIG d   1      -6.636  81.401 117.404  0.00  0.00    -0.276 OA
ATOM     17  H   LIG d   1      -4.391  79.577 118.675  0.00  0.00     0.149 HD
ENDBRANCH   6  13
BRANCH   5  18
ATOM     18  N   LIG d   1      -7.660  78.190 117.764  0.00  0.00     0.381 N 
ATOM     19  H   LIG d   1      -8.339  77.489 117.543  0.00  0.00    -0.090 HD
ATOM     20  H   LIG d   1      -7.880  79.018 117.240  0.00  0.00    -0.090 HD
ATOM     21  H   LIG d   1      -7.683  78.389 118.740  0.00  0.00    -0.090 HD
ENDBRANCH   5  18
BRANCH   3  22
ATOM     22  C   LIG d   1      -5.207  75.038 115.122  0.00  0.00     0.382 C 
ATOM     23  O   LIG d   1      -6.184  74.258 115.231  0.00  0.00    -0.241 OA
ATOM     24  O   LIG d   1      -4.169  74.645 114.554  0.00  0.00    -0.241 OA
ENDBRANCH   3  22
TORSDOF 7
ENDMDL
MODEL 9
REMARK VINA RESULT:      -4.4      2.428      4.987
REMARK  7 active torsions:
REMARK  status: ('A' for Active; 'I' for Inactive)
REMARK    1  A    between atoms: C_2  and  C_3 
REMARK    2  A    between atoms: C_3  and  O_6 
REMARK    3  A    between atoms: C_3  and  C_4 
REMARK    4  A    between atoms: C_7  and  O_6 
REMARK    5  A    between atoms: C_9  and  C_10 
REMARK    6  A    between atoms: N_15  and  C_14 
REMARK    7  A    between atoms: N_20  and  C_19 
REMARK       I    between atoms: C_22  and  N_20 
ROOT
ATOM      1  C   LIG d   1      -2.527  77.662 114.504  0.00  0.00     0.161 C 
ATOM      2  C   LIG d   1      -2.628  77.499 113.112  0.00  0.00     0.016 C 
ATOM      3  C   LIG d   1      -1.913  78.289 112.182  0.00  0.00     0.038 C 
ATOM      4  C   LIG d   1      -0.927  79.201 112.587  0.00  0.00     0.028 C 
ATOM      5  C   LIG d   1      -1.155  79.756 113.990  0.00  0.00    -0.047 C 
ATOM      6  C   LIG d   1      -1.373  78.577 114.966  0.00  0.00     0.091 C 
ENDROOT
BRANCH   1   7
ATOM      7  O   LIG d   1      -2.430  76.373 115.141  0.00  0.00    -0.368 OA
BRANCH   7   8
ATOM      8  C   LIG d   1      -3.574  75.965 115.931  0.00  0.00     0.119 C 
BRANCH   8   9
ATOM      9  C   LIG d   1      -4.240  74.781 115.205  0.00  0.00     0.028 C 
ATOM     10  C   LIG d   1      -5.723  75.043 114.892  0.00  0.00     0.006 C 
ENDBRANCH   8   9
BRANCH   8  11
ATOM     11  C   LIG d   1      -4.640  77.064 115.977  0.00  0.00     0.028 C 
ATOM     12  C   LIG d   1      -4.858  77.623 117.392  0.00  0.00     0.006 C 
ENDBRANCH   8  11
ENDBRANCH   7   8
ENDBRANCH   1   7
BRANCH   6  13
ATOM     13  N   LIG d   1      -1.687  79.034 116.345  0.00  0.00    -0.311 N 
ATOM     14  C   LIG d   1      -0.765  79.184 117.294  0.00  0.00     0.210 C 
ATOM     15  C   LIG d   1      -1.304  79.646 118.652  0.00  0.00     0.109 C 
ATOM     16  O   LIG d   1       0.452  79.010 117.133  0.00  0.00    -0.276 OA
ATOM     17  H   LIG d   1      -2.646  79.228 116.554  0.00  0.00     0.149 HD
ENDBRANCH   6  13
BRANCH   5  18
ATOM     18  N   LIG d   1       0.015  80.584 114.336  0.00  0.00     0.381 N 
ATOM     19  H   LIG d   1       0.818  80.265 113.832  0.00  0.00    -0.090 HD
ATOM     20  H   LIG d   1       0.202  80.488 115.319  0.00  0.00    -0.090 HD
ATOM     21  H   LIG d   1      -0.166  81.539 114.117  0.00  0.00    -0.090 HD
ENDBRANCH   5  18
BRANCH   3  22
ATOM     22  C   LIG d   1      -2.211  78.198 110.831  0.00  0.00     0.382 C 
ATOM     23  O   LIG d   1      -1.411  78.658 109.980  0.00  0.00    -0.241 OA
ATOM     24  O   LIG d   1      -3.289  77.701 110.454  0.00  0.00    -0.241 OA
ENDBRANCH   3  22
TORSDOF 7
ENDMDL
