MODEL 1
REMARK VINA RESULT:      -4.6      0.000      0.000
REMARK  7 active torsions:
REMARK  status: ('A' for Active; 'I' for Inactive)
REMARK    1  A    between atoms: C_2  and  C_3 
REMARK    2  A    between atoms: C_3  and  O_6 
REMARK    3  A    between atoms: C_3  and  C_4 
REMARK    4  A    between atoms: C_7  and  O_6 
REMARK    5  A    between atoms: C_9  and  C_10 
REMARK    6  A    between atoms: N_15  and  C_14 
REMARK    7  A    between atoms: N_20  and  C_19 
REMARK       I    between atoms: C_22  and  N_20 
ROOT
ATOM      1  C   LIG d   1      -2.989  79.084 115.863  0.00  0.00     0.161 C 
ATOM      2  C   LIG d   1      -3.009  79.952 114.759  0.00  0.00     0.016 C 
ATOM      3  C   LIG d   1      -2.314  79.696 113.555  0.00  0.00     0.038 C 
ATOM      4  C   LIG d   1      -1.671  78.473 113.316  0.00  0.00     0.028 C 
ATOM      5  C   LIG d   1      -1.201  77.777 114.589  0.00  0.00    -0.047 C 
ATOM      6  C   LIG d   1      -2.384  77.693 115.580  0.00  0.00     0.091 C 
ENDROOT
BRANCH   1   7
ATOM      7  O   LIG d   1      -4.319  78.951 116.404  0.00  0.00    -0.368 OA
BRANCH   7   8
ATOM      8  C   LIG d   1      -4.725  79.968 117.352  0.00  0.00     0.119 C 
BRANCH   8   9
ATOM      9  C   LIG d   1      -3.992  79.685 118.677  0.00  0.00     0.028 C 
ATOM     10  C   LIG d   1      -4.583  78.481 119.431  0.00  0.00     0.006 C 
ENDBRANCH   8   9
BRANCH   8  11
ATOM     11  C   LIG d   1      -6.217  79.857 117.683  0.00  0.00     0.028 C 
ATOM     12  C   LIG d   1      -6.903  81.226 117.809  0.00  0.00     0.006 C 
ENDBRANCH   8  11
ENDBRANCH   7   8
ENDBRANCH   1   7
BRANCH   6  13
ATOM     13  N   LIG d   1      -1.989  77.101 116.885  0.00  0.00    -0.311 N 
ATOM     14  C   LIG d   1      -2.536  75.993 117.383  0.00  0.00     0.210 C 
ATOM     15  C   LIG d   1      -1.997  75.566 118.752  0.00  0.00     0.109 C 
ATOM     16  O   LIG d   1      -3.392  75.306 116.807  0.00  0.00    -0.276 OA
ATOM     17  H   LIG d   1      -1.278  77.577 117.405  0.00  0.00     0.149 HD
ENDBRANCH   6  13
BRANCH   5  18
ATOM     18  N   LIG d   1      -0.673  76.454 114.205  0.00  0.00     0.381 N 
ATOM     19  H   LIG d   1      -1.324  75.991 113.602  0.00  0.00    -0.090 HD
ATOM     20  H   LIG d   1      -0.559  75.896 115.033  0.00  0.00    -0.090 HD
ATOM     21  H   LIG d   1       0.203  76.558 113.742  0.00  0.00    -0.090 HD
ENDBRANCH   5  18
BRANCH   3  22
ATOM     22  C   LIG d   1      -2.225  80.687 112.589  0.00  0.00     0.382 C 
ATOM     23  O   LIG d   1      -1.431  80.555 111.627  0.00  0.00    -0.241 OA
ATOM     24  O   LIG d   1      -2.897  81.731 112.690  0.00  0.00    -0.241 OA
ENDBRANCH   3  22
TORSDOF 7
ENDMDL
MODEL 2
REMARK VINA RESULT:      -4.6      2.795      3.409
REMARK  7 active torsions:
REMARK  status: ('A' for Active; 'I' for Inactive)
REMARK    1  A    between atoms: C_2  and  C_3 
REMARK    2  A    between atoms: C_3  and  O_6 
REMARK    3  A    between atoms: C_3  and  C_4 
REMARK    4  A    between atoms: C_7  and  O_6 
REMARK    5  A    between atoms: C_9  and  C_10 
REMARK    6  A    between atoms: N_15  and  C_14 
REMARK    7  A    between atoms: N_20  and  C_19 
REMARK       I    between atoms: C_22  and  N_20 
ROOT
ATOM      1  C   LIG d   1      -2.917  77.044 114.859  0.00  0.00     0.161 C 
ATOM      2  C   LIG d   1      -3.055  77.999 113.837  0.00  0.00     0.016 C 
ATOM      3  C   LIG d   1      -2.141  79.058 113.634  0.00  0.00     0.038 C 
ATOM      4  C   LIG d   1      -0.937  79.147 114.350  0.00  0.00     0.028 C 
ATOM      5  C   LIG d   1      -1.003  78.497 115.728  0.00  0.00    -0.047 C 
ATOM      6  C   LIG d   1      -1.553  77.060 115.579  0.00  0.00     0.091 C 
ENDROOT
BRANCH   1   7
ATOM      7  O   LIG d   1      -3.194  75.729 114.339  0.00  0.00    -0.368 OA
BRANCH   7   8
ATOM      8  C   LIG d   1      -4.442  75.126 114.762  0.00  0.00     0.119 C 
BRANCH   8   9
ATOM      9  C   LIG d   1      -5.437  75.252 113.592  0.00  0.00     0.028 C 
ATOM     10  C   LIG d   1      -6.684  76.071 113.967  0.00  0.00     0.006 C 
ENDBRANCH   8   9
BRANCH   8  11
ATOM     11  C   LIG d   1      -5.075  75.907 115.918  0.00  0.00     0.028 C 
ATOM     12  C   LIG d   1      -5.223  75.066 117.195  0.00  0.00     0.006 C 
ENDBRANCH   8  11
ENDBRANCH   7   8
ENDBRANCH   1   7
BRANCH   6  13
ATOM     13  N   LIG d   1      -1.728  76.381 116.890  0.00  0.00    -0.311 N 
ATOM     14  C   LIG d   1      -1.468  75.090 117.088  0.00  0.00     0.210 C 
ATOM     15  C   LIG d   1      -1.736  74.587 118.509  0.00  0.00     0.109 C 
ATOM     16  O   LIG d   1      -1.011  74.321 116.229  0.00  0.00    -0.276 OA
ATOM     17  H   LIG d   1      -2.066  76.938 117.650  0.00  0.00     0.149 HD
ENDBRANCH   6  13
BRANCH   5  18
ATOM     18  N   LIG d   1       0.354  78.540 116.306  0.00  0.00     0.381 N 
ATOM     19  H   LIG d   1       0.999  78.086 115.690  0.00  0.00    -0.090 HD
ATOM     20  H   LIG d   1       0.350  78.045 117.180  0.00  0.00    -0.090 HD
ATOM     21  H   LIG d   1       0.632  79.485 116.452  0.00  0.00    -0.090 HD
ENDBRANCH   5  18
BRANCH   3  22
ATOM     22  C   LIG d   1      -2.446  80.066 112.732  0.00  0.00     0.382 C 
ATOM     23  O   LIG d   1      -1.882  80.098 111.612  0.00  0.00    -0.241 OA
ATOM     24  O   LIG d   1      -3.247  80.969 113.042  0.00  0.00    -0.241 OA
ENDBRANCH   3  22
TORSDOF 7
ENDMDL
MODEL 3
REMARK VINA RESULT:      -4.5      2.623      3.337
REMARK  7 active torsions:
REMARK  status: ('A' for Active; 'I' for Inactive)
REMARK    1  A    between atoms: C_2  and  C_3 
REMARK    2  A    between atoms: C_3  and  O_6 
REMARK    3  A    between atoms: C_3  and  C_4 
REMARK    4  A    between atoms: C_7  and  O_6 
REMARK    5  A    between atoms: C_9  and  C_10 
REMARK    6  A    between atoms: N_15  and  C_14 
REMARK    7  A    between atoms: N_20  and  C_19 
REMARK       I    between atoms: C_22  and  N_20 
ROOT
ATOM      1  C   LIG d   1      -3.451  78.507 116.656  0.00  0.00     0.161 C 
ATOM      2  C   LIG d   1      -2.538  79.455 117.148  0.00  0.00     0.016 C 
ATOM      3  C   LIG d   1      -1.265  79.679 116.575  0.00  0.00     0.038 C 
ATOM      4  C   LIG d   1      -0.876  79.072 115.371  0.00  0.00     0.028 C 
ATOM      5  C   LIG d   1      -1.563  77.734 115.118  0.00  0.00    -0.047 C 
ATOM      6  C   LIG d   1      -3.090  77.916 115.277  0.00  0.00     0.091 C 
ENDROOT
BRANCH   1   7
ATOM      7  O   LIG d   1      -4.776  79.075 116.625  0.00  0.00    -0.368 OA
BRANCH   7   8
ATOM      8  C   LIG d   1      -5.559  78.933 117.836  0.00  0.00     0.119 C 
BRANCH   8   9
ATOM      9  C   LIG d   1      -5.923  77.442 117.978  0.00  0.00     0.028 C 
ATOM     10  C   LIG d   1      -6.960  76.989 116.936  0.00  0.00     0.006 C 
ENDBRANCH   8   9
BRANCH   8  11
ATOM     11  C   LIG d   1      -6.897  79.668 117.724  0.00  0.00     0.028 C 
ATOM     12  C   LIG d   1      -6.739  81.197 117.737  0.00  0.00     0.006 C 
ENDBRANCH   8  11
ENDBRANCH   7   8
ENDBRANCH   1   7
BRANCH   6  13
ATOM     13  N   LIG d   1      -3.831  76.636 115.129  0.00  0.00    -0.311 N 
ATOM     14  C   LIG d   1      -4.350  76.219 113.975  0.00  0.00     0.210 C 
ATOM     15  C   LIG d   1      -5.092  74.881 114.047  0.00  0.00     0.109 C 
ATOM     16  O   LIG d   1      -4.239  76.815 112.893  0.00  0.00    -0.276 OA
ATOM     17  H   LIG d   1      -3.941  76.075 115.951  0.00  0.00     0.149 HD
ENDBRANCH   6  13
BRANCH   5  18
ATOM     18  N   LIG d   1      -1.172  77.281 113.770  0.00  0.00     0.381 N 
ATOM     19  H   LIG d   1      -0.599  77.975 113.332  0.00  0.00    -0.090 HD
ATOM     20  H   LIG d   1      -2.001  77.161 113.214  0.00  0.00    -0.090 HD
ATOM     21  H   LIG d   1      -0.676  76.419 113.830  0.00  0.00    -0.090 HD
ENDBRANCH   5  18
BRANCH   3  22
ATOM     22  C   LIG d   1      -0.349  80.488 117.230  0.00  0.00     0.382 C 
ATOM     23  O   LIG d   1      -0.249  80.437 118.480  0.00  0.00    -0.241 OA
ATOM     24  O   LIG d   1       0.346  81.301 116.591  0.00  0.00    -0.241 OA
ENDBRANCH   3  22
TORSDOF 7
ENDMDL
MODEL 4
REMARK VINA RESULT:      -4.2      3.087      5.211
REMARK  7 active torsions:
REMARK  status: ('A' for Active; 'I' for Inactive)
REMARK    1  A    between atoms: C_2  and  C_3 
REMARK    2  A    between atoms: C_3  and  O_6 
REMARK    3  A    between atoms: C_3  and  C_4 
REMARK    4  A    between atoms: C_7  and  O_6 
REMARK    5  A    between atoms: C_9  and  C_10 
REMARK    6  A    between atoms: N_15  and  C_14 
REMARK    7  A    between atoms: N_20  and  C_19 
REMARK       I    between atoms: C_22  and  N_20 
ROOT
ATOM      1  C   LIG d   1      -5.433  77.215 116.967  0.00  0.00     0.161 C 
ATOM      2  C   LIG d   1      -6.382  78.208 117.263  0.00  0.00     0.016 C 
ATOM      3  C   LIG d   1      -6.048  79.565 117.474  0.00  0.00     0.038 C 
ATOM      4  C   LIG d   1      -4.752  80.053 117.255  0.00  0.00     0.028 C 
ATOM      5  C   LIG d   1      -3.667  78.999 117.448  0.00  0.00    -0.047 C 
ATOM      6  C   LIG d   1      -4.028  77.748 116.614  0.00  0.00     0.091 C 
ENDROOT
BRANCH   1   7
ATOM      7  O   LIG d   1      -5.926  76.366 115.913  0.00  0.00    -0.368 OA
BRANCH   7   8
ATOM      8  C   LIG d   1      -6.054  74.959 116.234  0.00  0.00     0.119 C 
BRANCH   8   9
ATOM      9  C   LIG d   1      -6.093  74.181 114.904  0.00  0.00     0.028 C 
ATOM     10  C   LIG d   1      -5.403  74.942 113.759  0.00  0.00     0.006 C 
ENDBRANCH   8   9
BRANCH   8  11
ATOM     11  C   LIG d   1      -7.392  74.662 116.917  0.00  0.00     0.028 C 
ATOM     12  C   LIG d   1      -7.227  74.182 118.368  0.00  0.00     0.006 C 
ENDBRANCH   8  11
ENDBRANCH   7   8
ENDBRANCH   1   7
BRANCH   6  13
ATOM     13  N   LIG d   1      -3.062  76.636 116.812  0.00  0.00    -0.311 N 
ATOM     14  C   LIG d   1      -2.374  76.078 115.818  0.00  0.00     0.210 C 
ATOM     15  C   LIG d   1      -1.447  74.933 116.237  0.00  0.00     0.109 C 
ATOM     16  O   LIG d   1      -2.418  76.444 114.634  0.00  0.00    -0.276 OA
ATOM     17  H   LIG d   1      -2.941  76.298 117.747  0.00  0.00     0.149 HD
ENDBRANCH   6  13
BRANCH   5  18
ATOM     18  N   LIG d   1      -2.381  79.604 117.054  0.00  0.00     0.381 N 
ATOM     19  H   LIG d   1      -2.336  79.685 116.058  0.00  0.00    -0.090 HD
ATOM     20  H   LIG d   1      -1.633  79.005 117.356  0.00  0.00    -0.090 HD
ATOM     21  H   LIG d   1      -2.285  80.504 117.472  0.00  0.00    -0.090 HD
ENDBRANCH   5  18
BRANCH   3  22
ATOM     22  C   LIG d   1      -7.011  80.443 117.950  0.00  0.00     0.382 C 
ATOM     23  O   LIG d   1      -7.520  80.262 119.082  0.00  0.00    -0.241 OA
ATOM     24  O   LIG d   1      -7.408  81.389 117.243  0.00  0.00    -0.241 OA
ENDBRANCH   3  22
TORSDOF 7
ENDMDL
MODEL 5
REMARK VINA RESULT:      -4.2      2.964      4.886
REMARK  7 active torsions:
REMARK  status: ('A' for Active; 'I' for Inactive)
REMARK    1  A    between atoms: C_2  and  C_3 
REMARK    2  A    between atoms: C_3  and  O_6 
REMARK    3  A    between atoms: C_3  and  C_4 
REMARK    4  A    between atoms: C_7  and  O_6 
REMARK    5  A    between atoms: C_9  and  C_10 
REMARK    6  A    between atoms: N_15  and  C_14 
REMARK    7  A    between atoms: N_20  and  C_19 
REMARK       I    between atoms: C_22  and  N_20 
ROOT
ATOM      1  C   LIG d   1      -4.154  76.747 116.909  0.00  0.00     0.161 C 
ATOM      2  C   LIG d   1      -5.133  77.603 117.441  0.00  0.00     0.016 C 
ATOM      3  C   LIG d   1      -5.074  79.012 117.338  0.00  0.00     0.038 C 
ATOM      4  C   LIG d   1      -4.103  79.658 116.560  0.00  0.00     0.028 C 
ATOM      5  C   LIG d   1      -2.808  78.864 116.424  0.00  0.00    -0.047 C 
ATOM      6  C   LIG d   1      -3.146  77.428 115.961  0.00  0.00     0.091 C 
ENDROOT
BRANCH   1   7
ATOM      7  O   LIG d   1      -4.786  75.631 116.251  0.00  0.00    -0.368 OA
BRANCH   7   8
ATOM      8  C   LIG d   1      -6.205  75.766 115.990  0.00  0.00     0.119 C 
BRANCH   8   9
ATOM      9  C   LIG d   1      -6.889  74.474 116.478  0.00  0.00     0.028 C 
ATOM     10  C   LIG d   1      -7.950  74.744 117.558  0.00  0.00     0.006 C 
ENDBRANCH   8   9
BRANCH   8  11
ATOM     11  C   LIG d   1      -6.491  75.833 114.487  0.00  0.00     0.028 C 
ATOM     12  C   LIG d   1      -5.301  75.369 113.632  0.00  0.00     0.006 C 
ENDBRANCH   8  11
ENDBRANCH   7   8
ENDBRANCH   1   7
BRANCH   6  13
ATOM     13  N   LIG d   1      -1.942  76.560 115.884  0.00  0.00    -0.311 N 
ATOM     14  C   LIG d   1      -1.269  76.337 114.757  0.00  0.00     0.210 C 
ATOM     15  C   LIG d   1      -0.071  75.393 114.895  0.00  0.00     0.109 C 
ATOM     16  O   LIG d   1      -1.533  76.856 113.662  0.00  0.00    -0.276 OA
ATOM     17  H   LIG d   1      -1.640  76.123 116.733  0.00  0.00     0.149 HD
ENDBRANCH   6  13
BRANCH   5  18
ATOM     18  N   LIG d   1      -1.938  79.587 115.478  0.00  0.00     0.381 N 
ATOM     19  H   LIG d   1      -1.436  78.933 114.911  0.00  0.00    -0.090 HD
ATOM     20  H   LIG d   1      -1.271  80.130 115.999  0.00  0.00    -0.090 HD
ATOM     21  H   LIG d   1      -2.486  80.187 114.901  0.00  0.00    -0.090 HD
ENDBRANCH   5  18
BRANCH   3  22
ATOM     22  C   LIG d   1      -5.971  79.791 118.052  0.00  0.00     0.382 C 
ATOM     23  O   LIG d   1      -6.920  80.358 117.458  0.00  0.00    -0.241 OA
ATOM     24  O   LIG d   1      -5.819  79.970 119.276  0.00  0.00    -0.241 OA
ENDBRANCH   3  22
TORSDOF 7
ENDMDL
MODEL 6
REMARK VINA RESULT:      -4.2      2.674      3.595
REMARK  7 active torsions:
REMARK  status: ('A' for Active; 'I' for Inactive)
REMARK    1  A    between atoms: C_2  and  C_3 
REMARK    2  A    between atoms: C_3  and  O_6 
REMARK    3  A    between atoms: C_3  and  C_4 
REMARK    4  A    between atoms: C_7  and  O_6 
REMARK    5  A    between atoms: C_9  and  C_10 
REMARK    6  A    between atoms: N_15  and  C_14 
REMARK    7  A    between atoms: N_20  and  C_19 
REMARK       I    between atoms: C_22  and  N_20 
ROOT
ATOM      1  C   LIG d   1      -3.675  78.465 116.675  0.00  0.00     0.161 C 
ATOM      2  C   LIG d   1      -2.794  79.417 117.217  0.00  0.00     0.016 C 
ATOM      3  C   LIG d   1      -1.481  79.625 116.735  0.00  0.00     0.038 C 
ATOM      4  C   LIG d   1      -1.009  78.996 115.574  0.00  0.00     0.028 C 
ATOM      5  C   LIG d   1      -1.682  77.657 115.293  0.00  0.00    -0.047 C 
ATOM      6  C   LIG d   1      -3.216  77.848 115.337  0.00  0.00     0.091 C 
ENDROOT
BRANCH   1   7
ATOM      7  O   LIG d   1      -4.990  79.038 116.537  0.00  0.00    -0.368 OA
BRANCH   7   8
ATOM      8  C   LIG d   1      -6.024  78.469 117.377  0.00  0.00     0.119 C 
BRANCH   8   9
ATOM      9  C   LIG d   1      -6.365  79.510 118.461  0.00  0.00     0.028 C 
ATOM     10  C   LIG d   1      -6.686  80.892 117.868  0.00  0.00     0.006 C 
ENDBRANCH   8   9
BRANCH   8  11
ATOM     11  C   LIG d   1      -5.512  77.243 118.138  0.00  0.00     0.028 C 
ATOM     12  C   LIG d   1      -6.286  75.961 117.792  0.00  0.00     0.006 C 
ENDBRANCH   8  11
ENDBRANCH   7   8
ENDBRANCH   1   7
BRANCH   6  13
ATOM     13  N   LIG d   1      -3.951  76.569 115.156  0.00  0.00    -0.311 N 
ATOM     14  C   LIG d   1      -4.422  76.154 113.981  0.00  0.00     0.210 C 
ATOM     15  C   LIG d   1      -5.168  74.817 114.019  0.00  0.00     0.109 C 
ATOM     16  O   LIG d   1      -4.265  76.751 112.905  0.00  0.00    -0.276 OA
ATOM     17  H   LIG d   1      -4.097  76.007 115.972  0.00  0.00     0.149 HD
ENDBRANCH   6  13
BRANCH   5  18
ATOM     18  N   LIG d   1      -1.196  77.179 113.985  0.00  0.00     0.381 N 
ATOM     19  H   LIG d   1      -0.567  76.412 114.117  0.00  0.00    -0.090 HD
ATOM     20  H   LIG d   1      -0.695  77.923 113.533  0.00  0.00    -0.090 HD
ATOM     21  H   LIG d   1      -1.965  76.894 113.419  0.00  0.00    -0.090 HD
ENDBRANCH   5  18
BRANCH   3  22
ATOM     22  C   LIG d   1      -0.612  80.442 117.443  0.00  0.00     0.382 C 
ATOM     23  O   LIG d   1       0.086  81.288 116.835  0.00  0.00    -0.241 OA
ATOM     24  O   LIG d   1      -0.485  80.312 118.675  0.00  0.00    -0.241 OA
ENDBRANCH   3  22
TORSDOF 7
ENDMDL
MODEL 7
REMARK VINA RESULT:      -4.1      2.774      5.661
REMARK  7 active torsions:
REMARK  status: ('A' for Active; 'I' for Inactive)
REMARK    1  A    between atoms: C_2  and  C_3 
REMARK    2  A    between atoms: C_3  and  O_6 
REMARK    3  A    between atoms: C_3  and  C_4 
REMARK    4  A    between atoms: C_7  and  O_6 
REMARK    5  A    between atoms: C_9  and  C_10 
REMARK    6  A    between atoms: N_15  and  C_14 
REMARK    7  A    between atoms: N_20  and  C_19 
REMARK       I    between atoms: C_22  and  N_20 
ROOT
ATOM      1  C   LIG d   1      -1.167  76.335 115.268  0.00  0.00     0.161 C 
ATOM      2  C   LIG d   1      -0.710  75.742 116.456  0.00  0.00     0.016 C 
ATOM      3  C   LIG d   1      -0.327  76.483 117.598  0.00  0.00     0.038 C 
ATOM      4  C   LIG d   1      -0.520  77.870 117.681  0.00  0.00     0.028 C 
ATOM      5  C   LIG d   1      -0.505  78.566 116.324  0.00  0.00    -0.047 C 
ATOM      6  C   LIG d   1      -1.488  77.840 115.378  0.00  0.00     0.091 C 
ENDROOT
BRANCH   1   7
ATOM      7  O   LIG d   1      -2.310  75.614 114.770  0.00  0.00    -0.368 OA
BRANCH   7   8
ATOM      8  C   LIG d   1      -3.608  76.129 115.157  0.00  0.00     0.119 C 
BRANCH   8   9
ATOM      9  C   LIG d   1      -4.127  75.255 116.314  0.00  0.00     0.028 C 
ATOM     10  C   LIG d   1      -4.189  76.021 117.647  0.00  0.00     0.006 C 
ENDBRANCH   8   9
BRANCH   8  11
ATOM     11  C   LIG d   1      -4.633  75.962 114.031  0.00  0.00     0.028 C 
ATOM     12  C   LIG d   1      -5.722  74.931 114.365  0.00  0.00     0.006 C 
ENDBRANCH   8  11
ENDBRANCH   7   8
ENDBRANCH   1   7
BRANCH   6  13
ATOM     13  N   LIG d   1      -1.473  78.405 114.003  0.00  0.00    -0.311 N 
ATOM     14  C   LIG d   1      -2.294  79.373 113.599  0.00  0.00     0.210 C 
ATOM     15  C   LIG d   1      -2.125  79.796 112.137  0.00  0.00     0.109 C 
ATOM     16  O   LIG d   1      -3.125  79.943 114.322  0.00  0.00    -0.276 OA
ATOM     17  H   LIG d   1      -0.809  78.022 113.360  0.00  0.00     0.149 HD
ENDBRANCH   6  13
BRANCH   5  18
ATOM     18  N   LIG d   1      -0.854  79.982 116.546  0.00  0.00     0.381 N 
ATOM     19  H   LIG d   1      -0.617  80.247 117.481  0.00  0.00    -0.090 HD
ATOM     20  H   LIG d   1      -1.845  80.095 116.427  0.00  0.00    -0.090 HD
ATOM     21  H   LIG d   1      -0.366  80.559 115.896  0.00  0.00    -0.090 HD
ENDBRANCH   5  18
BRANCH   3  22
ATOM     22  C   LIG d   1       0.292  75.839 118.659  0.00  0.00     0.382 C 
ATOM     23  O   LIG d   1      -0.188  74.773 119.112  0.00  0.00    -0.241 OA
ATOM     24  O   LIG d   1       1.301  76.335 119.197  0.00  0.00    -0.241 OA
ENDBRANCH   3  22
TORSDOF 7
ENDMDL
MODEL 8
REMARK VINA RESULT:      -4.1      2.827      3.850
REMARK  7 active torsions:
REMARK  status: ('A' for Active; 'I' for Inactive)
REMARK    1  A    between atoms: C_2  and  C_3 
REMARK    2  A    between atoms: C_3  and  O_6 
REMARK    3  A    between atoms: C_3  and  C_4 
REMARK    4  A    between atoms: C_7  and  O_6 
REMARK    5  A    between atoms: C_9  and  C_10 
REMARK    6  A    between atoms: N_15  and  C_14 
REMARK    7  A    between atoms: N_20  and  C_19 
REMARK       I    between atoms: C_22  and  N_20 
ROOT
ATOM      1  C   LIG d   1      -2.128  78.156 116.423  0.00  0.00     0.161 C 
ATOM      2  C   LIG d   1      -3.247  77.542 115.834  0.00  0.00     0.016 C 
ATOM      3  C   LIG d   1      -3.173  76.344 115.087  0.00  0.00     0.038 C 
ATOM      4  C   LIG d   1      -1.991  75.593 115.004  0.00  0.00     0.028 C 
ATOM      5  C   LIG d   1      -0.728  76.433 115.158  0.00  0.00    -0.047 C 
ATOM      6  C   LIG d   1      -0.850  77.292 116.437  0.00  0.00     0.091 C 
ENDROOT
BRANCH   1   7
ATOM      7  O   LIG d   1      -2.455  78.589 117.758  0.00  0.00    -0.368 OA
BRANCH   7   8
ATOM      8  C   LIG d   1      -2.761  79.996 117.915  0.00  0.00     0.119 C 
BRANCH   8   9
ATOM      9  C   LIG d   1      -1.725  80.589 118.889  0.00  0.00     0.028 C 
ATOM     10  C   LIG d   1      -0.626  81.385 118.165  0.00  0.00     0.006 C 
ENDBRANCH   8   9
BRANCH   8  11
ATOM     11  C   LIG d   1      -4.119  80.200 118.593  0.00  0.00     0.028 C 
ATOM     12  C   LIG d   1      -5.297  80.089 117.613  0.00  0.00     0.006 C 
ENDBRANCH   8  11
ENDBRANCH   7   8
ENDBRANCH   1   7
BRANCH   6  13
ATOM     13  N   LIG d   1       0.308  78.206 116.618  0.00  0.00    -0.311 N 
ATOM     14  C   LIG d   1       1.361  77.914 117.380  0.00  0.00     0.210 C 
ATOM     15  C   LIG d   1       2.435  79.005 117.445  0.00  0.00     0.109 C 
ATOM     16  O   LIG d   1       1.522  76.842 117.983  0.00  0.00    -0.276 OA
ATOM     17  H   LIG d   1       0.275  79.085 116.140  0.00  0.00     0.149 HD
ENDBRANCH   6  13
BRANCH   5  18
ATOM     18  N   LIG d   1       0.421  75.508 115.190  0.00  0.00     0.381 N 
ATOM     19  H   LIG d   1       0.224  74.703 114.629  0.00  0.00    -0.090 HD
ATOM     20  H   LIG d   1       0.568  75.205 116.136  0.00  0.00    -0.090 HD
ATOM     21  H   LIG d   1       1.237  75.967 114.850  0.00  0.00    -0.090 HD
ENDBRANCH   5  18
BRANCH   3  22
ATOM     22  C   LIG d   1      -4.282  75.907 114.378  0.00  0.00     0.382 C 
ATOM     23  O   LIG d   1      -5.043  75.042 114.876  0.00  0.00    -0.241 OA
ATOM     24  O   LIG d   1      -4.507  76.334 113.230  0.00  0.00    -0.241 OA
ENDBRANCH   3  22
TORSDOF 7
ENDMDL
MODEL 9
REMARK VINA RESULT:      -4.1      2.580      3.316
REMARK  7 active torsions:
REMARK  status: ('A' for Active; 'I' for Inactive)
REMARK    1  A    between atoms: C_2  and  C_3 
REMARK    2  A    between atoms: C_3  and  O_6 
REMARK    3  A    between atoms: C_3  and  C_4 
REMARK    4  A    between atoms: C_7  and  O_6 
REMARK    5  A    between atoms: C_9  and  C_10 
REMARK    6  A    between atoms: N_15  and  C_14 
REMARK    7  A    between atoms: N_20  and  C_19 
REMARK       I    between atoms: C_22  and  N_20 
ROOT
ATOM      1  C   LIG d   1      -2.442  78.230 115.515  0.00  0.00     0.161 C 
ATOM      2  C   LIG d   1      -2.750  78.870 114.302  0.00  0.00     0.016 C 
ATOM      3  C   LIG d   1      -1.883  79.787 113.665  0.00  0.00     0.038 C 
ATOM      4  C   LIG d   1      -0.576  80.013 114.123  0.00  0.00     0.028 C 
ATOM      5  C   LIG d   1      -0.409  79.774 115.619  0.00  0.00    -0.047 C 
ATOM      6  C   LIG d   1      -0.976  78.380 115.971  0.00  0.00     0.091 C 
ENDROOT
BRANCH   1   7
ATOM      7  O   LIG d   1      -2.803  76.837 115.437  0.00  0.00    -0.368 OA
BRANCH   7   8
ATOM      8  C   LIG d   1      -4.221  76.542 115.483  0.00  0.00     0.119 C 
BRANCH   8   9
ATOM      9  C   LIG d   1      -4.561  76.126 116.927  0.00  0.00     0.028 C 
ATOM     10  C   LIG d   1      -4.709  74.603 117.080  0.00  0.00     0.006 C 
ENDBRANCH   8   9
BRANCH   8  11
ATOM     11  C   LIG d   1      -4.566  75.326 114.619  0.00  0.00     0.028 C 
ATOM     12  C   LIG d   1      -5.516  75.668 113.460  0.00  0.00     0.006 C 
ENDBRANCH   8  11
ENDBRANCH   7   8
ENDBRANCH   1   7
BRANCH   6  13
ATOM     13  N   LIG d   1      -0.929  78.100 117.430  0.00  0.00    -0.311 N 
ATOM     14  C   LIG d   1      -0.168  77.149 117.970  0.00  0.00     0.210 C 
ATOM     15  C   LIG d   1      -0.284  77.015 119.492  0.00  0.00     0.109 C 
ATOM     16  O   LIG d   1       0.615  76.425 117.337  0.00  0.00    -0.276 OA
ATOM     17  H   LIG d   1      -1.510  78.661 118.021  0.00  0.00     0.149 HD
ENDBRANCH   6  13
BRANCH   5  18
ATOM     18  N   LIG d   1       1.025  79.911 115.935  0.00  0.00     0.381 N 
ATOM     19  H   LIG d   1       1.396  80.722 115.482  0.00  0.00    -0.090 HD
ATOM     20  H   LIG d   1       1.513  79.105 115.587  0.00  0.00    -0.090 HD
ATOM     21  H   LIG d   1       1.152  79.986 116.921  0.00  0.00    -0.090 HD
ENDBRANCH   5  18
BRANCH   3  22
ATOM     22  C   LIG d   1      -2.336  80.519 112.578  0.00  0.00     0.382 C 
ATOM     23  O   LIG d   1      -3.366  81.227 112.685  0.00  0.00    -0.241 OA
ATOM     24  O   LIG d   1      -1.753  80.447 111.480  0.00  0.00    -0.241 OA
ENDBRANCH   3  22
TORSDOF 7
ENDMDL
