MODEL 1
REMARK VINA RESULT:      -5.0      0.000      0.000
REMARK  7 active torsions:
REMARK  status: ('A' for Active; 'I' for Inactive)
REMARK    1  A    between atoms: C_2  and  C_3 
REMARK    2  A    between atoms: C_3  and  O_6 
REMARK    3  A    between atoms: C_3  and  C_4 
REMARK    4  A    between atoms: C_7  and  O_6 
REMARK    5  A    between atoms: C_9  and  C_10 
REMARK    6  A    between atoms: N_15  and  C_14 
REMARK    7  A    between atoms: N_20  and  C_19 
REMARK       I    between atoms: C_22  and  N_20 
ROOT
ATOM      1  C   LIG d   1      -3.187  77.063 116.256  0.00  0.00     0.161 C 
ATOM      2  C   LIG d   1      -3.494  77.466 114.946  0.00  0.00     0.016 C 
ATOM      3  C   LIG d   1      -2.602  77.324 113.858  0.00  0.00     0.038 C 
ATOM      4  C   LIG d   1      -1.391  76.627 113.979  0.00  0.00     0.028 C 
ATOM      5  C   LIG d   1      -0.818  76.648 115.392  0.00  0.00    -0.047 C 
ATOM      6  C   LIG d   1      -1.915  76.199 116.385  0.00  0.00     0.091 C 
ENDROOT
BRANCH   1   7
ATOM      7  O   LIG d   1      -4.316  76.381 116.835  0.00  0.00    -0.368 OA
BRANCH   7   8
ATOM      8  C   LIG d   1      -5.380  76.019 115.920  0.00  0.00     0.119 C 
BRANCH   8   9
ATOM      9  C   LIG d   1      -6.718  76.281 116.639  0.00  0.00     0.028 C 
ATOM     10  C   LIG d   1      -7.415  74.981 117.075  0.00  0.00     0.006 C 
ENDBRANCH   8   9
BRANCH   8  11
ATOM     11  C   LIG d   1      -5.369  74.517 115.619  0.00  0.00     0.028 C 
ATOM     12  C   LIG d   1      -5.057  74.208 114.146  0.00  0.00     0.006 C 
ENDBRANCH   8  11
ENDBRANCH   7   8
ENDBRANCH   1   7
BRANCH   6  13
ATOM     13  N   LIG d   1      -1.463  76.272 117.799  0.00  0.00    -0.311 N 
ATOM     14  C   LIG d   1      -0.859  75.265 118.428  0.00  0.00     0.210 C 
ATOM     15  C   LIG d   1      -0.494  75.543 119.890  0.00  0.00     0.109 C 
ATOM     16  O   LIG d   1      -0.563  74.180 117.905  0.00  0.00    -0.276 OA
ATOM     17  H   LIG d   1      -1.636  77.127 118.289  0.00  0.00     0.149 HD
ENDBRANCH   6  13
BRANCH   5  18
ATOM     18  N   LIG d   1       0.368  75.770 115.405  0.00  0.00     0.381 N 
ATOM     19  H   LIG d   1       0.731  75.678 114.477  0.00  0.00    -0.090 HD
ATOM     20  H   LIG d   1       0.095  74.859 115.729  0.00  0.00    -0.090 HD
ATOM     21  H   LIG d   1       1.066  76.149 116.006  0.00  0.00    -0.090 HD
ENDBRANCH   5  18
BRANCH   3  22
ATOM     22  C   LIG d   1      -2.901  77.919 112.642  0.00  0.00     0.382 C 
ATOM     23  O   LIG d   1      -2.953  79.169 112.551  0.00  0.00    -0.241 OA
ATOM     24  O   LIG d   1      -3.163  77.221 111.644  0.00  0.00    -0.241 OA
ENDBRANCH   3  22
TORSDOF 7
ENDMDL
MODEL 2
REMARK VINA RESULT:      -5.0      3.401      4.793
REMARK  7 active torsions:
REMARK  status: ('A' for Active; 'I' for Inactive)
REMARK    1  A    between atoms: C_2  and  C_3 
REMARK    2  A    between atoms: C_3  and  O_6 
REMARK    3  A    between atoms: C_3  and  C_4 
REMARK    4  A    between atoms: C_7  and  O_6 
REMARK    5  A    between atoms: C_9  and  C_10 
REMARK    6  A    between atoms: N_15  and  C_14 
REMARK    7  A    between atoms: N_20  and  C_19 
REMARK       I    between atoms: C_22  and  N_20 
ROOT
ATOM      1  C   LIG d   1      -2.723  79.946 114.914  0.00  0.00     0.161 C 
ATOM      2  C   LIG d   1      -2.390  81.144 114.259  0.00  0.00     0.016 C 
ATOM      3  C   LIG d   1      -1.802  81.191 112.974  0.00  0.00     0.038 C 
ATOM      4  C   LIG d   1      -1.645  80.040 112.189  0.00  0.00     0.028 C 
ATOM      5  C   LIG d   1      -1.500  78.762 113.008  0.00  0.00    -0.047 C 
ATOM      6  C   LIG d   1      -2.661  78.685 114.027  0.00  0.00     0.091 C 
ENDROOT
BRANCH   1   7
ATOM      7  O   LIG d   1      -4.024  80.067 115.523  0.00  0.00    -0.368 OA
BRANCH   7   8
ATOM      8  C   LIG d   1      -4.046  80.141 116.969  0.00  0.00     0.119 C 
BRANCH   8   9
ATOM      9  C   LIG d   1      -5.344  79.462 117.447  0.00  0.00     0.028 C 
ATOM     10  C   LIG d   1      -5.665  78.184 116.654  0.00  0.00     0.006 C 
ENDBRANCH   8   9
BRANCH   8  11
ATOM     11  C   LIG d   1      -4.146  81.591 117.452  0.00  0.00     0.028 C 
ATOM     12  C   LIG d   1      -2.958  82.009 118.333  0.00  0.00     0.006 C 
ENDBRANCH   8  11
ENDBRANCH   7   8
ENDBRANCH   1   7
BRANCH   6  13
ATOM     13  N   LIG d   1      -2.549  77.507 114.926  0.00  0.00    -0.311 N 
ATOM     14  C   LIG d   1      -3.061  76.313 114.637  0.00  0.00     0.210 C 
ATOM     15  C   LIG d   1      -2.850  75.241 115.711  0.00  0.00     0.109 C 
ATOM     16  O   LIG d   1      -3.643  76.030 113.578  0.00  0.00    -0.276 OA
ATOM     17  H   LIG d   1      -2.065  77.640 115.793  0.00  0.00     0.149 HD
ENDBRANCH   6  13
BRANCH   5  18
ATOM     18  N   LIG d   1      -1.483  77.627 112.065  0.00  0.00     0.381 N 
ATOM     19  H   LIG d   1      -2.369  77.163 112.077  0.00  0.00    -0.090 HD
ATOM     20  H   LIG d   1      -0.780  76.972 112.359  0.00  0.00    -0.090 HD
ATOM     21  H   LIG d   1      -1.282  77.952 111.145  0.00  0.00    -0.090 HD
ENDBRANCH   5  18
BRANCH   3  22
ATOM     22  C   LIG d   1      -1.328  82.396 112.479  0.00  0.00     0.382 C 
ATOM     23  O   LIG d   1      -1.108  83.352 113.262  0.00  0.00    -0.241 OA
ATOM     24  O   LIG d   1      -1.160  82.554 111.255  0.00  0.00    -0.241 OA
ENDBRANCH   3  22
TORSDOF 7
ENDMDL
MODEL 3
REMARK VINA RESULT:      -4.9      2.367      3.110
REMARK  7 active torsions:
REMARK  status: ('A' for Active; 'I' for Inactive)
REMARK    1  A    between atoms: C_2  and  C_3 
REMARK    2  A    between atoms: C_3  and  O_6 
REMARK    3  A    between atoms: C_3  and  C_4 
REMARK    4  A    between atoms: C_7  and  O_6 
REMARK    5  A    between atoms: C_9  and  C_10 
REMARK    6  A    between atoms: N_15  and  C_14 
REMARK    7  A    between atoms: N_20  and  C_19 
REMARK       I    between atoms: C_22  and  N_20 
ROOT
ATOM      1  C   LIG d   1      -2.465  78.218 114.575  0.00  0.00     0.161 C 
ATOM      2  C   LIG d   1      -2.759  79.191 113.605  0.00  0.00     0.016 C 
ATOM      3  C   LIG d   1      -1.904  80.277 113.309  0.00  0.00     0.038 C 
ATOM      4  C   LIG d   1      -0.618  80.381 113.861  0.00  0.00     0.028 C 
ATOM      5  C   LIG d   1      -0.485  79.699 115.219  0.00  0.00    -0.047 C 
ATOM      6  C   LIG d   1      -1.017  78.252 115.108  0.00  0.00     0.091 C 
ENDROOT
BRANCH   1   7
ATOM      7  O   LIG d   1      -2.780  76.907 114.063  0.00  0.00    -0.368 OA
BRANCH   7   8
ATOM      8  C   LIG d   1      -3.689  76.112 114.863  0.00  0.00     0.119 C 
BRANCH   8   9
ATOM      9  C   LIG d   1      -4.616  75.353 113.894  0.00  0.00     0.028 C 
ATOM     10  C   LIG d   1      -5.990  76.028 113.747  0.00  0.00     0.006 C 
ENDBRANCH   8   9
BRANCH   8  11
ATOM     11  C   LIG d   1      -4.616  76.999 115.700  0.00  0.00     0.028 C 
ATOM     12  C   LIG d   1      -4.508  76.718 117.207  0.00  0.00     0.006 C 
ENDBRANCH   8  11
ENDBRANCH   7   8
ENDBRANCH   1   7
BRANCH   6  13
ATOM     13  N   LIG d   1      -1.002  77.541 116.413  0.00  0.00    -0.311 N 
ATOM     14  C   LIG d   1      -0.448  76.342 116.588  0.00  0.00     0.210 C 
ATOM     15  C   LIG d   1      -0.560  75.779 118.008  0.00  0.00     0.109 C 
ATOM     16  O   LIG d   1       0.154  75.706 115.710  0.00  0.00    -0.276 OA
ATOM     17  H   LIG d   1      -1.441  77.999 117.187  0.00  0.00     0.149 HD
ENDBRANCH   6  13
BRANCH   5  18
ATOM     18  N   LIG d   1       0.935  79.764 115.613  0.00  0.00     0.381 N 
ATOM     19  H   LIG d   1       1.008  80.035 116.573  0.00  0.00    -0.090 HD
ATOM     20  H   LIG d   1       1.396  80.459 115.053  0.00  0.00    -0.090 HD
ATOM     21  H   LIG d   1       1.368  78.877 115.477  0.00  0.00    -0.090 HD
ENDBRANCH   5  18
BRANCH   3  22
ATOM     22  C   LIG d   1      -2.349  81.297 112.482  0.00  0.00     0.382 C 
ATOM     23  O   LIG d   1      -3.580  81.500 112.345  0.00  0.00    -0.241 OA
ATOM     24  O   LIG d   1      -1.538  81.988 111.837  0.00  0.00    -0.241 OA
ENDBRANCH   3  22
TORSDOF 7
ENDMDL
MODEL 4
REMARK VINA RESULT:      -4.9      4.961      7.871
REMARK  7 active torsions:
REMARK  status: ('A' for Active; 'I' for Inactive)
REMARK    1  A    between atoms: C_2  and  C_3 
REMARK    2  A    between atoms: C_3  and  O_6 
REMARK    3  A    between atoms: C_3  and  C_4 
REMARK    4  A    between atoms: C_7  and  O_6 
REMARK    5  A    between atoms: C_9  and  C_10 
REMARK    6  A    between atoms: N_15  and  C_14 
REMARK    7  A    between atoms: N_20  and  C_19 
REMARK       I    between atoms: C_22  and  N_20 
ROOT
ATOM      1  C   LIG d   1      -1.267  81.291 112.700  0.00  0.00     0.161 C 
ATOM      2  C   LIG d   1      -1.786  80.093 112.182  0.00  0.00     0.016 C 
ATOM      3  C   LIG d   1      -2.401  79.102 112.981  0.00  0.00     0.038 C 
ATOM      4  C   LIG d   1      -2.676  79.311 114.340  0.00  0.00     0.028 C 
ATOM      5  C   LIG d   1      -1.719  80.293 115.008  0.00  0.00    -0.047 C 
ATOM      6  C   LIG d   1      -1.656  81.586 114.163  0.00  0.00     0.091 C 
ENDROOT
BRANCH   1   7
ATOM      7  O   LIG d   1      -1.641  82.394 111.850  0.00  0.00    -0.368 OA
BRANCH   7   8
ATOM      8  C   LIG d   1      -0.583  82.962 111.039  0.00  0.00     0.119 C 
BRANCH   8   9
ATOM      9  C   LIG d   1       0.703  82.166 111.334  0.00  0.00     0.028 C 
ATOM     10  C   LIG d   1       1.221  81.409 110.099  0.00  0.00     0.006 C 
ENDBRANCH   8   9
BRANCH   8  11
ATOM     11  C   LIG d   1      -0.273  84.402 111.456  0.00  0.00     0.028 C 
ATOM     12  C   LIG d   1       1.166  84.579 111.964  0.00  0.00     0.006 C 
ENDBRANCH   8  11
ENDBRANCH   7   8
ENDBRANCH   1   7
BRANCH   6  13
ATOM     13  N   LIG d   1      -0.678  82.567 114.700  0.00  0.00    -0.311 N 
ATOM     14  C   LIG d   1      -0.989  83.830 114.990  0.00  0.00     0.210 C 
ATOM     15  C   LIG d   1       0.173  84.679 115.513  0.00  0.00     0.109 C 
ATOM     16  O   LIG d   1      -2.125  84.318 114.892  0.00  0.00    -0.276 OA
ATOM     17  H   LIG d   1       0.260  82.247 114.840  0.00  0.00     0.149 HD
ENDBRANCH   6  13
BRANCH   5  18
ATOM     18  N   LIG d   1      -2.202  80.522 116.382  0.00  0.00     0.381 N 
ATOM     19  H   LIG d   1      -1.481  80.294 117.037  0.00  0.00    -0.090 HD
ATOM     20  H   LIG d   1      -2.988  79.920 116.555  0.00  0.00    -0.090 HD
ATOM     21  H   LIG d   1      -2.473  81.475 116.494  0.00  0.00    -0.090 HD
ENDBRANCH   5  18
BRANCH   3  22
ATOM     22  C   LIG d   1      -2.713  77.870 112.427  0.00  0.00     0.382 C 
ATOM     23  O   LIG d   1      -3.674  77.766 111.627  0.00  0.00    -0.241 OA
ATOM     24  O   LIG d   1      -2.074  76.851 112.753  0.00  0.00    -0.241 OA
ENDBRANCH   3  22
TORSDOF 7
ENDMDL
MODEL 5
REMARK VINA RESULT:      -4.8      4.027      5.505
REMARK  7 active torsions:
REMARK  status: ('A' for Active; 'I' for Inactive)
REMARK    1  A    between atoms: C_2  and  C_3 
REMARK    2  A    between atoms: C_3  and  O_6 
REMARK    3  A    between atoms: C_3  and  C_4 
REMARK    4  A    between atoms: C_7  and  O_6 
REMARK    5  A    between atoms: C_9  and  C_10 
REMARK    6  A    between atoms: N_15  and  C_14 
REMARK    7  A    between atoms: N_20  and  C_19 
REMARK       I    between atoms: C_22  and  N_20 
ROOT
ATOM      1  C   LIG d   1      -0.404  80.382 115.550  0.00  0.00     0.161 C 
ATOM      2  C   LIG d   1      -1.072  81.168 114.597  0.00  0.00     0.016 C 
ATOM      3  C   LIG d   1      -1.924  80.630 113.604  0.00  0.00     0.038 C 
ATOM      4  C   LIG d   1      -2.287  79.275 113.593  0.00  0.00     0.028 C 
ATOM      5  C   LIG d   1      -1.242  78.363 114.226  0.00  0.00    -0.047 C 
ATOM      6  C   LIG d   1      -0.875  78.914 115.623  0.00  0.00     0.091 C 
ENDROOT
BRANCH   1   7
ATOM      7  O   LIG d   1      -0.498  81.003 116.848  0.00  0.00    -0.368 OA
BRANCH   7   8
ATOM      8  C   LIG d   1      -1.380  82.148 116.944  0.00  0.00     0.119 C 
BRANCH   8   9
ATOM      9  C   LIG d   1      -0.614  83.262 117.685  0.00  0.00     0.028 C 
ATOM     10  C   LIG d   1       0.210  84.142 116.730  0.00  0.00     0.006 C 
ENDBRANCH   8   9
BRANCH   8  11
ATOM     11  C   LIG d   1      -2.598  81.842 117.820  0.00  0.00     0.028 C 
ATOM     12  C   LIG d   1      -3.898  81.716 117.010  0.00  0.00     0.006 C 
ENDBRANCH   8  11
ENDBRANCH   7   8
ENDBRANCH   1   7
BRANCH   6  13
ATOM     13  N   LIG d   1       0.203  78.128 116.278  0.00  0.00    -0.311 N 
ATOM     14  C   LIG d   1      -0.030  77.115 117.111  0.00  0.00     0.210 C 
ATOM     15  C   LIG d   1       1.223  76.453 117.691  0.00  0.00     0.109 C 
ATOM     16  O   LIG d   1      -1.156  76.682 117.400  0.00  0.00    -0.276 OA
ATOM     17  H   LIG d   1       1.148  78.392 116.075  0.00  0.00     0.149 HD
ENDBRANCH   6  13
BRANCH   5  18
ATOM     18  N   LIG d   1      -1.807  77.002 114.272  0.00  0.00     0.381 N 
ATOM     19  H   LIG d   1      -2.422  76.916 115.057  0.00  0.00    -0.090 HD
ATOM     20  H   LIG d   1      -1.058  76.342 114.385  0.00  0.00    -0.090 HD
ATOM     21  H   LIG d   1      -2.304  76.810 113.430  0.00  0.00    -0.090 HD
ENDBRANCH   5  18
BRANCH   3  22
ATOM     22  C   LIG d   1      -2.391  81.446 112.585  0.00  0.00     0.382 C 
ATOM     23  O   LIG d   1      -3.618  81.489 112.329  0.00  0.00    -0.241 OA
ATOM     24  O   LIG d   1      -1.595  82.104 111.888  0.00  0.00    -0.241 OA
ENDBRANCH   3  22
TORSDOF 7
ENDMDL
MODEL 6
REMARK VINA RESULT:      -4.7      5.025      7.622
REMARK  7 active torsions:
REMARK  status: ('A' for Active; 'I' for Inactive)
REMARK    1  A    between atoms: C_2  and  C_3 
REMARK    2  A    between atoms: C_3  and  O_6 
REMARK    3  A    between atoms: C_3  and  C_4 
REMARK    4  A    between atoms: C_7  and  O_6 
REMARK    5  A    between atoms: C_9  and  C_10 
REMARK    6  A    between atoms: N_15  and  C_14 
REMARK    7  A    between atoms: N_20  and  C_19 
REMARK       I    between atoms: C_22  and  N_20 
ROOT
ATOM      1  C   LIG d   1      -2.347  81.541 113.140  0.00  0.00     0.161 C 
ATOM      2  C   LIG d   1      -2.791  80.339 113.717  0.00  0.00     0.016 C 
ATOM      3  C   LIG d   1      -2.237  79.076 113.406  0.00  0.00     0.038 C 
ATOM      4  C   LIG d   1      -1.092  78.945 112.606  0.00  0.00     0.028 C 
ATOM      5  C   LIG d   1      -0.921  80.081 111.603  0.00  0.00    -0.047 C 
ATOM      6  C   LIG d   1      -1.027  81.430 112.350  0.00  0.00     0.091 C 
ENDROOT
BRANCH   1   7
ATOM      7  O   LIG d   1      -2.240  82.559 114.155  0.00  0.00    -0.368 OA
BRANCH   7   8
ATOM      8  C   LIG d   1      -1.286  82.304 115.215  0.00  0.00     0.119 C 
BRANCH   8   9
ATOM      9  C   LIG d   1      -2.061  82.306 116.547  0.00  0.00     0.028 C 
ATOM     10  C   LIG d   1      -1.215  82.831 117.718  0.00  0.00     0.006 C 
ENDBRANCH   8   9
BRANCH   8  11
ATOM     11  C   LIG d   1      -0.269  83.443 115.336  0.00  0.00     0.028 C 
ATOM     12  C   LIG d   1      -0.657  84.677 114.506  0.00  0.00     0.006 C 
ENDBRANCH   8  11
ENDBRANCH   7   8
ENDBRANCH   1   7
BRANCH   6  13
ATOM     13  N   LIG d   1      -0.954  82.594 111.430  0.00  0.00    -0.311 N 
ATOM     14  C   LIG d   1       0.159  83.295 111.220  0.00  0.00     0.210 C 
ATOM     15  C   LIG d   1       0.010  84.470 110.248  0.00  0.00     0.109 C 
ATOM     16  O   LIG d   1       1.263  83.037 111.723  0.00  0.00    -0.276 OA
ATOM     17  H   LIG d   1      -1.797  82.855 110.956  0.00  0.00     0.149 HD
ENDBRANCH   6  13
BRANCH   5  18
ATOM     18  N   LIG d   1       0.379  79.891 110.933  0.00  0.00     0.381 N 
ATOM     19  H   LIG d   1       0.798  80.780 110.748  0.00  0.00    -0.090 HD
ATOM     20  H   LIG d   1       0.227  79.426 110.055  0.00  0.00    -0.090 HD
ATOM     21  H   LIG d   1       0.982  79.344 111.507  0.00  0.00    -0.090 HD
ENDBRANCH   5  18
BRANCH   3  22
ATOM     22  C   LIG d   1      -2.854  77.923 113.867  0.00  0.00     0.382 C 
ATOM     23  O   LIG d   1      -3.685  77.988 114.804  0.00  0.00    -0.241 OA
ATOM     24  O   LIG d   1      -2.557  76.812 113.387  0.00  0.00    -0.241 OA
ENDBRANCH   3  22
TORSDOF 7
ENDMDL
MODEL 7
REMARK VINA RESULT:      -4.7      3.884      6.019
REMARK  7 active torsions:
REMARK  status: ('A' for Active; 'I' for Inactive)
REMARK    1  A    between atoms: C_2  and  C_3 
REMARK    2  A    between atoms: C_3  and  O_6 
REMARK    3  A    between atoms: C_3  and  C_4 
REMARK    4  A    between atoms: C_7  and  O_6 
REMARK    5  A    between atoms: C_9  and  C_10 
REMARK    6  A    between atoms: N_15  and  C_14 
REMARK    7  A    between atoms: N_20  and  C_19 
REMARK       I    between atoms: C_22  and  N_20 
ROOT
ATOM      1  C   LIG d   1      -4.685  78.395 116.455  0.00  0.00     0.161 C 
ATOM      2  C   LIG d   1      -4.152  77.520 115.494  0.00  0.00     0.016 C 
ATOM      3  C   LIG d   1      -4.835  76.377 115.018  0.00  0.00     0.038 C 
ATOM      4  C   LIG d   1      -6.169  76.114 115.363  0.00  0.00     0.028 C 
ATOM      5  C   LIG d   1      -6.570  76.690 116.716  0.00  0.00    -0.047 C 
ATOM      6  C   LIG d   1      -6.184  78.186 116.760  0.00  0.00     0.091 C 
ENDROOT
BRANCH   1   7
ATOM      7  O   LIG d   1      -4.440  79.760 116.062  0.00  0.00    -0.368 OA
BRANCH   7   8
ATOM      8  C   LIG d   1      -3.471  80.488 116.857  0.00  0.00     0.119 C 
BRANCH   8   9
ATOM      9  C   LIG d   1      -4.174  81.744 117.407  0.00  0.00     0.028 C 
ATOM     10  C   LIG d   1      -3.899  81.962 118.905  0.00  0.00     0.006 C 
ENDBRANCH   8   9
BRANCH   8  11
ATOM     11  C   LIG d   1      -2.322  81.012 115.992  0.00  0.00     0.028 C 
ATOM     12  C   LIG d   1      -2.663  82.333 115.284  0.00  0.00     0.006 C 
ENDBRANCH   8  11
ENDBRANCH   7   8
ENDBRANCH   1   7
BRANCH   6  13
ATOM     13  N   LIG d   1      -6.465  78.806 118.081  0.00  0.00    -0.311 N 
ATOM     14  C   LIG d   1      -7.171  79.925 118.230  0.00  0.00     0.210 C 
ATOM     15  C   LIG d   1      -7.326  80.404 119.676  0.00  0.00     0.109 C 
ATOM     16  O   LIG d   1      -7.712  80.549 117.304  0.00  0.00    -0.276 OA
ATOM     17  H   LIG d   1      -6.090  78.348 118.888  0.00  0.00     0.149 HD
ENDBRANCH   6  13
BRANCH   5  18
ATOM     18  N   LIG d   1      -8.018  76.462 116.887  0.00  0.00     0.381 N 
ATOM     19  H   LIG d   1      -8.181  75.933 117.720  0.00  0.00    -0.090 HD
ATOM     20  H   LIG d   1      -8.357  75.930 116.105  0.00  0.00    -0.090 HD
ATOM     21  H   LIG d   1      -8.497  77.334 116.938  0.00  0.00    -0.090 HD
ENDBRANCH   5  18
BRANCH   3  22
ATOM     22  C   LIG d   1      -4.168  75.462 114.218  0.00  0.00     0.382 C 
ATOM     23  O   LIG d   1      -2.916  75.393 114.255  0.00  0.00    -0.241 OA
ATOM     24  O   LIG d   1      -4.800  74.734 113.429  0.00  0.00    -0.241 OA
ENDBRANCH   3  22
TORSDOF 7
ENDMDL
MODEL 8
REMARK VINA RESULT:      -4.6      2.558      4.262
REMARK  7 active torsions:
REMARK  status: ('A' for Active; 'I' for Inactive)
REMARK    1  A    between atoms: C_2  and  C_3 
REMARK    2  A    between atoms: C_3  and  O_6 
REMARK    3  A    between atoms: C_3  and  C_4 
REMARK    4  A    between atoms: C_7  and  O_6 
REMARK    5  A    between atoms: C_9  and  C_10 
REMARK    6  A    between atoms: N_15  and  C_14 
REMARK    7  A    between atoms: N_20  and  C_19 
REMARK       I    between atoms: C_22  and  N_20 
ROOT
ATOM      1  C   LIG d   1      -1.579  77.654 114.875  0.00  0.00     0.161 C 
ATOM      2  C   LIG d   1      -2.791  77.382 114.219  0.00  0.00     0.016 C 
ATOM      3  C   LIG d   1      -3.539  76.200 114.426  0.00  0.00     0.038 C 
ATOM      4  C   LIG d   1      -3.200  75.273 115.423  0.00  0.00     0.028 C 
ATOM      5  C   LIG d   1      -1.712  75.260 115.757  0.00  0.00    -0.047 C 
ATOM      6  C   LIG d   1      -1.250  76.706 116.047  0.00  0.00     0.091 C 
ENDROOT
BRANCH   1   7
ATOM      7  O   LIG d   1      -1.561  79.025 115.319  0.00  0.00    -0.368 OA
BRANCH   7   8
ATOM      8  C   LIG d   1      -2.733  79.814 114.999  0.00  0.00     0.119 C 
BRANCH   8   9
ATOM      9  C   LIG d   1      -2.255  81.062 114.231  0.00  0.00     0.028 C 
ATOM     10  C   LIG d   1      -2.626  81.012 112.740  0.00  0.00     0.006 C 
ENDBRANCH   8   9
BRANCH   8  11
ATOM     11  C   LIG d   1      -3.407  80.350 116.265  0.00  0.00     0.028 C 
ATOM     12  C   LIG d   1      -3.131  81.843 116.501  0.00  0.00     0.006 C 
ENDBRANCH   8  11
ENDBRANCH   7   8
ENDBRANCH   1   7
BRANCH   6  13
ATOM     13  N   LIG d   1       0.212  76.794 116.300  0.00  0.00    -0.311 N 
ATOM     14  C   LIG d   1       0.751  76.719 117.516  0.00  0.00     0.210 C 
ATOM     15  C   LIG d   1       2.276  76.853 117.556  0.00  0.00     0.109 C 
ATOM     16  O   LIG d   1       0.113  76.521 118.561  0.00  0.00    -0.276 OA
ATOM     17  H   LIG d   1       0.806  76.923 115.505  0.00  0.00     0.149 HD
ENDBRANCH   6  13
BRANCH   5  18
ATOM     18  N   LIG d   1      -1.521  74.351 116.903  0.00  0.00     0.381 N 
ATOM     19  H   LIG d   1      -2.111  74.632 117.660  0.00  0.00    -0.090 HD
ATOM     20  H   LIG d   1      -0.565  74.410 117.209  0.00  0.00    -0.090 HD
ATOM     21  H   LIG d   1      -1.734  73.415 116.635  0.00  0.00    -0.090 HD
ENDBRANCH   5  18
BRANCH   3  22
ATOM     22  C   LIG d   1      -4.619  75.917 113.603  0.00  0.00     0.382 C 
ATOM     23  O   LIG d   1      -4.925  76.707 112.678  0.00  0.00    -0.241 OA
ATOM     24  O   LIG d   1      -5.317  74.905 113.803  0.00  0.00    -0.241 OA
ENDBRANCH   3  22
TORSDOF 7
ENDMDL
MODEL 9
REMARK VINA RESULT:      -4.6      2.779      3.506
REMARK  7 active torsions:
REMARK  status: ('A' for Active; 'I' for Inactive)
REMARK    1  A    between atoms: C_2  and  C_3 
REMARK    2  A    between atoms: C_3  and  O_6 
REMARK    3  A    between atoms: C_3  and  C_4 
REMARK    4  A    between atoms: C_7  and  O_6 
REMARK    5  A    between atoms: C_9  and  C_10 
REMARK    6  A    between atoms: N_15  and  C_14 
REMARK    7  A    between atoms: N_20  and  C_19 
REMARK       I    between atoms: C_22  and  N_20 
ROOT
ATOM      1  C   LIG d   1      -2.461  79.160 115.662  0.00  0.00     0.161 C 
ATOM      2  C   LIG d   1      -2.802  79.906 114.521  0.00  0.00     0.016 C 
ATOM      3  C   LIG d   1      -1.874  80.694 113.801  0.00  0.00     0.038 C 
ATOM      4  C   LIG d   1      -0.501  80.669 114.087  0.00  0.00     0.028 C 
ATOM      5  C   LIG d   1      -0.191  80.327 115.540  0.00  0.00    -0.047 C 
ATOM      6  C   LIG d   1      -0.946  79.033 115.922  0.00  0.00     0.091 C 
ENDROOT
BRANCH   1   7
ATOM      7  O   LIG d   1      -3.068  77.855 115.591  0.00  0.00    -0.368 OA
BRANCH   7   8
ATOM      8  C   LIG d   1      -2.578  76.979 114.546  0.00  0.00     0.119 C 
BRANCH   8   9
ATOM      9  C   LIG d   1      -3.789  76.550 113.695  0.00  0.00     0.028 C 
ATOM     10  C   LIG d   1      -4.476  75.289 114.245  0.00  0.00     0.006 C 
ENDBRANCH   8   9
BRANCH   8  11
ATOM     11  C   LIG d   1      -2.011  75.680 115.128  0.00  0.00     0.028 C 
ATOM     12  C   LIG d   1      -0.580  75.387 114.650  0.00  0.00     0.006 C 
ENDBRANCH   8  11
ENDBRANCH   7   8
ENDBRANCH   1   7
BRANCH   6  13
ATOM     13  N   LIG d   1      -0.764  78.673 117.353  0.00  0.00    -0.311 N 
ATOM     14  C   LIG d   1       0.167  77.823 117.783  0.00  0.00     0.210 C 
ATOM     15  C   LIG d   1       0.169  77.576 119.294  0.00  0.00     0.109 C 
ATOM     16  O   LIG d   1       1.013  77.275 117.059  0.00  0.00    -0.276 OA
ATOM     17  H   LIG d   1      -1.388  79.095 118.012  0.00  0.00     0.149 HD
ENDBRANCH   6  13
BRANCH   5  18
ATOM     18  N   LIG d   1       1.273  80.200 115.665  0.00  0.00     0.381 N 
ATOM     19  H   LIG d   1       1.498  79.637 116.461  0.00  0.00    -0.090 HD
ATOM     20  H   LIG d   1       1.668  81.114 115.804  0.00  0.00    -0.090 HD
ATOM     21  H   LIG d   1       1.652  79.789 114.841  0.00  0.00    -0.090 HD
ENDBRANCH   5  18
BRANCH   3  22
ATOM     22  C   LIG d   1      -2.325  81.549 112.807  0.00  0.00     0.382 C 
ATOM     23  O   LIG d   1      -1.599  82.496 112.418  0.00  0.00    -0.241 OA
ATOM     24  O   LIG d   1      -3.466  81.413 112.326  0.00  0.00    -0.241 OA
ENDBRANCH   3  22
TORSDOF 7
ENDMDL
