MODEL 1
REMARK VINA RESULT:      -5.2      0.000      0.000
REMARK  7 active torsions:
REMARK  status: ('A' for Active; 'I' for Inactive)
REMARK    1  A    between atoms: C_2  and  C_3 
REMARK    2  A    between atoms: C_3  and  O_6 
REMARK    3  A    between atoms: C_3  and  C_4 
REMARK    4  A    between atoms: C_7  and  O_6 
REMARK    5  A    between atoms: C_9  and  C_10 
REMARK    6  A    between atoms: N_15  and  C_14 
REMARK    7  A    between atoms: N_20  and  C_19 
REMARK       I    between atoms: C_22  and  N_20 
ROOT
ATOM      1  C   LIG d   1      -1.267  78.512 114.939  0.00  0.00     0.161 C 
ATOM      2  C   LIG d   1      -1.811  79.711 114.450  0.00  0.00     0.016 C 
ATOM      3  C   LIG d   1      -1.874  80.033 113.074  0.00  0.00     0.038 C 
ATOM      4  C   LIG d   1      -1.532  79.106 112.079  0.00  0.00     0.028 C 
ATOM      5  C   LIG d   1      -0.506  78.075 112.538  0.00  0.00    -0.047 C 
ATOM      6  C   LIG d   1      -0.990  77.441 113.862  0.00  0.00     0.091 C 
ENDROOT
BRANCH   1   7
ATOM      7  O   LIG d   1      -2.116  77.976 115.973  0.00  0.00    -0.368 OA
BRANCH   7   8
ATOM      8  C   LIG d   1      -3.540  78.174 115.794  0.00  0.00     0.119 C 
BRANCH   8   9
ATOM      9  C   LIG d   1      -4.070  78.883 117.056  0.00  0.00     0.028 C 
ATOM     10  C   LIG d   1      -5.600  78.788 117.183  0.00  0.00     0.006 C 
ENDBRANCH   8   9
BRANCH   8  11
ATOM     11  C   LIG d   1      -4.286  76.838 115.737  0.00  0.00     0.028 C 
ATOM     12  C   LIG d   1      -4.509  76.342 114.299  0.00  0.00     0.006 C 
ENDBRANCH   8  11
ENDBRANCH   7   8
ENDBRANCH   1   7
BRANCH   6  13
ATOM     13  N   LIG d   1      -0.005  76.482 114.425  0.00  0.00    -0.311 N 
ATOM     14  C   LIG d   1      -0.332  75.269 114.868  0.00  0.00     0.210 C 
ATOM     15  C   LIG d   1       0.834  74.448 115.427  0.00  0.00     0.109 C 
ATOM     16  O   LIG d   1      -1.472  74.783 114.821  0.00  0.00    -0.276 OA
ATOM     17  H   LIG d   1       0.949  76.783 114.472  0.00  0.00     0.149 HD
ENDBRANCH   6  13
BRANCH   5  18
ATOM     18  N   LIG d   1      -0.345  77.091 111.451  0.00  0.00     0.381 N 
ATOM     19  H   LIG d   1       0.599  77.103 111.121  0.00  0.00    -0.090 HD
ATOM     20  H   LIG d   1      -0.949  77.347 110.690  0.00  0.00    -0.090 HD
ATOM     21  H   LIG d   1      -0.579  76.180 111.779  0.00  0.00    -0.090 HD
ENDBRANCH   5  18
BRANCH   3  22
ATOM     22  C   LIG d   1      -2.246  81.311 112.684  0.00  0.00     0.382 C 
ATOM     23  O   LIG d   1      -1.371  82.138 112.330  0.00  0.00    -0.241 OA
ATOM     24  O   LIG d   1      -3.440  81.661 112.725  0.00  0.00    -0.241 OA
ENDBRANCH   3  22
TORSDOF 7
ENDMDL
MODEL 2
REMARK VINA RESULT:      -5.0      1.218      1.972
REMARK  7 active torsions:
REMARK  status: ('A' for Active; 'I' for Inactive)
REMARK    1  A    between atoms: C_2  and  C_3 
REMARK    2  A    between atoms: C_3  and  O_6 
REMARK    3  A    between atoms: C_3  and  C_4 
REMARK    4  A    between atoms: C_7  and  O_6 
REMARK    5  A    between atoms: C_9  and  C_10 
REMARK    6  A    between atoms: N_15  and  C_14 
REMARK    7  A    between atoms: N_20  and  C_19 
REMARK       I    between atoms: C_22  and  N_20 
ROOT
ATOM      1  C   LIG d   1      -1.597  78.473 114.926  0.00  0.00     0.161 C 
ATOM      2  C   LIG d   1      -2.063  79.699 114.421  0.00  0.00     0.016 C 
ATOM      3  C   LIG d   1      -1.936  80.081 113.066  0.00  0.00     0.038 C 
ATOM      4  C   LIG d   1      -1.466  79.194 112.086  0.00  0.00     0.028 C 
ATOM      5  C   LIG d   1      -0.519  78.133 112.634  0.00  0.00    -0.047 C 
ATOM      6  C   LIG d   1      -1.182  77.447 113.850  0.00  0.00     0.091 C 
ENDROOT
BRANCH   1   7
ATOM      7  O   LIG d   1      -2.582  77.902 115.809  0.00  0.00    -0.368 OA
BRANCH   7   8
ATOM      8  C   LIG d   1      -2.242  77.886 117.218  0.00  0.00     0.119 C 
BRANCH   8   9
ATOM      9  C   LIG d   1      -2.838  76.601 117.824  0.00  0.00     0.028 C 
ATOM     10  C   LIG d   1      -1.798  75.786 118.610  0.00  0.00     0.006 C 
ENDBRANCH   8   9
BRANCH   8  11
ATOM     11  C   LIG d   1      -2.917  79.039 117.967  0.00  0.00     0.028 C 
ATOM     12  C   LIG d   1      -4.330  79.343 117.443  0.00  0.00     0.006 C 
ENDBRANCH   8  11
ENDBRANCH   7   8
ENDBRANCH   1   7
BRANCH   6  13
ATOM     13  N   LIG d   1      -0.288  76.453 114.498  0.00  0.00    -0.311 N 
ATOM     14  C   LIG d   1      -0.709  75.273 114.952  0.00  0.00     0.210 C 
ATOM     15  C   LIG d   1       0.373  74.407 115.604  0.00  0.00     0.109 C 
ATOM     16  O   LIG d   1      -1.870  74.849 114.847  0.00  0.00    -0.276 OA
ATOM     17  H   LIG d   1       0.677  76.702 114.596  0.00  0.00     0.149 HD
ENDBRANCH   6  13
BRANCH   5  18
ATOM     18  N   LIG d   1      -0.216  77.195 111.536  0.00  0.00     0.381 N 
ATOM     19  H   LIG d   1      -0.002  77.707 110.703  0.00  0.00    -0.090 HD
ATOM     20  H   LIG d   1      -1.027  76.630 111.359  0.00  0.00    -0.090 HD
ATOM     21  H   LIG d   1       0.554  76.615 111.785  0.00  0.00    -0.090 HD
ENDBRANCH   5  18
BRANCH   3  22
ATOM     22  C   LIG d   1      -2.244  81.379 112.687  0.00  0.00     0.382 C 
ATOM     23  O   LIG d   1      -3.439  81.759 112.668  0.00  0.00    -0.241 OA
ATOM     24  O   LIG d   1      -1.346  82.160 112.320  0.00  0.00    -0.241 OA
ENDBRANCH   3  22
TORSDOF 7
ENDMDL
MODEL 3
REMARK VINA RESULT:      -4.8      1.821      2.278
REMARK  7 active torsions:
REMARK  status: ('A' for Active; 'I' for Inactive)
REMARK    1  A    between atoms: C_2  and  C_3 
REMARK    2  A    between atoms: C_3  and  O_6 
REMARK    3  A    between atoms: C_3  and  C_4 
REMARK    4  A    between atoms: C_7  and  O_6 
REMARK    5  A    between atoms: C_9  and  C_10 
REMARK    6  A    between atoms: N_15  and  C_14 
REMARK    7  A    between atoms: N_20  and  C_19 
REMARK       I    between atoms: C_22  and  N_20 
ROOT
ATOM      1  C   LIG d   1      -2.445  77.955 116.416  0.00  0.00     0.161 C 
ATOM      2  C   LIG d   1      -2.691  78.880 115.387  0.00  0.00     0.016 C 
ATOM      3  C   LIG d   1      -2.062  78.823 114.122  0.00  0.00     0.038 C 
ATOM      4  C   LIG d   1      -1.253  77.741 113.745  0.00  0.00     0.028 C 
ATOM      5  C   LIG d   1      -0.578  77.049 114.925  0.00  0.00    -0.047 C 
ATOM      6  C   LIG d   1      -1.649  76.705 115.985  0.00  0.00     0.091 C 
ENDROOT
BRANCH   1   7
ATOM      7  O   LIG d   1      -3.688  77.569 117.034  0.00  0.00    -0.368 OA
BRANCH   7   8
ATOM      8  C   LIG d   1      -4.851  77.550 116.169  0.00  0.00     0.119 C 
BRANCH   8   9
ATOM      9  C   LIG d   1      -6.040  78.101 116.979  0.00  0.00     0.028 C 
ATOM     10  C   LIG d   1      -5.862  79.584 117.348  0.00  0.00     0.006 C 
ENDBRANCH   8   9
BRANCH   8  11
ATOM     11  C   LIG d   1      -5.244  76.117 115.796  0.00  0.00     0.028 C 
ATOM     12  C   LIG d   1      -5.020  75.806 114.308  0.00  0.00     0.006 C 
ENDBRANCH   8  11
ENDBRANCH   7   8
ENDBRANCH   1   7
BRANCH   6  13
ATOM     13  N   LIG d   1      -1.062  76.102 117.209  0.00  0.00    -0.311 N 
ATOM     14  C   LIG d   1      -1.444  74.925 117.702  0.00  0.00     0.210 C 
ATOM     15  C   LIG d   1      -0.723  74.496 118.984  0.00  0.00     0.109 C 
ATOM     16  O   LIG d   1      -2.288  74.180 117.181  0.00  0.00    -0.276 OA
ATOM     17  H   LIG d   1      -0.348  76.624 117.678  0.00  0.00     0.149 HD
ENDBRANCH   6  13
BRANCH   5  18
ATOM     18  N   LIG d   1       0.122  75.860 114.403  0.00  0.00     0.381 N 
ATOM     19  H   LIG d   1       1.082  76.082 114.228  0.00  0.00    -0.090 HD
ATOM     20  H   LIG d   1      -0.303  75.588 113.534  0.00  0.00    -0.090 HD
ATOM     21  H   LIG d   1       0.060  75.113 115.059  0.00  0.00    -0.090 HD
ENDBRANCH   5  18
BRANCH   3  22
ATOM     22  C   LIG d   1      -2.210  79.876 113.233  0.00  0.00     0.382 C 
ATOM     23  O   LIG d   1      -2.833  80.908 113.582  0.00  0.00    -0.241 OA
ATOM     24  O   LIG d   1      -1.768  79.790 112.072  0.00  0.00    -0.241 OA
ENDBRANCH   3  22
TORSDOF 7
ENDMDL
MODEL 4
REMARK VINA RESULT:      -4.5      2.469      5.051
REMARK  7 active torsions:
REMARK  status: ('A' for Active; 'I' for Inactive)
REMARK    1  A    between atoms: C_2  and  C_3 
REMARK    2  A    between atoms: C_3  and  O_6 
REMARK    3  A    between atoms: C_3  and  C_4 
REMARK    4  A    between atoms: C_7  and  O_6 
REMARK    5  A    between atoms: C_9  and  C_10 
REMARK    6  A    between atoms: N_15  and  C_14 
REMARK    7  A    between atoms: N_20  and  C_19 
REMARK       I    between atoms: C_22  and  N_20 
ROOT
ATOM      1  C   LIG d   1      -1.674  75.980 115.028  0.00  0.00     0.161 C 
ATOM      2  C   LIG d   1      -1.531  75.628 116.380  0.00  0.00     0.016 C 
ATOM      3  C   LIG d   1      -0.912  76.460 117.341  0.00  0.00     0.038 C 
ATOM      4  C   LIG d   1      -0.526  77.776 117.043  0.00  0.00     0.028 C 
ATOM      5  C   LIG d   1      -0.192  77.990 115.570  0.00  0.00    -0.047 C 
ATOM      6  C   LIG d   1      -1.359  77.457 114.708  0.00  0.00     0.091 C 
ENDROOT
BRANCH   1   7
ATOM      7  O   LIG d   1      -2.998  75.641 114.572  0.00  0.00    -0.368 OA
BRANCH   7   8
ATOM      8  C   LIG d   1      -4.015  75.522 115.597  0.00  0.00     0.119 C 
BRANCH   8   9
ATOM      9  C   LIG d   1      -4.911  74.325 115.224  0.00  0.00     0.028 C 
ATOM     10  C   LIG d   1      -6.120  74.182 116.164  0.00  0.00     0.006 C 
ENDBRANCH   8   9
BRANCH   8  11
ATOM     11  C   LIG d   1      -4.945  76.739 115.602  0.00  0.00     0.028 C 
ATOM     12  C   LIG d   1      -4.630  77.725 116.737  0.00  0.00     0.006 C 
ENDBRANCH   8  11
ENDBRANCH   7   8
ENDBRANCH   1   7
BRANCH   6  13
ATOM     13  N   LIG d   1      -1.077  77.551 113.252  0.00  0.00    -0.311 N 
ATOM     14  C   LIG d   1      -1.825  78.255 112.405  0.00  0.00     0.210 C 
ATOM     15  C   LIG d   1      -1.370  78.202 110.943  0.00  0.00     0.109 C 
ATOM     16  O   LIG d   1      -2.803  78.945 112.730  0.00  0.00    -0.276 OA
ATOM     17  H   LIG d   1      -0.283  77.047 112.908  0.00  0.00     0.149 HD
ENDBRANCH   6  13
BRANCH   5  18
ATOM     18  N   LIG d   1       0.060  79.431 115.376  0.00  0.00     0.381 N 
ATOM     19  H   LIG d   1       0.167  79.627 114.401  0.00  0.00    -0.090 HD
ATOM     20  H   LIG d   1       0.914  79.677 115.843  0.00  0.00    -0.090 HD
ATOM     21  H   LIG d   1      -0.697  79.962 115.748  0.00  0.00    -0.090 HD
ENDBRANCH   5  18
BRANCH   3  22
ATOM     22  C   LIG d   1      -0.637  75.964 118.606  0.00  0.00     0.382 C 
ATOM     23  O   LIG d   1       0.536  75.989 119.048  0.00  0.00    -0.241 OA
ATOM     24  O   LIG d   1      -1.541  75.451 119.293  0.00  0.00    -0.241 OA
ENDBRANCH   3  22
TORSDOF 7
ENDMDL
MODEL 5
REMARK VINA RESULT:      -4.5      3.452      4.283
REMARK  7 active torsions:
REMARK  status: ('A' for Active; 'I' for Inactive)
REMARK    1  A    between atoms: C_2  and  C_3 
REMARK    2  A    between atoms: C_3  and  O_6 
REMARK    3  A    between atoms: C_3  and  C_4 
REMARK    4  A    between atoms: C_7  and  O_6 
REMARK    5  A    between atoms: C_9  and  C_10 
REMARK    6  A    between atoms: N_15  and  C_14 
REMARK    7  A    between atoms: N_20  and  C_19 
REMARK       I    between atoms: C_22  and  N_20 
ROOT
ATOM      1  C   LIG d   1      -3.642  76.513 117.247  0.00  0.00     0.161 C 
ATOM      2  C   LIG d   1      -4.718  77.387 117.474  0.00  0.00     0.016 C 
ATOM      3  C   LIG d   1      -4.671  78.770 117.183  0.00  0.00     0.038 C 
ATOM      4  C   LIG d   1      -3.590  79.348 116.501  0.00  0.00     0.028 C 
ATOM      5  C   LIG d   1      -2.276  78.603 116.708  0.00  0.00    -0.047 C 
ATOM      6  C   LIG d   1      -2.495  77.104 116.402  0.00  0.00     0.091 C 
ENDROOT
BRANCH   1   7
ATOM      7  O   LIG d   1      -4.123  75.290 116.655  0.00  0.00    -0.368 OA
BRANCH   7   8
ATOM      8  C   LIG d   1      -5.339  75.395 115.874  0.00  0.00     0.119 C 
BRANCH   8   9
ATOM      9  C   LIG d   1      -6.220  74.181 116.224  0.00  0.00     0.028 C 
ATOM     10  C   LIG d   1      -7.322  74.527 117.239  0.00  0.00     0.006 C 
ENDBRANCH   8   9
BRANCH   8  11
ATOM     11  C   LIG d   1      -5.052  75.270 114.375  0.00  0.00     0.028 C 
ATOM     12  C   LIG d   1      -5.632  76.435 113.557  0.00  0.00     0.006 C 
ENDBRANCH   8  11
ENDBRANCH   7   8
ENDBRANCH   1   7
BRANCH   6  13
ATOM     13  N   LIG d   1      -1.280  76.289 116.660  0.00  0.00    -0.311 N 
ATOM     14  C   LIG d   1      -0.838  75.348 115.827  0.00  0.00     0.210 C 
ATOM     15  C   LIG d   1       0.422  74.611 116.294  0.00  0.00     0.109 C 
ATOM     16  O   LIG d   1      -1.351  75.075 114.732  0.00  0.00    -0.276 OA
ATOM     17  H   LIG d   1      -0.784  76.466 117.512  0.00  0.00     0.149 HD
ENDBRANCH   6  13
BRANCH   5  18
ATOM     18  N   LIG d   1      -1.266  79.230 115.834  0.00  0.00     0.381 N 
ATOM     19  H   LIG d   1      -1.051  78.618 115.072  0.00  0.00    -0.090 HD
ATOM     20  H   LIG d   1      -0.426  79.381 116.364  0.00  0.00    -0.090 HD
ATOM     21  H   LIG d   1      -1.608  80.098 115.486  0.00  0.00    -0.090 HD
ENDBRANCH   5  18
BRANCH   3  22
ATOM     22  C   LIG d   1      -5.698  79.598 117.612  0.00  0.00     0.382 C 
ATOM     23  O   LIG d   1      -6.858  79.443 117.160  0.00  0.00    -0.241 OA
ATOM     24  O   LIG d   1      -5.469  80.525 118.412  0.00  0.00    -0.241 OA
ENDBRANCH   3  22
TORSDOF 7
ENDMDL
MODEL 6
REMARK VINA RESULT:      -4.4      2.520      4.675
REMARK  7 active torsions:
REMARK  status: ('A' for Active; 'I' for Inactive)
REMARK    1  A    between atoms: C_2  and  C_3 
REMARK    2  A    between atoms: C_3  and  O_6 
REMARK    3  A    between atoms: C_3  and  C_4 
REMARK    4  A    between atoms: C_7  and  O_6 
REMARK    5  A    between atoms: C_9  and  C_10 
REMARK    6  A    between atoms: N_15  and  C_14 
REMARK    7  A    between atoms: N_20  and  C_19 
REMARK       I    between atoms: C_22  and  N_20 
ROOT
ATOM      1  C   LIG d   1      -0.963  78.278 115.122  0.00  0.00     0.161 C 
ATOM      2  C   LIG d   1      -2.082  77.432 115.203  0.00  0.00     0.016 C 
ATOM      3  C   LIG d   1      -2.993  77.244 114.138  0.00  0.00     0.038 C 
ATOM      4  C   LIG d   1      -2.761  77.776 112.861  0.00  0.00     0.028 C 
ATOM      5  C   LIG d   1      -1.913  79.043 112.877  0.00  0.00    -0.047 C 
ATOM      6  C   LIG d   1      -0.632  78.779 113.701  0.00  0.00     0.091 C 
ENDROOT
BRANCH   1   7
ATOM      7  O   LIG d   1       0.184  77.626 115.704  0.00  0.00    -0.368 OA
BRANCH   7   8
ATOM      8  C   LIG d   1      -0.071  76.374 116.385  0.00  0.00     0.119 C 
BRANCH   8   9
ATOM      9  C   LIG d   1       0.543  76.480 117.795  0.00  0.00     0.028 C 
ATOM     10  C   LIG d   1       1.239  77.832 118.031  0.00  0.00     0.006 C 
ENDBRANCH   8   9
BRANCH   8  11
ATOM     11  C   LIG d   1       0.662  75.212 115.710  0.00  0.00     0.028 C 
ATOM     12  C   LIG d   1      -0.296  74.180 115.093  0.00  0.00     0.006 C 
ENDBRANCH   8  11
ENDBRANCH   7   8
ENDBRANCH   1   7
BRANCH   6  13
ATOM     13  N   LIG d   1       0.214  79.994 113.838  0.00  0.00    -0.311 N 
ATOM     14  C   LIG d   1       1.130  80.354 112.941  0.00  0.00     0.210 C 
ATOM     15  C   LIG d   1       1.906  81.630 113.286  0.00  0.00     0.109 C 
ATOM     16  O   LIG d   1       1.351  79.757 111.877  0.00  0.00    -0.276 OA
ATOM     17  H   LIG d   1       0.079  80.553 114.657  0.00  0.00     0.149 HD
ENDBRANCH   6  13
BRANCH   5  18
ATOM     18  N   LIG d   1      -1.634  79.411 111.476  0.00  0.00     0.381 N 
ATOM     19  H   LIG d   1      -1.074  78.703 111.045  0.00  0.00    -0.090 HD
ATOM     20  H   LIG d   1      -1.117  80.273 111.463  0.00  0.00    -0.090 HD
ATOM     21  H   LIG d   1      -2.488  79.519 110.975  0.00  0.00    -0.090 HD
ENDBRANCH   5  18
BRANCH   3  22
ATOM     22  C   LIG d   1      -4.172  76.549 114.357  0.00  0.00     0.382 C 
ATOM     23  O   LIG d   1      -4.283  75.362 113.965  0.00  0.00    -0.241 OA
ATOM     24  O   LIG d   1      -5.142  77.107 114.904  0.00  0.00    -0.241 OA
ENDBRANCH   3  22
TORSDOF 7
ENDMDL
MODEL 7
REMARK VINA RESULT:      -4.4      2.360      3.552
REMARK  7 active torsions:
REMARK  status: ('A' for Active; 'I' for Inactive)
REMARK    1  A    between atoms: C_2  and  C_3 
REMARK    2  A    between atoms: C_3  and  O_6 
REMARK    3  A    between atoms: C_3  and  C_4 
REMARK    4  A    between atoms: C_7  and  O_6 
REMARK    5  A    between atoms: C_9  and  C_10 
REMARK    6  A    between atoms: N_15  and  C_14 
REMARK    7  A    between atoms: N_20  and  C_19 
REMARK       I    between atoms: C_22  and  N_20 
ROOT
ATOM      1  C   LIG d   1      -1.106  77.623 115.231  0.00  0.00     0.161 C 
ATOM      2  C   LIG d   1      -0.140  78.599 114.936  0.00  0.00     0.016 C 
ATOM      3  C   LIG d   1      -0.137  79.355 113.741  0.00  0.00     0.038 C 
ATOM      4  C   LIG d   1      -1.195  79.292 112.822  0.00  0.00     0.028 C 
ATOM      5  C   LIG d   1      -1.931  77.956 112.836  0.00  0.00    -0.047 C 
ATOM      6  C   LIG d   1      -2.329  77.618 114.291  0.00  0.00     0.091 C 
ENDROOT
BRANCH   1   7
ATOM      7  O   LIG d   1      -1.529  77.753 116.603  0.00  0.00    -0.368 OA
BRANCH   7   8
ATOM      8  C   LIG d   1      -1.131  76.684 117.497  0.00  0.00     0.119 C 
BRANCH   8   9
ATOM      9  C   LIG d   1      -0.464  75.590 116.642  0.00  0.00     0.028 C 
ATOM     10  C   LIG d   1      -1.104  74.207 116.853  0.00  0.00     0.006 C 
ENDBRANCH   8   9
BRANCH   8  11
ATOM     11  C   LIG d   1      -2.349  76.011 118.137  0.00  0.00     0.028 C 
ATOM     12  C   LIG d   1      -3.636  76.838 117.984  0.00  0.00     0.006 C 
ENDBRANCH   8  11
ENDBRANCH   7   8
ENDBRANCH   1   7
BRANCH   6  13
ATOM     13  N   LIG d   1      -2.980  76.287 114.406  0.00  0.00    -0.311 N 
ATOM     14  C   LIG d   1      -4.300  76.113 114.398  0.00  0.00     0.210 C 
ATOM     15  C   LIG d   1      -4.762  74.661 114.549  0.00  0.00     0.109 C 
ATOM     16  O   LIG d   1      -5.132  77.021 114.249  0.00  0.00    -0.276 OA
ATOM     17  H   LIG d   1      -2.379  75.492 114.499  0.00  0.00     0.149 HD
ENDBRANCH   6  13
BRANCH   5  18
ATOM     18  N   LIG d   1      -3.091  78.077 111.932  0.00  0.00     0.381 N 
ATOM     19  H   LIG d   1      -3.149  77.268 111.347  0.00  0.00    -0.090 HD
ATOM     20  H   LIG d   1      -2.963  78.883 111.346  0.00  0.00    -0.090 HD
ATOM     21  H   LIG d   1      -3.928  78.172 112.463  0.00  0.00    -0.090 HD
ENDBRANCH   5  18
BRANCH   3  22
ATOM     22  C   LIG d   1       0.952  80.157 113.438  0.00  0.00     0.382 C 
ATOM     23  O   LIG d   1       1.421  80.164 112.274  0.00  0.00    -0.241 OA
ATOM     24  O   LIG d   1       1.500  80.840 114.324  0.00  0.00    -0.241 OA
ENDBRANCH   3  22
TORSDOF 7
ENDMDL
MODEL 8
REMARK VINA RESULT:      -4.4      2.488      3.441
REMARK  7 active torsions:
REMARK  status: ('A' for Active; 'I' for Inactive)
REMARK    1  A    between atoms: C_2  and  C_3 
REMARK    2  A    between atoms: C_3  and  O_6 
REMARK    3  A    between atoms: C_3  and  C_4 
REMARK    4  A    between atoms: C_7  and  O_6 
REMARK    5  A    between atoms: C_9  and  C_10 
REMARK    6  A    between atoms: N_15  and  C_14 
REMARK    7  A    between atoms: N_20  and  C_19 
REMARK       I    between atoms: C_22  and  N_20 
ROOT
ATOM      1  C   LIG d   1      -2.835  77.117 115.450  0.00  0.00     0.161 C 
ATOM      2  C   LIG d   1      -2.934  77.436 114.085  0.00  0.00     0.016 C 
ATOM      3  C   LIG d   1      -1.902  78.073 113.358  0.00  0.00     0.038 C 
ATOM      4  C   LIG d   1      -0.634  78.300 113.915  0.00  0.00     0.028 C 
ATOM      5  C   LIG d   1      -0.657  78.453 115.432  0.00  0.00    -0.047 C 
ATOM      6  C   LIG d   1      -1.418  77.256 116.046  0.00  0.00     0.091 C 
ENDROOT
BRANCH   1   7
ATOM      7  O   LIG d   1      -3.347  75.790 115.680  0.00  0.00    -0.368 OA
BRANCH   7   8
ATOM      8  C   LIG d   1      -4.496  75.692 116.557  0.00  0.00     0.119 C 
BRANCH   8   9
ATOM      9  C   LIG d   1      -5.603  74.946 115.789  0.00  0.00     0.028 C 
ATOM     10  C   LIG d   1      -5.059  74.180 114.571  0.00  0.00     0.006 C 
ENDBRANCH   8   9
BRANCH   8  11
ATOM     11  C   LIG d   1      -5.078  77.074 116.867  0.00  0.00     0.028 C 
ATOM     12  C   LIG d   1      -6.571  77.184 116.516  0.00  0.00     0.006 C 
ENDBRANCH   8  11
ENDBRANCH   7   8
ENDBRANCH   1   7
BRANCH   6  13
ATOM     13  N   LIG d   1      -1.560  77.371 117.521  0.00  0.00    -0.311 N 
ATOM     14  C   LIG d   1      -1.269  76.382 118.364  0.00  0.00     0.210 C 
ATOM     15  C   LIG d   1      -1.506  76.703 119.843  0.00  0.00     0.109 C 
ATOM     16  O   LIG d   1      -0.807  75.281 118.030  0.00  0.00    -0.276 OA
ATOM     17  H   LIG d   1      -1.899  78.242 117.880  0.00  0.00     0.149 HD
ENDBRANCH   6  13
BRANCH   5  18
ATOM     18  N   LIG d   1       0.742  78.546 115.892  0.00  0.00     0.381 N 
ATOM     19  H   LIG d   1       1.046  79.499 115.859  0.00  0.00    -0.090 HD
ATOM     20  H   LIG d   1       1.323  78.008 115.274  0.00  0.00    -0.090 HD
ATOM     21  H   LIG d   1       0.819  78.197 116.821  0.00  0.00    -0.090 HD
ENDBRANCH   5  18
BRANCH   3  22
ATOM     22  C   LIG d   1      -2.147  78.527 112.071  0.00  0.00     0.382 C 
ATOM     23  O   LIG d   1      -2.839  77.837 111.285  0.00  0.00    -0.241 OA
ATOM     24  O   LIG d   1      -1.648  79.596 111.673  0.00  0.00    -0.241 OA
ENDBRANCH   3  22
TORSDOF 7
ENDMDL
MODEL 9
REMARK VINA RESULT:      -4.4      2.719      3.453
REMARK  7 active torsions:
REMARK  status: ('A' for Active; 'I' for Inactive)
REMARK    1  A    between atoms: C_2  and  C_3 
REMARK    2  A    between atoms: C_3  and  O_6 
REMARK    3  A    between atoms: C_3  and  C_4 
REMARK    4  A    between atoms: C_7  and  O_6 
REMARK    5  A    between atoms: C_9  and  C_10 
REMARK    6  A    between atoms: N_15  and  C_14 
REMARK    7  A    between atoms: N_20  and  C_19 
REMARK       I    between atoms: C_22  and  N_20 
ROOT
ATOM      1  C   LIG d   1      -2.359  78.162 114.561  0.00  0.00     0.161 C 
ATOM      2  C   LIG d   1      -2.462  77.917 113.181  0.00  0.00     0.016 C 
ATOM      3  C   LIG d   1      -1.518  78.382 112.236  0.00  0.00     0.038 C 
ATOM      4  C   LIG d   1      -0.320  78.998 112.626  0.00  0.00     0.028 C 
ATOM      5  C   LIG d   1      -0.416  79.712 113.970  0.00  0.00    -0.047 C 
ATOM      6  C   LIG d   1      -1.001  78.736 115.016  0.00  0.00     0.091 C 
ENDROOT
BRANCH   1   7
ATOM      7  O   LIG d   1      -2.666  76.960 115.294  0.00  0.00    -0.368 OA
BRANCH   7   8
ATOM      8  C   LIG d   1      -4.070  76.625 115.411  0.00  0.00     0.119 C 
BRANCH   8   9
ATOM      9  C   LIG d   1      -4.377  76.426 116.908  0.00  0.00     0.028 C 
ATOM     10  C   LIG d   1      -3.124  76.572 117.788  0.00  0.00     0.006 C 
ENDBRANCH   8   9
BRANCH   8  11
ATOM     11  C   LIG d   1      -4.378  75.277 114.752  0.00  0.00     0.028 C 
ATOM     12  C   LIG d   1      -5.403  74.448 115.542  0.00  0.00     0.006 C 
ENDBRANCH   8  11
ENDBRANCH   7   8
ENDBRANCH   1   7
BRANCH   6  13
ATOM     13  N   LIG d   1      -1.207  79.381 116.340  0.00  0.00    -0.311 N 
ATOM     14  C   LIG d   1      -0.303  79.352 117.318  0.00  0.00     0.210 C 
ATOM     15  C   LIG d   1      -0.724  80.062 118.608  0.00  0.00     0.109 C 
ATOM     16  O   LIG d   1       0.820  78.835 117.227  0.00  0.00    -0.276 OA
ATOM     17  H   LIG d   1      -2.079  79.850 116.488  0.00  0.00     0.149 HD
ENDBRANCH   6  13
BRANCH   5  18
ATOM     18  N   LIG d   1       0.936  80.190 114.318  0.00  0.00     0.381 N 
ATOM     19  H   LIG d   1       1.138  79.968 115.273  0.00  0.00    -0.090 HD
ATOM     20  H   LIG d   1       0.964  81.189 114.214  0.00  0.00    -0.090 HD
ATOM     21  H   LIG d   1       1.612  79.767 113.721  0.00  0.00    -0.090 HD
ENDBRANCH   5  18
BRANCH   3  22
ATOM     22  C   LIG d   1      -1.789  78.266 110.881  0.00  0.00     0.382 C 
ATOM     23  O   LIG d   1      -2.766  77.581 110.493  0.00  0.00    -0.241 OA
ATOM     24  O   LIG d   1      -1.043  78.803 110.040  0.00  0.00    -0.241 OA
ENDBRANCH   3  22
TORSDOF 7
ENDMDL
