MODEL 1
REMARK VINA RESULT:      -5.2      0.000      0.000
REMARK  7 active torsions:
REMARK  status: ('A' for Active; 'I' for Inactive)
REMARK    1  A    between atoms: C_2  and  C_3 
REMARK    2  A    between atoms: C_3  and  O_6 
REMARK    3  A    between atoms: C_3  and  C_4 
REMARK    4  A    between atoms: C_7  and  O_6 
REMARK    5  A    between atoms: C_9  and  C_10 
REMARK    6  A    between atoms: N_15  and  C_14 
REMARK    7  A    between atoms: N_20  and  C_19 
REMARK       I    between atoms: C_22  and  N_20 
ROOT
ATOM      1  C   LIG d   1      -3.185  78.525 115.446  0.00  0.00     0.161 C 
ATOM      2  C   LIG d   1      -3.253  79.682 114.651  0.00  0.00     0.016 C 
ATOM      3  C   LIG d   1      -2.526  79.844 113.449  0.00  0.00     0.038 C 
ATOM      4  C   LIG d   1      -1.794  78.792 112.878  0.00  0.00     0.028 C 
ATOM      5  C   LIG d   1      -1.292  77.779 113.901  0.00  0.00    -0.047 C 
ATOM      6  C   LIG d   1      -2.478  77.325 114.782  0.00  0.00     0.091 C 
ENDROOT
BRANCH   1   7
ATOM      7  O   LIG d   1      -4.508  78.151 115.878  0.00  0.00    -0.368 OA
BRANCH   7   8
ATOM      8  C   LIG d   1      -4.863  78.519 117.234  0.00  0.00     0.119 C 
BRANCH   8   9
ATOM      9  C   LIG d   1      -5.003  77.216 118.045  0.00  0.00     0.028 C 
ATOM     10  C   LIG d   1      -5.819  76.146 117.300  0.00  0.00     0.006 C 
ENDBRANCH   8   9
BRANCH   8  11
ATOM     11  C   LIG d   1      -6.243  79.180 117.288  0.00  0.00     0.028 C 
ATOM     12  C   LIG d   1      -6.167  80.698 117.520  0.00  0.00     0.006 C 
ENDBRANCH   8  11
ENDBRANCH   7   8
ENDBRANCH   1   7
BRANCH   6  13
ATOM     13  N   LIG d   1      -2.058  76.396 115.863  0.00  0.00    -0.311 N 
ATOM     14  C   LIG d   1      -2.531  75.158 115.991  0.00  0.00     0.210 C 
ATOM     15  C   LIG d   1      -1.980  74.375 117.187  0.00  0.00     0.109 C 
ATOM     16  O   LIG d   1      -3.330  74.622 115.208  0.00  0.00    -0.276 OA
ATOM     17  H   LIG d   1      -1.389  76.739 116.525  0.00  0.00     0.149 HD
ENDBRANCH   6  13
BRANCH   5  18
ATOM     18  N   LIG d   1      -0.666  76.669 113.158  0.00  0.00     0.381 N 
ATOM     19  H   LIG d   1      -0.186  77.026 112.356  0.00  0.00    -0.090 HD
ATOM     20  H   LIG d   1      -1.386  76.043 112.841  0.00  0.00    -0.090 HD
ATOM     21  H   LIG d   1      -0.027  76.181 113.747  0.00  0.00    -0.090 HD
ENDBRANCH   5  18
BRANCH   3  22
ATOM     22  C   LIG d   1      -2.496  81.082 112.826  0.00  0.00     0.382 C 
ATOM     23  O   LIG d   1      -1.414  81.533 112.379  0.00  0.00    -0.241 OA
ATOM     24  O   LIG d   1      -3.529  81.774 112.745  0.00  0.00    -0.241 OA
ENDBRANCH   3  22
TORSDOF 7
ENDMDL
MODEL 2
REMARK VINA RESULT:      -5.0      1.478      1.977
REMARK  7 active torsions:
REMARK  status: ('A' for Active; 'I' for Inactive)
REMARK    1  A    between atoms: C_2  and  C_3 
REMARK    2  A    between atoms: C_3  and  O_6 
REMARK    3  A    between atoms: C_3  and  C_4 
REMARK    4  A    between atoms: C_7  and  O_6 
REMARK    5  A    between atoms: C_9  and  C_10 
REMARK    6  A    between atoms: N_15  and  C_14 
REMARK    7  A    between atoms: N_20  and  C_19 
REMARK       I    between atoms: C_22  and  N_20 
ROOT
ATOM      1  C   LIG d   1      -3.565  77.821 115.301  0.00  0.00     0.161 C 
ATOM      2  C   LIG d   1      -3.556  78.934 114.444  0.00  0.00     0.016 C 
ATOM      3  C   LIG d   1      -2.418  79.343 113.711  0.00  0.00     0.038 C 
ATOM      4  C   LIG d   1      -1.247  78.572 113.669  0.00  0.00     0.028 C 
ATOM      5  C   LIG d   1      -1.041  77.715 114.913  0.00  0.00    -0.047 C 
ATOM      6  C   LIG d   1      -2.330  76.904 115.182  0.00  0.00     0.091 C 
ENDROOT
BRANCH   1   7
ATOM      7  O   LIG d   1      -4.774  77.062 115.103  0.00  0.00    -0.368 OA
BRANCH   7   8
ATOM      8  C   LIG d   1      -5.403  76.542 116.300  0.00  0.00     0.119 C 
BRANCH   8   9
ATOM      9  C   LIG d   1      -5.673  75.042 116.067  0.00  0.00     0.028 C 
ATOM     10  C   LIG d   1      -5.236  74.578 114.667  0.00  0.00     0.006 C 
ENDBRANCH   8   9
BRANCH   8  11
ATOM     11  C   LIG d   1      -6.781  77.172 116.524  0.00  0.00     0.028 C 
ATOM     12  C   LIG d   1      -7.903  76.127 116.629  0.00  0.00     0.006 C 
ENDBRANCH   8  11
ENDBRANCH   7   8
ENDBRANCH   1   7
BRANCH   6  13
ATOM     13  N   LIG d   1      -2.244  76.101 116.430  0.00  0.00    -0.311 N 
ATOM     14  C   LIG d   1      -1.858  74.827 116.457  0.00  0.00     0.210 C 
ATOM     15  C   LIG d   1      -1.860  74.180 117.846  0.00  0.00     0.109 C 
ATOM     16  O   LIG d   1      -1.484  74.180 115.467  0.00  0.00    -0.276 OA
ATOM     17  H   LIG d   1      -2.500  76.557 117.284  0.00  0.00     0.149 HD
ENDBRANCH   6  13
BRANCH   5  18
ATOM     18  N   LIG d   1       0.140  76.863 114.677  0.00  0.00     0.381 N 
ATOM     19  H   LIG d   1       0.094  76.467 113.760  0.00  0.00    -0.090 HD
ATOM     20  H   LIG d   1       0.137  76.112 115.345  0.00  0.00    -0.090 HD
ATOM     21  H   LIG d   1       0.973  77.400 114.774  0.00  0.00    -0.090 HD
ENDBRANCH   5  18
BRANCH   3  22
ATOM     22  C   LIG d   1      -2.432  80.557 113.041  0.00  0.00     0.382 C 
ATOM     23  O   LIG d   1      -3.515  81.168 112.874  0.00  0.00    -0.241 OA
ATOM     24  O   LIG d   1      -1.382  81.026 112.562  0.00  0.00    -0.241 OA
ENDBRANCH   3  22
TORSDOF 7
ENDMDL
MODEL 3
REMARK VINA RESULT:      -4.7      1.690      2.415
REMARK  7 active torsions:
REMARK  status: ('A' for Active; 'I' for Inactive)
REMARK    1  A    between atoms: C_2  and  C_3 
REMARK    2  A    between atoms: C_3  and  O_6 
REMARK    3  A    between atoms: C_3  and  C_4 
REMARK    4  A    between atoms: C_7  and  O_6 
REMARK    5  A    between atoms: C_9  and  C_10 
REMARK    6  A    between atoms: N_15  and  C_14 
REMARK    7  A    between atoms: N_20  and  C_19 
REMARK       I    between atoms: C_22  and  N_20 
ROOT
ATOM      1  C   LIG d   1      -2.633  77.789 116.432  0.00  0.00     0.161 C 
ATOM      2  C   LIG d   1      -2.987  78.628 115.362  0.00  0.00     0.016 C 
ATOM      3  C   LIG d   1      -2.356  78.585 114.098  0.00  0.00     0.038 C 
ATOM      4  C   LIG d   1      -1.424  77.589 113.768  0.00  0.00     0.028 C 
ATOM      5  C   LIG d   1      -0.672  77.039 114.975  0.00  0.00    -0.047 C 
ATOM      6  C   LIG d   1      -1.696  76.623 116.057  0.00  0.00     0.091 C 
ENDROOT
BRANCH   1   7
ATOM      7  O   LIG d   1      -3.823  77.289 117.075  0.00  0.00    -0.368 OA
BRANCH   7   8
ATOM      8  C   LIG d   1      -4.942  76.995 116.203  0.00  0.00     0.119 C 
BRANCH   8   9
ATOM      9  C   LIG d   1      -6.203  77.602 116.849  0.00  0.00     0.028 C 
ATOM     10  C   LIG d   1      -7.420  76.667 116.753  0.00  0.00     0.006 C 
ENDBRANCH   8   9
BRANCH   8  11
ATOM     11  C   LIG d   1      -5.210  75.489 116.129  0.00  0.00     0.028 C 
ATOM     12  C   LIG d   1      -5.074  74.930 114.704  0.00  0.00     0.006 C 
ENDBRANCH   8  11
ENDBRANCH   7   8
ENDBRANCH   1   7
BRANCH   6  13
ATOM     13  N   LIG d   1      -1.041  76.152 117.305  0.00  0.00    -0.311 N 
ATOM     14  C   LIG d   1      -1.349  75.004 117.906  0.00  0.00     0.210 C 
ATOM     15  C   LIG d   1      -0.568  74.719 119.193  0.00  0.00     0.109 C 
ATOM     16  O   LIG d   1      -2.171  74.180 117.479  0.00  0.00    -0.276 OA
ATOM     17  H   LIG d   1      -0.340  76.745 117.704  0.00  0.00     0.149 HD
ENDBRANCH   6  13
BRANCH   5  18
ATOM     18  N   LIG d   1       0.163  75.918 114.507  0.00  0.00     0.381 N 
ATOM     19  H   LIG d   1      -0.029  75.101 115.053  0.00  0.00    -0.090 HD
ATOM     20  H   LIG d   1       1.131  76.159 114.631  0.00  0.00    -0.090 HD
ATOM     21  H   LIG d   1      -0.020  75.734 113.545  0.00  0.00    -0.090 HD
ENDBRANCH   5  18
BRANCH   3  22
ATOM     22  C   LIG d   1      -2.627  79.570 113.160  0.00  0.00     0.382 C 
ATOM     23  O   LIG d   1      -2.096  79.518 112.025  0.00  0.00    -0.241 OA
ATOM     24  O   LIG d   1      -3.361  80.533 113.450  0.00  0.00    -0.241 OA
ENDBRANCH   3  22
TORSDOF 7
ENDMDL
MODEL 4
REMARK VINA RESULT:      -4.7      2.132      2.743
REMARK  7 active torsions:
REMARK  status: ('A' for Active; 'I' for Inactive)
REMARK    1  A    between atoms: C_2  and  C_3 
REMARK    2  A    between atoms: C_3  and  O_6 
REMARK    3  A    between atoms: C_3  and  C_4 
REMARK    4  A    between atoms: C_7  and  O_6 
REMARK    5  A    between atoms: C_9  and  C_10 
REMARK    6  A    between atoms: N_15  and  C_14 
REMARK    7  A    between atoms: N_20  and  C_19 
REMARK       I    between atoms: C_22  and  N_20 
ROOT
ATOM      1  C   LIG d   1      -3.361  76.457 115.577  0.00  0.00     0.161 C 
ATOM      2  C   LIG d   1      -3.584  77.033 114.316  0.00  0.00     0.016 C 
ATOM      3  C   LIG d   1      -2.544  77.487 113.472  0.00  0.00     0.038 C 
ATOM      4  C   LIG d   1      -1.193  77.255 113.771  0.00  0.00     0.028 C 
ATOM      5  C   LIG d   1      -0.916  77.130 115.265  0.00  0.00    -0.047 C 
ATOM      6  C   LIG d   1      -1.890  76.095 115.872  0.00  0.00     0.091 C 
ENDROOT
BRANCH   1   7
ATOM      7  O   LIG d   1      -4.205  75.300 115.742  0.00  0.00    -0.368 OA
BRANCH   7   8
ATOM      8  C   LIG d   1      -5.091  75.316 116.889  0.00  0.00     0.119 C 
BRANCH   8   9
ATOM      9  C   LIG d   1      -6.472  74.826 116.413  0.00  0.00     0.028 C 
ATOM     10  C   LIG d   1      -7.380  75.981 115.958  0.00  0.00     0.006 C 
ENDBRANCH   8   9
BRANCH   8  11
ATOM     11  C   LIG d   1      -5.319  76.742 117.397  0.00  0.00     0.028 C 
ATOM     12  C   LIG d   1      -4.933  76.917 118.875  0.00  0.00     0.006 C 
ENDBRANCH   8  11
ENDBRANCH   7   8
ENDBRANCH   1   7
BRANCH   6  13
ATOM     13  N   LIG d   1      -1.744  75.974 117.346  0.00  0.00    -0.311 N 
ATOM     14  C   LIG d   1      -1.012  75.030 117.934  0.00  0.00     0.210 C 
ATOM     15  C   LIG d   1      -1.011  75.072 119.466  0.00  0.00     0.109 C 
ATOM     16  O   LIG d   1      -0.337  74.180 117.333  0.00  0.00    -0.276 OA
ATOM     17  H   LIG d   1      -2.233  76.642 117.909  0.00  0.00     0.149 HD
ENDBRANCH   6  13
BRANCH   5  18
ATOM     18  N   LIG d   1       0.501  76.754 115.426  0.00  0.00     0.381 N 
ATOM     19  H   LIG d   1       0.729  76.013 114.792  0.00  0.00    -0.090 HD
ATOM     20  H   LIG d   1       0.645  76.422 116.363  0.00  0.00    -0.090 HD
ATOM     21  H   LIG d   1       1.085  77.542 115.251  0.00  0.00    -0.090 HD
ENDBRANCH   5  18
BRANCH   3  22
ATOM     22  C   LIG d   1      -2.851  78.216 112.334  0.00  0.00     0.382 C 
ATOM     23  O   LIG d   1      -2.202  79.254 112.060  0.00  0.00    -0.241 OA
ATOM     24  O   LIG d   1      -3.798  77.874 111.600  0.00  0.00    -0.241 OA
ENDBRANCH   3  22
TORSDOF 7
ENDMDL
MODEL 5
REMARK VINA RESULT:      -4.6      3.019      5.549
REMARK  7 active torsions:
REMARK  status: ('A' for Active; 'I' for Inactive)
REMARK    1  A    between atoms: C_2  and  C_3 
REMARK    2  A    between atoms: C_3  and  O_6 
REMARK    3  A    between atoms: C_3  and  C_4 
REMARK    4  A    between atoms: C_7  and  O_6 
REMARK    5  A    between atoms: C_9  and  C_10 
REMARK    6  A    between atoms: N_15  and  C_14 
REMARK    7  A    between atoms: N_20  and  C_19 
REMARK       I    between atoms: C_22  and  N_20 
ROOT
ATOM      1  C   LIG d   1      -1.785  79.836 114.373  0.00  0.00     0.161 C 
ATOM      2  C   LIG d   1      -2.489  78.698 114.800  0.00  0.00     0.016 C 
ATOM      3  C   LIG d   1      -2.821  77.621 113.946  0.00  0.00     0.038 C 
ATOM      4  C   LIG d   1      -2.336  77.541 112.632  0.00  0.00     0.028 C 
ATOM      5  C   LIG d   1      -2.047  78.902 112.009  0.00  0.00    -0.047 C 
ATOM      6  C   LIG d   1      -1.152  79.715 112.971  0.00  0.00     0.091 C 
ENDROOT
BRANCH   1   7
ATOM      7  O   LIG d   1      -0.783  80.185 115.348  0.00  0.00    -0.368 OA
BRANCH   7   8
ATOM      8  C   LIG d   1      -0.859  79.491 116.617  0.00  0.00     0.119 C 
BRANCH   8   9
ATOM      9  C   LIG d   1      -0.981  80.558 117.722  0.00  0.00     0.028 C 
ATOM     10  C   LIG d   1      -2.273  80.408 118.543  0.00  0.00     0.006 C 
ENDBRANCH   8   9
BRANCH   8  11
ATOM     11  C   LIG d   1       0.441  78.740 116.921  0.00  0.00     0.028 C 
ATOM     12  C   LIG d   1       0.293  77.215 116.793  0.00  0.00     0.006 C 
ENDBRANCH   8  11
ENDBRANCH   7   8
ENDBRANCH   1   7
BRANCH   6  13
ATOM     13  N   LIG d   1      -0.891  81.092 112.476  0.00  0.00    -0.311 N 
ATOM     14  C   LIG d   1       0.167  81.416 111.734  0.00  0.00     0.210 C 
ATOM     15  C   LIG d   1       0.256  82.896 111.346  0.00  0.00     0.109 C 
ATOM     16  O   LIG d   1       1.023  80.613 111.334  0.00  0.00    -0.276 OA
ATOM     17  H   LIG d   1      -1.552  81.800 112.728  0.00  0.00     0.149 HD
ENDBRANCH   6  13
BRANCH   5  18
ATOM     18  N   LIG d   1      -1.419  78.667 110.695  0.00  0.00     0.381 N 
ATOM     19  H   LIG d   1      -0.683  77.996 110.787  0.00  0.00    -0.090 HD
ATOM     20  H   LIG d   1      -1.022  79.529 110.365  0.00  0.00    -0.090 HD
ATOM     21  H   LIG d   1      -2.100  78.337 110.046  0.00  0.00    -0.090 HD
ENDBRANCH   5  18
BRANCH   3  22
ATOM     22  C   LIG d   1      -3.680  76.629 114.393  0.00  0.00     0.382 C 
ATOM     23  O   LIG d   1      -3.392  75.964 115.417  0.00  0.00    -0.241 OA
ATOM     24  O   LIG d   1      -4.718  76.359 113.759  0.00  0.00    -0.241 OA
ENDBRANCH   3  22
TORSDOF 7
ENDMDL
MODEL 6
REMARK VINA RESULT:      -4.6      2.666      5.483
REMARK  7 active torsions:
REMARK  status: ('A' for Active; 'I' for Inactive)
REMARK    1  A    between atoms: C_2  and  C_3 
REMARK    2  A    between atoms: C_3  and  O_6 
REMARK    3  A    between atoms: C_3  and  C_4 
REMARK    4  A    between atoms: C_7  and  O_6 
REMARK    5  A    between atoms: C_9  and  C_10 
REMARK    6  A    between atoms: N_15  and  C_14 
REMARK    7  A    between atoms: N_20  and  C_19 
REMARK       I    between atoms: C_22  and  N_20 
ROOT
ATOM      1  C   LIG d   1      -1.375  75.127 115.375  0.00  0.00     0.161 C 
ATOM      2  C   LIG d   1      -0.812  74.659 116.574  0.00  0.00     0.016 C 
ATOM      3  C   LIG d   1      -0.113  75.487 117.481  0.00  0.00     0.038 C 
ATOM      4  C   LIG d   1      -0.059  76.880 117.324  0.00  0.00     0.028 C 
ATOM      5  C   LIG d   1      -0.178  77.330 115.872  0.00  0.00    -0.047 C 
ATOM      6  C   LIG d   1      -1.422  76.664 115.240  0.00  0.00     0.091 C 
ENDROOT
BRANCH   1   7
ATOM      7  O   LIG d   1      -2.692  74.568 115.202  0.00  0.00    -0.368 OA
BRANCH   7   8
ATOM      8  C   LIG d   1      -3.801  75.421 115.579  0.00  0.00     0.119 C 
BRANCH   8   9
ATOM      9  C   LIG d   1      -4.223  75.027 117.007  0.00  0.00     0.028 C 
ATOM     10  C   LIG d   1      -3.938  76.139 118.031  0.00  0.00     0.006 C 
ENDBRANCH   8   9
BRANCH   8  11
ATOM     11  C   LIG d   1      -5.030  75.155 114.705  0.00  0.00     0.028 C 
ATOM     12  C   LIG d   1      -6.212  76.077 115.043  0.00  0.00     0.006 C 
ENDBRANCH   8  11
ENDBRANCH   7   8
ENDBRANCH   1   7
BRANCH   6  13
ATOM     13  N   LIG d   1      -1.565  76.984 113.796  0.00  0.00    -0.311 N 
ATOM     14  C   LIG d   1      -2.389  77.922 113.332  0.00  0.00     0.210 C 
ATOM     15  C   LIG d   1      -2.398  78.078 111.808  0.00  0.00     0.109 C 
ATOM     16  O   LIG d   1      -3.090  78.662 114.039  0.00  0.00    -0.276 OA
ATOM     17  H   LIG d   1      -1.011  76.453 113.154  0.00  0.00     0.149 HD
ENDBRANCH   6  13
BRANCH   5  18
ATOM     18  N   LIG d   1      -0.246  78.803 115.866  0.00  0.00     0.381 N 
ATOM     19  H   LIG d   1       0.644  79.183 115.612  0.00  0.00    -0.090 HD
ATOM     20  H   LIG d   1      -0.473  79.122 116.792  0.00  0.00    -0.090 HD
ATOM     21  H   LIG d   1      -0.941  79.110 115.222  0.00  0.00    -0.090 HD
ENDBRANCH   5  18
BRANCH   3  22
ATOM     22  C   LIG d   1       0.576  74.917 118.541  0.00  0.00     0.382 C 
ATOM     23  O   LIG d   1      -0.027  74.180 119.358  0.00  0.00    -0.241 OA
ATOM     24  O   LIG d   1       1.784  75.166 118.716  0.00  0.00    -0.241 OA
ENDBRANCH   3  22
TORSDOF 7
ENDMDL
MODEL 7
REMARK VINA RESULT:      -4.4      2.956      3.998
REMARK  7 active torsions:
REMARK  status: ('A' for Active; 'I' for Inactive)
REMARK    1  A    between atoms: C_2  and  C_3 
REMARK    2  A    between atoms: C_3  and  O_6 
REMARK    3  A    between atoms: C_3  and  C_4 
REMARK    4  A    between atoms: C_7  and  O_6 
REMARK    5  A    between atoms: C_9  and  C_10 
REMARK    6  A    between atoms: N_15  and  C_14 
REMARK    7  A    between atoms: N_20  and  C_19 
REMARK       I    between atoms: C_22  and  N_20 
ROOT
ATOM      1  C   LIG d   1      -4.745  76.930 117.620  0.00  0.00     0.161 C 
ATOM      2  C   LIG d   1      -5.514  78.098 117.751  0.00  0.00     0.016 C 
ATOM      3  C   LIG d   1      -5.073  79.373 117.325  0.00  0.00     0.038 C 
ATOM      4  C   LIG d   1      -3.886  79.541 116.596  0.00  0.00     0.028 C 
ATOM      5  C   LIG d   1      -2.841  78.469 116.884  0.00  0.00    -0.047 C 
ATOM      6  C   LIG d   1      -3.494  77.076 116.727  0.00  0.00     0.091 C 
ENDROOT
BRANCH   1   7
ATOM      7  O   LIG d   1      -5.574  75.850 117.148  0.00  0.00    -0.368 OA
BRANCH   7   8
ATOM      8  C   LIG d   1      -6.784  76.233 116.451  0.00  0.00     0.119 C 
BRANCH   8   9
ATOM      9  C   LIG d   1      -7.929  75.355 116.994  0.00  0.00     0.028 C 
ATOM     10  C   LIG d   1      -8.058  75.440 118.524  0.00  0.00     0.006 C 
ENDBRANCH   8   9
BRANCH   8  11
ATOM     11  C   LIG d   1      -6.695  75.905 114.958  0.00  0.00     0.028 C 
ATOM     12  C   LIG d   1      -5.462  75.057 114.607  0.00  0.00     0.006 C 
ENDBRANCH   8  11
ENDBRANCH   7   8
ENDBRANCH   1   7
BRANCH   6  13
ATOM     13  N   LIG d   1      -2.563  75.971 117.073  0.00  0.00    -0.311 N 
ATOM     14  C   LIG d   1      -1.838  75.314 116.170  0.00  0.00     0.210 C 
ATOM     15  C   LIG d   1      -0.957  74.196 116.737  0.00  0.00     0.109 C 
ATOM     16  O   LIG d   1      -1.815  75.572 114.957  0.00  0.00    -0.276 OA
ATOM     17  H   LIG d   1      -2.496  75.717 118.039  0.00  0.00     0.149 HD
ENDBRANCH   6  13
BRANCH   5  18
ATOM     18  N   LIG d   1      -1.713  78.686 115.959  0.00  0.00     0.381 N 
ATOM     19  H   LIG d   1      -0.967  79.150 116.438  0.00  0.00    -0.090 HD
ATOM     20  H   LIG d   1      -2.020  79.275 115.206  0.00  0.00    -0.090 HD
ATOM     21  H   LIG d   1      -1.394  77.813 115.600  0.00  0.00    -0.090 HD
ENDBRANCH   5  18
BRANCH   3  22
ATOM     22  C   LIG d   1      -5.805  80.501 117.663  0.00  0.00     0.382 C 
ATOM     23  O   LIG d   1      -5.497  81.166 118.682  0.00  0.00    -0.241 OA
ATOM     24  O   LIG d   1      -6.795  80.838 116.987  0.00  0.00    -0.241 OA
ENDBRANCH   3  22
TORSDOF 7
ENDMDL
MODEL 8
REMARK VINA RESULT:      -4.4      2.465      2.901
REMARK  7 active torsions:
REMARK  status: ('A' for Active; 'I' for Inactive)
REMARK    1  A    between atoms: C_2  and  C_3 
REMARK    2  A    between atoms: C_3  and  O_6 
REMARK    3  A    between atoms: C_3  and  C_4 
REMARK    4  A    between atoms: C_7  and  O_6 
REMARK    5  A    between atoms: C_9  and  C_10 
REMARK    6  A    between atoms: N_15  and  C_14 
REMARK    7  A    between atoms: N_20  and  C_19 
REMARK       I    between atoms: C_22  and  N_20 
ROOT
ATOM      1  C   LIG d   1      -3.284  78.509 116.522  0.00  0.00     0.161 C 
ATOM      2  C   LIG d   1      -2.385  79.518 116.907  0.00  0.00     0.016 C 
ATOM      3  C   LIG d   1      -1.053  79.593 116.439  0.00  0.00     0.038 C 
ATOM      4  C   LIG d   1      -0.572  78.745 115.431  0.00  0.00     0.028 C 
ATOM      5  C   LIG d   1      -1.285  77.398 115.382  0.00  0.00    -0.047 C 
ATOM      6  C   LIG d   1      -2.811  77.639 115.338  0.00  0.00     0.091 C 
ENDROOT
BRANCH   1   7
ATOM      7  O   LIG d   1      -4.574  79.085 116.237  0.00  0.00    -0.368 OA
BRANCH   7   8
ATOM      8  C   LIG d   1      -5.525  79.091 117.329  0.00  0.00     0.119 C 
BRANCH   8   9
ATOM      9  C   LIG d   1      -6.532  77.954 117.072  0.00  0.00     0.028 C 
ATOM     10  C   LIG d   1      -6.237  76.706 117.921  0.00  0.00     0.006 C 
ENDBRANCH   8   9
BRANCH   8  11
ATOM     11  C   LIG d   1      -6.358  80.377 117.336  0.00  0.00     0.028 C 
ATOM     12  C   LIG d   1      -7.746  80.184 117.967  0.00  0.00     0.006 C 
ENDBRANCH   8  11
ENDBRANCH   7   8
ENDBRANCH   1   7
BRANCH   6  13
ATOM     13  N   LIG d   1      -3.587  76.372 115.373  0.00  0.00    -0.311 N 
ATOM     14  C   LIG d   1      -4.543  76.073 114.495  0.00  0.00     0.210 C 
ATOM     15  C   LIG d   1      -5.232  74.724 114.724  0.00  0.00     0.109 C 
ATOM     16  O   LIG d   1      -4.865  76.784 113.531  0.00  0.00    -0.276 OA
ATOM     17  H   LIG d   1      -3.369  75.724 116.105  0.00  0.00     0.149 HD
ENDBRANCH   6  13
BRANCH   5  18
ATOM     18  N   LIG d   1      -0.781  76.670 114.202  0.00  0.00     0.381 N 
ATOM     19  H   LIG d   1       0.214  76.583 114.257  0.00  0.00    -0.090 HD
ATOM     20  H   LIG d   1      -1.006  77.195 113.375  0.00  0.00    -0.090 HD
ATOM     21  H   LIG d   1      -1.198  75.766 114.155  0.00  0.00    -0.090 HD
ENDBRANCH   5  18
BRANCH   3  22
ATOM     22  C   LIG d   1      -0.175  80.501 117.011  0.00  0.00     0.382 C 
ATOM     23  O   LIG d   1      -0.424  80.989 118.140  0.00  0.00    -0.241 OA
ATOM     24  O   LIG d   1       0.841  80.872 116.394  0.00  0.00    -0.241 OA
ENDBRANCH   3  22
TORSDOF 7
ENDMDL
MODEL 9
REMARK VINA RESULT:      -4.3      1.908      4.618
REMARK  7 active torsions:
REMARK  status: ('A' for Active; 'I' for Inactive)
REMARK    1  A    between atoms: C_2  and  C_3 
REMARK    2  A    between atoms: C_3  and  O_6 
REMARK    3  A    between atoms: C_3  and  C_4 
REMARK    4  A    between atoms: C_7  and  O_6 
REMARK    5  A    between atoms: C_9  and  C_10 
REMARK    6  A    between atoms: N_15  and  C_14 
REMARK    7  A    between atoms: N_20  and  C_19 
REMARK       I    between atoms: C_22  and  N_20 
ROOT
ATOM      1  C   LIG d   1      -2.908  78.380 114.847  0.00  0.00     0.161 C 
ATOM      2  C   LIG d   1      -3.731  77.276 115.126  0.00  0.00     0.016 C 
ATOM      3  C   LIG d   1      -3.236  75.966 115.324  0.00  0.00     0.038 C 
ATOM      4  C   LIG d   1      -1.861  75.698 115.406  0.00  0.00     0.028 C 
ATOM      5  C   LIG d   1      -1.003  76.691 114.630  0.00  0.00    -0.047 C 
ATOM      6  C   LIG d   1      -1.399  78.127 115.043  0.00  0.00     0.091 C 
ENDROOT
BRANCH   1   7
ATOM      7  O   LIG d   1      -3.332  79.515 115.628  0.00  0.00    -0.368 OA
BRANCH   7   8
ATOM      8  C   LIG d   1      -3.948  79.215 116.904  0.00  0.00     0.119 C 
BRANCH   8   9
ATOM      9  C   LIG d   1      -5.152  80.163 117.070  0.00  0.00     0.028 C 
ATOM     10  C   LIG d   1      -6.447  79.410 117.420  0.00  0.00     0.006 C 
ENDBRANCH   8   9
BRANCH   8  11
ATOM     11  C   LIG d   1      -3.009  79.546 118.068  0.00  0.00     0.028 C 
ATOM     12  C   LIG d   1      -2.312  78.303 118.643  0.00  0.00     0.006 C 
ENDBRANCH   8  11
ENDBRANCH   7   8
ENDBRANCH   1   7
BRANCH   6  13
ATOM     13  N   LIG d   1      -0.665  79.162 114.268  0.00  0.00    -0.311 N 
ATOM     14  C   LIG d   1      -0.936  79.456 112.998  0.00  0.00     0.210 C 
ATOM     15  C   LIG d   1      -0.047  80.541 112.382  0.00  0.00     0.109 C 
ATOM     16  O   LIG d   1      -1.848  78.944 112.332  0.00  0.00    -0.276 OA
ATOM     17  H   LIG d   1       0.071  79.649 114.741  0.00  0.00     0.149 HD
ENDBRANCH   6  13
BRANCH   5  18
ATOM     18  N   LIG d   1       0.410  76.376 114.914  0.00  0.00     0.381 N 
ATOM     19  H   LIG d   1       0.849  77.159 115.357  0.00  0.00    -0.090 HD
ATOM     20  H   LIG d   1       0.884  76.198 114.046  0.00  0.00    -0.090 HD
ATOM     21  H   LIG d   1       0.469  75.575 115.503  0.00  0.00    -0.090 HD
ENDBRANCH   5  18
BRANCH   3  22
ATOM     22  C   LIG d   1      -4.121  74.902 115.402  0.00  0.00     0.382 C 
ATOM     23  O   LIG d   1      -4.837  74.607 114.415  0.00  0.00    -0.241 OA
ATOM     24  O   LIG d   1      -4.244  74.259 116.462  0.00  0.00    -0.241 OA
ENDBRANCH   3  22
TORSDOF 7
ENDMDL
