MODEL 1
REMARK VINA RESULT:      -4.9      0.000      0.000
REMARK  7 active torsions:
REMARK  status: ('A' for Active; 'I' for Inactive)
REMARK    1  A    between atoms: C_2  and  C_3 
REMARK    2  A    between atoms: C_3  and  O_6 
REMARK    3  A    between atoms: C_3  and  C_4 
REMARK    4  A    between atoms: C_7  and  O_6 
REMARK    5  A    between atoms: C_9  and  C_10 
REMARK    6  A    between atoms: N_15  and  C_14 
REMARK    7  A    between atoms: N_20  and  C_19 
REMARK       I    between atoms: C_22  and  N_20 
ROOT
ATOM      1  C   LIG d   1      -2.693  76.870 115.139  0.00  0.00     0.161 C 
ATOM      2  C   LIG d   1      -2.984  77.735 114.072  0.00  0.00     0.016 C 
ATOM      3  C   LIG d   1      -2.078  78.707 113.588  0.00  0.00     0.038 C 
ATOM      4  C   LIG d   1      -0.754  78.778 114.044  0.00  0.00     0.028 C 
ATOM      5  C   LIG d   1      -0.574  78.261 115.467  0.00  0.00    -0.047 C 
ATOM      6  C   LIG d   1      -1.213  76.857 115.575  0.00  0.00     0.091 C 
ENDROOT
BRANCH   1   7
ATOM      7  O   LIG d   1      -3.132  75.535 114.819  0.00  0.00    -0.368 OA
BRANCH   7   8
ATOM      8  C   LIG d   1      -4.225  75.015 115.616  0.00  0.00     0.119 C 
BRANCH   8   9
ATOM      9  C   LIG d   1      -5.417  74.777 114.668  0.00  0.00     0.028 C 
ATOM     10  C   LIG d   1      -6.204  76.067 114.380  0.00  0.00     0.006 C 
ENDBRANCH   8   9
BRANCH   8  11
ATOM     11  C   LIG d   1      -4.715  76.052 116.632  0.00  0.00     0.028 C 
ATOM     12  C   LIG d   1      -4.631  75.550 118.082  0.00  0.00     0.006 C 
ENDBRANCH   8  11
ENDBRANCH   7   8
ENDBRANCH   1   7
BRANCH   6  13
ATOM     13  N   LIG d   1      -1.156  76.313 116.957  0.00  0.00    -0.311 N 
ATOM     14  C   LIG d   1      -0.872  75.041 117.233  0.00  0.00     0.210 C 
ATOM     15  C   LIG d   1      -0.886  74.685 118.723  0.00  0.00     0.109 C 
ATOM     16  O   LIG d   1      -0.578  74.182 116.388  0.00  0.00    -0.276 OA
ATOM     17  H   LIG d   1      -1.350  76.949 117.706  0.00  0.00     0.149 HD
ENDBRANCH   6  13
BRANCH   5  18
ATOM     18  N   LIG d   1       0.870  78.263 115.764  0.00  0.00     0.381 N 
ATOM     19  H   LIG d   1       1.038  77.803 116.636  0.00  0.00    -0.090 HD
ATOM     20  H   LIG d   1       1.184  79.214 115.844  0.00  0.00    -0.090 HD
ATOM     21  H   LIG d   1       1.369  77.802 115.035  0.00  0.00    -0.090 HD
ENDBRANCH   5  18
BRANCH   3  22
ATOM     22  C   LIG d   1      -2.508  79.649 112.665  0.00  0.00     0.382 C 
ATOM     23  O   LIG d   1      -2.133  79.572 111.470  0.00  0.00    -0.241 OA
ATOM     24  O   LIG d   1      -3.231  80.599 113.022  0.00  0.00    -0.241 OA
ENDBRANCH   3  22
TORSDOF 7
ENDMDL
MODEL 2
REMARK VINA RESULT:      -4.6      1.712      4.960
REMARK  7 active torsions:
REMARK  status: ('A' for Active; 'I' for Inactive)
REMARK    1  A    between atoms: C_2  and  C_3 
REMARK    2  A    between atoms: C_3  and  O_6 
REMARK    3  A    between atoms: C_3  and  C_4 
REMARK    4  A    between atoms: C_7  and  O_6 
REMARK    5  A    between atoms: C_9  and  C_10 
REMARK    6  A    between atoms: N_15  and  C_14 
REMARK    7  A    between atoms: N_20  and  C_19 
REMARK       I    between atoms: C_22  and  N_20 
ROOT
ATOM      1  C   LIG d   1      -1.462  75.282 115.426  0.00  0.00     0.161 C 
ATOM      2  C   LIG d   1      -0.840  74.820 116.598  0.00  0.00     0.016 C 
ATOM      3  C   LIG d   1      -0.252  75.677 117.557  0.00  0.00     0.038 C 
ATOM      4  C   LIG d   1      -0.381  77.071 117.482  0.00  0.00     0.028 C 
ATOM      5  C   LIG d   1      -0.562  77.588 116.059  0.00  0.00    -0.047 C 
ATOM      6  C   LIG d   1      -1.710  76.804 115.383  0.00  0.00     0.091 C 
ENDROOT
BRANCH   1   7
ATOM      7  O   LIG d   1      -2.695  74.567 115.213  0.00  0.00    -0.368 OA
BRANCH   7   8
ATOM      8  C   LIG d   1      -3.896  75.205 115.713  0.00  0.00     0.119 C 
BRANCH   8   9
ATOM      9  C   LIG d   1      -4.219  74.577 117.083  0.00  0.00     0.028 C 
ATOM     10  C   LIG d   1      -4.157  75.601 118.228  0.00  0.00     0.006 C 
ENDBRANCH   8   9
BRANCH   8  11
ATOM     11  C   LIG d   1      -5.105  74.890 114.827  0.00  0.00     0.028 C 
ATOM     12  C   LIG d   1      -5.846  76.152 114.358  0.00  0.00     0.006 C 
ENDBRANCH   8  11
ENDBRANCH   7   8
ENDBRANCH   1   7
BRANCH   6  13
ATOM     13  N   LIG d   1      -1.897  77.189 113.960  0.00  0.00    -0.311 N 
ATOM     14  C   LIG d   1      -2.760  78.122 113.560  0.00  0.00     0.210 C 
ATOM     15  C   LIG d   1      -2.810  78.350 112.046  0.00  0.00     0.109 C 
ATOM     16  O   LIG d   1      -3.465  78.805 114.318  0.00  0.00    -0.276 OA
ATOM     17  H   LIG d   1      -1.342  76.707 113.280  0.00  0.00     0.149 HD
ENDBRANCH   6  13
BRANCH   5  18
ATOM     18  N   LIG d   1      -0.821  79.038 116.141  0.00  0.00     0.381 N 
ATOM     19  H   LIG d   1      -1.465  79.308 115.424  0.00  0.00    -0.090 HD
ATOM     20  H   LIG d   1       0.041  79.531 115.992  0.00  0.00    -0.090 HD
ATOM     21  H   LIG d   1      -1.194  79.268 117.035  0.00  0.00    -0.090 HD
ENDBRANCH   5  18
BRANCH   3  22
ATOM     22  C   LIG d   1       0.508  75.139 118.584  0.00  0.00     0.382 C 
ATOM     23  O   LIG d   1       1.656  75.590 118.817  0.00  0.00    -0.241 OA
ATOM     24  O   LIG d   1       0.079  74.180 119.253  0.00  0.00    -0.241 OA
ENDBRANCH   3  22
TORSDOF 7
ENDMDL
MODEL 3
REMARK VINA RESULT:      -4.3      2.050      5.081
REMARK  7 active torsions:
REMARK  status: ('A' for Active; 'I' for Inactive)
REMARK    1  A    between atoms: C_2  and  C_3 
REMARK    2  A    between atoms: C_3  and  O_6 
REMARK    3  A    between atoms: C_3  and  C_4 
REMARK    4  A    between atoms: C_7  and  O_6 
REMARK    5  A    between atoms: C_9  and  C_10 
REMARK    6  A    between atoms: N_15  and  C_14 
REMARK    7  A    between atoms: N_20  and  C_19 
REMARK       I    between atoms: C_22  and  N_20 
ROOT
ATOM      1  C   LIG d   1      -2.189  77.907 114.070  0.00  0.00     0.161 C 
ATOM      2  C   LIG d   1      -3.435  77.262 113.994  0.00  0.00     0.016 C 
ATOM      3  C   LIG d   1      -3.913  76.374 114.985  0.00  0.00     0.038 C 
ATOM      4  C   LIG d   1      -3.237  76.185 116.200  0.00  0.00     0.028 C 
ATOM      5  C   LIG d   1      -1.735  76.424 116.101  0.00  0.00    -0.047 C 
ATOM      6  C   LIG d   1      -1.488  77.800 115.441  0.00  0.00     0.091 C 
ENDROOT
BRANCH   1   7
ATOM      7  O   LIG d   1      -2.330  79.289 113.687  0.00  0.00    -0.368 OA
BRANCH   7   8
ATOM      8  C   LIG d   1      -1.910  79.623 112.341  0.00  0.00     0.119 C 
BRANCH   8   9
ATOM      9  C   LIG d   1      -1.548  78.305 111.629  0.00  0.00     0.028 C 
ATOM     10  C   LIG d   1      -2.569  77.924 110.544  0.00  0.00     0.006 C 
ENDBRANCH   8   9
BRANCH   8  11
ATOM     11  C   LIG d   1      -0.620  80.448 112.348  0.00  0.00     0.028 C 
ATOM     12  C   LIG d   1       0.617  79.624 111.958  0.00  0.00     0.006 C 
ENDBRANCH   8  11
ENDBRANCH   7   8
ENDBRANCH   1   7
BRANCH   6  13
ATOM     13  N   LIG d   1      -0.043  78.076 115.230  0.00  0.00    -0.311 N 
ATOM     14  C   LIG d   1       0.605  79.081 115.816  0.00  0.00     0.210 C 
ATOM     15  C   LIG d   1       2.087  79.200 115.446  0.00  0.00     0.109 C 
ATOM     16  O   LIG d   1       0.101  79.866 116.633  0.00  0.00    -0.276 OA
ATOM     17  H   LIG d   1       0.451  77.469 114.606  0.00  0.00     0.149 HD
ENDBRANCH   6  13
BRANCH   5  18
ATOM     18  N   LIG d   1      -1.178  76.328 117.464  0.00  0.00     0.381 N 
ATOM     19  H   LIG d   1      -0.194  76.150 117.416  0.00  0.00    -0.090 HD
ATOM     20  H   LIG d   1      -1.615  75.560 117.940  0.00  0.00    -0.090 HD
ATOM     21  H   LIG d   1      -1.345  77.176 117.961  0.00  0.00    -0.090 HD
ENDBRANCH   5  18
BRANCH   3  22
ATOM     22  C   LIG d   1      -5.059  75.631 114.746  0.00  0.00     0.382 C 
ATOM     23  O   LIG d   1      -6.188  76.130 114.975  0.00  0.00    -0.241 OA
ATOM     24  O   LIG d   1      -4.978  74.454 114.347  0.00  0.00    -0.241 OA
ENDBRANCH   3  22
TORSDOF 7
ENDMDL
MODEL 4
REMARK VINA RESULT:      -4.3      2.061      2.670
REMARK  7 active torsions:
REMARK  status: ('A' for Active; 'I' for Inactive)
REMARK    1  A    between atoms: C_2  and  C_3 
REMARK    2  A    between atoms: C_3  and  O_6 
REMARK    3  A    between atoms: C_3  and  C_4 
REMARK    4  A    between atoms: C_7  and  O_6 
REMARK    5  A    between atoms: C_9  and  C_10 
REMARK    6  A    between atoms: N_15  and  C_14 
REMARK    7  A    between atoms: N_20  and  C_19 
REMARK       I    between atoms: C_22  and  N_20 
ROOT
ATOM      1  C   LIG d   1      -3.023  78.067 116.313  0.00  0.00     0.161 C 
ATOM      2  C   LIG d   1      -3.229  78.875 115.182  0.00  0.00     0.016 C 
ATOM      3  C   LIG d   1      -2.616  78.634 113.931  0.00  0.00     0.038 C 
ATOM      4  C   LIG d   1      -1.868  77.474 113.683  0.00  0.00     0.028 C 
ATOM      5  C   LIG d   1      -1.221  76.891 114.935  0.00  0.00    -0.047 C 
ATOM      6  C   LIG d   1      -2.299  76.734 116.031  0.00  0.00     0.091 C 
ENDROOT
BRANCH   1   7
ATOM      7  O   LIG d   1      -4.280  77.824 116.975  0.00  0.00    -0.368 OA
BRANCH   7   8
ATOM      8  C   LIG d   1      -5.466  77.919 116.148  0.00  0.00     0.119 C 
BRANCH   8   9
ATOM      9  C   LIG d   1      -6.573  78.572 116.998  0.00  0.00     0.028 C 
ATOM     10  C   LIG d   1      -6.159  79.950 117.541  0.00  0.00     0.006 C 
ENDBRANCH   8   9
BRANCH   8  11
ATOM     11  C   LIG d   1      -6.001  76.531 115.781  0.00  0.00     0.028 C 
ATOM     12  C   LIG d   1      -5.751  76.166 114.309  0.00  0.00     0.006 C 
ENDBRANCH   8  11
ENDBRANCH   7   8
ENDBRANCH   1   7
BRANCH   6  13
ATOM     13  N   LIG d   1      -1.734  76.248 117.317  0.00  0.00    -0.311 N 
ATOM     14  C   LIG d   1      -0.768  76.883 117.979  0.00  0.00     0.210 C 
ATOM     15  C   LIG d   1      -0.316  76.201 119.274  0.00  0.00     0.109 C 
ATOM     16  O   LIG d   1      -0.264  77.962 117.633  0.00  0.00    -0.276 OA
ATOM     17  H   LIG d   1      -2.107  75.396 117.686  0.00  0.00     0.149 HD
ENDBRANCH   6  13
BRANCH   5  18
ATOM     18  N   LIG d   1      -0.590  75.613 114.557  0.00  0.00     0.381 N 
ATOM     19  H   LIG d   1      -0.292  75.651 113.602  0.00  0.00    -0.090 HD
ATOM     20  H   LIG d   1      -1.267  74.877 114.646  0.00  0.00    -0.090 HD
ATOM     21  H   LIG d   1       0.191  75.430 115.148  0.00  0.00    -0.090 HD
ENDBRANCH   5  18
BRANCH   3  22
ATOM     22  C   LIG d   1      -2.716  79.582 112.924  0.00  0.00     0.382 C 
ATOM     23  O   LIG d   1      -3.276  80.681 113.150  0.00  0.00    -0.241 OA
ATOM     24  O   LIG d   1      -2.292  79.333 111.779  0.00  0.00    -0.241 OA
ENDBRANCH   3  22
TORSDOF 7
ENDMDL
MODEL 5
REMARK VINA RESULT:      -4.3      2.434      5.352
REMARK  7 active torsions:
REMARK  status: ('A' for Active; 'I' for Inactive)
REMARK    1  A    between atoms: C_2  and  C_3 
REMARK    2  A    between atoms: C_3  and  O_6 
REMARK    3  A    between atoms: C_3  and  C_4 
REMARK    4  A    between atoms: C_7  and  O_6 
REMARK    5  A    between atoms: C_9  and  C_10 
REMARK    6  A    between atoms: N_15  and  C_14 
REMARK    7  A    between atoms: N_20  and  C_19 
REMARK       I    between atoms: C_22  and  N_20 
ROOT
ATOM      1  C   LIG d   1      -1.323  78.290 115.085  0.00  0.00     0.161 C 
ATOM      2  C   LIG d   1      -2.458  77.473 115.217  0.00  0.00     0.016 C 
ATOM      3  C   LIG d   1      -3.380  77.247 114.169  0.00  0.00     0.038 C 
ATOM      4  C   LIG d   1      -3.146  77.706 112.864  0.00  0.00     0.028 C 
ATOM      5  C   LIG d   1      -2.274  78.955 112.808  0.00  0.00    -0.047 C 
ATOM      6  C   LIG d   1      -0.992  78.709 113.637  0.00  0.00     0.091 C 
ENDROOT
BRANCH   1   7
ATOM      7  O   LIG d   1      -0.185  77.648 115.693  0.00  0.00    -0.368 OA
BRANCH   7   8
ATOM      8  C   LIG d   1      -0.186  77.586 117.141  0.00  0.00     0.119 C 
BRANCH   8   9
ATOM      9  C   LIG d   1       0.886  78.569 117.647  0.00  0.00     0.028 C 
ATOM     10  C   LIG d   1       1.884  78.968 116.546  0.00  0.00     0.006 C 
ENDBRANCH   8   9
BRANCH   8  11
ATOM     11  C   LIG d   1       0.259  76.208 117.640  0.00  0.00     0.028 C 
ATOM     12  C   LIG d   1      -0.616  75.066 117.096  0.00  0.00     0.006 C 
ENDBRANCH   8  11
ENDBRANCH   7   8
ENDBRANCH   1   7
BRANCH   6  13
ATOM     13  N   LIG d   1      -0.122  79.912 113.705  0.00  0.00    -0.311 N 
ATOM     14  C   LIG d   1       0.849  80.164 112.829  0.00  0.00     0.210 C 
ATOM     15  C   LIG d   1       1.641  81.449 113.093  0.00  0.00     0.109 C 
ATOM     16  O   LIG d   1       1.109  79.463 111.839  0.00  0.00    -0.276 OA
ATOM     17  H   LIG d   1      -0.284  80.551 114.459  0.00  0.00     0.149 HD
ENDBRANCH   6  13
BRANCH   5  18
ATOM     18  N   LIG d   1      -1.997  79.242 111.388  0.00  0.00     0.381 N 
ATOM     19  H   LIG d   1      -2.839  79.156 110.855  0.00  0.00    -0.090 HD
ATOM     20  H   LIG d   1      -1.335  78.570 111.043  0.00  0.00    -0.090 HD
ATOM     21  H   LIG d   1      -1.628  80.163 111.292  0.00  0.00    -0.090 HD
ENDBRANCH   5  18
BRANCH   3  22
ATOM     22  C   LIG d   1      -4.571  76.588 114.432  0.00  0.00     0.382 C 
ATOM     23  O   LIG d   1      -5.548  77.222 114.900  0.00  0.00    -0.241 OA
ATOM     24  O   LIG d   1      -4.668  75.360 114.249  0.00  0.00    -0.241 OA
ENDBRANCH   3  22
TORSDOF 7
ENDMDL
MODEL 6
REMARK VINA RESULT:      -4.2      2.531      4.909
REMARK  7 active torsions:
REMARK  status: ('A' for Active; 'I' for Inactive)
REMARK    1  A    between atoms: C_2  and  C_3 
REMARK    2  A    between atoms: C_3  and  O_6 
REMARK    3  A    between atoms: C_3  and  C_4 
REMARK    4  A    between atoms: C_7  and  O_6 
REMARK    5  A    between atoms: C_9  and  C_10 
REMARK    6  A    between atoms: N_15  and  C_14 
REMARK    7  A    between atoms: N_20  and  C_19 
REMARK       I    between atoms: C_22  and  N_20 
ROOT
ATOM      1  C   LIG d   1      -1.858  77.053 114.421  0.00  0.00     0.161 C 
ATOM      2  C   LIG d   1      -3.248  76.856 114.462  0.00  0.00     0.016 C 
ATOM      3  C   LIG d   1      -4.096  77.481 115.405  0.00  0.00     0.038 C 
ATOM      4  C   LIG d   1      -3.627  78.469 116.283  0.00  0.00     0.028 C 
ATOM      5  C   LIG d   1      -2.145  78.329 116.616  0.00  0.00    -0.047 C 
ATOM      6  C   LIG d   1      -1.344  78.213 115.300  0.00  0.00     0.091 C 
ENDROOT
BRANCH   1   7
ATOM      7  O   LIG d   1      -1.429  77.230 113.057  0.00  0.00    -0.368 OA
BRANCH   7   8
ATOM      8  C   LIG d   1      -1.178  78.594 112.639  0.00  0.00     0.119 C 
BRANCH   8   9
ATOM      9  C   LIG d   1      -2.497  79.156 112.075  0.00  0.00     0.028 C 
ATOM     10  C   LIG d   1      -2.846  80.535 112.660  0.00  0.00     0.006 C 
ENDBRANCH   8   9
BRANCH   8  11
ATOM     11  C   LIG d   1      -0.184  78.647 111.475  0.00  0.00     0.028 C 
ATOM     12  C   LIG d   1       0.815  79.809 111.596  0.00  0.00     0.006 C 
ENDBRANCH   8  11
ENDBRANCH   7   8
ENDBRANCH   1   7
BRANCH   6  13
ATOM     13  N   LIG d   1       0.106  77.988 115.537  0.00  0.00    -0.311 N 
ATOM     14  C   LIG d   1       0.993  78.976 115.644  0.00  0.00     0.210 C 
ATOM     15  C   LIG d   1       2.440  78.525 115.867  0.00  0.00     0.109 C 
ATOM     16  O   LIG d   1       0.714  80.184 115.608  0.00  0.00    -0.276 OA
ATOM     17  H   LIG d   1       0.415  77.039 115.610  0.00  0.00     0.149 HD
ENDBRANCH   6  13
BRANCH   5  18
ATOM     18  N   LIG d   1      -1.758  79.499 117.427  0.00  0.00     0.381 N 
ATOM     19  H   LIG d   1      -2.401  80.249 117.267  0.00  0.00    -0.090 HD
ATOM     20  H   LIG d   1      -0.843  79.802 117.145  0.00  0.00    -0.090 HD
ATOM     21  H   LIG d   1      -1.753  79.258 118.394  0.00  0.00    -0.090 HD
ENDBRANCH   5  18
BRANCH   3  22
ATOM     22  C   LIG d   1      -5.422  77.088 115.503  0.00  0.00     0.382 C 
ATOM     23  O   LIG d   1      -6.062  76.776 114.470  0.00  0.00    -0.241 OA
ATOM     24  O   LIG d   1      -6.000  77.084 116.607  0.00  0.00    -0.241 OA
ENDBRANCH   3  22
TORSDOF 7
ENDMDL
MODEL 7
REMARK VINA RESULT:      -4.1      2.847      5.996
REMARK  7 active torsions:
REMARK  status: ('A' for Active; 'I' for Inactive)
REMARK    1  A    between atoms: C_2  and  C_3 
REMARK    2  A    between atoms: C_3  and  O_6 
REMARK    3  A    between atoms: C_3  and  C_4 
REMARK    4  A    between atoms: C_7  and  O_6 
REMARK    5  A    between atoms: C_9  and  C_10 
REMARK    6  A    between atoms: N_15  and  C_14 
REMARK    7  A    between atoms: N_20  and  C_19 
REMARK       I    between atoms: C_22  and  N_20 
ROOT
ATOM      1  C   LIG d   1      -4.214  76.883 117.283  0.00  0.00     0.161 C 
ATOM      2  C   LIG d   1      -5.160  76.184 118.051  0.00  0.00     0.016 C 
ATOM      3  C   LIG d   1      -6.330  75.605 117.508  0.00  0.00     0.038 C 
ATOM      4  C   LIG d   1      -6.559  75.555 116.125  0.00  0.00     0.028 C 
ATOM      5  C   LIG d   1      -5.884  76.688 115.358  0.00  0.00    -0.047 C 
ATOM      6  C   LIG d   1      -4.391  76.743 115.756  0.00  0.00     0.091 C 
ENDROOT
BRANCH   1   7
ATOM      7  O   LIG d   1      -2.883  76.490 117.671  0.00  0.00    -0.368 OA
BRANCH   7   8
ATOM      8  C   LIG d   1      -2.333  75.338 116.986  0.00  0.00     0.119 C 
BRANCH   8   9
ATOM      9  C   LIG d   1      -2.275  74.180 118.001  0.00  0.00     0.028 C 
ATOM     10  C   LIG d   1      -1.237  74.423 119.110  0.00  0.00     0.006 C 
ENDBRANCH   8   9
BRANCH   8  11
ATOM     11  C   LIG d   1      -0.881  75.581 116.565  0.00  0.00     0.028 C 
ATOM     12  C   LIG d   1      -0.483  77.064 116.626  0.00  0.00     0.006 C 
ENDBRANCH   8  11
ENDBRANCH   7   8
ENDBRANCH   1   7
BRANCH   6  13
ATOM     13  N   LIG d   1      -3.675  77.877 115.115  0.00  0.00    -0.311 N 
ATOM     14  C   LIG d   1      -3.015  77.770 113.963  0.00  0.00     0.210 C 
ATOM     15  C   LIG d   1      -2.330  79.055 113.488  0.00  0.00     0.109 C 
ATOM     16  O   LIG d   1      -2.959  76.741 113.273  0.00  0.00    -0.276 OA
ATOM     17  H   LIG d   1      -3.695  78.757 115.592  0.00  0.00     0.149 HD
ENDBRANCH   6  13
BRANCH   5  18
ATOM     18  N   LIG d   1      -6.089  76.436 113.919  0.00  0.00     0.381 N 
ATOM     19  H   LIG d   1      -5.733  75.533 113.679  0.00  0.00    -0.090 HD
ATOM     20  H   LIG d   1      -5.581  77.125 113.393  0.00  0.00    -0.090 HD
ATOM     21  H   LIG d   1      -7.059  76.488 113.699  0.00  0.00    -0.090 HD
ENDBRANCH   5  18
BRANCH   3  22
ATOM     22  C   LIG d   1      -7.305  75.102 118.355  0.00  0.00     0.382 C 
ATOM     23  O   LIG d   1      -7.409  75.545 119.524  0.00  0.00    -0.241 OA
ATOM     24  O   LIG d   1      -8.054  74.180 117.980  0.00  0.00    -0.241 OA
ENDBRANCH   3  22
TORSDOF 7
ENDMDL
MODEL 8
REMARK VINA RESULT:      -4.1      2.834      4.857
REMARK  7 active torsions:
REMARK  status: ('A' for Active; 'I' for Inactive)
REMARK    1  A    between atoms: C_2  and  C_3 
REMARK    2  A    between atoms: C_3  and  O_6 
REMARK    3  A    between atoms: C_3  and  C_4 
REMARK    4  A    between atoms: C_7  and  O_6 
REMARK    5  A    between atoms: C_9  and  C_10 
REMARK    6  A    between atoms: N_15  and  C_14 
REMARK    7  A    between atoms: N_20  and  C_19 
REMARK       I    between atoms: C_22  and  N_20 
ROOT
ATOM      1  C   LIG d   1      -0.639  78.544 114.451  0.00  0.00     0.161 C 
ATOM      2  C   LIG d   1       0.393  79.357 113.954  0.00  0.00     0.016 C 
ATOM      3  C   LIG d   1       0.548  79.667 112.584  0.00  0.00     0.038 C 
ATOM      4  C   LIG d   1      -0.413  79.305 111.628  0.00  0.00     0.028 C 
ATOM      5  C   LIG d   1      -1.204  78.057 112.007  0.00  0.00    -0.047 C 
ATOM      6  C   LIG d   1      -1.760  78.231 113.439  0.00  0.00     0.091 C 
ENDROOT
BRANCH   1   7
ATOM      7  O   LIG d   1      -1.191  79.131 115.646  0.00  0.00    -0.368 OA
BRANCH   7   8
ATOM      8  C   LIG d   1      -0.826  78.496 116.896  0.00  0.00     0.119 C 
BRANCH   8   9
ATOM      9  C   LIG d   1       0.216  79.397 117.586  0.00  0.00     0.028 C 
ATOM     10  C   LIG d   1       1.477  78.622 118.003  0.00  0.00     0.006 C 
ENDBRANCH   8   9
BRANCH   8  11
ATOM     11  C   LIG d   1      -0.114  77.161 116.656  0.00  0.00     0.028 C 
ATOM     12  C   LIG d   1      -0.940  75.952 117.121  0.00  0.00     0.006 C 
ENDBRANCH   8  11
ENDBRANCH   7   8
ENDBRANCH   1   7
BRANCH   6  13
ATOM     13  N   LIG d   1      -2.476  77.021 113.920  0.00  0.00    -0.311 N 
ATOM     14  C   LIG d   1      -3.635  77.066 114.575  0.00  0.00     0.210 C 
ATOM     15  C   LIG d   1      -4.192  75.704 114.999  0.00  0.00     0.109 C 
ATOM     16  O   LIG d   1      -4.270  78.103 114.818  0.00  0.00    -0.276 OA
ATOM     17  H   LIG d   1      -2.047  76.135 113.738  0.00  0.00     0.149 HD
ENDBRANCH   6  13
BRANCH   5  18
ATOM     18  N   LIG d   1      -2.260  77.874 110.994  0.00  0.00     0.381 N 
ATOM     19  H   LIG d   1      -3.132  77.679 111.445  0.00  0.00    -0.090 HD
ATOM     20  H   LIG d   1      -2.022  77.089 110.415  0.00  0.00    -0.090 HD
ATOM     21  H   LIG d   1      -2.344  78.696 110.436  0.00  0.00    -0.090 HD
ENDBRANCH   5  18
BRANCH   3  22
ATOM     22  C   LIG d   1       1.696  80.313 112.151  0.00  0.00     0.382 C 
ATOM     23  O   LIG d   1       1.969  81.460 112.578  0.00  0.00    -0.241 OA
ATOM     24  O   LIG d   1       2.440  79.781 111.304  0.00  0.00    -0.241 OA
ENDBRANCH   3  22
TORSDOF 7
ENDMDL
MODEL 9
REMARK VINA RESULT:      -4.0      2.673      5.916
REMARK  7 active torsions:
REMARK  status: ('A' for Active; 'I' for Inactive)
REMARK    1  A    between atoms: C_2  and  C_3 
REMARK    2  A    between atoms: C_3  and  O_6 
REMARK    3  A    between atoms: C_3  and  C_4 
REMARK    4  A    between atoms: C_7  and  O_6 
REMARK    5  A    between atoms: C_9  and  C_10 
REMARK    6  A    between atoms: N_15  and  C_14 
REMARK    7  A    between atoms: N_20  and  C_19 
REMARK       I    between atoms: C_22  and  N_20 
ROOT
ATOM      1  C   LIG d   1      -1.169  79.326 114.339  0.00  0.00     0.161 C 
ATOM      2  C   LIG d   1      -2.128  78.383 114.745  0.00  0.00     0.016 C 
ATOM      3  C   LIG d   1      -2.929  77.649 113.841  0.00  0.00     0.038 C 
ATOM      4  C   LIG d   1      -2.718  77.697 112.455  0.00  0.00     0.028 C 
ATOM      5  C   LIG d   1      -2.103  79.010 111.981  0.00  0.00    -0.047 C 
ATOM      6  C   LIG d   1      -0.847  79.311 112.830  0.00  0.00     0.091 C 
ENDROOT
BRANCH   1   7
ATOM      7  O   LIG d   1       0.037  79.159 115.110  0.00  0.00    -0.368 OA
BRANCH   7   8
ATOM      8  C   LIG d   1      -0.126  78.597 116.435  0.00  0.00     0.119 C 
BRANCH   8   9
ATOM      9  C   LIG d   1       0.299  79.675 117.451  0.00  0.00     0.028 C 
ATOM     10  C   LIG d   1       1.401  80.596 116.902  0.00  0.00     0.006 C 
ENDBRANCH   8   9
BRANCH   8  11
ATOM     11  C   LIG d   1       0.830  77.423 116.665  0.00  0.00     0.028 C 
ATOM     12  C   LIG d   1       0.113  76.159 117.165  0.00  0.00     0.006 C 
ENDBRANCH   8  11
ENDBRANCH   7   8
ENDBRANCH   1   7
BRANCH   6  13
ATOM     13  N   LIG d   1      -0.232  80.620 112.488  0.00  0.00    -0.311 N 
ATOM     14  C   LIG d   1      -0.941  81.719 112.233  0.00  0.00     0.210 C 
ATOM     15  C   LIG d   1      -0.111  82.957 111.883  0.00  0.00     0.109 C 
ATOM     16  O   LIG d   1      -2.178  81.793 112.296  0.00  0.00    -0.276 OA
ATOM     17  H   LIG d   1       0.768  80.658 112.446  0.00  0.00     0.149 HD
ENDBRANCH   6  13
BRANCH   5  18
ATOM     18  N   LIG d   1      -1.810  78.872 110.542  0.00  0.00     0.381 N 
ATOM     19  H   LIG d   1      -0.847  79.081 110.371  0.00  0.00    -0.090 HD
ATOM     20  H   LIG d   1      -2.372  79.530 110.032  0.00  0.00    -0.090 HD
ATOM     21  H   LIG d   1      -2.015  77.945 110.240  0.00  0.00    -0.090 HD
ENDBRANCH   5  18
BRANCH   3  22
ATOM     22  C   LIG d   1      -3.982  76.884 114.320  0.00  0.00     0.382 C 
ATOM     23  O   LIG d   1      -3.917  75.632 114.279  0.00  0.00    -0.241 OA
ATOM     24  O   LIG d   1      -5.014  77.431 114.752  0.00  0.00    -0.241 OA
ENDBRANCH   3  22
TORSDOF 7
ENDMDL
