MODEL 1
REMARK VINA RESULT:      -5.0      0.000      0.000
REMARK  7 active torsions:
REMARK  status: ('A' for Active; 'I' for Inactive)
REMARK    1  A    between atoms: C_2  and  C_3 
REMARK    2  A    between atoms: C_3  and  O_6 
REMARK    3  A    between atoms: C_3  and  C_4 
REMARK    4  A    between atoms: C_7  and  O_6 
REMARK    5  A    between atoms: C_9  and  C_10 
REMARK    6  A    between atoms: N_15  and  C_14 
REMARK    7  A    between atoms: N_20  and  C_19 
REMARK       I    between atoms: C_22  and  N_20 
ROOT
ATOM      1  C   LIG d   1      -2.924  77.926 116.573  0.00  0.00     0.161 C 
ATOM      2  C   LIG d   1      -3.167  78.806 115.505  0.00  0.00     0.016 C 
ATOM      3  C   LIG d   1      -2.496  78.728 114.263  0.00  0.00     0.038 C 
ATOM      4  C   LIG d   1      -1.637  77.663 113.950  0.00  0.00     0.028 C 
ATOM      5  C   LIG d   1      -0.979  77.036 115.175  0.00  0.00    -0.047 C 
ATOM      6  C   LIG d   1      -2.072  76.691 116.211  0.00  0.00     0.091 C 
ENDROOT
BRANCH   1   7
ATOM      7  O   LIG d   1      -4.173  77.518 117.164  0.00  0.00    -0.368 OA
BRANCH   7   8
ATOM      8  C   LIG d   1      -5.285  77.348 116.250  0.00  0.00     0.119 C 
BRANCH   8   9
ATOM      9  C   LIG d   1      -6.578  77.638 117.037  0.00  0.00     0.028 C 
ATOM     10  C   LIG d   1      -7.625  76.523 116.877  0.00  0.00     0.006 C 
ENDBRANCH   8   9
BRANCH   8  11
ATOM     11  C   LIG d   1      -5.410  75.893 115.788  0.00  0.00     0.028 C 
ATOM     12  C   LIG d   1      -5.099  75.714 114.294  0.00  0.00     0.006 C 
ENDBRANCH   8  11
ENDBRANCH   7   8
ENDBRANCH   1   7
BRANCH   6  13
ATOM     13  N   LIG d   1      -1.505  76.151 117.474  0.00  0.00    -0.311 N 
ATOM     14  C   LIG d   1      -1.857  74.975 117.992  0.00  0.00     0.210 C 
ATOM     15  C   LIG d   1      -1.167  74.616 119.311  0.00  0.00     0.109 C 
ATOM     16  O   LIG d   1      -2.651  74.180 117.466  0.00  0.00    -0.276 OA
ATOM     17  H   LIG d   1      -0.830  76.717 117.950  0.00  0.00     0.149 HD
ENDBRANCH   6  13
BRANCH   5  18
ATOM     18  N   LIG d   1      -0.222  75.856 114.718  0.00  0.00     0.381 N 
ATOM     19  H   LIG d   1       0.446  75.591 115.415  0.00  0.00    -0.090 HD
ATOM     20  H   LIG d   1       0.276  76.093 113.878  0.00  0.00    -0.090 HD
ATOM     21  H   LIG d   1      -0.845  75.099 114.540  0.00  0.00    -0.090 HD
ENDBRANCH   5  18
BRANCH   3  22
ATOM     22  C   LIG d   1      -2.650  79.745 113.333  0.00  0.00     0.382 C 
ATOM     23  O   LIG d   1      -3.493  80.653 113.531  0.00  0.00    -0.241 OA
ATOM     24  O   LIG d   1      -1.988  79.741 112.278  0.00  0.00    -0.241 OA
ENDBRANCH   3  22
TORSDOF 7
ENDMDL
MODEL 2
REMARK VINA RESULT:      -4.8      1.328      2.152
REMARK  7 active torsions:
REMARK  status: ('A' for Active; 'I' for Inactive)
REMARK    1  A    between atoms: C_2  and  C_3 
REMARK    2  A    between atoms: C_3  and  O_6 
REMARK    3  A    between atoms: C_3  and  C_4 
REMARK    4  A    between atoms: C_7  and  O_6 
REMARK    5  A    between atoms: C_9  and  C_10 
REMARK    6  A    between atoms: N_15  and  C_14 
REMARK    7  A    between atoms: N_20  and  C_19 
REMARK       I    between atoms: C_22  and  N_20 
ROOT
ATOM      1  C   LIG d   1      -3.532  78.570 115.855  0.00  0.00     0.161 C 
ATOM      2  C   LIG d   1      -3.456  79.547 114.848  0.00  0.00     0.016 C 
ATOM      3  C   LIG d   1      -2.571  79.463 113.748  0.00  0.00     0.038 C 
ATOM      4  C   LIG d   1      -1.804  78.315 113.499  0.00  0.00     0.028 C 
ATOM      5  C   LIG d   1      -1.476  77.521 114.759  0.00  0.00    -0.047 C 
ATOM      6  C   LIG d   1      -2.783  77.258 115.542  0.00  0.00     0.091 C 
ENDROOT
BRANCH   1   7
ATOM      7  O   LIG d   1      -4.912  78.297 116.167  0.00  0.00    -0.368 OA
BRANCH   7   8
ATOM      8  C   LIG d   1      -5.338  78.624 117.513  0.00  0.00     0.119 C 
BRANCH   8   9
ATOM      9  C   LIG d   1      -6.598  77.790 117.815  0.00  0.00     0.028 C 
ATOM     10  C   LIG d   1      -6.856  76.710 116.751  0.00  0.00     0.006 C 
ENDBRANCH   8   9
BRANCH   8  11
ATOM     11  C   LIG d   1      -5.785  80.085 117.616  0.00  0.00     0.028 C 
ATOM     12  C   LIG d   1      -7.269  80.230 117.988  0.00  0.00     0.006 C 
ENDBRANCH   8  11
ENDBRANCH   7   8
ENDBRANCH   1   7
BRANCH   6  13
ATOM     13  N   LIG d   1      -2.540  76.560 116.831  0.00  0.00    -0.311 N 
ATOM     14  C   LIG d   1      -2.628  75.239 116.976  0.00  0.00     0.210 C 
ATOM     15  C   LIG d   1      -2.359  74.725 118.394  0.00  0.00     0.109 C 
ATOM     16  O   LIG d   1      -2.871  74.440 116.059  0.00  0.00    -0.276 OA
ATOM     17  H   LIG d   1      -2.307  77.128 117.621  0.00  0.00     0.149 HD
ENDBRANCH   6  13
BRANCH   5  18
ATOM     18  N   LIG d   1      -0.793  76.282 114.340  0.00  0.00     0.381 N 
ATOM     19  H   LIG d   1       0.152  76.486 114.084  0.00  0.00    -0.090 HD
ATOM     20  H   LIG d   1      -1.264  75.909 113.535  0.00  0.00    -0.090 HD
ATOM     21  H   LIG d   1      -0.809  75.617 115.081  0.00  0.00    -0.090 HD
ENDBRANCH   5  18
BRANCH   3  22
ATOM     22  C   LIG d   1      -2.418  80.553 112.905  0.00  0.00     0.382 C 
ATOM     23  O   LIG d   1      -1.375  80.673 112.218  0.00  0.00    -0.241 OA
ATOM     24  O   LIG d   1      -3.290  81.441 112.855  0.00  0.00    -0.241 OA
ENDBRANCH   3  22
TORSDOF 7
ENDMDL
MODEL 3
REMARK VINA RESULT:      -4.6      2.053      5.171
REMARK  7 active torsions:
REMARK  status: ('A' for Active; 'I' for Inactive)
REMARK    1  A    between atoms: C_2  and  C_3 
REMARK    2  A    between atoms: C_3  and  O_6 
REMARK    3  A    between atoms: C_3  and  C_4 
REMARK    4  A    between atoms: C_7  and  O_6 
REMARK    5  A    between atoms: C_9  and  C_10 
REMARK    6  A    between atoms: N_15  and  C_14 
REMARK    7  A    between atoms: N_20  and  C_19 
REMARK       I    between atoms: C_22  and  N_20 
ROOT
ATOM      1  C   LIG d   1      -1.430  75.874 115.356  0.00  0.00     0.161 C 
ATOM      2  C   LIG d   1      -1.208  75.057 116.477  0.00  0.00     0.016 C 
ATOM      3  C   LIG d   1      -0.601  75.519 117.667  0.00  0.00     0.038 C 
ATOM      4  C   LIG d   1      -0.309  76.875 117.874  0.00  0.00     0.028 C 
ATOM      5  C   LIG d   1      -0.052  77.643 116.581  0.00  0.00    -0.047 C 
ATOM      6  C   LIG d   1      -1.220  77.382 115.603  0.00  0.00     0.091 C 
ENDROOT
BRANCH   1   7
ATOM      7  O   LIG d   1      -2.749  75.631 114.828  0.00  0.00    -0.368 OA
BRANCH   7   8
ATOM      8  C   LIG d   1      -3.743  75.178 115.780  0.00  0.00     0.119 C 
BRANCH   8   9
ATOM      9  C   LIG d   1      -4.704  74.234 115.032  0.00  0.00     0.028 C 
ATOM     10  C   LIG d   1      -6.158  74.737 115.057  0.00  0.00     0.006 C 
ENDBRANCH   8   9
BRANCH   8  11
ATOM     11  C   LIG d   1      -4.614  76.338 116.272  0.00  0.00     0.028 C 
ATOM     12  C   LIG d   1      -4.316  76.732 117.727  0.00  0.00     0.006 C 
ENDBRANCH   8  11
ENDBRANCH   7   8
ENDBRANCH   1   7
BRANCH   6  13
ATOM     13  N   LIG d   1      -1.008  78.029 114.281  0.00  0.00    -0.311 N 
ATOM     14  C   LIG d   1      -1.583  79.176 113.926  0.00  0.00     0.210 C 
ATOM     15  C   LIG d   1      -1.245  79.658 112.511  0.00  0.00     0.109 C 
ATOM     16  O   LIG d   1      -2.316  79.857 114.659  0.00  0.00    -0.276 OA
ATOM     17  H   LIG d   1      -0.402  77.560 113.636  0.00  0.00     0.149 HD
ENDBRANCH   6  13
BRANCH   5  18
ATOM     18  N   LIG d   1       0.101  79.067 116.932  0.00  0.00     0.381 N 
ATOM     19  H   LIG d   1      -0.690  79.373 117.462  0.00  0.00    -0.090 HD
ATOM     20  H   LIG d   1       0.143  79.608 116.086  0.00  0.00    -0.090 HD
ATOM     21  H   LIG d   1       0.935  79.200 117.460  0.00  0.00    -0.090 HD
ENDBRANCH   5  18
BRANCH   3  22
ATOM     22  C   LIG d   1      -0.242  74.611 118.652  0.00  0.00     0.382 C 
ATOM     23  O   LIG d   1      -1.084  74.250 119.510  0.00  0.00    -0.241 OA
ATOM     24  O   LIG d   1       0.926  74.181 118.721  0.00  0.00    -0.241 OA
ENDBRANCH   3  22
TORSDOF 7
ENDMDL
MODEL 4
REMARK VINA RESULT:      -4.3      2.551      4.527
REMARK  7 active torsions:
REMARK  status: ('A' for Active; 'I' for Inactive)
REMARK    1  A    between atoms: C_2  and  C_3 
REMARK    2  A    between atoms: C_3  and  O_6 
REMARK    3  A    between atoms: C_3  and  C_4 
REMARK    4  A    between atoms: C_7  and  O_6 
REMARK    5  A    between atoms: C_9  and  C_10 
REMARK    6  A    between atoms: N_15  and  C_14 
REMARK    7  A    between atoms: N_20  and  C_19 
REMARK       I    between atoms: C_22  and  N_20 
ROOT
ATOM      1  C   LIG d   1      -1.408  76.065 115.315  0.00  0.00     0.161 C 
ATOM      2  C   LIG d   1      -2.679  75.937 114.730  0.00  0.00     0.016 C 
ATOM      3  C   LIG d   1      -3.763  75.281 115.358  0.00  0.00     0.038 C 
ATOM      4  C   LIG d   1      -3.691  74.838 116.686  0.00  0.00     0.028 C 
ATOM      5  C   LIG d   1      -2.275  74.495 117.136  0.00  0.00    -0.047 C 
ATOM      6  C   LIG d   1      -1.344  75.685 116.809  0.00  0.00     0.091 C 
ENDROOT
BRANCH   1   7
ATOM      7  O   LIG d   1      -0.911  77.403 115.117  0.00  0.00    -0.368 OA
BRANCH   7   8
ATOM      8  C   LIG d   1      -1.884  78.387 114.687  0.00  0.00     0.119 C 
BRANCH   8   9
ATOM      9  C   LIG d   1      -1.309  79.095 113.445  0.00  0.00     0.028 C 
ATOM     10  C   LIG d   1      -1.898  78.549 112.133  0.00  0.00     0.006 C 
ENDBRANCH   8   9
BRANCH   8  11
ATOM     11  C   LIG d   1      -2.062  79.489 115.736  0.00  0.00     0.028 C 
ATOM     12  C   LIG d   1      -2.974  79.064 116.898  0.00  0.00     0.006 C 
ENDBRANCH   8  11
ENDBRANCH   7   8
ENDBRANCH   1   7
BRANCH   6  13
ATOM     13  N   LIG d   1       0.077  75.400 117.140  0.00  0.00    -0.311 N 
ATOM     14  C   LIG d   1       0.645  75.747 118.294  0.00  0.00     0.210 C 
ATOM     15  C   LIG d   1       2.126  75.376 118.423  0.00  0.00     0.109 C 
ATOM     16  O   LIG d   1       0.055  76.297 119.235  0.00  0.00    -0.276 OA
ATOM     17  H   LIG d   1       0.621  74.929 116.445  0.00  0.00     0.149 HD
ENDBRANCH   6  13
BRANCH   5  18
ATOM     18  N   LIG d   1      -2.328  74.181 118.576  0.00  0.00     0.381 N 
ATOM     19  H   LIG d   1      -3.171  73.683 118.783  0.00  0.00    -0.090 HD
ATOM     20  H   LIG d   1      -2.333  75.040 119.096  0.00  0.00    -0.090 HD
ATOM     21  H   LIG d   1      -1.537  73.632 118.834  0.00  0.00    -0.090 HD
ENDBRANCH   5  18
BRANCH   3  22
ATOM     22  C   LIG d   1      -4.922  75.028 114.640  0.00  0.00     0.382 C 
ATOM     23  O   LIG d   1      -5.747  74.182 115.060  0.00  0.00    -0.241 OA
ATOM     24  O   LIG d   1      -5.131  75.602 113.554  0.00  0.00    -0.241 OA
ENDBRANCH   3  22
TORSDOF 7
ENDMDL
MODEL 5
REMARK VINA RESULT:      -4.3      2.161      4.710
REMARK  7 active torsions:
REMARK  status: ('A' for Active; 'I' for Inactive)
REMARK    1  A    between atoms: C_2  and  C_3 
REMARK    2  A    between atoms: C_3  and  O_6 
REMARK    3  A    between atoms: C_3  and  C_4 
REMARK    4  A    between atoms: C_7  and  O_6 
REMARK    5  A    between atoms: C_9  and  C_10 
REMARK    6  A    between atoms: N_15  and  C_14 
REMARK    7  A    between atoms: N_20  and  C_19 
REMARK       I    between atoms: C_22  and  N_20 
ROOT
ATOM      1  C   LIG d   1      -3.128  77.460 115.652  0.00  0.00     0.161 C 
ATOM      2  C   LIG d   1      -3.066  77.620 117.047  0.00  0.00     0.016 C 
ATOM      3  C   LIG d   1      -2.185  78.522 117.687  0.00  0.00     0.038 C 
ATOM      4  C   LIG d   1      -1.407  79.438 116.965  0.00  0.00     0.028 C 
ATOM      5  C   LIG d   1      -1.066  78.965 115.556  0.00  0.00    -0.047 C 
ATOM      6  C   LIG d   1      -2.367  78.530 114.843  0.00  0.00     0.091 C 
ENDROOT
BRANCH   1   7
ATOM      7  O   LIG d   1      -4.504  77.396 115.229  0.00  0.00    -0.368 OA
BRANCH   7   8
ATOM      8  C   LIG d   1      -5.354  76.477 115.958  0.00  0.00     0.119 C 
BRANCH   8   9
ATOM      9  C   LIG d   1      -5.973  75.506 114.934  0.00  0.00     0.028 C 
ATOM     10  C   LIG d   1      -6.063  76.118 113.526  0.00  0.00     0.006 C 
ENDBRANCH   8   9
BRANCH   8  11
ATOM     11  C   LIG d   1      -6.541  77.203 116.598  0.00  0.00     0.028 C 
ATOM     12  C   LIG d   1      -7.756  76.286 116.812  0.00  0.00     0.006 C 
ENDBRANCH   8  11
ENDBRANCH   7   8
ENDBRANCH   1   7
BRANCH   6  13
ATOM     13  N   LIG d   1      -2.113  77.974 113.489  0.00  0.00    -0.311 N 
ATOM     14  C   LIG d   1      -2.110  78.714 112.381  0.00  0.00     0.210 C 
ATOM     15  C   LIG d   1      -1.846  77.939 111.086  0.00  0.00     0.109 C 
ATOM     16  O   LIG d   1      -2.269  79.943 112.351  0.00  0.00    -0.276 OA
ATOM     17  H   LIG d   1      -1.943  76.989 113.424  0.00  0.00     0.149 HD
ENDBRANCH   6  13
BRANCH   5  18
ATOM     18  N   LIG d   1      -0.372  80.071 114.869  0.00  0.00     0.381 N 
ATOM     19  H   LIG d   1      -1.040  80.751 114.564  0.00  0.00    -0.090 HD
ATOM     20  H   LIG d   1       0.100  79.707 114.061  0.00  0.00    -0.090 HD
ATOM     21  H   LIG d   1       0.286  80.495 115.485  0.00  0.00    -0.090 HD
ENDBRANCH   5  18
BRANCH   3  22
ATOM     22  C   LIG d   1      -2.046  78.484 119.066  0.00  0.00     0.382 C 
ATOM     23  O   LIG d   1      -2.609  77.578 119.728  0.00  0.00    -0.241 OA
ATOM     24  O   LIG d   1      -1.403  79.369 119.661  0.00  0.00    -0.241 OA
ENDBRANCH   3  22
TORSDOF 7
ENDMDL
MODEL 6
REMARK VINA RESULT:      -4.3      1.556      1.861
REMARK  7 active torsions:
REMARK  status: ('A' for Active; 'I' for Inactive)
REMARK    1  A    between atoms: C_2  and  C_3 
REMARK    2  A    between atoms: C_3  and  O_6 
REMARK    3  A    between atoms: C_3  and  C_4 
REMARK    4  A    between atoms: C_7  and  O_6 
REMARK    5  A    between atoms: C_9  and  C_10 
REMARK    6  A    between atoms: N_15  and  C_14 
REMARK    7  A    between atoms: N_20  and  C_19 
REMARK       I    between atoms: C_22  and  N_20 
ROOT
ATOM      1  C   LIG d   1      -2.700  78.527 116.626  0.00  0.00     0.161 C 
ATOM      2  C   LIG d   1      -2.986  79.333 115.512  0.00  0.00     0.016 C 
ATOM      3  C   LIG d   1      -2.523  79.048 114.207  0.00  0.00     0.038 C 
ATOM      4  C   LIG d   1      -1.865  77.848 113.898  0.00  0.00     0.028 C 
ATOM      5  C   LIG d   1      -1.116  77.247 115.083  0.00  0.00    -0.047 C 
ATOM      6  C   LIG d   1      -2.078  77.155 116.290  0.00  0.00     0.091 C 
ENDROOT
BRANCH   1   7
ATOM      7  O   LIG d   1      -3.889  78.355 117.423  0.00  0.00    -0.368 OA
BRANCH   7   8
ATOM      8  C   LIG d   1      -5.116  78.111 116.692  0.00  0.00     0.119 C 
BRANCH   8   9
ATOM      9  C   LIG d   1      -6.240  78.892 117.401  0.00  0.00     0.028 C 
ATOM     10  C   LIG d   1      -5.838  80.342 117.717  0.00  0.00     0.006 C 
ENDBRANCH   8   9
BRANCH   8  11
ATOM     11  C   LIG d   1      -5.530  76.639 116.776  0.00  0.00     0.028 C 
ATOM     12  C   LIG d   1      -6.779  76.323 115.937  0.00  0.00     0.006 C 
ENDBRANCH   8  11
ENDBRANCH   7   8
ENDBRANCH   1   7
BRANCH   6  13
ATOM     13  N   LIG d   1      -1.402  76.655 117.516  0.00  0.00    -0.311 N 
ATOM     14  C   LIG d   1      -0.328  77.234 118.049  0.00  0.00     0.210 C 
ATOM     15  C   LIG d   1       0.223  76.546 119.302  0.00  0.00     0.109 C 
ATOM     16  O   LIG d   1       0.202  78.271 117.622  0.00  0.00    -0.276 OA
ATOM     17  H   LIG d   1      -1.785  75.836 117.946  0.00  0.00     0.149 HD
ENDBRANCH   6  13
BRANCH   5  18
ATOM     18  N   LIG d   1      -0.594  75.934 114.660  0.00  0.00     0.381 N 
ATOM     19  H   LIG d   1      -0.194  75.459 115.444  0.00  0.00    -0.090 HD
ATOM     20  H   LIG d   1       0.129  76.077 113.976  0.00  0.00    -0.090 HD
ATOM     21  H   LIG d   1      -1.327  75.385 114.268  0.00  0.00    -0.090 HD
ENDBRANCH   5  18
BRANCH   3  22
ATOM     22  C   LIG d   1      -2.683  79.989 113.200  0.00  0.00     0.382 C 
ATOM     23  O   LIG d   1      -3.507  80.924 113.342  0.00  0.00    -0.241 OA
ATOM     24  O   LIG d   1      -2.045  79.889 112.135  0.00  0.00    -0.241 OA
ENDBRANCH   3  22
TORSDOF 7
ENDMDL
MODEL 7
REMARK VINA RESULT:      -4.2      3.263      5.724
REMARK  7 active torsions:
REMARK  status: ('A' for Active; 'I' for Inactive)
REMARK    1  A    between atoms: C_2  and  C_3 
REMARK    2  A    between atoms: C_3  and  O_6 
REMARK    3  A    between atoms: C_3  and  C_4 
REMARK    4  A    between atoms: C_7  and  O_6 
REMARK    5  A    between atoms: C_9  and  C_10 
REMARK    6  A    between atoms: N_15  and  C_14 
REMARK    7  A    between atoms: N_20  and  C_19 
REMARK       I    between atoms: C_22  and  N_20 
ROOT
ATOM      1  C   LIG d   1      -1.775  79.804 114.453  0.00  0.00     0.161 C 
ATOM      2  C   LIG d   1      -2.593  78.682 114.665  0.00  0.00     0.016 C 
ATOM      3  C   LIG d   1      -2.838  77.699 113.679  0.00  0.00     0.038 C 
ATOM      4  C   LIG d   1      -2.155  77.693 112.453  0.00  0.00     0.028 C 
ATOM      5  C   LIG d   1      -1.705  79.079 112.003  0.00  0.00    -0.047 C 
ATOM      6  C   LIG d   1      -0.934  79.756 113.160  0.00  0.00     0.091 C 
ENDROOT
BRANCH   1   7
ATOM      7  O   LIG d   1      -0.923  80.012 115.597  0.00  0.00    -0.368 OA
BRANCH   7   8
ATOM      8  C   LIG d   1      -1.236  79.229 116.775  0.00  0.00     0.119 C 
BRANCH   8   9
ATOM      9  C   LIG d   1      -1.538  80.216 117.919  0.00  0.00     0.028 C 
ATOM     10  C   LIG d   1      -2.976  80.081 118.446  0.00  0.00     0.006 C 
ENDBRANCH   8   9
BRANCH   8  11
ATOM     11  C   LIG d   1      -0.023  78.421 117.246  0.00  0.00     0.028 C 
ATOM     12  C   LIG d   1      -0.209  76.907 117.061  0.00  0.00     0.006 C 
ENDBRANCH   8  11
ENDBRANCH   7   8
ENDBRANCH   1   7
BRANCH   6  13
ATOM     13  N   LIG d   1      -0.531  81.149 112.833  0.00  0.00    -0.311 N 
ATOM     14  C   LIG d   1       0.598  81.455 112.196  0.00  0.00     0.210 C 
ATOM     15  C   LIG d   1       0.831  82.953 111.977  0.00  0.00     0.109 C 
ATOM     16  O   LIG d   1       1.412  80.626 111.762  0.00  0.00    -0.276 OA
ATOM     17  H   LIG d   1      -1.149  81.882 113.121  0.00  0.00     0.149 HD
ENDBRANCH   6  13
BRANCH   5  18
ATOM     18  N   LIG d   1      -0.890  78.910 110.786  0.00  0.00     0.381 N 
ATOM     19  H   LIG d   1      -0.004  78.512 111.024  0.00  0.00    -0.090 HD
ATOM     20  H   LIG d   1      -0.730  79.813 110.374  0.00  0.00    -0.090 HD
ATOM     21  H   LIG d   1      -1.364  78.321 110.137  0.00  0.00    -0.090 HD
ENDBRANCH   5  18
BRANCH   3  22
ATOM     22  C   LIG d   1      -3.804  76.730 113.899  0.00  0.00     0.382 C 
ATOM     23  O   LIG d   1      -3.556  75.756 114.650  0.00  0.00    -0.241 OA
ATOM     24  O   LIG d   1      -4.906  76.794 113.322  0.00  0.00    -0.241 OA
ENDBRANCH   3  22
TORSDOF 7
ENDMDL
MODEL 8
REMARK VINA RESULT:      -4.2      2.774      4.516
REMARK  7 active torsions:
REMARK  status: ('A' for Active; 'I' for Inactive)
REMARK    1  A    between atoms: C_2  and  C_3 
REMARK    2  A    between atoms: C_3  and  O_6 
REMARK    3  A    between atoms: C_3  and  C_4 
REMARK    4  A    between atoms: C_7  and  O_6 
REMARK    5  A    between atoms: C_9  and  C_10 
REMARK    6  A    between atoms: N_15  and  C_14 
REMARK    7  A    between atoms: N_20  and  C_19 
REMARK       I    between atoms: C_22  and  N_20 
ROOT
ATOM      1  C   LIG d   1      -3.205  78.198 116.992  0.00  0.00     0.161 C 
ATOM      2  C   LIG d   1      -3.876  77.277 116.169  0.00  0.00     0.016 C 
ATOM      3  C   LIG d   1      -3.614  77.133 114.788  0.00  0.00     0.038 C 
ATOM      4  C   LIG d   1      -2.550  77.799 114.161  0.00  0.00     0.028 C 
ATOM      5  C   LIG d   1      -2.174  79.112 114.840  0.00  0.00    -0.047 C 
ATOM      6  C   LIG d   1      -1.965  78.854 116.350  0.00  0.00     0.091 C 
ENDROOT
BRANCH   1   7
ATOM      7  O   LIG d   1      -2.850  77.570 118.240  0.00  0.00    -0.368 OA
BRANCH   7   8
ATOM      8  C   LIG d   1      -1.778  76.597 118.182  0.00  0.00     0.119 C 
BRANCH   8   9
ATOM      9  C   LIG d   1      -2.383  75.220 118.516  0.00  0.00     0.028 C 
ATOM     10  C   LIG d   1      -2.122  74.180 117.413  0.00  0.00     0.006 C 
ENDBRANCH   8   9
BRANCH   8  11
ATOM     11  C   LIG d   1      -0.732  76.855 119.270  0.00  0.00     0.028 C 
ATOM     12  C   LIG d   1       0.649  76.277 118.918  0.00  0.00     0.006 C 
ENDBRANCH   8  11
ENDBRANCH   7   8
ENDBRANCH   1   7
BRANCH   6  13
ATOM     13  N   LIG d   1      -1.676  80.102 117.103  0.00  0.00    -0.311 N 
ATOM     14  C   LIG d   1      -0.494  80.368 117.657  0.00  0.00     0.210 C 
ATOM     15  C   LIG d   1      -0.416  81.702 118.406  0.00  0.00     0.109 C 
ATOM     16  O   LIG d   1       0.506  79.640 117.572  0.00  0.00    -0.276 OA
ATOM     17  H   LIG d   1      -2.423  80.763 117.194  0.00  0.00     0.149 HD
ENDBRANCH   6  13
BRANCH   5  18
ATOM     18  N   LIG d   1      -0.966  79.631 114.170  0.00  0.00     0.381 N 
ATOM     19  H   LIG d   1      -0.912  80.622 114.289  0.00  0.00    -0.090 HD
ATOM     20  H   LIG d   1      -1.031  79.434 113.186  0.00  0.00    -0.090 HD
ATOM     21  H   LIG d   1      -0.153  79.198 114.550  0.00  0.00    -0.090 HD
ENDBRANCH   5  18
BRANCH   3  22
ATOM     22  C   LIG d   1      -4.447  76.344 114.009  0.00  0.00     0.382 C 
ATOM     23  O   LIG d   1      -5.078  76.854 113.052  0.00  0.00    -0.241 OA
ATOM     24  O   LIG d   1      -4.609  75.139 114.279  0.00  0.00    -0.241 OA
ENDBRANCH   3  22
TORSDOF 7
ENDMDL
MODEL 9
REMARK VINA RESULT:      -4.2      2.710      3.680
REMARK  7 active torsions:
REMARK  status: ('A' for Active; 'I' for Inactive)
REMARK    1  A    between atoms: C_2  and  C_3 
REMARK    2  A    between atoms: C_3  and  O_6 
REMARK    3  A    between atoms: C_3  and  C_4 
REMARK    4  A    between atoms: C_7  and  O_6 
REMARK    5  A    between atoms: C_9  and  C_10 
REMARK    6  A    between atoms: N_15  and  C_14 
REMARK    7  A    between atoms: N_20  and  C_19 
REMARK       I    between atoms: C_22  and  N_20 
ROOT
ATOM      1  C   LIG d   1      -2.693  78.680 115.996  0.00  0.00     0.161 C 
ATOM      2  C   LIG d   1      -3.683  77.851 115.443  0.00  0.00     0.016 C 
ATOM      3  C   LIG d   1      -3.421  76.555 114.941  0.00  0.00     0.038 C 
ATOM      4  C   LIG d   1      -2.171  75.938 115.097  0.00  0.00     0.028 C 
ATOM      5  C   LIG d   1      -1.015  76.927 115.195  0.00  0.00    -0.047 C 
ATOM      6  C   LIG d   1      -1.346  77.981 116.276  0.00  0.00     0.091 C 
ENDROOT
BRANCH   1   7
ATOM      7  O   LIG d   1      -3.193  79.304 117.195  0.00  0.00    -0.368 OA
BRANCH   7   8
ATOM      8  C   LIG d   1      -4.507  78.880 117.635  0.00  0.00     0.119 C 
BRANCH   8   9
ATOM      9  C   LIG d   1      -5.366  80.146 117.813  0.00  0.00     0.028 C 
ATOM     10  C   LIG d   1      -6.873  79.836 117.826  0.00  0.00     0.006 C 
ENDBRANCH   8   9
BRANCH   8  11
ATOM     11  C   LIG d   1      -4.448  78.230 119.020  0.00  0.00     0.028 C 
ATOM     12  C   LIG d   1      -3.829  76.824 118.994  0.00  0.00     0.006 C 
ENDBRANCH   8  11
ENDBRANCH   7   8
ENDBRANCH   1   7
BRANCH   6  13
ATOM     13  N   LIG d   1      -0.304  79.036 116.378  0.00  0.00    -0.311 N 
ATOM     14  C   LIG d   1       0.446  79.223 117.462  0.00  0.00     0.210 C 
ATOM     15  C   LIG d   1       1.447  80.379 117.364  0.00  0.00     0.109 C 
ATOM     16  O   LIG d   1       0.401  78.521 118.483  0.00  0.00    -0.276 OA
ATOM     17  H   LIG d   1      -0.179  79.631 115.583  0.00  0.00     0.149 HD
ENDBRANCH   6  13
BRANCH   5  18
ATOM     18  N   LIG d   1       0.207  76.157 115.493  0.00  0.00     0.381 N 
ATOM     19  H   LIG d   1       0.413  75.541 114.732  0.00  0.00    -0.090 HD
ATOM     20  H   LIG d   1       0.048  75.600 116.315  0.00  0.00    -0.090 HD
ATOM     21  H   LIG d   1       0.972  76.776 115.646  0.00  0.00    -0.090 HD
ENDBRANCH   5  18
BRANCH   3  22
ATOM     22  C   LIG d   1      -4.407  75.879 114.238  0.00  0.00     0.382 C 
ATOM     23  O   LIG d   1      -5.191  76.512 113.491  0.00  0.00    -0.241 OA
ATOM     24  O   LIG d   1      -4.549  74.649 114.375  0.00  0.00    -0.241 OA
ENDBRANCH   3  22
TORSDOF 7
ENDMDL
