MODEL 1
REMARK VINA RESULT:      -5.0      0.000      0.000
REMARK  7 active torsions:
REMARK  status: ('A' for Active; 'I' for Inactive)
REMARK    1  A    between atoms: C_2  and  C_3 
REMARK    2  A    between atoms: C_3  and  O_6 
REMARK    3  A    between atoms: C_3  and  C_4 
REMARK    4  A    between atoms: C_7  and  O_6 
REMARK    5  A    between atoms: C_9  and  C_10 
REMARK    6  A    between atoms: N_15  and  C_14 
REMARK    7  A    between atoms: N_20  and  C_19 
REMARK       I    between atoms: C_22  and  N_20 
ROOT
ATOM      1  C   LIG d   1      -0.598  81.097 112.231  0.00  0.00     0.161 C 
ATOM      2  C   LIG d   1      -1.363  79.928 112.089  0.00  0.00     0.016 C 
ATOM      3  C   LIG d   1      -2.051  79.313 113.161  0.00  0.00     0.038 C 
ATOM      4  C   LIG d   1      -2.145  79.916 114.424  0.00  0.00     0.028 C 
ATOM      5  C   LIG d   1      -0.972  80.836 114.745  0.00  0.00    -0.047 C 
ATOM      6  C   LIG d   1      -0.779  81.830 113.576  0.00  0.00     0.091 C 
ENDROOT
BRANCH   1   7
ATOM      7  O   LIG d   1      -0.866  81.992 111.133  0.00  0.00    -0.368 OA
BRANCH   7   8
ATOM      8  C   LIG d   1       0.205  82.161 110.172  0.00  0.00     0.119 C 
BRANCH   8   9
ATOM      9  C   LIG d   1       1.394  81.304 110.649  0.00  0.00     0.028 C 
ATOM     10  C   LIG d   1       2.407  81.029 109.525  0.00  0.00     0.006 C 
ENDBRANCH   8   9
BRANCH   8  11
ATOM     11  C   LIG d   1       0.722  83.602 110.161  0.00  0.00     0.028 C 
ATOM     12  C   LIG d   1      -0.303  84.607 110.710  0.00  0.00     0.006 C 
ENDBRANCH   8  11
ENDBRANCH   7   8
ENDBRANCH   1   7
BRANCH   6  13
ATOM     13  N   LIG d   1       0.401  82.712 113.771  0.00  0.00    -0.311 N 
ATOM     14  C   LIG d   1       0.326  83.930 114.305  0.00  0.00     0.210 C 
ATOM     15  C   LIG d   1       1.659  84.679 114.396  0.00  0.00     0.109 C 
ATOM     16  O   LIG d   1      -0.713  84.448 114.741  0.00  0.00    -0.276 OA
ATOM     17  H   LIG d   1       1.289  82.358 113.474  0.00  0.00     0.149 HD
ENDBRANCH   6  13
BRANCH   5  18
ATOM     18  N   LIG d   1      -1.265  81.502 116.028  0.00  0.00     0.381 N 
ATOM     19  H   LIG d   1      -0.875  80.973 116.782  0.00  0.00    -0.090 HD
ATOM     20  H   LIG d   1      -2.262  81.542 116.153  0.00  0.00    -0.090 HD
ATOM     21  H   LIG d   1      -0.886  82.424 116.028  0.00  0.00    -0.090 HD
ENDBRANCH   5  18
BRANCH   3  22
ATOM     22  C   LIG d   1      -2.621  78.062 112.984  0.00  0.00     0.382 C 
ATOM     23  O   LIG d   1      -2.390  77.145 113.809  0.00  0.00    -0.241 OA
ATOM     24  O   LIG d   1      -3.329  77.826 111.987  0.00  0.00    -0.241 OA
ENDBRANCH   3  22
TORSDOF 7
ENDMDL
MODEL 2
REMARK VINA RESULT:      -4.9      2.173      4.444
REMARK  7 active torsions:
REMARK  status: ('A' for Active; 'I' for Inactive)
REMARK    1  A    between atoms: C_2  and  C_3 
REMARK    2  A    between atoms: C_3  and  O_6 
REMARK    3  A    between atoms: C_3  and  C_4 
REMARK    4  A    between atoms: C_7  and  O_6 
REMARK    5  A    between atoms: C_9  and  C_10 
REMARK    6  A    between atoms: N_15  and  C_14 
REMARK    7  A    between atoms: N_20  and  C_19 
REMARK       I    between atoms: C_22  and  N_20 
ROOT
ATOM      1  C   LIG d   1      -2.001  80.854 114.316  0.00  0.00     0.161 C 
ATOM      2  C   LIG d   1      -2.529  79.635 114.772  0.00  0.00     0.016 C 
ATOM      3  C   LIG d   1      -2.529  78.450 114.001  0.00  0.00     0.038 C 
ATOM      4  C   LIG d   1      -1.860  78.365 112.771  0.00  0.00     0.028 C 
ATOM      5  C   LIG d   1      -1.750  79.704 112.048  0.00  0.00    -0.047 C 
ATOM      6  C   LIG d   1      -1.167  80.753 113.021  0.00  0.00     0.091 C 
ENDROOT
BRANCH   1   7
ATOM      7  O   LIG d   1      -1.227  81.473 115.363  0.00  0.00    -0.368 OA
BRANCH   7   8
ATOM      8  C   LIG d   1      -1.799  82.664 115.958  0.00  0.00     0.119 C 
BRANCH   8   9
ATOM      9  C   LIG d   1      -0.660  83.687 116.132  0.00  0.00     0.028 C 
ATOM     10  C   LIG d   1      -0.579  84.680 114.960  0.00  0.00     0.006 C 
ENDBRANCH   8   9
BRANCH   8  11
ATOM     11  C   LIG d   1      -2.315  82.386 117.374  0.00  0.00     0.028 C 
ATOM     12  C   LIG d   1      -3.806  82.015 117.402  0.00  0.00     0.006 C 
ENDBRANCH   8  11
ENDBRANCH   7   8
ENDBRANCH   1   7
BRANCH   6  13
ATOM     13  N   LIG d   1      -1.105  82.111 112.420  0.00  0.00    -0.311 N 
ATOM     14  C   LIG d   1      -0.037  82.579 111.775  0.00  0.00     0.210 C 
ATOM     15  C   LIG d   1      -0.176  84.011 111.250  0.00  0.00     0.109 C 
ATOM     16  O   LIG d   1       0.999  81.932 111.560  0.00  0.00    -0.276 OA
ATOM     17  H   LIG d   1      -1.914  82.692 112.520  0.00  0.00     0.149 HD
ENDBRANCH   6  13
BRANCH   5  18
ATOM     18  N   LIG d   1      -0.913  79.496 110.851  0.00  0.00     0.381 N 
ATOM     19  H   LIG d   1       0.040  79.717 111.062  0.00  0.00    -0.090 HD
ATOM     20  H   LIG d   1      -1.226  80.115 110.124  0.00  0.00    -0.090 HD
ATOM     21  H   LIG d   1      -0.982  78.551 110.546  0.00  0.00    -0.090 HD
ENDBRANCH   5  18
BRANCH   3  22
ATOM     22  C   LIG d   1      -3.239  77.343 114.442  0.00  0.00     0.382 C 
ATOM     23  O   LIG d   1      -2.991  76.846 115.567  0.00  0.00    -0.241 OA
ATOM     24  O   LIG d   1      -4.094  76.808 113.710  0.00  0.00    -0.241 OA
ENDBRANCH   3  22
TORSDOF 7
ENDMDL
MODEL 3
REMARK VINA RESULT:      -4.9      4.885      7.909
REMARK  7 active torsions:
REMARK  status: ('A' for Active; 'I' for Inactive)
REMARK    1  A    between atoms: C_2  and  C_3 
REMARK    2  A    between atoms: C_3  and  O_6 
REMARK    3  A    between atoms: C_3  and  C_4 
REMARK    4  A    between atoms: C_7  and  O_6 
REMARK    5  A    between atoms: C_9  and  C_10 
REMARK    6  A    between atoms: N_15  and  C_14 
REMARK    7  A    between atoms: N_20  and  C_19 
REMARK       I    between atoms: C_22  and  N_20 
ROOT
ATOM      1  C   LIG d   1      -3.195  77.559 116.332  0.00  0.00     0.161 C 
ATOM      2  C   LIG d   1      -3.539  77.968 115.032  0.00  0.00     0.016 C 
ATOM      3  C   LIG d   1      -2.654  77.893 113.933  0.00  0.00     0.038 C 
ATOM      4  C   LIG d   1      -1.405  77.260 114.028  0.00  0.00     0.028 C 
ATOM      5  C   LIG d   1      -0.818  77.287 115.435  0.00  0.00    -0.047 C 
ATOM      6  C   LIG d   1      -1.877  76.763 116.431  0.00  0.00     0.091 C 
ENDROOT
BRANCH   1   7
ATOM      7  O   LIG d   1      -4.280  76.807 116.910  0.00  0.00    -0.368 OA
BRANCH   7   8
ATOM      8  C   LIG d   1      -5.316  76.376 115.995  0.00  0.00     0.119 C 
BRANCH   8   9
ATOM      9  C   LIG d   1      -6.656  76.426 116.755  0.00  0.00     0.028 C 
ATOM     10  C   LIG d   1      -6.466  76.393 118.281  0.00  0.00     0.006 C 
ENDBRANCH   8   9
BRANCH   8  11
ATOM     11  C   LIG d   1      -5.132  74.909 115.595  0.00  0.00     0.028 C 
ATOM     12  C   LIG d   1      -5.385  74.662 114.099  0.00  0.00     0.006 C 
ENDBRANCH   8  11
ENDBRANCH   7   8
ENDBRANCH   1   7
BRANCH   6  13
ATOM     13  N   LIG d   1      -1.414  76.835 117.841  0.00  0.00    -0.311 N 
ATOM     14  C   LIG d   1      -0.819  75.823 118.470  0.00  0.00     0.210 C 
ATOM     15  C   LIG d   1      -0.438  76.101 119.928  0.00  0.00     0.109 C 
ATOM     16  O   LIG d   1      -0.542  74.732 117.950  0.00  0.00    -0.276 OA
ATOM     17  H   LIG d   1      -1.571  77.695 118.330  0.00  0.00     0.149 HD
ENDBRANCH   6  13
BRANCH   5  18
ATOM     18  N   LIG d   1       0.413  76.475 115.419  0.00  0.00     0.381 N 
ATOM     19  H   LIG d   1       1.118  76.938 114.881  0.00  0.00    -0.090 HD
ATOM     20  H   LIG d   1       0.214  75.591 114.985  0.00  0.00    -0.090 HD
ATOM     21  H   LIG d   1       0.738  76.330 116.350  0.00  0.00    -0.090 HD
ENDBRANCH   5  18
BRANCH   3  22
ATOM     22  C   LIG d   1      -2.998  78.493 112.731  0.00  0.00     0.382 C 
ATOM     23  O   LIG d   1      -3.320  77.784 111.747  0.00  0.00    -0.241 OA
ATOM     24  O   LIG d   1      -2.949  79.731 112.605  0.00  0.00    -0.241 OA
ENDBRANCH   3  22
TORSDOF 7
ENDMDL
MODEL 4
REMARK VINA RESULT:      -4.8      3.979      7.081
REMARK  7 active torsions:
REMARK  status: ('A' for Active; 'I' for Inactive)
REMARK    1  A    between atoms: C_2  and  C_3 
REMARK    2  A    between atoms: C_3  and  O_6 
REMARK    3  A    between atoms: C_3  and  C_4 
REMARK    4  A    between atoms: C_7  and  O_6 
REMARK    5  A    between atoms: C_9  and  C_10 
REMARK    6  A    between atoms: N_15  and  C_14 
REMARK    7  A    between atoms: N_20  and  C_19 
REMARK       I    between atoms: C_22  and  N_20 
ROOT
ATOM      1  C   LIG d   1      -1.741  76.439 115.033  0.00  0.00     0.161 C 
ATOM      2  C   LIG d   1      -1.614  75.681 116.209  0.00  0.00     0.016 C 
ATOM      3  C   LIG d   1      -0.954  76.149 117.368  0.00  0.00     0.038 C 
ATOM      4  C   LIG d   1      -0.504  77.473 117.483  0.00  0.00     0.028 C 
ATOM      5  C   LIG d   1      -0.162  78.114 116.142  0.00  0.00    -0.047 C 
ATOM      6  C   LIG d   1      -1.355  77.926 115.177  0.00  0.00     0.091 C 
ENDROOT
BRANCH   1   7
ATOM      7  O   LIG d   1      -3.081  76.318 114.516  0.00  0.00    -0.368 OA
BRANCH   7   8
ATOM      8  C   LIG d   1      -4.118  76.046 115.490  0.00  0.00     0.119 C 
BRANCH   8   9
ATOM      9  C   LIG d   1      -5.025  74.946 114.906  0.00  0.00     0.028 C 
ATOM     10  C   LIG d   1      -5.796  74.181 115.996  0.00  0.00     0.006 C 
ENDBRANCH   8   9
BRANCH   8  11
ATOM     11  C   LIG d   1      -5.030  77.261 115.687  0.00  0.00     0.028 C 
ATOM     12  C   LIG d   1      -4.722  78.034 116.979  0.00  0.00     0.006 C 
ENDBRANCH   8  11
ENDBRANCH   7   8
ENDBRANCH   1   7
BRANCH   6  13
ATOM     13  N   LIG d   1      -1.071  78.451 113.816  0.00  0.00    -0.311 N 
ATOM     14  C   LIG d   1      -1.925  79.208 113.129  0.00  0.00     0.210 C 
ATOM     15  C   LIG d   1      -1.443  79.626 111.737  0.00  0.00     0.109 C 
ATOM     16  O   LIG d   1      -3.022  79.600 113.554  0.00  0.00    -0.276 OA
ATOM     17  H   LIG d   1      -0.190  78.207 113.408  0.00  0.00     0.149 HD
ENDBRANCH   6  13
BRANCH   5  18
ATOM     18  N   LIG d   1       0.159  79.532 116.396  0.00  0.00     0.381 N 
ATOM     19  H   LIG d   1      -0.423  79.885 117.129  0.00  0.00    -0.090 HD
ATOM     20  H   LIG d   1      -0.029  80.061 115.563  0.00  0.00    -0.090 HD
ATOM     21  H   LIG d   1       1.118  79.624 116.648  0.00  0.00    -0.090 HD
ENDBRANCH   5  18
BRANCH   3  22
ATOM     22  C   LIG d   1      -0.702  75.275 118.415  0.00  0.00     0.382 C 
ATOM     23  O   LIG d   1       0.444  75.220 118.924  0.00  0.00    -0.241 OA
ATOM     24  O   LIG d   1      -1.593  74.509 118.827  0.00  0.00    -0.241 OA
ENDBRANCH   3  22
TORSDOF 7
ENDMDL
MODEL 5
REMARK VINA RESULT:      -4.7      2.979      6.638
REMARK  7 active torsions:
REMARK  status: ('A' for Active; 'I' for Inactive)
REMARK    1  A    between atoms: C_2  and  C_3 
REMARK    2  A    between atoms: C_3  and  O_6 
REMARK    3  A    between atoms: C_3  and  C_4 
REMARK    4  A    between atoms: C_7  and  O_6 
REMARK    5  A    between atoms: C_9  and  C_10 
REMARK    6  A    between atoms: N_15  and  C_14 
REMARK    7  A    between atoms: N_20  and  C_19 
REMARK       I    between atoms: C_22  and  N_20 
ROOT
ATOM      1  C   LIG d   1      -2.323  80.719 114.789  0.00  0.00     0.161 C 
ATOM      2  C   LIG d   1      -1.896  81.819 114.026  0.00  0.00     0.016 C 
ATOM      3  C   LIG d   1      -1.415  81.708 112.702  0.00  0.00     0.038 C 
ATOM      4  C   LIG d   1      -1.469  80.498 111.993  0.00  0.00     0.028 C 
ATOM      5  C   LIG d   1      -1.421  79.267 112.890  0.00  0.00    -0.047 C 
ATOM      6  C   LIG d   1      -2.494  79.408 113.994  0.00  0.00     0.091 C 
ENDROOT
BRANCH   1   7
ATOM      7  O   LIG d   1      -3.544  81.048 115.481  0.00  0.00    -0.368 OA
BRANCH   7   8
ATOM      8  C   LIG d   1      -3.494  80.983 116.928  0.00  0.00     0.119 C 
BRANCH   8   9
ATOM      9  C   LIG d   1      -4.820  80.363 117.409  0.00  0.00     0.028 C 
ATOM     10  C   LIG d   1      -5.890  81.426 117.709  0.00  0.00     0.006 C 
ENDBRANCH   8   9
BRANCH   8  11
ATOM     11  C   LIG d   1      -3.452  82.383 117.548  0.00  0.00     0.028 C 
ATOM     12  C   LIG d   1      -2.030  82.824 117.928  0.00  0.00     0.006 C 
ENDBRANCH   8  11
ENDBRANCH   7   8
ENDBRANCH   1   7
BRANCH   6  13
ATOM     13  N   LIG d   1      -2.458  78.284 114.967  0.00  0.00    -0.311 N 
ATOM     14  C   LIG d   1      -3.181  77.174 114.831  0.00  0.00     0.210 C 
ATOM     15  C   LIG d   1      -3.010  76.150 115.957  0.00  0.00     0.109 C 
ATOM     16  O   LIG d   1      -3.923  76.926 113.868  0.00  0.00    -0.276 OA
ATOM     17  H   LIG d   1      -1.858  78.388 115.762  0.00  0.00     0.149 HD
ENDBRANCH   6  13
BRANCH   5  18
ATOM     18  N   LIG d   1      -1.624  78.083 112.034  0.00  0.00     0.381 N 
ATOM     19  H   LIG d   1      -1.326  78.285 111.101  0.00  0.00    -0.090 HD
ATOM     20  H   LIG d   1      -2.604  77.863 112.012  0.00  0.00    -0.090 HD
ATOM     21  H   LIG d   1      -1.111  77.309 112.395  0.00  0.00    -0.090 HD
ENDBRANCH   5  18
BRANCH   3  22
ATOM     22  C   LIG d   1      -0.834  82.806 112.087  0.00  0.00     0.382 C 
ATOM     23  O   LIG d   1      -0.917  82.945 110.843  0.00  0.00    -0.241 OA
ATOM     24  O   LIG d   1      -0.191  83.638 112.755  0.00  0.00    -0.241 OA
ENDBRANCH   3  22
TORSDOF 7
ENDMDL
MODEL 6
REMARK VINA RESULT:      -4.6      2.659      5.947
REMARK  7 active torsions:
REMARK  status: ('A' for Active; 'I' for Inactive)
REMARK    1  A    between atoms: C_2  and  C_3 
REMARK    2  A    between atoms: C_3  and  O_6 
REMARK    3  A    between atoms: C_3  and  C_4 
REMARK    4  A    between atoms: C_7  and  O_6 
REMARK    5  A    between atoms: C_9  and  C_10 
REMARK    6  A    between atoms: N_15  and  C_14 
REMARK    7  A    between atoms: N_20  and  C_19 
REMARK       I    between atoms: C_22  and  N_20 
ROOT
ATOM      1  C   LIG d   1      -0.585  80.680 114.718  0.00  0.00     0.161 C 
ATOM      2  C   LIG d   1      -0.631  81.803 113.875  0.00  0.00     0.016 C 
ATOM      3  C   LIG d   1      -1.173  81.774 112.569  0.00  0.00     0.038 C 
ATOM      4  C   LIG d   1      -1.848  80.649 112.071  0.00  0.00     0.028 C 
ATOM      5  C   LIG d   1      -1.381  79.338 112.694  0.00  0.00    -0.047 C 
ATOM      6  C   LIG d   1      -1.416  79.473 114.234  0.00  0.00     0.091 C 
ENDROOT
BRANCH   1   7
ATOM      7  O   LIG d   1      -0.977  81.055 116.053  0.00  0.00    -0.368 OA
BRANCH   7   8
ATOM      8  C   LIG d   1      -1.602  82.355 116.192  0.00  0.00     0.119 C 
BRANCH   8   9
ATOM      9  C   LIG d   1      -0.856  83.110 117.309  0.00  0.00     0.028 C 
ATOM     10  C   LIG d   1      -0.062  84.314 116.775  0.00  0.00     0.006 C 
ENDBRANCH   8   9
BRANCH   8  11
ATOM     11  C   LIG d   1      -3.048  82.228 116.683  0.00  0.00     0.028 C 
ATOM     12  C   LIG d   1      -3.215  82.639 118.155  0.00  0.00     0.006 C 
ENDBRANCH   8  11
ENDBRANCH   7   8
ENDBRANCH   1   7
BRANCH   6  13
ATOM     13  N   LIG d   1      -0.895  78.263 114.921  0.00  0.00    -0.311 N 
ATOM     14  C   LIG d   1      -1.668  77.250 115.310  0.00  0.00     0.210 C 
ATOM     15  C   LIG d   1      -0.931  76.110 116.019  0.00  0.00     0.109 C 
ATOM     16  O   LIG d   1      -2.889  77.174 115.106  0.00  0.00    -0.276 OA
ATOM     17  H   LIG d   1       0.090  78.228 115.098  0.00  0.00     0.149 HD
ENDBRANCH   6  13
BRANCH   5  18
ATOM     18  N   LIG d   1      -2.259  78.266 112.188  0.00  0.00     0.381 N 
ATOM     19  H   LIG d   1      -1.774  77.392 112.209  0.00  0.00    -0.090 HD
ATOM     20  H   LIG d   1      -2.502  78.469 111.234  0.00  0.00    -0.090 HD
ATOM     21  H   LIG d   1      -3.084  78.210 112.744  0.00  0.00    -0.090 HD
ENDBRANCH   5  18
BRANCH   3  22
ATOM     22  C   LIG d   1      -1.007  82.867 111.732  0.00  0.00     0.382 C 
ATOM     23  O   LIG d   1      -0.740  82.692 110.519  0.00  0.00    -0.241 OA
ATOM     24  O   LIG d   1      -1.078  84.025 112.184  0.00  0.00    -0.241 OA
ENDBRANCH   3  22
TORSDOF 7
ENDMDL
MODEL 7
REMARK VINA RESULT:      -4.5      3.136      6.634
REMARK  7 active torsions:
REMARK  status: ('A' for Active; 'I' for Inactive)
REMARK    1  A    between atoms: C_2  and  C_3 
REMARK    2  A    between atoms: C_3  and  O_6 
REMARK    3  A    between atoms: C_3  and  C_4 
REMARK    4  A    between atoms: C_7  and  O_6 
REMARK    5  A    between atoms: C_9  and  C_10 
REMARK    6  A    between atoms: N_15  and  C_14 
REMARK    7  A    between atoms: N_20  and  C_19 
REMARK       I    between atoms: C_22  and  N_20 
ROOT
ATOM      1  C   LIG d   1      -2.441  78.382 114.751  0.00  0.00     0.161 C 
ATOM      2  C   LIG d   1      -2.649  79.179 113.613  0.00  0.00     0.016 C 
ATOM      3  C   LIG d   1      -1.835  80.286 113.279  0.00  0.00     0.038 C 
ATOM      4  C   LIG d   1      -0.658  80.581 113.985  0.00  0.00     0.028 C 
ATOM      5  C   LIG d   1      -0.688  80.111 115.435  0.00  0.00    -0.047 C 
ATOM      6  C   LIG d   1      -1.098  78.620 115.471  0.00  0.00     0.091 C 
ENDROOT
BRANCH   1   7
ATOM      7  O   LIG d   1      -2.584  76.990 114.405  0.00  0.00    -0.368 OA
BRANCH   7   8
ATOM      8  C   LIG d   1      -3.290  76.164 115.363  0.00  0.00     0.119 C 
BRANCH   8   9
ATOM      9  C   LIG d   1      -2.418  74.923 115.636  0.00  0.00     0.028 C 
ATOM     10  C   LIG d   1      -2.607  74.375 117.060  0.00  0.00     0.006 C 
ENDBRANCH   8   9
BRANCH   8  11
ATOM     11  C   LIG d   1      -4.595  75.620 114.774  0.00  0.00     0.028 C 
ATOM     12  C   LIG d   1      -5.830  76.413 115.231  0.00  0.00     0.006 C 
ENDBRANCH   8  11
ENDBRANCH   7   8
ENDBRANCH   1   7
BRANCH   6  13
ATOM     13  N   LIG d   1      -1.233  78.103 116.858  0.00  0.00    -0.311 N 
ATOM     14  C   LIG d   1      -0.283  77.402 117.475  0.00  0.00     0.210 C 
ATOM     15  C   LIG d   1      -0.634  76.947 118.895  0.00  0.00     0.109 C 
ATOM     16  O   LIG d   1       0.829  77.141 116.992  0.00  0.00    -0.276 OA
ATOM     17  H   LIG d   1      -2.092  78.296 117.335  0.00  0.00     0.149 HD
ENDBRANCH   6  13
BRANCH   5  18
ATOM     18  N   LIG d   1       0.647  80.358 116.011  0.00  0.00     0.381 N 
ATOM     19  H   LIG d   1       0.603  81.124 116.653  0.00  0.00    -0.090 HD
ATOM     20  H   LIG d   1       1.280  80.603 115.270  0.00  0.00    -0.090 HD
ATOM     21  H   LIG d   1       0.973  79.541 116.480  0.00  0.00    -0.090 HD
ENDBRANCH   5  18
BRANCH   3  22
ATOM     22  C   LIG d   1      -2.217  81.135 112.252  0.00  0.00     0.382 C 
ATOM     23  O   LIG d   1      -3.400  81.550 112.189  0.00  0.00    -0.241 OA
ATOM     24  O   LIG d   1      -1.406  81.457 111.363  0.00  0.00    -0.241 OA
ENDBRANCH   3  22
TORSDOF 7
ENDMDL
MODEL 8
REMARK VINA RESULT:      -4.3      3.982      7.731
REMARK  7 active torsions:
REMARK  status: ('A' for Active; 'I' for Inactive)
REMARK    1  A    between atoms: C_2  and  C_3 
REMARK    2  A    between atoms: C_3  and  O_6 
REMARK    3  A    between atoms: C_3  and  C_4 
REMARK    4  A    between atoms: C_7  and  O_6 
REMARK    5  A    between atoms: C_9  and  C_10 
REMARK    6  A    between atoms: N_15  and  C_14 
REMARK    7  A    between atoms: N_20  and  C_19 
REMARK       I    between atoms: C_22  and  N_20 
ROOT
ATOM      1  C   LIG d   1      -2.752  78.713 116.861  0.00  0.00     0.161 C 
ATOM      2  C   LIG d   1      -2.882  80.044 116.430  0.00  0.00     0.016 C 
ATOM      3  C   LIG d   1      -2.421  80.504 115.175  0.00  0.00     0.038 C 
ATOM      4  C   LIG d   1      -1.931  79.625 114.197  0.00  0.00     0.028 C 
ATOM      5  C   LIG d   1      -1.316  78.356 114.777  0.00  0.00    -0.047 C 
ATOM      6  C   LIG d   1      -2.320  77.717 115.764  0.00  0.00     0.091 C 
ENDROOT
BRANCH   1   7
ATOM      7  O   LIG d   1      -3.979  78.277 117.478  0.00  0.00    -0.368 OA
BRANCH   7   8
ATOM      8  C   LIG d   1      -5.142  78.224 116.617  0.00  0.00     0.119 C 
BRANCH   8   9
ATOM      9  C   LIG d   1      -6.263  79.029 117.302  0.00  0.00     0.028 C 
ATOM     10  C   LIG d   1      -5.859  79.526 118.700  0.00  0.00     0.006 C 
ENDBRANCH   8   9
BRANCH   8  11
ATOM     11  C   LIG d   1      -5.682  76.796 116.498  0.00  0.00     0.028 C 
ATOM     12  C   LIG d   1      -5.722  76.293 115.046  0.00  0.00     0.006 C 
ENDBRANCH   8  11
ENDBRANCH   7   8
ENDBRANCH   1   7
BRANCH   6  13
ATOM     13  N   LIG d   1      -1.765  76.516 116.440  0.00  0.00    -0.311 N 
ATOM     14  C   LIG d   1      -1.931  75.276 115.984  0.00  0.00     0.210 C 
ATOM     15  C   LIG d   1      -1.293  74.180 116.844  0.00  0.00     0.109 C 
ATOM     16  O   LIG d   1      -2.519  74.981 114.933  0.00  0.00    -0.276 OA
ATOM     17  H   LIG d   1      -1.247  76.666 117.284  0.00  0.00     0.149 HD
ENDBRANCH   6  13
BRANCH   5  18
ATOM     18  N   LIG d   1      -0.972  77.471 113.648  0.00  0.00     0.381 N 
ATOM     19  H   LIG d   1      -1.776  77.334 113.068  0.00  0.00    -0.090 HD
ATOM     20  H   LIG d   1      -0.688  76.578 114.010  0.00  0.00    -0.090 HD
ATOM     21  H   LIG d   1      -0.233  77.872 113.114  0.00  0.00    -0.090 HD
ENDBRANCH   5  18
BRANCH   3  22
ATOM     22  C   LIG d   1      -2.411  81.864 114.903  0.00  0.00     0.382 C 
ATOM     23  O   LIG d   1      -1.631  82.622 115.528  0.00  0.00    -0.241 OA
ATOM     24  O   LIG d   1      -3.203  82.347 114.072  0.00  0.00    -0.241 OA
ENDBRANCH   3  22
TORSDOF 7
ENDMDL
MODEL 9
REMARK VINA RESULT:      -4.3      3.515      5.245
REMARK  7 active torsions:
REMARK  status: ('A' for Active; 'I' for Inactive)
REMARK    1  A    between atoms: C_2  and  C_3 
REMARK    2  A    between atoms: C_3  and  O_6 
REMARK    3  A    between atoms: C_3  and  C_4 
REMARK    4  A    between atoms: C_7  and  O_6 
REMARK    5  A    between atoms: C_9  and  C_10 
REMARK    6  A    between atoms: N_15  and  C_14 
REMARK    7  A    between atoms: N_20  and  C_19 
REMARK       I    between atoms: C_22  and  N_20 
ROOT
ATOM      1  C   LIG d   1      -3.243  78.704 115.501  0.00  0.00     0.161 C 
ATOM      2  C   LIG d   1      -3.729  77.632 114.735  0.00  0.00     0.016 C 
ATOM      3  C   LIG d   1      -4.862  76.867 115.097  0.00  0.00     0.038 C 
ATOM      4  C   LIG d   1      -5.680  77.221 116.180  0.00  0.00     0.028 C 
ATOM      5  C   LIG d   1      -4.942  77.990 117.271  0.00  0.00    -0.047 C 
ATOM      6  C   LIG d   1      -4.187  79.175 116.627  0.00  0.00     0.091 C 
ENDROOT
BRANCH   1   7
ATOM      7  O   LIG d   1      -2.903  79.807 114.638  0.00  0.00    -0.368 OA
BRANCH   7   8
ATOM      8  C   LIG d   1      -1.488  80.037 114.424  0.00  0.00     0.119 C 
BRANCH   8   9
ATOM      9  C   LIG d   1      -1.119  81.349 115.144  0.00  0.00     0.028 C 
ATOM     10  C   LIG d   1      -2.081  82.498 114.800  0.00  0.00     0.006 C 
ENDBRANCH   8   9
BRANCH   8  11
ATOM     11  C   LIG d   1      -1.181  80.285 112.945  0.00  0.00     0.028 C 
ATOM     12  C   LIG d   1      -2.115  79.508 112.004  0.00  0.00     0.006 C 
ENDBRANCH   8  11
ENDBRANCH   7   8
ENDBRANCH   1   7
BRANCH   6  13
ATOM     13  N   LIG d   1      -3.370  79.930 117.613  0.00  0.00    -0.311 N 
ATOM     14  C   LIG d   1      -3.599  81.202 117.934  0.00  0.00     0.210 C 
ATOM     15  C   LIG d   1      -2.627  81.796 118.957  0.00  0.00     0.109 C 
ATOM     16  O   LIG d   1      -4.536  81.885 117.492  0.00  0.00    -0.276 OA
ATOM     17  H   LIG d   1      -2.609  79.443 118.043  0.00  0.00     0.149 HD
ENDBRANCH   6  13
BRANCH   5  18
ATOM     18  N   LIG d   1      -5.940  78.415 118.271  0.00  0.00     0.381 N 
ATOM     19  H   LIG d   1      -6.210  77.633 118.833  0.00  0.00    -0.090 HD
ATOM     20  H   LIG d   1      -6.755  78.755 117.792  0.00  0.00    -0.090 HD
ATOM     21  H   LIG d   1      -5.561  79.133 118.848  0.00  0.00    -0.090 HD
ENDBRANCH   5  18
BRANCH   3  22
ATOM     22  C   LIG d   1      -5.163  75.710 114.395  0.00  0.00     0.382 C 
ATOM     23  O   LIG d   1      -5.371  75.763 113.159  0.00  0.00    -0.241 OA
ATOM     24  O   LIG d   1      -5.273  74.621 114.990  0.00  0.00    -0.241 OA
ENDBRANCH   3  22
TORSDOF 7
ENDMDL
