MODEL 1
REMARK VINA RESULT:      -4.7      0.000      0.000
REMARK  7 active torsions:
REMARK  status: ('A' for Active; 'I' for Inactive)
REMARK    1  A    between atoms: C_2  and  C_3 
REMARK    2  A    between atoms: C_3  and  O_6 
REMARK    3  A    between atoms: C_3  and  C_4 
REMARK    4  A    between atoms: C_7  and  O_6 
REMARK    5  A    between atoms: C_9  and  C_10 
REMARK    6  A    between atoms: N_15  and  C_14 
REMARK    7  A    between atoms: N_20  and  C_19 
REMARK       I    between atoms: C_22  and  N_20 
ROOT
ATOM      1  C   LIG d   1      -1.991  80.935 114.192  0.00  0.00     0.161 C 
ATOM      2  C   LIG d   1      -2.400  79.702 114.728  0.00  0.00     0.016 C 
ATOM      3  C   LIG d   1      -2.171  78.461 114.090  0.00  0.00     0.038 C 
ATOM      4  C   LIG d   1      -1.380  78.356 112.936  0.00  0.00     0.028 C 
ATOM      5  C   LIG d   1      -1.374  79.623 112.088  0.00  0.00    -0.047 C 
ATOM      6  C   LIG d   1      -1.029  80.830 112.990  0.00  0.00     0.091 C 
ENDROOT
BRANCH   1   7
ATOM      7  O   LIG d   1      -1.410  81.750 115.229  0.00  0.00    -0.368 OA
BRANCH   7   8
ATOM      8  C   LIG d   1      -2.342  82.494 116.052  0.00  0.00     0.119 C 
BRANCH   8   9
ATOM      9  C   LIG d   1      -2.847  83.686 115.217  0.00  0.00     0.028 C 
ATOM     10  C   LIG d   1      -1.725  84.679 114.873  0.00  0.00     0.006 C 
ENDBRANCH   8   9
BRANCH   8  11
ATOM     11  C   LIG d   1      -1.642  83.115 117.264  0.00  0.00     0.028 C 
ATOM     12  C   LIG d   1      -2.368  82.823 118.587  0.00  0.00     0.006 C 
ENDBRANCH   8  11
ENDBRANCH   7   8
ENDBRANCH   1   7
BRANCH   6  13
ATOM     13  N   LIG d   1      -1.084  82.121 112.256  0.00  0.00    -0.311 N 
ATOM     14  C   LIG d   1      -0.019  82.691 111.695  0.00  0.00     0.210 C 
ATOM     15  C   LIG d   1      -0.292  84.031 111.004  0.00  0.00     0.109 C 
ATOM     16  O   LIG d   1       1.119  82.199 111.676  0.00  0.00    -0.276 OA
ATOM     17  H   LIG d   1      -1.975  82.574 112.196  0.00  0.00     0.149 HD
ENDBRANCH   6  13
BRANCH   5  18
ATOM     18  N   LIG d   1      -0.404  79.423 110.995  0.00  0.00     0.381 N 
ATOM     19  H   LIG d   1      -0.668  78.627 110.449  0.00  0.00    -0.090 HD
ATOM     20  H   LIG d   1       0.502  79.245 111.392  0.00  0.00    -0.090 HD
ATOM     21  H   LIG d   1      -0.368  80.234 110.417  0.00  0.00    -0.090 HD
ENDBRANCH   5  18
BRANCH   3  22
ATOM     22  C   LIG d   1      -2.772  77.313 114.584  0.00  0.00     0.382 C 
ATOM     23  O   LIG d   1      -2.317  76.186 114.275  0.00  0.00    -0.241 OA
ATOM     24  O   LIG d   1      -3.789  77.390 115.298  0.00  0.00    -0.241 OA
ENDBRANCH   3  22
TORSDOF 7
ENDMDL
MODEL 2
REMARK VINA RESULT:      -4.5      2.395      5.211
REMARK  7 active torsions:
REMARK  status: ('A' for Active; 'I' for Inactive)
REMARK    1  A    between atoms: C_2  and  C_3 
REMARK    2  A    between atoms: C_3  and  O_6 
REMARK    3  A    between atoms: C_3  and  C_4 
REMARK    4  A    between atoms: C_7  and  O_6 
REMARK    5  A    between atoms: C_9  and  C_10 
REMARK    6  A    between atoms: N_15  and  C_14 
REMARK    7  A    between atoms: N_20  and  C_19 
REMARK       I    between atoms: C_22  and  N_20 
ROOT
ATOM      1  C   LIG d   1      -2.394  80.048 115.204  0.00  0.00     0.161 C 
ATOM      2  C   LIG d   1      -2.202  81.235 114.478  0.00  0.00     0.016 C 
ATOM      3  C   LIG d   1      -1.657  81.270 113.174  0.00  0.00     0.038 C 
ATOM      4  C   LIG d   1      -1.405  80.098 112.444  0.00  0.00     0.028 C 
ATOM      5  C   LIG d   1      -1.110  78.888 113.324  0.00  0.00    -0.047 C 
ATOM      6  C   LIG d   1      -2.229  78.753 114.382  0.00  0.00     0.091 C 
ENDROOT
BRANCH   1   7
ATOM      7  O   LIG d   1      -3.684  80.072 115.847  0.00  0.00    -0.368 OA
BRANCH   7   8
ATOM      8  C   LIG d   1      -3.700  80.515 117.227  0.00  0.00     0.119 C 
BRANCH   8   9
ATOM      9  C   LIG d   1      -4.591  79.537 118.017  0.00  0.00     0.028 C 
ATOM     10  C   LIG d   1      -5.105  78.378 117.146  0.00  0.00     0.006 C 
ENDBRANCH   8   9
BRANCH   8  11
ATOM     11  C   LIG d   1      -4.377  81.882 117.365  0.00  0.00     0.028 C 
ATOM     12  C   LIG d   1      -5.415  81.921 118.497  0.00  0.00     0.006 C 
ENDBRANCH   8  11
ENDBRANCH   7   8
ENDBRANCH   1   7
BRANCH   6  13
ATOM     13  N   LIG d   1      -1.974  77.643 115.338  0.00  0.00    -0.311 N 
ATOM     14  C   LIG d   1      -2.385  76.393 115.136  0.00  0.00     0.210 C 
ATOM     15  C   LIG d   1      -2.035  75.408 116.256  0.00  0.00     0.109 C 
ATOM     16  O   LIG d   1      -2.980  75.999 114.121  0.00  0.00    -0.276 OA
ATOM     17  H   LIG d   1      -1.471  77.868 116.174  0.00  0.00     0.149 HD
ENDBRANCH   6  13
BRANCH   5  18
ATOM     18  N   LIG d   1      -1.003  77.711 112.442  0.00  0.00     0.381 N 
ATOM     19  H   LIG d   1      -1.584  77.837 111.637  0.00  0.00    -0.090 HD
ATOM     20  H   LIG d   1      -1.326  76.901 112.941  0.00  0.00    -0.090 HD
ATOM     21  H   LIG d   1      -0.056  77.581 112.160  0.00  0.00    -0.090 HD
ENDBRANCH   5  18
BRANCH   3  22
ATOM     22  C   LIG d   1      -1.321  82.487 112.601  0.00  0.00     0.382 C 
ATOM     23  O   LIG d   1      -1.445  83.546 113.263  0.00  0.00    -0.241 OA
ATOM     24  O   LIG d   1      -0.937  82.544 111.418  0.00  0.00    -0.241 OA
ENDBRANCH   3  22
TORSDOF 7
ENDMDL
MODEL 3
REMARK VINA RESULT:      -4.5      2.318      5.047
REMARK  7 active torsions:
REMARK  status: ('A' for Active; 'I' for Inactive)
REMARK    1  A    between atoms: C_2  and  C_3 
REMARK    2  A    between atoms: C_3  and  O_6 
REMARK    3  A    between atoms: C_3  and  C_4 
REMARK    4  A    between atoms: C_7  and  O_6 
REMARK    5  A    between atoms: C_9  and  C_10 
REMARK    6  A    between atoms: N_15  and  C_14 
REMARK    7  A    between atoms: N_20  and  C_19 
REMARK       I    between atoms: C_22  and  N_20 
ROOT
ATOM      1  C   LIG d   1      -2.465  79.823 115.263  0.00  0.00     0.161 C 
ATOM      2  C   LIG d   1      -2.314  81.021 114.545  0.00  0.00     0.016 C 
ATOM      3  C   LIG d   1      -1.771  81.083 113.241  0.00  0.00     0.038 C 
ATOM      4  C   LIG d   1      -1.480  79.925 112.503  0.00  0.00     0.028 C 
ATOM      5  C   LIG d   1      -1.144  78.720 113.375  0.00  0.00    -0.047 C 
ATOM      6  C   LIG d   1      -2.256  78.540 114.432  0.00  0.00     0.091 C 
ENDROOT
BRANCH   1   7
ATOM      7  O   LIG d   1      -3.754  79.799 115.907  0.00  0.00    -0.368 OA
BRANCH   7   8
ATOM      8  C   LIG d   1      -3.746  79.888 117.353  0.00  0.00     0.119 C 
BRANCH   8   9
ATOM      9  C   LIG d   1      -4.320  81.266 117.735  0.00  0.00     0.028 C 
ATOM     10  C   LIG d   1      -3.219  82.306 118.004  0.00  0.00     0.006 C 
ENDBRANCH   8   9
BRANCH   8  11
ATOM     11  C   LIG d   1      -2.317  79.877 117.904  0.00  0.00     0.028 C 
ATOM     12  C   LIG d   1      -2.047  78.682 118.833  0.00  0.00     0.006 C 
ENDBRANCH   8  11
ENDBRANCH   7   8
ENDBRANCH   1   7
BRANCH   6  13
ATOM     13  N   LIG d   1      -1.964  77.433 115.380  0.00  0.00    -0.311 N 
ATOM     14  C   LIG d   1      -2.381  76.182 115.197  0.00  0.00     0.210 C 
ATOM     15  C   LIG d   1      -1.986  75.200 116.305  0.00  0.00     0.109 C 
ATOM     16  O   LIG d   1      -3.013  75.784 114.207  0.00  0.00    -0.276 OA
ATOM     17  H   LIG d   1      -1.429  77.660 116.196  0.00  0.00     0.149 HD
ENDBRANCH   6  13
BRANCH   5  18
ATOM     18  N   LIG d   1      -0.998  77.553 112.484  0.00  0.00     0.381 N 
ATOM     19  H   LIG d   1      -1.234  76.717 112.980  0.00  0.00    -0.090 HD
ATOM     20  H   LIG d   1      -0.039  77.486 112.192  0.00  0.00    -0.090 HD
ATOM     21  H   LIG d   1      -1.589  77.655 111.689  0.00  0.00    -0.090 HD
ENDBRANCH   5  18
BRANCH   3  22
ATOM     22  C   LIG d   1      -1.476  82.315 112.677  0.00  0.00     0.382 C 
ATOM     23  O   LIG d   1      -1.657  83.366 113.337  0.00  0.00    -0.241 OA
ATOM     24  O   LIG d   1      -1.075  82.391 111.500  0.00  0.00    -0.241 OA
ENDBRANCH   3  22
TORSDOF 7
ENDMDL
MODEL 4
REMARK VINA RESULT:      -4.3      1.825      5.108
REMARK  7 active torsions:
REMARK  status: ('A' for Active; 'I' for Inactive)
REMARK    1  A    between atoms: C_2  and  C_3 
REMARK    2  A    between atoms: C_3  and  O_6 
REMARK    3  A    between atoms: C_3  and  C_4 
REMARK    4  A    between atoms: C_7  and  O_6 
REMARK    5  A    between atoms: C_9  and  C_10 
REMARK    6  A    between atoms: N_15  and  C_14 
REMARK    7  A    between atoms: N_20  and  C_19 
REMARK       I    between atoms: C_22  and  N_20 
ROOT
ATOM      1  C   LIG d   1      -0.205  81.538 113.527  0.00  0.00     0.161 C 
ATOM      2  C   LIG d   1       0.323  82.756 113.066  0.00  0.00     0.016 C 
ATOM      3  C   LIG d   1       0.795  82.950 111.748  0.00  0.00     0.038 C 
ATOM      4  C   LIG d   1       0.632  81.977 110.750  0.00  0.00     0.028 C 
ATOM      5  C   LIG d   1       0.564  80.555 111.297  0.00  0.00    -0.047 C 
ATOM      6  C   LIG d   1      -0.494  80.499 112.423  0.00  0.00     0.091 C 
ENDROOT
BRANCH   1   7
ATOM      7  O   LIG d   1      -1.392  81.783 114.307  0.00  0.00    -0.368 OA
BRANCH   7   8
ATOM      8  C   LIG d   1      -1.228  81.745 115.746  0.00  0.00     0.119 C 
BRANCH   8   9
ATOM      9  C   LIG d   1      -1.809  80.407 116.242  0.00  0.00     0.028 C 
ATOM     10  C   LIG d   1      -3.315  80.497 116.544  0.00  0.00     0.006 C 
ENDBRANCH   8   9
BRANCH   8  11
ATOM     11  C   LIG d   1      -2.064  82.830 116.431  0.00  0.00     0.028 C 
ATOM     12  C   LIG d   1      -1.299  83.555 117.549  0.00  0.00     0.006 C 
ENDBRANCH   8  11
ENDBRANCH   7   8
ENDBRANCH   1   7
BRANCH   6  13
ATOM     13  N   LIG d   1      -0.564  79.163 113.069  0.00  0.00    -0.311 N 
ATOM     14  C   LIG d   1      -1.693  78.469 113.197  0.00  0.00     0.210 C 
ATOM     15  C   LIG d   1      -1.547  77.122 113.913  0.00  0.00     0.109 C 
ATOM     16  O   LIG d   1      -2.796  78.825 112.757  0.00  0.00    -0.276 OA
ATOM     17  H   LIG d   1       0.291  78.784 113.427  0.00  0.00     0.149 HD
ENDBRANCH   6  13
BRANCH   5  18
ATOM     18  N   LIG d   1       0.255  79.658 110.168  0.00  0.00     0.381 N 
ATOM     19  H   LIG d   1       1.008  79.670 109.509  0.00  0.00    -0.090 HD
ATOM     20  H   LIG d   1      -0.574  79.990 109.706  0.00  0.00    -0.090 HD
ATOM     21  H   LIG d   1       0.110  78.729 110.500  0.00  0.00    -0.090 HD
ENDBRANCH   5  18
BRANCH   3  22
ATOM     22  C   LIG d   1       1.476  84.114 111.426  0.00  0.00     0.382 C 
ATOM     23  O   LIG d   1       2.192  84.680 112.287  0.00  0.00    -0.241 OA
ATOM     24  O   LIG d   1       1.347  84.631 110.300  0.00  0.00    -0.241 OA
ENDBRANCH   3  22
TORSDOF 7
ENDMDL
MODEL 5
REMARK VINA RESULT:      -4.2      1.340      1.798
REMARK  7 active torsions:
REMARK  status: ('A' for Active; 'I' for Inactive)
REMARK    1  A    between atoms: C_2  and  C_3 
REMARK    2  A    between atoms: C_3  and  O_6 
REMARK    3  A    between atoms: C_3  and  C_4 
REMARK    4  A    between atoms: C_7  and  O_6 
REMARK    5  A    between atoms: C_9  and  C_10 
REMARK    6  A    between atoms: N_15  and  C_14 
REMARK    7  A    between atoms: N_20  and  C_19 
REMARK       I    between atoms: C_22  and  N_20 
ROOT
ATOM      1  C   LIG d   1      -1.881  81.682 113.799  0.00  0.00     0.161 C 
ATOM      2  C   LIG d   1      -2.289  80.623 114.628  0.00  0.00     0.016 C 
ATOM      3  C   LIG d   1      -2.032  79.264 114.336  0.00  0.00     0.038 C 
ATOM      4  C   LIG d   1      -1.214  78.877 113.265  0.00  0.00     0.028 C 
ATOM      5  C   LIG d   1      -1.202  79.881 112.118  0.00  0.00    -0.047 C 
ATOM      6  C   LIG d   1      -0.891  81.286 112.684  0.00  0.00     0.091 C 
ENDROOT
BRANCH   1   7
ATOM      7  O   LIG d   1      -1.333  82.747 114.601  0.00  0.00    -0.368 OA
BRANCH   7   8
ATOM      8  C   LIG d   1      -0.906  82.384 115.937  0.00  0.00     0.119 C 
BRANCH   8   9
ATOM      9  C   LIG d   1      -1.220  83.576 116.862  0.00  0.00     0.028 C 
ATOM     10  C   LIG d   1      -1.641  83.129 118.272  0.00  0.00     0.006 C 
ENDBRANCH   8   9
BRANCH   8  11
ATOM     11  C   LIG d   1       0.613  82.205 116.007  0.00  0.00     0.028 C 
ATOM     12  C   LIG d   1       1.027  80.773 116.381  0.00  0.00     0.006 C 
ENDBRANCH   8  11
ENDBRANCH   7   8
ENDBRANCH   1   7
BRANCH   6  13
ATOM     13  N   LIG d   1      -0.943  82.342 111.640  0.00  0.00    -0.311 N 
ATOM     14  C   LIG d   1       0.063  83.179 111.392  0.00  0.00     0.210 C 
ATOM     15  C   LIG d   1      -0.206  84.205 110.287  0.00  0.00     0.109 C 
ATOM     16  O   LIG d   1       1.165  83.147 111.960  0.00  0.00    -0.276 OA
ATOM     17  H   LIG d   1      -1.789  82.418 111.109  0.00  0.00     0.149 HD
ENDBRANCH   6  13
BRANCH   5  18
ATOM     18  N   LIG d   1      -0.205  79.421 111.132  0.00  0.00     0.381 N 
ATOM     19  H   LIG d   1      -0.257  79.987 110.309  0.00  0.00    -0.090 HD
ATOM     20  H   LIG d   1      -0.415  78.472 110.877  0.00  0.00    -0.090 HD
ATOM     21  H   LIG d   1       0.710  79.473 111.523  0.00  0.00    -0.090 HD
ENDBRANCH   5  18
BRANCH   3  22
ATOM     22  C   LIG d   1      -2.631  78.273 115.099  0.00  0.00     0.382 C 
ATOM     23  O   LIG d   1      -3.511  77.537 114.591  0.00  0.00    -0.241 OA
ATOM     24  O   LIG d   1      -2.335  78.134 116.301  0.00  0.00    -0.241 OA
ENDBRANCH   3  22
TORSDOF 7
ENDMDL
MODEL 6
REMARK VINA RESULT:      -4.1      1.415      1.607
REMARK  7 active torsions:
REMARK  status: ('A' for Active; 'I' for Inactive)
REMARK    1  A    between atoms: C_2  and  C_3 
REMARK    2  A    between atoms: C_3  and  O_6 
REMARK    3  A    between atoms: C_3  and  C_4 
REMARK    4  A    between atoms: C_7  and  O_6 
REMARK    5  A    between atoms: C_9  and  C_10 
REMARK    6  A    between atoms: N_15  and  C_14 
REMARK    7  A    between atoms: N_20  and  C_19 
REMARK       I    between atoms: C_22  and  N_20 
ROOT
ATOM      1  C   LIG d   1      -1.528  80.114 114.660  0.00  0.00     0.161 C 
ATOM      2  C   LIG d   1      -2.240  78.913 114.812  0.00  0.00     0.016 C 
ATOM      3  C   LIG d   1      -2.298  77.912 113.815  0.00  0.00     0.038 C 
ATOM      4  C   LIG d   1      -1.518  77.979 112.651  0.00  0.00     0.028 C 
ATOM      5  C   LIG d   1      -1.178  79.405 112.231  0.00  0.00    -0.047 C 
ATOM      6  C   LIG d   1      -0.581  80.156 113.443  0.00  0.00     0.091 C 
ENDROOT
BRANCH   1   7
ATOM      7  O   LIG d   1      -0.802  80.408 115.870  0.00  0.00    -0.368 OA
BRANCH   7   8
ATOM      8  C   LIG d   1      -1.443  81.322 116.793  0.00  0.00     0.119 C 
BRANCH   8   9
ATOM      9  C   LIG d   1      -0.829  82.717 116.565  0.00  0.00     0.028 C 
ATOM     10  C   LIG d   1      -1.846  83.720 115.996  0.00  0.00     0.006 C 
ENDBRANCH   8   9
BRANCH   8  11
ATOM     11  C   LIG d   1      -1.116  80.968 118.246  0.00  0.00     0.028 C 
ATOM     12  C   LIG d   1      -1.723  81.958 119.253  0.00  0.00     0.006 C 
ENDBRANCH   8  11
ENDBRANCH   7   8
ENDBRANCH   1   7
BRANCH   6  13
ATOM     13  N   LIG d   1      -0.299  81.584 113.141  0.00  0.00    -0.311 N 
ATOM     14  C   LIG d   1      -1.187  82.405 112.585  0.00  0.00     0.210 C 
ATOM     15  C   LIG d   1      -0.685  83.832 112.341  0.00  0.00     0.109 C 
ATOM     16  O   LIG d   1      -2.354  82.097 112.299  0.00  0.00    -0.276 OA
ATOM     17  H   LIG d   1       0.614  81.926 113.369  0.00  0.00     0.149 HD
ENDBRANCH   6  13
BRANCH   5  18
ATOM     18  N   LIG d   1      -0.250  79.323 111.087  0.00  0.00     0.381 N 
ATOM     19  H   LIG d   1       0.680  79.158 111.416  0.00  0.00    -0.090 HD
ATOM     20  H   LIG d   1      -0.260  80.200 110.597  0.00  0.00    -0.090 HD
ATOM     21  H   LIG d   1      -0.528  78.589 110.474  0.00  0.00    -0.090 HD
ENDBRANCH   5  18
BRANCH   3  22
ATOM     22  C   LIG d   1      -3.174  76.847 113.961  0.00  0.00     0.382 C 
ATOM     23  O   LIG d   1      -3.191  76.191 115.030  0.00  0.00    -0.241 OA
ATOM     24  O   LIG d   1      -3.915  76.505 113.020  0.00  0.00    -0.241 OA
ENDBRANCH   3  22
TORSDOF 7
ENDMDL
MODEL 7
REMARK VINA RESULT:      -4.1      3.430      5.392
REMARK  7 active torsions:
REMARK  status: ('A' for Active; 'I' for Inactive)
REMARK    1  A    between atoms: C_2  and  C_3 
REMARK    2  A    between atoms: C_3  and  O_6 
REMARK    3  A    between atoms: C_3  and  C_4 
REMARK    4  A    between atoms: C_7  and  O_6 
REMARK    5  A    between atoms: C_9  and  C_10 
REMARK    6  A    between atoms: N_15  and  C_14 
REMARK    7  A    between atoms: N_20  and  C_19 
REMARK       I    between atoms: C_22  and  N_20 
ROOT
ATOM      1  C   LIG d   1      -1.396  77.148 114.270  0.00  0.00     0.161 C 
ATOM      2  C   LIG d   1      -2.687  76.992 113.739  0.00  0.00     0.016 C 
ATOM      3  C   LIG d   1      -3.628  76.064 114.241  0.00  0.00     0.038 C 
ATOM      4  C   LIG d   1      -3.392  75.329 115.413  0.00  0.00     0.028 C 
ATOM      5  C   LIG d   1      -1.912  75.086 115.687  0.00  0.00    -0.047 C 
ATOM      6  C   LIG d   1      -1.160  76.434 115.618  0.00  0.00     0.091 C 
ENDROOT
BRANCH   1   7
ATOM      7  O   LIG d   1      -1.081  78.550 114.384  0.00  0.00    -0.368 OA
BRANCH   7   8
ATOM      8  C   LIG d   1      -2.090  79.472 113.903  0.00  0.00     0.119 C 
BRANCH   8   9
ATOM      9  C   LIG d   1      -1.447  80.321 112.789  0.00  0.00     0.028 C 
ATOM     10  C   LIG d   1      -1.747  81.821 112.949  0.00  0.00     0.006 C 
ENDBRANCH   8   9
BRANCH   8  11
ATOM     11  C   LIG d   1      -2.497  80.470 114.990  0.00  0.00     0.028 C 
ATOM     12  C   LIG d   1      -3.145  79.792 116.208  0.00  0.00     0.006 C 
ENDBRANCH   8  11
ENDBRANCH   7   8
ENDBRANCH   1   7
BRANCH   6  13
ATOM     13  N   LIG d   1       0.307  76.275 115.792  0.00  0.00    -0.311 N 
ATOM     14  C   LIG d   1       0.917  76.350 116.973  0.00  0.00     0.210 C 
ATOM     15  C   LIG d   1       2.439  76.176 116.927  0.00  0.00     0.109 C 
ATOM     16  O   LIG d   1       0.340  76.510 118.059  0.00  0.00    -0.276 OA
ATOM     17  H   LIG d   1       0.849  76.110 114.966  0.00  0.00     0.149 HD
ENDBRANCH   6  13
BRANCH   5  18
ATOM     18  N   LIG d   1      -1.805  74.431 117.005  0.00  0.00     0.381 N 
ATOM     19  H   LIG d   1      -2.040  73.462 116.922  0.00  0.00    -0.090 HD
ATOM     20  H   LIG d   1      -2.459  74.861 117.636  0.00  0.00    -0.090 HD
ATOM     21  H   LIG d   1      -0.879  74.527 117.359  0.00  0.00    -0.090 HD
ENDBRANCH   5  18
BRANCH   3  22
ATOM     22  C   LIG d   1      -4.805  75.834 113.545  0.00  0.00     0.382 C 
ATOM     23  O   LIG d   1      -4.972  76.343 112.411  0.00  0.00    -0.241 OA
ATOM     24  O   LIG d   1      -5.720  75.161 114.056  0.00  0.00    -0.241 OA
ENDBRANCH   3  22
TORSDOF 7
ENDMDL
MODEL 8
REMARK VINA RESULT:      -4.1      2.433      5.725
REMARK  7 active torsions:
REMARK  status: ('A' for Active; 'I' for Inactive)
REMARK    1  A    between atoms: C_2  and  C_3 
REMARK    2  A    between atoms: C_3  and  O_6 
REMARK    3  A    between atoms: C_3  and  C_4 
REMARK    4  A    between atoms: C_7  and  O_6 
REMARK    5  A    between atoms: C_9  and  C_10 
REMARK    6  A    between atoms: N_15  and  C_14 
REMARK    7  A    between atoms: N_20  and  C_19 
REMARK       I    between atoms: C_22  and  N_20 
ROOT
ATOM      1  C   LIG d   1      -2.526  81.639 113.914  0.00  0.00     0.161 C 
ATOM      2  C   LIG d   1      -1.746  81.834 112.762  0.00  0.00     0.016 C 
ATOM      3  C   LIG d   1      -0.697  82.779 112.684  0.00  0.00     0.038 C 
ATOM      4  C   LIG d   1      -0.257  83.493 113.808  0.00  0.00     0.028 C 
ATOM      5  C   LIG d   1      -1.342  83.696 114.860  0.00  0.00    -0.047 C 
ATOM      6  C   LIG d   1      -1.988  82.330 115.185  0.00  0.00     0.091 C 
ENDROOT
BRANCH   1   7
ATOM      7  O   LIG d   1      -2.707  80.228 114.149  0.00  0.00    -0.368 OA
BRANCH   7   8
ATOM      8  C   LIG d   1      -1.559  79.518 114.674  0.00  0.00     0.119 C 
BRANCH   8   9
ATOM      9  C   LIG d   1      -1.237  78.371 113.697  0.00  0.00     0.028 C 
ATOM     10  C   LIG d   1      -2.427  78.025 112.786  0.00  0.00     0.006 C 
ENDBRANCH   8   9
BRANCH   8  11
ATOM     11  C   LIG d   1      -1.887  78.836 116.006  0.00  0.00     0.028 C 
ATOM     12  C   LIG d   1      -3.395  78.795 116.298  0.00  0.00     0.006 C 
ENDBRANCH   8  11
ENDBRANCH   7   8
ENDBRANCH   1   7
BRANCH   6  13
ATOM     13  N   LIG d   1      -3.117  82.450 116.144  0.00  0.00    -0.311 N 
ATOM     14  C   LIG d   1      -2.990  82.248 117.454  0.00  0.00     0.210 C 
ATOM     15  C   LIG d   1      -4.284  82.404 118.260  0.00  0.00     0.109 C 
ATOM     16  O   LIG d   1      -1.923  81.987 118.030  0.00  0.00    -0.276 OA
ATOM     17  H   LIG d   1      -4.013  82.690 115.766  0.00  0.00     0.149 HD
ENDBRANCH   6  13
BRANCH   5  18
ATOM     18  N   LIG d   1      -0.712  84.331 116.034  0.00  0.00     0.381 N 
ATOM     19  H   LIG d   1      -1.350  84.326 116.804  0.00  0.00    -0.090 HD
ATOM     20  H   LIG d   1      -0.495  85.286 115.809  0.00  0.00    -0.090 HD
ATOM     21  H   LIG d   1       0.121  83.842 116.279  0.00  0.00    -0.090 HD
ENDBRANCH   5  18
BRANCH   3  22
ATOM     22  C   LIG d   1      -0.104  83.047 111.460  0.00  0.00     0.382 C 
ATOM     23  O   LIG d   1      -0.807  83.426 110.492  0.00  0.00    -0.241 OA
ATOM     24  O   LIG d   1       1.119  82.873 111.298  0.00  0.00    -0.241 OA
ENDBRANCH   3  22
TORSDOF 7
ENDMDL
MODEL 9
REMARK VINA RESULT:      -3.8      1.621      2.414
REMARK  7 active torsions:
REMARK  status: ('A' for Active; 'I' for Inactive)
REMARK    1  A    between atoms: C_2  and  C_3 
REMARK    2  A    between atoms: C_3  and  O_6 
REMARK    3  A    between atoms: C_3  and  C_4 
REMARK    4  A    between atoms: C_7  and  O_6 
REMARK    5  A    between atoms: C_9  and  C_10 
REMARK    6  A    between atoms: N_15  and  C_14 
REMARK    7  A    between atoms: N_20  and  C_19 
REMARK       I    between atoms: C_22  and  N_20 
ROOT
ATOM      1  C   LIG d   1      -1.932  80.744 115.578  0.00  0.00     0.161 C 
ATOM      2  C   LIG d   1      -2.778  79.844 116.247  0.00  0.00     0.016 C 
ATOM      3  C   LIG d   1      -3.060  78.542 115.774  0.00  0.00     0.038 C 
ATOM      4  C   LIG d   1      -2.391  77.994 114.670  0.00  0.00     0.028 C 
ATOM      5  C   LIG d   1      -1.908  79.041 113.673  0.00  0.00    -0.047 C 
ATOM      6  C   LIG d   1      -1.107  80.124 114.431  0.00  0.00     0.091 C 
ENDROOT
BRANCH   1   7
ATOM      7  O   LIG d   1      -1.063  81.395 116.526  0.00  0.00    -0.368 OA
BRANCH   7   8
ATOM      8  C   LIG d   1      -1.327  82.798 116.773  0.00  0.00     0.119 C 
BRANCH   8   9
ATOM      9  C   LIG d   1      -1.873  82.921 118.208  0.00  0.00     0.028 C 
ATOM     10  C   LIG d   1      -0.957  83.758 119.116  0.00  0.00     0.006 C 
ENDBRANCH   8   9
BRANCH   8  11
ATOM     11  C   LIG d   1      -2.445  83.323 115.867  0.00  0.00     0.028 C 
ATOM     12  C   LIG d   1      -2.060  84.618 115.135  0.00  0.00     0.006 C 
ENDBRANCH   8  11
ENDBRANCH   7   8
ENDBRANCH   1   7
BRANCH   6  13
ATOM     13  N   LIG d   1      -0.669  81.232 113.542  0.00  0.00    -0.311 N 
ATOM     14  C   LIG d   1      -1.501  81.916 112.759  0.00  0.00     0.210 C 
ATOM     15  C   LIG d   1      -0.840  83.004 111.907  0.00  0.00     0.109 C 
ATOM     16  O   LIG d   1      -2.729  81.746 112.712  0.00  0.00    -0.276 OA
ATOM     17  H   LIG d   1       0.307  81.457 113.541  0.00  0.00     0.149 HD
ENDBRANCH   6  13
BRANCH   5  18
ATOM     18  N   LIG d   1      -1.110  78.345 112.646  0.00  0.00     0.381 N 
ATOM     19  H   LIG d   1      -0.233  78.061 113.033  0.00  0.00    -0.090 HD
ATOM     20  H   LIG d   1      -0.930  78.980 111.888  0.00  0.00    -0.090 HD
ATOM     21  H   LIG d   1      -1.607  77.549 112.310  0.00  0.00    -0.090 HD
ENDBRANCH   5  18
BRANCH   3  22
ATOM     22  C   LIG d   1      -4.051  77.788 116.385  0.00  0.00     0.382 C 
ATOM     23  O   LIG d   1      -3.789  76.639 116.815  0.00  0.00    -0.241 OA
ATOM     24  O   LIG d   1      -5.214  78.226 116.473  0.00  0.00    -0.241 OA
ENDBRANCH   3  22
TORSDOF 7
ENDMDL
