MODEL 1
REMARK VINA RESULT:      -4.6      0.000      0.000
REMARK  7 active torsions:
REMARK  status: ('A' for Active; 'I' for Inactive)
REMARK    1  A    between atoms: C_2  and  C_3 
REMARK    2  A    between atoms: C_3  and  O_6 
REMARK    3  A    between atoms: C_3  and  C_4 
REMARK    4  A    between atoms: C_7  and  O_6 
REMARK    5  A    between atoms: C_9  and  C_10 
REMARK    6  A    between atoms: N_15  and  C_14 
REMARK    7  A    between atoms: N_20  and  C_19 
REMARK       I    between atoms: C_22  and  N_20 
ROOT
ATOM      1  C   LIG d   1      -2.983  75.760 115.299  0.00  0.00     0.161 C 
ATOM      2  C   LIG d   1      -3.054  75.514 116.681  0.00  0.00     0.016 C 
ATOM      3  C   LIG d   1      -2.796  76.499 117.661  0.00  0.00     0.038 C 
ATOM      4  C   LIG d   1      -2.595  77.846 117.323  0.00  0.00     0.028 C 
ATOM      5  C   LIG d   1      -2.016  78.040 115.926  0.00  0.00    -0.047 C 
ATOM      6  C   LIG d   1      -2.874  77.250 114.913  0.00  0.00     0.091 C 
ENDROOT
BRANCH   1   7
ATOM      7  O   LIG d   1      -4.108  75.151 114.636  0.00  0.00    -0.368 OA
BRANCH   7   8
ATOM      8  C   LIG d   1      -5.304  75.962 114.535  0.00  0.00     0.119 C 
BRANCH   8   9
ATOM      9  C   LIG d   1      -6.414  75.254 115.335  0.00  0.00     0.028 C 
ATOM     10  C   LIG d   1      -6.897  76.088 116.533  0.00  0.00     0.006 C 
ENDBRANCH   8   9
BRANCH   8  11
ATOM     11  C   LIG d   1      -5.818  76.020 113.093  0.00  0.00     0.028 C 
ATOM     12  C   LIG d   1      -7.151  76.774 112.965  0.00  0.00     0.006 C 
ENDBRANCH   8  11
ENDBRANCH   7   8
ENDBRANCH   1   7
BRANCH   6  13
ATOM     13  N   LIG d   1      -2.327  77.317 113.532  0.00  0.00    -0.311 N 
ATOM     14  C   LIG d   1      -2.724  78.212 112.629  0.00  0.00     0.210 C 
ATOM     15  C   LIG d   1      -2.046  78.094 111.260  0.00  0.00     0.109 C 
ATOM     16  O   LIG d   1      -3.550  79.112 112.841  0.00  0.00    -0.276 OA
ATOM     17  H   LIG d   1      -1.629  76.643 113.285  0.00  0.00     0.149 HD
ENDBRANCH   6  13
BRANCH   5  18
ATOM     18  N   LIG d   1      -1.987  79.490 115.653  0.00  0.00     0.381 N 
ATOM     19  H   LIG d   1      -1.508  79.663 114.792  0.00  0.00    -0.090 HD
ATOM     20  H   LIG d   1      -1.485  79.950 116.392  0.00  0.00    -0.090 HD
ATOM     21  H   LIG d   1      -2.916  79.845 115.602  0.00  0.00    -0.090 HD
ENDBRANCH   5  18
BRANCH   3  22
ATOM     22  C   LIG d   1      -2.698  76.133 118.995  0.00  0.00     0.382 C 
ATOM     23  O   LIG d   1      -3.334  76.771 119.868  0.00  0.00    -0.241 OA
ATOM     24  O   LIG d   1      -1.947  75.201 119.340  0.00  0.00    -0.241 OA
ENDBRANCH   3  22
TORSDOF 7
ENDMDL
MODEL 2
REMARK VINA RESULT:      -4.5      2.107      4.638
REMARK  7 active torsions:
REMARK  status: ('A' for Active; 'I' for Inactive)
REMARK    1  A    between atoms: C_2  and  C_3 
REMARK    2  A    between atoms: C_3  and  O_6 
REMARK    3  A    between atoms: C_3  and  C_4 
REMARK    4  A    between atoms: C_7  and  O_6 
REMARK    5  A    between atoms: C_9  and  C_10 
REMARK    6  A    between atoms: N_15  and  C_14 
REMARK    7  A    between atoms: N_20  and  C_19 
REMARK       I    between atoms: C_22  and  N_20 
ROOT
ATOM      1  C   LIG d   1      -3.684  77.297 113.964  0.00  0.00     0.161 C 
ATOM      2  C   LIG d   1      -3.169  77.934 112.823  0.00  0.00     0.016 C 
ATOM      3  C   LIG d   1      -1.822  78.346 112.704  0.00  0.00     0.038 C 
ATOM      4  C   LIG d   1      -0.856  78.011 113.664  0.00  0.00     0.028 C 
ATOM      5  C   LIG d   1      -1.434  77.811 115.061  0.00  0.00    -0.047 C 
ATOM      6  C   LIG d   1      -2.620  76.823 114.976  0.00  0.00     0.091 C 
ENDROOT
BRANCH   1   7
ATOM      7  O   LIG d   1      -4.526  76.195 113.570  0.00  0.00    -0.368 OA
BRANCH   7   8
ATOM      8  C   LIG d   1      -5.939  76.338 113.857  0.00  0.00     0.119 C 
BRANCH   8   9
ATOM      9  C   LIG d   1      -6.330  75.209 114.830  0.00  0.00     0.028 C 
ATOM     10  C   LIG d   1      -7.101  75.730 116.055  0.00  0.00     0.006 C 
ENDBRANCH   8   9
BRANCH   8  11
ATOM     11  C   LIG d   1      -6.789  76.107 112.604  0.00  0.00     0.028 C 
ATOM     12  C   LIG d   1      -7.634  77.333 112.223  0.00  0.00     0.006 C 
ENDBRANCH   8  11
ENDBRANCH   7   8
ENDBRANCH   1   7
BRANCH   6  13
ATOM     13  N   LIG d   1      -3.297  76.636 116.286  0.00  0.00    -0.311 N 
ATOM     14  C   LIG d   1      -3.845  77.634 116.977  0.00  0.00     0.210 C 
ATOM     15  C   LIG d   1      -4.474  77.226 118.313  0.00  0.00     0.109 C 
ATOM     16  O   LIG d   1      -3.899  78.813 116.595  0.00  0.00    -0.276 OA
ATOM     17  H   LIG d   1      -3.327  75.706 116.655  0.00  0.00     0.149 HD
ENDBRANCH   6  13
BRANCH   5  18
ATOM     18  N   LIG d   1      -0.344  77.332 115.931  0.00  0.00     0.381 N 
ATOM     19  H   LIG d   1       0.223  78.104 116.219  0.00  0.00    -0.090 HD
ATOM     20  H   LIG d   1       0.232  76.695 115.409  0.00  0.00    -0.090 HD
ATOM     21  H   LIG d   1      -0.722  76.871 116.729  0.00  0.00    -0.090 HD
ENDBRANCH   5  18
BRANCH   3  22
ATOM     22  C   LIG d   1      -1.438  79.138 111.632  0.00  0.00     0.382 C 
ATOM     23  O   LIG d   1      -1.349  78.639 110.485  0.00  0.00    -0.241 OA
ATOM     24  O   LIG d   1      -1.137  80.334 111.806  0.00  0.00    -0.241 OA
ENDBRANCH   3  22
TORSDOF 7
ENDMDL
MODEL 3
REMARK VINA RESULT:      -4.4      2.131      4.818
REMARK  7 active torsions:
REMARK  status: ('A' for Active; 'I' for Inactive)
REMARK    1  A    between atoms: C_2  and  C_3 
REMARK    2  A    between atoms: C_3  and  O_6 
REMARK    3  A    between atoms: C_3  and  C_4 
REMARK    4  A    between atoms: C_7  and  O_6 
REMARK    5  A    between atoms: C_9  and  C_10 
REMARK    6  A    between atoms: N_15  and  C_14 
REMARK    7  A    between atoms: N_20  and  C_19 
REMARK       I    between atoms: C_22  and  N_20 
ROOT
ATOM      1  C   LIG d   1      -3.063  77.103 115.085  0.00  0.00     0.161 C 
ATOM      2  C   LIG d   1      -3.187  78.043 114.049  0.00  0.00     0.016 C 
ATOM      3  C   LIG d   1      -2.167  78.961 113.706  0.00  0.00     0.038 C 
ATOM      4  C   LIG d   1      -0.889  78.899 114.280  0.00  0.00     0.028 C 
ATOM      5  C   LIG d   1      -0.883  78.296 115.681  0.00  0.00    -0.047 C 
ATOM      6  C   LIG d   1      -1.635  76.945 115.649  0.00  0.00     0.091 C 
ENDROOT
BRANCH   1   7
ATOM      7  O   LIG d   1      -3.573  75.827 114.650  0.00  0.00    -0.368 OA
BRANCH   7   8
ATOM      8  C   LIG d   1      -4.716  75.315 115.378  0.00  0.00     0.119 C 
BRANCH   8   9
ATOM      9  C   LIG d   1      -5.792  74.935 114.343  0.00  0.00     0.028 C 
ATOM     10  C   LIG d   1      -6.046  76.056 113.321  0.00  0.00     0.006 C 
ENDBRANCH   8   9
BRANCH   8  11
ATOM     11  C   LIG d   1      -5.356  76.403 116.247  0.00  0.00     0.028 C 
ATOM     12  C   LIG d   1      -6.805  76.076 116.640  0.00  0.00     0.006 C 
ENDBRANCH   8  11
ENDBRANCH   7   8
ENDBRANCH   1   7
BRANCH   6  13
ATOM     13  N   LIG d   1      -1.749  76.328 116.996  0.00  0.00    -0.311 N 
ATOM     14  C   LIG d   1      -1.361  75.083 117.267  0.00  0.00     0.210 C 
ATOM     15  C   LIG d   1      -1.585  74.637 118.715  0.00  0.00     0.109 C 
ATOM     16  O   LIG d   1      -0.823  74.317 116.454  0.00  0.00    -0.276 OA
ATOM     17  H   LIG d   1      -2.146  76.890 117.723  0.00  0.00     0.149 HD
ENDBRANCH   6  13
BRANCH   5  18
ATOM     18  N   LIG d   1       0.524  78.164 116.103  0.00  0.00     0.381 N 
ATOM     19  H   LIG d   1       1.086  77.882 115.325  0.00  0.00    -0.090 HD
ATOM     20  H   LIG d   1       0.586  77.453 116.811  0.00  0.00    -0.090 HD
ATOM     21  H   LIG d   1       0.854  79.032 116.464  0.00  0.00    -0.090 HD
ENDBRANCH   5  18
BRANCH   3  22
ATOM     22  C   LIG d   1      -2.436  79.981 112.805  0.00  0.00     0.382 C 
ATOM     23  O   LIG d   1      -1.559  80.338 111.983  0.00  0.00    -0.241 OA
ATOM     24  O   LIG d   1      -3.529  80.578 112.835  0.00  0.00    -0.241 OA
ENDBRANCH   3  22
TORSDOF 7
ENDMDL
MODEL 4
REMARK VINA RESULT:      -4.4      2.900      5.551
REMARK  7 active torsions:
REMARK  status: ('A' for Active; 'I' for Inactive)
REMARK    1  A    between atoms: C_2  and  C_3 
REMARK    2  A    between atoms: C_3  and  O_6 
REMARK    3  A    between atoms: C_3  and  C_4 
REMARK    4  A    between atoms: C_7  and  O_6 
REMARK    5  A    between atoms: C_9  and  C_10 
REMARK    6  A    between atoms: N_15  and  C_14 
REMARK    7  A    between atoms: N_20  and  C_19 
REMARK       I    between atoms: C_22  and  N_20 
ROOT
ATOM      1  C   LIG d   1      -2.777  78.469 116.167  0.00  0.00     0.161 C 
ATOM      2  C   LIG d   1      -2.979  79.349 115.091  0.00  0.00     0.016 C 
ATOM      3  C   LIG d   1      -2.444  79.136 113.800  0.00  0.00     0.038 C 
ATOM      4  C   LIG d   1      -1.791  77.943 113.456  0.00  0.00     0.028 C 
ATOM      5  C   LIG d   1      -1.127  77.252 114.643  0.00  0.00    -0.047 C 
ATOM      6  C   LIG d   1      -2.161  77.108 115.783  0.00  0.00     0.091 C 
ENDROOT
BRANCH   1   7
ATOM      7  O   LIG d   1      -4.015  78.276 116.879  0.00  0.00    -0.368 OA
BRANCH   7   8
ATOM      8  C   LIG d   1      -4.301  79.229 117.932  0.00  0.00     0.119 C 
BRANCH   8   9
ATOM      9  C   LIG d   1      -3.702  78.671 119.237  0.00  0.00     0.028 C 
ATOM     10  C   LIG d   1      -4.150  77.227 119.518  0.00  0.00     0.006 C 
ENDBRANCH   8   9
BRANCH   8  11
ATOM     11  C   LIG d   1      -5.807  79.339 118.191  0.00  0.00     0.028 C 
ATOM     12  C   LIG d   1      -6.263  80.783 118.453  0.00  0.00     0.006 C 
ENDBRANCH   8  11
ENDBRANCH   7   8
ENDBRANCH   1   7
BRANCH   6  13
ATOM     13  N   LIG d   1      -1.571  76.517 117.012  0.00  0.00    -0.311 N 
ATOM     14  C   LIG d   1      -1.597  75.214 117.285  0.00  0.00     0.210 C 
ATOM     15  C   LIG d   1      -0.949  74.819 118.616  0.00  0.00     0.109 C 
ATOM     16  O   LIG d   1      -2.065  74.344 116.536  0.00  0.00    -0.276 OA
ATOM     17  H   LIG d   1      -1.143  77.148 117.661  0.00  0.00     0.149 HD
ENDBRANCH   6  13
BRANCH   5  18
ATOM     18  N   LIG d   1      -0.604  75.956 114.169  0.00  0.00     0.381 N 
ATOM     19  H   LIG d   1      -0.818  75.241 114.835  0.00  0.00    -0.090 HD
ATOM     20  H   LIG d   1       0.395  76.020 114.085  0.00  0.00    -0.090 HD
ATOM     21  H   LIG d   1      -1.006  75.729 113.286  0.00  0.00    -0.090 HD
ENDBRANCH   5  18
BRANCH   3  22
ATOM     22  C   LIG d   1      -2.524  80.140 112.848  0.00  0.00     0.382 C 
ATOM     23  O   LIG d   1      -1.639  80.240 111.965  0.00  0.00    -0.241 OA
ATOM     24  O   LIG d   1      -3.448  80.975 112.887  0.00  0.00    -0.241 OA
ENDBRANCH   3  22
TORSDOF 7
ENDMDL
MODEL 5
REMARK VINA RESULT:      -4.4      1.030      1.827
REMARK  7 active torsions:
REMARK  status: ('A' for Active; 'I' for Inactive)
REMARK    1  A    between atoms: C_2  and  C_3 
REMARK    2  A    between atoms: C_3  and  O_6 
REMARK    3  A    between atoms: C_3  and  C_4 
REMARK    4  A    between atoms: C_7  and  O_6 
REMARK    5  A    between atoms: C_9  and  C_10 
REMARK    6  A    between atoms: N_15  and  C_14 
REMARK    7  A    between atoms: N_20  and  C_19 
REMARK       I    between atoms: C_22  and  N_20 
ROOT
ATOM      1  C   LIG d   1      -3.390  76.707 115.218  0.00  0.00     0.161 C 
ATOM      2  C   LIG d   1      -3.371  76.585 116.617  0.00  0.00     0.016 C 
ATOM      3  C   LIG d   1      -2.447  77.262 117.445  0.00  0.00     0.038 C 
ATOM      4  C   LIG d   1      -1.569  78.231 116.939  0.00  0.00     0.028 C 
ATOM      5  C   LIG d   1      -1.210  78.016 115.472  0.00  0.00    -0.047 C 
ATOM      6  C   LIG d   1      -2.512  77.846 114.657  0.00  0.00     0.091 C 
ENDROOT
BRANCH   1   7
ATOM      7  O   LIG d   1      -4.748  76.849 114.758  0.00  0.00    -0.368 OA
BRANCH   7   8
ATOM      8  C   LIG d   1      -5.372  75.651 114.234  0.00  0.00     0.119 C 
BRANCH   8   9
ATOM      9  C   LIG d   1      -6.473  76.093 113.252  0.00  0.00     0.028 C 
ATOM     10  C   LIG d   1      -5.996  77.198 112.294  0.00  0.00     0.006 C 
ENDBRANCH   8   9
BRANCH   8  11
ATOM     11  C   LIG d   1      -6.099  74.875 115.336  0.00  0.00     0.028 C 
ATOM     12  C   LIG d   1      -7.129  75.732 116.089  0.00  0.00     0.006 C 
ENDBRANCH   8  11
ENDBRANCH   7   8
ENDBRANCH   1   7
BRANCH   6  13
ATOM     13  N   LIG d   1      -2.249  77.547 113.225  0.00  0.00    -0.311 N 
ATOM     14  C   LIG d   1      -2.270  78.472 112.267  0.00  0.00     0.210 C 
ATOM     15  C   LIG d   1      -1.991  77.947 110.855  0.00  0.00     0.109 C 
ATOM     16  O   LIG d   1      -2.461  79.683 112.457  0.00  0.00    -0.276 OA
ATOM     17  H   LIG d   1      -2.054  76.594 112.986  0.00  0.00     0.149 HD
ENDBRANCH   6  13
BRANCH   5  18
ATOM     18  N   LIG d   1      -0.402  79.171 115.037  0.00  0.00     0.381 N 
ATOM     19  H   LIG d   1      -0.471  79.906 115.712  0.00  0.00    -0.090 HD
ATOM     20  H   LIG d   1      -0.764  79.510 114.163  0.00  0.00    -0.090 HD
ATOM     21  H   LIG d   1       0.550  78.899 114.928  0.00  0.00    -0.090 HD
ENDBRANCH   5  18
BRANCH   3  22
ATOM     22  C   LIG d   1      -2.368  76.941 118.792  0.00  0.00     0.382 C 
ATOM     23  O   LIG d   1      -1.249  76.880 119.358  0.00  0.00    -0.241 OA
ATOM     24  O   LIG d   1      -3.397  76.668 119.438  0.00  0.00    -0.241 OA
ENDBRANCH   3  22
TORSDOF 7
ENDMDL
MODEL 6
REMARK VINA RESULT:      -4.4      2.793      4.072
REMARK  7 active torsions:
REMARK  status: ('A' for Active; 'I' for Inactive)
REMARK    1  A    between atoms: C_2  and  C_3 
REMARK    2  A    between atoms: C_3  and  O_6 
REMARK    3  A    between atoms: C_3  and  C_4 
REMARK    4  A    between atoms: C_7  and  O_6 
REMARK    5  A    between atoms: C_9  and  C_10 
REMARK    6  A    between atoms: N_15  and  C_14 
REMARK    7  A    between atoms: N_20  and  C_19 
REMARK       I    between atoms: C_22  and  N_20 
ROOT
ATOM      1  C   LIG d   1      -3.265  78.010 117.088  0.00  0.00     0.161 C 
ATOM      2  C   LIG d   1      -2.412  79.007 117.590  0.00  0.00     0.016 C 
ATOM      3  C   LIG d   1      -1.126  79.269 117.063  0.00  0.00     0.038 C 
ATOM      4  C   LIG d   1      -0.664  78.649 115.892  0.00  0.00     0.028 C 
ATOM      5  C   LIG d   1      -1.285  77.277 115.648  0.00  0.00    -0.047 C 
ATOM      6  C   LIG d   1      -2.823  77.399 115.742  0.00  0.00     0.091 C 
ENDROOT
BRANCH   1   7
ATOM      7  O   LIG d   1      -4.609  78.522 116.989  0.00  0.00    -0.368 OA
BRANCH   7   8
ATOM      8  C   LIG d   1      -5.533  78.087 118.016  0.00  0.00     0.119 C 
BRANCH   8   9
ATOM      9  C   LIG d   1      -6.499  77.074 117.372  0.00  0.00     0.028 C 
ATOM     10  C   LIG d   1      -7.756  76.837 118.225  0.00  0.00     0.006 C 
ENDBRANCH   8   9
BRANCH   8  11
ATOM     11  C   LIG d   1      -6.418  79.243 118.494  0.00  0.00     0.028 C 
ATOM     12  C   LIG d   1      -5.782  80.620 118.251  0.00  0.00     0.006 C 
ENDBRANCH   8  11
ENDBRANCH   7   8
ENDBRANCH   1   7
BRANCH   6  13
ATOM     13  N   LIG d   1      -3.505  76.086 115.599  0.00  0.00    -0.311 N 
ATOM     14  C   LIG d   1      -4.318  75.789 114.586  0.00  0.00     0.210 C 
ATOM     15  C   LIG d   1      -4.933  74.387 114.641  0.00  0.00     0.109 C 
ATOM     16  O   LIG d   1      -4.563  76.541 113.631  0.00  0.00    -0.276 OA
ATOM     17  H   LIG d   1      -3.338  75.405 116.313  0.00  0.00     0.149 HD
ENDBRANCH   6  13
BRANCH   5  18
ATOM     18  N   LIG d   1      -0.821  76.806 114.330  0.00  0.00     0.381 N 
ATOM     19  H   LIG d   1      -1.531  76.967 113.644  0.00  0.00    -0.090 HD
ATOM     20  H   LIG d   1      -0.648  75.818 114.380  0.00  0.00    -0.090 HD
ATOM     21  H   LIG d   1       0.014  77.284 114.071  0.00  0.00    -0.090 HD
ENDBRANCH   5  18
BRANCH   3  22
ATOM     22  C   LIG d   1      -0.272  80.132 117.732  0.00  0.00     0.382 C 
ATOM     23  O   LIG d   1      -0.143  80.047 118.977  0.00  0.00    -0.241 OA
ATOM     24  O   LIG d   1       0.338  81.024 117.112  0.00  0.00    -0.241 OA
ENDBRANCH   3  22
TORSDOF 7
ENDMDL
MODEL 7
REMARK VINA RESULT:      -4.3      1.966      2.576
REMARK  7 active torsions:
REMARK  status: ('A' for Active; 'I' for Inactive)
REMARK    1  A    between atoms: C_2  and  C_3 
REMARK    2  A    between atoms: C_3  and  O_6 
REMARK    3  A    between atoms: C_3  and  C_4 
REMARK    4  A    between atoms: C_7  and  O_6 
REMARK    5  A    between atoms: C_9  and  C_10 
REMARK    6  A    between atoms: N_15  and  C_14 
REMARK    7  A    between atoms: N_20  and  C_19 
REMARK       I    between atoms: C_22  and  N_20 
ROOT
ATOM      1  C   LIG d   1      -1.317  75.938 115.242  0.00  0.00     0.161 C 
ATOM      2  C   LIG d   1      -1.100  75.100 116.348  0.00  0.00     0.016 C 
ATOM      3  C   LIG d   1      -0.541  75.549 117.567  0.00  0.00     0.038 C 
ATOM      4  C   LIG d   1      -0.299  76.908 117.815  0.00  0.00     0.028 C 
ATOM      5  C   LIG d   1      -0.031  77.717 116.550  0.00  0.00    -0.047 C 
ATOM      6  C   LIG d   1      -1.162  77.446 115.532  0.00  0.00     0.091 C 
ENDROOT
BRANCH   1   7
ATOM      7  O   LIG d   1      -2.612  75.668 114.671  0.00  0.00    -0.368 OA
BRANCH   7   8
ATOM      8  C   LIG d   1      -3.655  75.292 115.604  0.00  0.00     0.119 C 
BRANCH   8   9
ATOM      9  C   LIG d   1      -4.642  74.378 114.852  0.00  0.00     0.028 C 
ATOM     10  C   LIG d   1      -6.106  74.806 115.052  0.00  0.00     0.006 C 
ENDBRANCH   8   9
BRANCH   8  11
ATOM     11  C   LIG d   1      -4.478  76.507 116.040  0.00  0.00     0.028 C 
ATOM     12  C   LIG d   1      -4.296  76.848 117.527  0.00  0.00     0.006 C 
ENDBRANCH   8  11
ENDBRANCH   7   8
ENDBRANCH   1   7
BRANCH   6  13
ATOM     13  N   LIG d   1      -0.934  78.133 114.235  0.00  0.00    -0.311 N 
ATOM     14  C   LIG d   1      -1.737  79.081 113.756  0.00  0.00     0.210 C 
ATOM     15  C   LIG d   1      -1.330  79.644 112.390  0.00  0.00     0.109 C 
ATOM     16  O   LIG d   1      -2.730  79.532 114.346  0.00  0.00    -0.276 OA
ATOM     17  H   LIG d   1      -0.133  77.851 113.704  0.00  0.00     0.149 HD
ENDBRANCH   6  13
BRANCH   5  18
ATOM     18  N   LIG d   1       0.067  79.136 116.941  0.00  0.00     0.381 N 
ATOM     19  H   LIG d   1       0.952  79.307 117.376  0.00  0.00    -0.090 HD
ATOM     20  H   LIG d   1      -0.656  79.340 117.608  0.00  0.00    -0.090 HD
ATOM     21  H   LIG d   1      -0.035  79.718 116.140  0.00  0.00    -0.090 HD
ENDBRANCH   5  18
BRANCH   3  22
ATOM     22  C   LIG d   1      -0.181  74.627 118.538  0.00  0.00     0.382 C 
ATOM     23  O   LIG d   1      -1.046  74.180 119.329  0.00  0.00    -0.241 OA
ATOM     24  O   LIG d   1       1.006  74.271 118.662  0.00  0.00    -0.241 OA
ENDBRANCH   3  22
TORSDOF 7
ENDMDL
MODEL 8
REMARK VINA RESULT:      -4.2      2.485      3.241
REMARK  7 active torsions:
REMARK  status: ('A' for Active; 'I' for Inactive)
REMARK    1  A    between atoms: C_2  and  C_3 
REMARK    2  A    between atoms: C_3  and  O_6 
REMARK    3  A    between atoms: C_3  and  C_4 
REMARK    4  A    between atoms: C_7  and  O_6 
REMARK    5  A    between atoms: C_9  and  C_10 
REMARK    6  A    between atoms: N_15  and  C_14 
REMARK    7  A    between atoms: N_20  and  C_19 
REMARK       I    between atoms: C_22  and  N_20 
ROOT
ATOM      1  C   LIG d   1      -4.107  76.547 117.150  0.00  0.00     0.161 C 
ATOM      2  C   LIG d   1      -5.105  77.425 117.606  0.00  0.00     0.016 C 
ATOM      3  C   LIG d   1      -4.922  78.823 117.709  0.00  0.00     0.038 C 
ATOM      4  C   LIG d   1      -3.773  79.459 117.217  0.00  0.00     0.028 C 
ATOM      5  C   LIG d   1      -2.539  78.563 117.214  0.00  0.00    -0.047 C 
ATOM      6  C   LIG d   1      -2.886  77.234 116.504  0.00  0.00     0.091 C 
ENDROOT
BRANCH   1   7
ATOM      7  O   LIG d   1      -4.680  75.586 116.241  0.00  0.00    -0.368 OA
BRANCH   7   8
ATOM      8  C   LIG d   1      -5.785  76.057 115.430  0.00  0.00     0.119 C 
BRANCH   8   9
ATOM      9  C   LIG d   1      -6.965  75.089 115.648  0.00  0.00     0.028 C 
ATOM     10  C   LIG d   1      -7.998  75.640 116.646  0.00  0.00     0.006 C 
ENDBRANCH   8   9
BRANCH   8  11
ATOM     11  C   LIG d   1      -5.458  75.967 113.936  0.00  0.00     0.028 C 
ATOM     12  C   LIG d   1      -6.645  76.359 113.042  0.00  0.00     0.006 C 
ENDBRANCH   8  11
ENDBRANCH   7   8
ENDBRANCH   1   7
BRANCH   6  13
ATOM     13  N   LIG d   1      -1.759  76.266 116.531  0.00  0.00    -0.311 N 
ATOM     14  C   LIG d   1      -1.392  75.539 115.477  0.00  0.00     0.210 C 
ATOM     15  C   LIG d   1      -0.217  74.587 115.725  0.00  0.00     0.109 C 
ATOM     16  O   LIG d   1      -1.908  75.614 114.352  0.00  0.00    -0.276 OA
ATOM     17  H   LIG d   1      -1.265  76.164 117.396  0.00  0.00     0.149 HD
ENDBRANCH   6  13
BRANCH   5  18
ATOM     18  N   LIG d   1      -1.451  79.306 116.550  0.00  0.00     0.381 N 
ATOM     19  H   LIG d   1      -0.659  78.707 116.425  0.00  0.00    -0.090 HD
ATOM     20  H   LIG d   1      -1.176  80.073 117.138  0.00  0.00    -0.090 HD
ATOM     21  H   LIG d   1      -1.760  79.648 115.667  0.00  0.00    -0.090 HD
ENDBRANCH   5  18
BRANCH   3  22
ATOM     22  C   LIG d   1      -5.881  79.596 118.347  0.00  0.00     0.382 C 
ATOM     23  O   LIG d   1      -6.551  79.111 119.291  0.00  0.00    -0.241 OA
ATOM     24  O   LIG d   1      -6.115  80.757 117.962  0.00  0.00    -0.241 OA
ENDBRANCH   3  22
TORSDOF 7
ENDMDL
MODEL 9
REMARK VINA RESULT:      -4.2      1.610      1.868
REMARK  7 active torsions:
REMARK  status: ('A' for Active; 'I' for Inactive)
REMARK    1  A    between atoms: C_2  and  C_3 
REMARK    2  A    between atoms: C_3  and  O_6 
REMARK    3  A    between atoms: C_3  and  C_4 
REMARK    4  A    between atoms: C_7  and  O_6 
REMARK    5  A    between atoms: C_9  and  C_10 
REMARK    6  A    between atoms: N_15  and  C_14 
REMARK    7  A    between atoms: N_20  and  C_19 
REMARK       I    between atoms: C_22  and  N_20 
ROOT
ATOM      1  C   LIG d   1      -1.621  75.937 115.229  0.00  0.00     0.161 C 
ATOM      2  C   LIG d   1      -1.349  75.685 116.584  0.00  0.00     0.016 C 
ATOM      3  C   LIG d   1      -0.794  76.647 117.458  0.00  0.00     0.038 C 
ATOM      4  C   LIG d   1      -0.611  77.983 117.071  0.00  0.00     0.028 C 
ATOM      5  C   LIG d   1      -0.400  78.156 115.571  0.00  0.00    -0.047 C 
ATOM      6  C   LIG d   1      -1.532  77.422 114.817  0.00  0.00     0.091 C 
ENDROOT
BRANCH   1   7
ATOM      7  O   LIG d   1      -2.911  75.397 114.880  0.00  0.00    -0.368 OA
BRANCH   7   8
ATOM      8  C   LIG d   1      -4.034  76.304 114.997  0.00  0.00     0.119 C 
BRANCH   8   9
ATOM      9  C   LIG d   1      -4.633  76.120 116.405  0.00  0.00     0.028 C 
ATOM     10  C   LIG d   1      -4.504  77.386 117.268  0.00  0.00     0.006 C 
ENDBRANCH   8   9
BRANCH   8  11
ATOM     11  C   LIG d   1      -5.158  75.927 114.027  0.00  0.00     0.028 C 
ATOM     12  C   LIG d   1      -6.481  75.610 114.741  0.00  0.00     0.006 C 
ENDBRANCH   8  11
ENDBRANCH   7   8
ENDBRANCH   1   7
BRANCH   6  13
ATOM     13  N   LIG d   1      -1.355  77.470 113.342  0.00  0.00    -0.311 N 
ATOM     14  C   LIG d   1      -2.161  78.148 112.528  0.00  0.00     0.210 C 
ATOM     15  C   LIG d   1      -1.812  78.048 111.040  0.00  0.00     0.109 C 
ATOM     16  O   LIG d   1      -3.114  78.850 112.900  0.00  0.00    -0.276 OA
ATOM     17  H   LIG d   1      -0.587  76.953 112.958  0.00  0.00     0.149 HD
ENDBRANCH   6  13
BRANCH   5  18
ATOM     18  N   LIG d   1      -0.362  79.603 115.290  0.00  0.00     0.381 N 
ATOM     19  H   LIG d   1      -1.291  79.973 115.289  0.00  0.00    -0.090 HD
ATOM     20  H   LIG d   1       0.035  79.747 114.378  0.00  0.00    -0.090 HD
ATOM     21  H   LIG d   1       0.188  80.070 115.977  0.00  0.00    -0.090 HD
ENDBRANCH   5  18
BRANCH   3  22
ATOM     22  C   LIG d   1      -0.377  76.265 118.724  0.00  0.00     0.382 C 
ATOM     23  O   LIG d   1      -0.441  75.060 119.069  0.00  0.00    -0.241 OA
ATOM     24  O   LIG d   1       0.020  77.117 119.542  0.00  0.00    -0.241 OA
ENDBRANCH   3  22
TORSDOF 7
ENDMDL
