MODEL 1
REMARK VINA RESULT:      -5.6      0.000      0.000
REMARK  7 active torsions:
REMARK  status: ('A' for Active; 'I' for Inactive)
REMARK    1  A    between atoms: C_2  and  C_3 
REMARK    2  A    between atoms: C_3  and  O_6 
REMARK    3  A    between atoms: C_3  and  C_4 
REMARK    4  A    between atoms: C_7  and  O_6 
REMARK    5  A    between atoms: C_9  and  C_10 
REMARK    6  A    between atoms: N_15  and  C_14 
REMARK    7  A    between atoms: N_20  and  C_19 
REMARK       I    between atoms: C_22  and  N_20 
ROOT
ATOM      1  C   LIG d   1      -2.466  80.387 114.395  0.00  0.00     0.161 C 
ATOM      2  C   LIG d   1      -2.091  81.595 113.783  0.00  0.00     0.016 C 
ATOM      3  C   LIG d   1      -1.546  81.671 112.480  0.00  0.00     0.038 C 
ATOM      4  C   LIG d   1      -1.478  80.552 111.638  0.00  0.00     0.028 C 
ATOM      5  C   LIG d   1      -1.375  79.231 112.394  0.00  0.00    -0.047 C 
ATOM      6  C   LIG d   1      -2.502  79.168 113.450  0.00  0.00     0.091 C 
ENDROOT
BRANCH   1   7
ATOM      7  O   LIG d   1      -3.736  80.548 115.056  0.00  0.00    -0.368 OA
BRANCH   7   8
ATOM      8  C   LIG d   1      -3.714  80.487 116.503  0.00  0.00     0.119 C 
BRANCH   8   9
ATOM      9  C   LIG d   1      -5.020  79.807 116.958  0.00  0.00     0.028 C 
ATOM     10  C   LIG d   1      -4.903  78.274 116.990  0.00  0.00     0.006 C 
ENDBRANCH   8   9
BRANCH   8  11
ATOM     11  C   LIG d   1      -3.751  81.888 117.120  0.00  0.00     0.028 C 
ATOM     12  C   LIG d   1      -2.486  82.216 117.930  0.00  0.00     0.006 C 
ENDBRANCH   8  11
ENDBRANCH   7   8
ENDBRANCH   1   7
BRANCH   6  13
ATOM     13  N   LIG d   1      -2.423  77.945 114.291  0.00  0.00    -0.311 N 
ATOM     14  C   LIG d   1      -3.089  76.824 114.018  0.00  0.00     0.210 C 
ATOM     15  C   LIG d   1      -2.882  75.688 115.025  0.00  0.00     0.109 C 
ATOM     16  O   LIG d   1      -3.806  76.651 113.021  0.00  0.00    -0.276 OA
ATOM     17  H   LIG d   1      -1.840  77.987 115.103  0.00  0.00     0.149 HD
ENDBRANCH   6  13
BRANCH   5  18
ATOM     18  N   LIG d   1      -1.452  78.143 111.401  0.00  0.00     0.381 N 
ATOM     19  H   LIG d   1      -1.940  78.460 110.588  0.00  0.00    -0.090 HD
ATOM     20  H   LIG d   1      -1.965  77.376 111.798  0.00  0.00    -0.090 HD
ATOM     21  H   LIG d   1      -0.535  77.844 111.151  0.00  0.00    -0.090 HD
ENDBRANCH   5  18
BRANCH   3  22
ATOM     22  C   LIG d   1      -1.025  82.872 112.023  0.00  0.00     0.382 C 
ATOM     23  O   LIG d   1      -0.542  83.696 112.837  0.00  0.00    -0.241 OA
ATOM     24  O   LIG d   1      -1.071  83.160 110.812  0.00  0.00    -0.241 OA
ENDBRANCH   3  22
TORSDOF 7
ENDMDL
MODEL 2
REMARK VINA RESULT:      -5.5      2.642      5.355
REMARK  7 active torsions:
REMARK  status: ('A' for Active; 'I' for Inactive)
REMARK    1  A    between atoms: C_2  and  C_3 
REMARK    2  A    between atoms: C_3  and  O_6 
REMARK    3  A    between atoms: C_3  and  C_4 
REMARK    4  A    between atoms: C_7  and  O_6 
REMARK    5  A    between atoms: C_9  and  C_10 
REMARK    6  A    between atoms: N_15  and  C_14 
REMARK    7  A    between atoms: N_20  and  C_19 
REMARK       I    between atoms: C_22  and  N_20 
ROOT
ATOM      1  C   LIG d   1      -1.995  81.295 112.066  0.00  0.00     0.161 C 
ATOM      2  C   LIG d   1      -2.782  80.209 112.485  0.00  0.00     0.016 C 
ATOM      3  C   LIG d   1      -2.561  78.879 112.062  0.00  0.00     0.038 C 
ATOM      4  C   LIG d   1      -1.437  78.519 111.304  0.00  0.00     0.028 C 
ATOM      5  C   LIG d   1      -0.898  79.655 110.442  0.00  0.00    -0.047 C 
ATOM      6  C   LIG d   1      -0.697  80.905 111.329  0.00  0.00     0.091 C 
ENDROOT
BRANCH   1   7
ATOM      7  O   LIG d   1      -1.696  82.144 113.192  0.00  0.00    -0.368 OA
BRANCH   7   8
ATOM      8  C   LIG d   1      -0.525  81.788 113.966  0.00  0.00     0.119 C 
BRANCH   8   9
ATOM      9  C   LIG d   1      -0.992  81.495 115.405  0.00  0.00     0.028 C 
ATOM     10  C   LIG d   1      -2.365  82.115 115.713  0.00  0.00     0.006 C 
ENDBRANCH   8   9
BRANCH   8  11
ATOM     11  C   LIG d   1       0.444  82.969 114.087  0.00  0.00     0.028 C 
ATOM     12  C   LIG d   1      -0.119  84.265 113.482  0.00  0.00     0.006 C 
ENDBRANCH   8  11
ENDBRANCH   7   8
ENDBRANCH   1   7
BRANCH   6  13
ATOM     13  N   LIG d   1      -0.251  82.089 110.547  0.00  0.00    -0.311 N 
ATOM     14  C   LIG d   1       1.028  82.429 110.398  0.00  0.00     0.210 C 
ATOM     15  C   LIG d   1       1.267  83.696 109.570  0.00  0.00     0.109 C 
ATOM     16  O   LIG d   1       1.988  81.785 110.845  0.00  0.00    -0.276 OA
ATOM     17  H   LIG d   1      -0.964  82.650 110.124  0.00  0.00     0.149 HD
ENDBRANCH   6  13
BRANCH   5  18
ATOM     18  N   LIG d   1       0.351  79.185 109.814  0.00  0.00     0.381 N 
ATOM     19  H   LIG d   1       0.351  78.185 109.767  0.00  0.00    -0.090 HD
ATOM     20  H   LIG d   1       1.129  79.474 110.381  0.00  0.00    -0.090 HD
ATOM     21  H   LIG d   1       0.437  79.568 108.898  0.00  0.00    -0.090 HD
ENDBRANCH   5  18
BRANCH   3  22
ATOM     22  C   LIG d   1      -3.494  77.898 112.363  0.00  0.00     0.382 C 
ATOM     23  O   LIG d   1      -3.212  76.999 113.192  0.00  0.00    -0.241 OA
ATOM     24  O   LIG d   1      -4.596  77.874 111.784  0.00  0.00    -0.241 OA
ENDBRANCH   3  22
TORSDOF 7
ENDMDL
MODEL 3
REMARK VINA RESULT:      -5.2      1.437      2.108
REMARK  7 active torsions:
REMARK  status: ('A' for Active; 'I' for Inactive)
REMARK    1  A    between atoms: C_2  and  C_3 
REMARK    2  A    between atoms: C_3  and  O_6 
REMARK    3  A    between atoms: C_3  and  C_4 
REMARK    4  A    between atoms: C_7  and  O_6 
REMARK    5  A    between atoms: C_9  and  C_10 
REMARK    6  A    between atoms: N_15  and  C_14 
REMARK    7  A    between atoms: N_20  and  C_19 
REMARK       I    between atoms: C_22  and  N_20 
ROOT
ATOM      1  C   LIG d   1      -0.768  80.256 114.471  0.00  0.00     0.161 C 
ATOM      2  C   LIG d   1      -0.893  81.538 113.910  0.00  0.00     0.016 C 
ATOM      3  C   LIG d   1      -1.183  81.764 112.545  0.00  0.00     0.038 C 
ATOM      4  C   LIG d   1      -1.519  80.716 111.674  0.00  0.00     0.028 C 
ATOM      5  C   LIG d   1      -0.912  79.377 112.077  0.00  0.00    -0.047 C 
ATOM      6  C   LIG d   1      -1.240  79.103 113.562  0.00  0.00     0.091 C 
ENDROOT
BRANCH   1   7
ATOM      7  O   LIG d   1      -1.453  80.209 115.738  0.00  0.00    -0.368 OA
BRANCH   7   8
ATOM      8  C   LIG d   1      -2.888  80.015 115.680  0.00  0.00     0.119 C 
BRANCH   8   9
ATOM      9  C   LIG d   1      -3.551  81.293 116.227  0.00  0.00     0.028 C 
ATOM     10  C   LIG d   1      -2.653  82.037 117.230  0.00  0.00     0.006 C 
ENDBRANCH   8   9
BRANCH   8  11
ATOM     11  C   LIG d   1      -3.337  78.891 116.618  0.00  0.00     0.028 C 
ATOM     12  C   LIG d   1      -2.163  78.219 117.347  0.00  0.00     0.006 C 
ENDBRANCH   8  11
ENDBRANCH   7   8
ENDBRANCH   1   7
BRANCH   6  13
ATOM     13  N   LIG d   1      -0.612  77.851 114.060  0.00  0.00    -0.311 N 
ATOM     14  C   LIG d   1      -1.235  76.674 114.074  0.00  0.00     0.210 C 
ATOM     15  C   LIG d   1      -0.414  75.515 114.648  0.00  0.00     0.109 C 
ATOM     16  O   LIG d   1      -2.378  76.473 113.637  0.00  0.00    -0.276 OA
ATOM     17  H   LIG d   1       0.325  77.917 114.405  0.00  0.00     0.149 HD
ENDBRANCH   6  13
BRANCH   5  18
ATOM     18  N   LIG d   1      -1.454  78.350 111.166  0.00  0.00     0.381 N 
ATOM     19  H   LIG d   1      -0.782  77.619 111.042  0.00  0.00    -0.090 HD
ATOM     20  H   LIG d   1      -1.631  78.771 110.271  0.00  0.00    -0.090 HD
ATOM     21  H   LIG d   1      -2.298  77.976 111.538  0.00  0.00    -0.090 HD
ENDBRANCH   5  18
BRANCH   3  22
ATOM     22  C   LIG d   1      -1.099  83.048 112.028  0.00  0.00     0.382 C 
ATOM     23  O   LIG d   1      -1.056  83.223 110.786  0.00  0.00    -0.241 OA
ATOM     24  O   LIG d   1      -1.020  84.031 112.789  0.00  0.00    -0.241 OA
ENDBRANCH   3  22
TORSDOF 7
ENDMDL
MODEL 4
REMARK VINA RESULT:      -5.0      2.815      6.390
REMARK  7 active torsions:
REMARK  status: ('A' for Active; 'I' for Inactive)
REMARK    1  A    between atoms: C_2  and  C_3 
REMARK    2  A    between atoms: C_3  and  O_6 
REMARK    3  A    between atoms: C_3  and  C_4 
REMARK    4  A    between atoms: C_7  and  O_6 
REMARK    5  A    between atoms: C_9  and  C_10 
REMARK    6  A    between atoms: N_15  and  C_14 
REMARK    7  A    between atoms: N_20  and  C_19 
REMARK       I    between atoms: C_22  and  N_20 
ROOT
ATOM      1  C   LIG d   1      -0.829  80.560 112.064  0.00  0.00     0.161 C 
ATOM      2  C   LIG d   1      -1.859  79.647 111.780  0.00  0.00     0.016 C 
ATOM      3  C   LIG d   1      -2.570  78.941 112.777  0.00  0.00     0.038 C 
ATOM      4  C   LIG d   1      -2.400  79.214 114.143  0.00  0.00     0.028 C 
ATOM      5  C   LIG d   1      -1.018  79.761 114.484  0.00  0.00    -0.047 C 
ATOM      6  C   LIG d   1      -0.706  80.953 113.551  0.00  0.00     0.091 C 
ENDROOT
BRANCH   1   7
ATOM      7  O   LIG d   1      -0.979  81.736 111.245  0.00  0.00    -0.368 OA
BRANCH   7   8
ATOM      8  C   LIG d   1      -0.073  81.850 110.120  0.00  0.00     0.119 C 
BRANCH   8   9
ATOM      9  C   LIG d   1       1.125  80.920 110.395  0.00  0.00     0.028 C 
ATOM     10  C   LIG d   1       2.440  81.697 110.579  0.00  0.00     0.006 C 
ENDBRANCH   8   9
BRANCH   8  11
ATOM     11  C   LIG d   1       0.520  83.258 110.023  0.00  0.00     0.028 C 
ATOM     12  C   LIG d   1      -0.423  84.342 110.569  0.00  0.00     0.006 C 
ENDBRANCH   8  11
ENDBRANCH   7   8
ENDBRANCH   1   7
BRANCH   6  13
ATOM     13  N   LIG d   1       0.663  81.494 113.761  0.00  0.00    -0.311 N 
ATOM     14  C   LIG d   1       0.921  82.790 113.925  0.00  0.00     0.210 C 
ATOM     15  C   LIG d   1       2.403  83.136 114.106  0.00  0.00     0.109 C 
ATOM     16  O   LIG d   1       0.062  83.683 113.969  0.00  0.00    -0.276 OA
ATOM     17  H   LIG d   1       1.417  80.836 113.770  0.00  0.00     0.149 HD
ENDBRANCH   6  13
BRANCH   5  18
ATOM     18  N   LIG d   1      -1.024  80.130 115.912  0.00  0.00     0.381 N 
ATOM     19  H   LIG d   1      -1.194  81.112 116.007  0.00  0.00    -0.090 HD
ATOM     20  H   LIG d   1      -0.122  79.926 116.305  0.00  0.00    -0.090 HD
ATOM     21  H   LIG d   1      -1.729  79.616 116.394  0.00  0.00    -0.090 HD
ENDBRANCH   5  18
BRANCH   3  22
ATOM     22  C   LIG d   1      -3.435  77.920 112.413  0.00  0.00     0.382 C 
ATOM     23  O   LIG d   1      -3.387  76.816 113.006  0.00  0.00    -0.241 OA
ATOM     24  O   LIG d   1      -4.231  78.075 111.468  0.00  0.00    -0.241 OA
ENDBRANCH   3  22
TORSDOF 7
ENDMDL
MODEL 5
REMARK VINA RESULT:      -5.0      3.488      6.115
REMARK  7 active torsions:
REMARK  status: ('A' for Active; 'I' for Inactive)
REMARK    1  A    between atoms: C_2  and  C_3 
REMARK    2  A    between atoms: C_3  and  O_6 
REMARK    3  A    between atoms: C_3  and  C_4 
REMARK    4  A    between atoms: C_7  and  O_6 
REMARK    5  A    between atoms: C_9  and  C_10 
REMARK    6  A    between atoms: N_15  and  C_14 
REMARK    7  A    between atoms: N_20  and  C_19 
REMARK       I    between atoms: C_22  and  N_20 
ROOT
ATOM      1  C   LIG d   1      -4.675  79.052 116.627  0.00  0.00     0.161 C 
ATOM      2  C   LIG d   1      -4.047  78.143 115.758  0.00  0.00     0.016 C 
ATOM      3  C   LIG d   1      -4.640  76.928 115.343  0.00  0.00     0.038 C 
ATOM      4  C   LIG d   1      -5.970  76.609 115.650  0.00  0.00     0.028 C 
ATOM      5  C   LIG d   1      -6.467  77.257 116.938  0.00  0.00    -0.047 C 
ATOM      6  C   LIG d   1      -6.171  78.773 116.884  0.00  0.00     0.091 C 
ENDROOT
BRANCH   1   7
ATOM      7  O   LIG d   1      -4.492  80.397 116.142  0.00  0.00    -0.368 OA
BRANCH   7   8
ATOM      8  C   LIG d   1      -3.356  81.119 116.679  0.00  0.00     0.119 C 
BRANCH   8   9
ATOM      9  C   LIG d   1      -3.866  81.975 117.855  0.00  0.00     0.028 C 
ATOM     10  C   LIG d   1      -2.727  82.447 118.774  0.00  0.00     0.006 C 
ENDBRANCH   8   9
BRANCH   8  11
ATOM     11  C   LIG d   1      -2.799  82.119 115.662  0.00  0.00     0.028 C 
ATOM     12  C   LIG d   1      -2.641  81.514 114.257  0.00  0.00     0.006 C 
ENDBRANCH   8  11
ENDBRANCH   7   8
ENDBRANCH   1   7
BRANCH   6  13
ATOM     13  N   LIG d   1      -6.548  79.470 118.141  0.00  0.00    -0.311 N 
ATOM     14  C   LIG d   1      -7.327  80.550 118.175  0.00  0.00     0.210 C 
ATOM     15  C   LIG d   1      -7.576  81.124 119.573  0.00  0.00     0.109 C 
ATOM     16  O   LIG d   1      -7.861  81.068 117.183  0.00  0.00    -0.276 OA
ATOM     17  H   LIG d   1      -6.184  79.098 118.996  0.00  0.00     0.149 HD
ENDBRANCH   6  13
BRANCH   5  18
ATOM     18  N   LIG d   1      -7.905  76.953 117.065  0.00  0.00     0.381 N 
ATOM     19  H   LIG d   1      -8.284  77.433 117.857  0.00  0.00    -0.090 HD
ATOM     20  H   LIG d   1      -8.016  75.965 117.212  0.00  0.00    -0.090 HD
ATOM     21  H   LIG d   1      -8.386  77.230 116.238  0.00  0.00    -0.090 HD
ENDBRANCH   5  18
BRANCH   3  22
ATOM     22  C   LIG d   1      -3.884  75.999 114.644  0.00  0.00     0.382 C 
ATOM     23  O   LIG d   1      -2.872  75.485 115.178  0.00  0.00    -0.241 OA
ATOM     24  O   LIG d   1      -4.176  75.702 113.470  0.00  0.00    -0.241 OA
ENDBRANCH   3  22
TORSDOF 7
ENDMDL
MODEL 6
REMARK VINA RESULT:      -5.0      2.620      3.854
REMARK  7 active torsions:
REMARK  status: ('A' for Active; 'I' for Inactive)
REMARK    1  A    between atoms: C_2  and  C_3 
REMARK    2  A    between atoms: C_3  and  O_6 
REMARK    3  A    between atoms: C_3  and  C_4 
REMARK    4  A    between atoms: C_7  and  O_6 
REMARK    5  A    between atoms: C_9  and  C_10 
REMARK    6  A    between atoms: N_15  and  C_14 
REMARK    7  A    between atoms: N_20  and  C_19 
REMARK       I    between atoms: C_22  and  N_20 
ROOT
ATOM      1  C   LIG d   1      -2.530  78.470 114.663  0.00  0.00     0.161 C 
ATOM      2  C   LIG d   1      -2.886  79.473 113.746  0.00  0.00     0.016 C 
ATOM      3  C   LIG d   1      -2.053  80.570 113.430  0.00  0.00     0.038 C 
ATOM      4  C   LIG d   1      -0.734  80.658 113.900  0.00  0.00     0.028 C 
ATOM      5  C   LIG d   1      -0.512  79.934 115.223  0.00  0.00    -0.047 C 
ATOM      6  C   LIG d   1      -1.051  78.490 115.101  0.00  0.00     0.091 C 
ENDROOT
BRANCH   1   7
ATOM      7  O   LIG d   1      -2.877  77.176 114.131  0.00  0.00    -0.368 OA
BRANCH   7   8
ATOM      8  C   LIG d   1      -3.829  76.404 114.903  0.00  0.00     0.119 C 
BRANCH   8   9
ATOM      9  C   LIG d   1      -4.944  75.949 113.942  0.00  0.00     0.028 C 
ATOM     10  C   LIG d   1      -5.012  74.419 113.804  0.00  0.00     0.006 C 
ENDBRANCH   8   9
BRANCH   8  11
ATOM     11  C   LIG d   1      -4.528  77.271 115.954  0.00  0.00     0.028 C 
ATOM     12  C   LIG d   1      -6.055  77.095 115.953  0.00  0.00     0.006 C 
ENDBRANCH   8  11
ENDBRANCH   7   8
ENDBRANCH   1   7
BRANCH   6  13
ATOM     13  N   LIG d   1      -0.950  77.737 116.379  0.00  0.00    -0.311 N 
ATOM     14  C   LIG d   1       0.069  76.932 116.677  0.00  0.00     0.210 C 
ATOM     15  C   LIG d   1      -0.034  76.237 118.038  0.00  0.00     0.109 C 
ATOM     16  O   LIG d   1       1.063  76.753 115.957  0.00  0.00    -0.276 OA
ATOM     17  H   LIG d   1      -1.698  77.849 117.034  0.00  0.00     0.149 HD
ENDBRANCH   6  13
BRANCH   5  18
ATOM     18  N   LIG d   1       0.930  79.990 115.526  0.00  0.00     0.381 N 
ATOM     19  H   LIG d   1       1.066  80.093 116.512  0.00  0.00    -0.090 HD
ATOM     20  H   LIG d   1       1.328  80.790 115.067  0.00  0.00    -0.090 HD
ATOM     21  H   LIG d   1       1.378  79.158 115.207  0.00  0.00    -0.090 HD
ENDBRANCH   5  18
BRANCH   3  22
ATOM     22  C   LIG d   1      -2.551  81.615 112.667  0.00  0.00     0.382 C 
ATOM     23  O   LIG d   1      -1.855  82.641 112.477  0.00  0.00    -0.241 OA
ATOM     24  O   LIG d   1      -3.706  81.563 112.203  0.00  0.00    -0.241 OA
ENDBRANCH   3  22
TORSDOF 7
ENDMDL
MODEL 7
REMARK VINA RESULT:      -4.9      1.989      4.916
REMARK  7 active torsions:
REMARK  status: ('A' for Active; 'I' for Inactive)
REMARK    1  A    between atoms: C_2  and  C_3 
REMARK    2  A    between atoms: C_3  and  O_6 
REMARK    3  A    between atoms: C_3  and  C_4 
REMARK    4  A    between atoms: C_7  and  O_6 
REMARK    5  A    between atoms: C_9  and  C_10 
REMARK    6  A    between atoms: N_15  and  C_14 
REMARK    7  A    between atoms: N_20  and  C_19 
REMARK       I    between atoms: C_22  and  N_20 
ROOT
ATOM      1  C   LIG d   1      -2.132  80.284 114.050  0.00  0.00     0.161 C 
ATOM      2  C   LIG d   1      -2.722  79.054 114.386  0.00  0.00     0.016 C 
ATOM      3  C   LIG d   1      -2.853  77.980 113.476  0.00  0.00     0.038 C 
ATOM      4  C   LIG d   1      -2.262  78.009 112.204  0.00  0.00     0.028 C 
ATOM      5  C   LIG d   1      -2.095  79.418 111.646  0.00  0.00    -0.047 C 
ATOM      6  C   LIG d   1      -1.382  80.295 112.701  0.00  0.00     0.091 C 
ENDROOT
BRANCH   1   7
ATOM      7  O   LIG d   1      -1.258  80.713 115.113  0.00  0.00    -0.368 OA
BRANCH   7   8
ATOM      8  C   LIG d   1      -1.657  81.911 115.822  0.00  0.00     0.119 C 
BRANCH   8   9
ATOM      9  C   LIG d   1      -1.683  81.572 117.325  0.00  0.00     0.028 C 
ATOM     10  C   LIG d   1      -0.547  82.259 118.102  0.00  0.00     0.006 C 
ENDBRANCH   8   9
BRANCH   8  11
ATOM     11  C   LIG d   1      -3.093  82.314 115.472  0.00  0.00     0.028 C 
ATOM     12  C   LIG d   1      -4.084  82.037 116.613  0.00  0.00     0.006 C 
ENDBRANCH   8  11
ENDBRANCH   7   8
ENDBRANCH   1   7
BRANCH   6  13
ATOM     13  N   LIG d   1      -1.255  81.711 112.269  0.00  0.00    -0.311 N 
ATOM     14  C   LIG d   1      -0.182  82.193 111.643  0.00  0.00     0.210 C 
ATOM     15  C   LIG d   1      -0.247  83.685 111.304  0.00  0.00     0.109 C 
ATOM     16  O   LIG d   1       0.803  81.518 111.308  0.00  0.00    -0.276 OA
ATOM     17  H   LIG d   1      -2.022  82.321 112.473  0.00  0.00     0.149 HD
ENDBRANCH   6  13
BRANCH   5  18
ATOM     18  N   LIG d   1      -1.344  79.311 110.381  0.00  0.00     0.381 N 
ATOM     19  H   LIG d   1      -1.512  78.418 109.962  0.00  0.00    -0.090 HD
ATOM     20  H   LIG d   1      -0.361  79.386 110.579  0.00  0.00    -0.090 HD
ATOM     21  H   LIG d   1      -1.621  80.036 109.757  0.00  0.00    -0.090 HD
ENDBRANCH   5  18
BRANCH   3  22
ATOM     22  C   LIG d   1      -3.616  76.875 113.822  0.00  0.00     0.382 C 
ATOM     23  O   LIG d   1      -3.085  75.740 113.880  0.00  0.00    -0.241 OA
ATOM     24  O   LIG d   1      -4.838  76.993 114.035  0.00  0.00    -0.241 OA
ENDBRANCH   3  22
TORSDOF 7
ENDMDL
MODEL 8
REMARK VINA RESULT:      -4.8      1.961      4.658
REMARK  7 active torsions:
REMARK  status: ('A' for Active; 'I' for Inactive)
REMARK    1  A    between atoms: C_2  and  C_3 
REMARK    2  A    between atoms: C_3  and  O_6 
REMARK    3  A    between atoms: C_3  and  C_4 
REMARK    4  A    between atoms: C_7  and  O_6 
REMARK    5  A    between atoms: C_9  and  C_10 
REMARK    6  A    between atoms: N_15  and  C_14 
REMARK    7  A    between atoms: N_20  and  C_19 
REMARK       I    between atoms: C_22  and  N_20 
ROOT
ATOM      1  C   LIG d   1      -1.837  79.979 114.273  0.00  0.00     0.161 C 
ATOM      2  C   LIG d   1      -2.687  78.885 114.507  0.00  0.00     0.016 C 
ATOM      3  C   LIG d   1      -2.931  77.871 113.553  0.00  0.00     0.038 C 
ATOM      4  C   LIG d   1      -2.219  77.802 112.346  0.00  0.00     0.028 C 
ATOM      5  C   LIG d   1      -1.723  79.158 111.856  0.00  0.00    -0.047 C 
ATOM      6  C   LIG d   1      -0.965  79.861 113.005  0.00  0.00     0.091 C 
ENDROOT
BRANCH   1   7
ATOM      7  O   LIG d   1      -1.009  80.210 115.430  0.00  0.00    -0.368 OA
BRANCH   7   8
ATOM      8  C   LIG d   1      -1.569  81.071 116.453  0.00  0.00     0.119 C 
BRANCH   8   9
ATOM      9  C   LIG d   1      -2.539  82.046 115.757  0.00  0.00     0.028 C 
ATOM     10  C   LIG d   1      -3.905  82.117 116.461  0.00  0.00     0.006 C 
ENDBRANCH   8   9
BRANCH   8  11
ATOM     11  C   LIG d   1      -0.492  81.954 117.089  0.00  0.00     0.028 C 
ATOM     12  C   LIG d   1      -0.802  82.312 118.551  0.00  0.00     0.006 C 
ENDBRANCH   8  11
ENDBRANCH   7   8
ENDBRANCH   1   7
BRANCH   6  13
ATOM     13  N   LIG d   1      -0.520  81.230 112.637  0.00  0.00    -0.311 N 
ATOM     14  C   LIG d   1      -1.347  82.176 112.196  0.00  0.00     0.210 C 
ATOM     15  C   LIG d   1      -0.678  83.511 111.853  0.00  0.00     0.109 C 
ATOM     16  O   LIG d   1      -2.575  82.047 112.086  0.00  0.00    -0.276 OA
ATOM     17  H   LIG d   1       0.457  81.431 112.725  0.00  0.00     0.149 HD
ENDBRANCH   6  13
BRANCH   5  18
ATOM     18  N   LIG d   1      -0.882  78.922 110.668  0.00  0.00     0.381 N 
ATOM     19  H   LIG d   1      -0.672  79.794 110.223  0.00  0.00    -0.090 HD
ATOM     20  H   LIG d   1      -1.392  78.352 110.016  0.00  0.00    -0.090 HD
ATOM     21  H   LIG d   1      -0.038  78.464 110.933  0.00  0.00    -0.090 HD
ENDBRANCH   5  18
BRANCH   3  22
ATOM     22  C   LIG d   1      -3.927  76.935 113.785  0.00  0.00     0.382 C 
ATOM     23  O   LIG d   1      -4.972  77.268 114.393  0.00  0.00    -0.241 OA
ATOM     24  O   LIG d   1      -3.774  75.750 113.432  0.00  0.00    -0.241 OA
ENDBRANCH   3  22
TORSDOF 7
ENDMDL
MODEL 9
REMARK VINA RESULT:      -4.7      2.185      2.957
REMARK  7 active torsions:
REMARK  status: ('A' for Active; 'I' for Inactive)
REMARK    1  A    between atoms: C_2  and  C_3 
REMARK    2  A    between atoms: C_3  and  O_6 
REMARK    3  A    between atoms: C_3  and  C_4 
REMARK    4  A    between atoms: C_7  and  O_6 
REMARK    5  A    between atoms: C_9  and  C_10 
REMARK    6  A    between atoms: N_15  and  C_14 
REMARK    7  A    between atoms: N_20  and  C_19 
REMARK       I    between atoms: C_22  and  N_20 
ROOT
ATOM      1  C   LIG d   1      -2.009  80.133 116.021  0.00  0.00     0.161 C 
ATOM      2  C   LIG d   1      -2.494  80.942 114.979  0.00  0.00     0.016 C 
ATOM      3  C   LIG d   1      -2.450  80.565 113.617  0.00  0.00     0.038 C 
ATOM      4  C   LIG d   1      -2.054  79.281 113.215  0.00  0.00     0.028 C 
ATOM      5  C   LIG d   1      -1.084  78.615 114.185  0.00  0.00    -0.047 C 
ATOM      6  C   LIG d   1      -1.675  78.683 115.612  0.00  0.00     0.091 C 
ENDROOT
BRANCH   1   7
ATOM      7  O   LIG d   1      -2.941  80.142 117.120  0.00  0.00    -0.368 OA
BRANCH   7   8
ATOM      8  C   LIG d   1      -4.256  80.680 116.837  0.00  0.00     0.119 C 
BRANCH   8   9
ATOM      9  C   LIG d   1      -4.465  81.899 117.756  0.00  0.00     0.028 C 
ATOM     10  C   LIG d   1      -3.187  82.283 118.521  0.00  0.00     0.006 C 
ENDBRANCH   8   9
BRANCH   8  11
ATOM     11  C   LIG d   1      -5.359  79.689 117.220  0.00  0.00     0.028 C 
ATOM     12  C   LIG d   1      -5.115  78.280 116.658  0.00  0.00     0.006 C 
ENDBRANCH   8  11
ENDBRANCH   7   8
ENDBRANCH   1   7
BRANCH   6  13
ATOM     13  N   LIG d   1      -0.751  78.129 116.635  0.00  0.00    -0.311 N 
ATOM     14  C   LIG d   1      -0.819  76.876 117.082  0.00  0.00     0.210 C 
ATOM     15  C   LIG d   1       0.216  76.514 118.152  0.00  0.00     0.109 C 
ATOM     16  O   LIG d   1      -1.616  76.020 116.670  0.00  0.00    -0.276 OA
ATOM     17  H   LIG d   1      -0.053  78.746 117.001  0.00  0.00     0.149 HD
ENDBRANCH   6  13
BRANCH   5  18
ATOM     18  N   LIG d   1      -0.863  77.234 113.716  0.00  0.00     0.381 N 
ATOM     19  H   LIG d   1      -1.646  76.931 113.173  0.00  0.00    -0.090 HD
ATOM     20  H   LIG d   1      -0.779  76.629 114.514  0.00  0.00    -0.090 HD
ATOM     21  H   LIG d   1      -0.032  77.189 113.168  0.00  0.00    -0.090 HD
ENDBRANCH   5  18
BRANCH   3  22
ATOM     22  C   LIG d   1      -2.769  81.493 112.637  0.00  0.00     0.382 C 
ATOM     23  O   LIG d   1      -1.999  82.458 112.413  0.00  0.00    -0.241 OA
ATOM     24  O   LIG d   1      -3.838  81.402 112.005  0.00  0.00    -0.241 OA
ENDBRANCH   3  22
TORSDOF 7
ENDMDL
