MODEL 1
REMARK VINA RESULT:      -4.8      0.000      0.000
REMARK  7 active torsions:
REMARK  status: ('A' for Active; 'I' for Inactive)
REMARK    1  A    between atoms: C_2  and  C_3 
REMARK    2  A    between atoms: C_3  and  O_6 
REMARK    3  A    between atoms: C_3  and  C_4 
REMARK    4  A    between atoms: C_7  and  O_6 
REMARK    5  A    between atoms: C_9  and  C_10 
REMARK    6  A    between atoms: N_15  and  C_14 
REMARK    7  A    between atoms: N_20  and  C_19 
REMARK       I    between atoms: C_22  and  N_20 
ROOT
ATOM      1  C   LIG d   1      -3.723  78.591 116.902  0.00  0.00     0.161 C 
ATOM      2  C   LIG d   1      -2.975  79.675 117.392  0.00  0.00     0.016 C 
ATOM      3  C   LIG d   1      -1.674  79.992 116.938  0.00  0.00     0.038 C 
ATOM      4  C   LIG d   1      -1.088  79.332 115.848  0.00  0.00     0.028 C 
ATOM      5  C   LIG d   1      -1.599  77.908 115.656  0.00  0.00    -0.047 C 
ATOM      6  C   LIG d   1      -3.144  77.928 115.634  0.00  0.00     0.091 C 
ENDROOT
BRANCH   1   7
ATOM      7  O   LIG d   1      -5.086  79.000 116.675  0.00  0.00    -0.368 OA
BRANCH   7   8
ATOM      8  C   LIG d   1      -6.063  78.519 117.630  0.00  0.00     0.119 C 
BRANCH   8   9
ATOM      9  C   LIG d   1      -6.923  77.457 116.918  0.00  0.00     0.028 C 
ATOM     10  C   LIG d   1      -8.020  76.882 117.830  0.00  0.00     0.006 C 
ENDBRANCH   8   9
BRANCH   8  11
ATOM     11  C   LIG d   1      -7.040  79.627 118.035  0.00  0.00     0.028 C 
ATOM     12  C   LIG d   1      -6.391  81.021 118.040  0.00  0.00     0.006 C 
ENDBRANCH   8  11
ENDBRANCH   7   8
ENDBRANCH   1   7
BRANCH   6  13
ATOM     13  N   LIG d   1      -3.727  76.564 115.534  0.00  0.00    -0.311 N 
ATOM     14  C   LIG d   1      -4.428  76.142 114.483  0.00  0.00     0.210 C 
ATOM     15  C   LIG d   1      -4.956  74.708 114.593  0.00  0.00     0.109 C 
ATOM     16  O   LIG d   1      -4.635  76.807 113.458  0.00  0.00    -0.276 OA
ATOM     17  H   LIG d   1      -3.580  75.948 116.309  0.00  0.00     0.149 HD
ENDBRANCH   6  13
BRANCH   5  18
ATOM     18  N   LIG d   1      -1.009  77.388 114.408  0.00  0.00     0.381 N 
ATOM     19  H   LIG d   1      -0.200  77.925 114.166  0.00  0.00    -0.090 HD
ATOM     20  H   LIG d   1      -1.682  77.481 113.667  0.00  0.00    -0.090 HD
ATOM     21  H   LIG d   1      -0.760  76.430 114.522  0.00  0.00    -0.090 HD
ENDBRANCH   5  18
BRANCH   3  22
ATOM     22  C   LIG d   1      -0.930  80.954 117.604  0.00  0.00     0.382 C 
ATOM     23  O   LIG d   1       0.102  81.429 117.070  0.00  0.00    -0.241 OA
ATOM     24  O   LIG d   1      -1.251  81.320 118.750  0.00  0.00    -0.241 OA
ENDBRANCH   3  22
TORSDOF 7
ENDMDL
MODEL 2
REMARK VINA RESULT:      -4.7      3.198      5.523
REMARK  7 active torsions:
REMARK  status: ('A' for Active; 'I' for Inactive)
REMARK    1  A    between atoms: C_2  and  C_3 
REMARK    2  A    between atoms: C_3  and  O_6 
REMARK    3  A    between atoms: C_3  and  C_4 
REMARK    4  A    between atoms: C_7  and  O_6 
REMARK    5  A    between atoms: C_9  and  C_10 
REMARK    6  A    between atoms: N_15  and  C_14 
REMARK    7  A    between atoms: N_20  and  C_19 
REMARK       I    between atoms: C_22  and  N_20 
ROOT
ATOM      1  C   LIG d   1      -2.756  77.675 115.834  0.00  0.00     0.161 C 
ATOM      2  C   LIG d   1      -3.077  77.653 114.467  0.00  0.00     0.016 C 
ATOM      3  C   LIG d   1      -2.392  78.418 113.494  0.00  0.00     0.038 C 
ATOM      4  C   LIG d   1      -1.234  79.145 113.804  0.00  0.00     0.028 C 
ATOM      5  C   LIG d   1      -1.173  79.597 115.260  0.00  0.00    -0.047 C 
ATOM      6  C   LIG d   1      -1.425  78.377 116.175  0.00  0.00     0.091 C 
ENDROOT
BRANCH   1   7
ATOM      7  O   LIG d   1      -2.763  76.332 116.359  0.00  0.00    -0.368 OA
BRANCH   7   8
ATOM      8  C   LIG d   1      -2.617  75.267 115.387  0.00  0.00     0.119 C 
BRANCH   8   9
ATOM      9  C   LIG d   1      -3.680  74.199 115.708  0.00  0.00     0.028 C 
ATOM     10  C   LIG d   1      -4.888  74.270 114.759  0.00  0.00     0.006 C 
ENDBRANCH   8   9
BRANCH   8  11
ATOM     11  C   LIG d   1      -1.269  74.556 115.539  0.00  0.00     0.028 C 
ATOM     12  C   LIG d   1      -0.214  75.058 114.539  0.00  0.00     0.006 C 
ENDBRANCH   8  11
ENDBRANCH   7   8
ENDBRANCH   1   7
BRANCH   6  13
ATOM     13  N   LIG d   1      -1.466  78.746 117.613  0.00  0.00    -0.311 N 
ATOM     14  C   LIG d   1      -0.406  78.684 118.417  0.00  0.00     0.210 C 
ATOM     15  C   LIG d   1      -0.671  79.091 119.870  0.00  0.00     0.109 C 
ATOM     16  O   LIG d   1       0.737  78.363 118.057  0.00  0.00    -0.276 OA
ATOM     17  H   LIG d   1      -2.347  79.048 117.982  0.00  0.00     0.149 HD
ENDBRANCH   6  13
BRANCH   5  18
ATOM     18  N   LIG d   1       0.145  80.222 115.478  0.00  0.00     0.381 N 
ATOM     19  H   LIG d   1       0.080  80.903 116.208  0.00  0.00    -0.090 HD
ATOM     20  H   LIG d   1       0.427  80.689 114.634  0.00  0.00    -0.090 HD
ATOM     21  H   LIG d   1       0.816  79.527 115.721  0.00  0.00    -0.090 HD
ENDBRANCH   5  18
BRANCH   3  22
ATOM     22  C   LIG d   1      -2.890  78.491 112.202  0.00  0.00     0.382 C 
ATOM     23  O   LIG d   1      -2.169  78.936 111.277  0.00  0.00    -0.241 OA
ATOM     24  O   LIG d   1      -4.066  78.159 111.958  0.00  0.00    -0.241 OA
ENDBRANCH   3  22
TORSDOF 7
ENDMDL
MODEL 3
REMARK VINA RESULT:      -4.6      3.896      7.686
REMARK  7 active torsions:
REMARK  status: ('A' for Active; 'I' for Inactive)
REMARK    1  A    between atoms: C_2  and  C_3 
REMARK    2  A    between atoms: C_3  and  O_6 
REMARK    3  A    between atoms: C_3  and  C_4 
REMARK    4  A    between atoms: C_7  and  O_6 
REMARK    5  A    between atoms: C_9  and  C_10 
REMARK    6  A    between atoms: N_15  and  C_14 
REMARK    7  A    between atoms: N_20  and  C_19 
REMARK       I    between atoms: C_22  and  N_20 
ROOT
ATOM      1  C   LIG d   1      -0.203  80.182 113.239  0.00  0.00     0.161 C 
ATOM      2  C   LIG d   1      -1.205  79.627 112.425  0.00  0.00     0.016 C 
ATOM      3  C   LIG d   1      -2.312  78.910 112.934  0.00  0.00     0.038 C 
ATOM      4  C   LIG d   1      -2.575  78.830 114.310  0.00  0.00     0.028 C 
ATOM      5  C   LIG d   1      -1.322  78.942 115.173  0.00  0.00    -0.047 C 
ATOM      6  C   LIG d   1      -0.531  80.200 114.747  0.00  0.00     0.091 C 
ENDROOT
BRANCH   1   7
ATOM      7  O   LIG d   1       0.118  81.510 112.780  0.00  0.00    -0.368 OA
BRANCH   7   8
ATOM      8  C   LIG d   1       0.716  81.603 111.464  0.00  0.00     0.119 C 
BRANCH   8   9
ATOM      9  C   LIG d   1       2.107  80.942 111.540  0.00  0.00     0.028 C 
ATOM     10  C   LIG d   1       2.435  80.119 110.282  0.00  0.00     0.006 C 
ENDBRANCH   8   9
BRANCH   8  11
ATOM     11  C   LIG d   1       0.981  83.060 111.073  0.00  0.00     0.028 C 
ATOM     12  C   LIG d   1      -0.308  83.889 110.956  0.00  0.00     0.006 C 
ENDBRANCH   8  11
ENDBRANCH   7   8
ENDBRANCH   1   7
BRANCH   6  13
ATOM     13  N   LIG d   1       0.752  80.339 115.484  0.00  0.00    -0.311 N 
ATOM     14  C   LIG d   1       0.871  81.013 116.627  0.00  0.00     0.210 C 
ATOM     15  C   LIG d   1       2.287  81.050 117.211  0.00  0.00     0.109 C 
ATOM     16  O   LIG d   1      -0.067  81.557 117.228  0.00  0.00    -0.276 OA
ATOM     17  H   LIG d   1       1.558  79.903 115.083  0.00  0.00     0.149 HD
ENDBRANCH   6  13
BRANCH   5  18
ATOM     18  N   LIG d   1      -1.755  78.981 116.582  0.00  0.00     0.381 N 
ATOM     19  H   LIG d   1      -2.752  78.920 116.633  0.00  0.00    -0.090 HD
ATOM     20  H   LIG d   1      -1.472  79.857 116.985  0.00  0.00    -0.090 HD
ATOM     21  H   LIG d   1      -1.343  78.227 117.087  0.00  0.00    -0.090 HD
ENDBRANCH   5  18
BRANCH   3  22
ATOM     22  C   LIG d   1      -3.150  78.231 112.063  0.00  0.00     0.382 C 
ATOM     23  O   LIG d   1      -4.285  77.859 112.446  0.00  0.00    -0.241 OA
ATOM     24  O   LIG d   1      -2.767  77.945 110.912  0.00  0.00    -0.241 OA
ENDBRANCH   3  22
TORSDOF 7
ENDMDL
MODEL 4
REMARK VINA RESULT:      -4.5      2.932      3.667
REMARK  7 active torsions:
REMARK  status: ('A' for Active; 'I' for Inactive)
REMARK    1  A    between atoms: C_2  and  C_3 
REMARK    2  A    between atoms: C_3  and  O_6 
REMARK    3  A    between atoms: C_3  and  C_4 
REMARK    4  A    between atoms: C_7  and  O_6 
REMARK    5  A    between atoms: C_9  and  C_10 
REMARK    6  A    between atoms: N_15  and  C_14 
REMARK    7  A    between atoms: N_20  and  C_19 
REMARK       I    between atoms: C_22  and  N_20 
ROOT
ATOM      1  C   LIG d   1      -2.629  78.428 114.988  0.00  0.00     0.161 C 
ATOM      2  C   LIG d   1      -2.930  79.666 114.396  0.00  0.00     0.016 C 
ATOM      3  C   LIG d   1      -2.611  79.985 113.056  0.00  0.00     0.038 C 
ATOM      4  C   LIG d   1      -2.102  79.027 112.166  0.00  0.00     0.028 C 
ATOM      5  C   LIG d   1      -1.317  77.917 112.856  0.00  0.00    -0.047 C 
ATOM      6  C   LIG d   1      -2.175  77.332 114.001  0.00  0.00     0.091 C 
ENDROOT
BRANCH   1   7
ATOM      7  O   LIG d   1      -3.756  77.970 115.761  0.00  0.00    -0.368 OA
BRANCH   7   8
ATOM      8  C   LIG d   1      -3.636  78.095 117.200  0.00  0.00     0.119 C 
BRANCH   8   9
ATOM      9  C   LIG d   1      -4.166  76.789 117.824  0.00  0.00     0.028 C 
ATOM     10  C   LIG d   1      -3.077  76.021 118.591  0.00  0.00     0.006 C 
ENDBRANCH   8   9
BRANCH   8  11
ATOM     11  C   LIG d   1      -4.544  79.202 117.741  0.00  0.00     0.028 C 
ATOM     12  C   LIG d   1      -3.761  80.429 118.233  0.00  0.00     0.006 C 
ENDBRANCH   8  11
ENDBRANCH   7   8
ENDBRANCH   1   7
BRANCH   6  13
ATOM     13  N   LIG d   1      -1.449  76.297 114.782  0.00  0.00    -0.311 N 
ATOM     14  C   LIG d   1      -1.987  75.129 115.129  0.00  0.00     0.210 C 
ATOM     15  C   LIG d   1      -1.073  74.214 115.950  0.00  0.00     0.109 C 
ATOM     16  O   LIG d   1      -3.124  74.751 114.809  0.00  0.00    -0.276 OA
ATOM     17  H   LIG d   1      -0.510  76.508 115.057  0.00  0.00     0.149 HD
ENDBRANCH   6  13
BRANCH   5  18
ATOM     18  N   LIG d   1      -0.964  76.917 111.830  0.00  0.00     0.381 N 
ATOM     19  H   LIG d   1      -1.145  75.997 112.177  0.00  0.00    -0.090 HD
ATOM     20  H   LIG d   1       0.018  76.991 111.629  0.00  0.00    -0.090 HD
ATOM     21  H   LIG d   1      -1.493  77.078 111.001  0.00  0.00    -0.090 HD
ENDBRANCH   5  18
BRANCH   3  22
ATOM     22  C   LIG d   1      -2.764  81.287 112.605  0.00  0.00     0.382 C 
ATOM     23  O   LIG d   1      -3.906  81.805 112.560  0.00  0.00    -0.241 OA
ATOM     24  O   LIG d   1      -1.780  81.936 112.201  0.00  0.00    -0.241 OA
ENDBRANCH   3  22
TORSDOF 7
ENDMDL
MODEL 5
REMARK VINA RESULT:      -4.5      2.520      2.994
REMARK  7 active torsions:
REMARK  status: ('A' for Active; 'I' for Inactive)
REMARK    1  A    between atoms: C_2  and  C_3 
REMARK    2  A    between atoms: C_3  and  O_6 
REMARK    3  A    between atoms: C_3  and  C_4 
REMARK    4  A    between atoms: C_7  and  O_6 
REMARK    5  A    between atoms: C_9  and  C_10 
REMARK    6  A    between atoms: N_15  and  C_14 
REMARK    7  A    between atoms: N_20  and  C_19 
REMARK       I    between atoms: C_22  and  N_20 
ROOT
ATOM      1  C   LIG d   1      -3.263  78.641 116.024  0.00  0.00     0.161 C 
ATOM      2  C   LIG d   1      -3.249  79.624 115.020  0.00  0.00     0.016 C 
ATOM      3  C   LIG d   1      -2.450  79.536 113.857  0.00  0.00     0.038 C 
ATOM      4  C   LIG d   1      -1.719  78.380 113.545  0.00  0.00     0.028 C 
ATOM      5  C   LIG d   1      -1.308  77.573 114.772  0.00  0.00    -0.047 C 
ATOM      6  C   LIG d   1      -2.557  77.322 115.648  0.00  0.00     0.091 C 
ENDROOT
BRANCH   1   7
ATOM      7  O   LIG d   1      -4.620  78.383 116.437  0.00  0.00    -0.368 OA
BRANCH   7   8
ATOM      8  C   LIG d   1      -4.940  78.706 117.812  0.00  0.00     0.119 C 
BRANCH   8   9
ATOM      9  C   LIG d   1      -6.047  77.736 118.269  0.00  0.00     0.028 C 
ATOM     10  C   LIG d   1      -6.532  76.822 117.132  0.00  0.00     0.006 C 
ENDBRANCH   8   9
BRANCH   8  11
ATOM     11  C   LIG d   1      -5.552  80.105 117.929  0.00  0.00     0.028 C 
ATOM     12  C   LIG d   1      -4.635  81.097 118.661  0.00  0.00     0.006 C 
ENDBRANCH   8  11
ENDBRANCH   7   8
ENDBRANCH   1   7
BRANCH   6  13
ATOM     13  N   LIG d   1      -2.229  76.611 116.911  0.00  0.00    -0.311 N 
ATOM     14  C   LIG d   1      -2.805  75.468 117.281  0.00  0.00     0.210 C 
ATOM     15  C   LIG d   1      -2.336  74.914 118.630  0.00  0.00     0.109 C 
ATOM     16  O   LIG d   1      -3.636  74.844 116.604  0.00  0.00    -0.276 OA
ATOM     17  H   LIG d   1      -1.542  77.031 117.506  0.00  0.00     0.149 HD
ENDBRANCH   6  13
BRANCH   5  18
ATOM     18  N   LIG d   1      -0.676  76.329 114.296  0.00  0.00     0.381 N 
ATOM     19  H   LIG d   1      -1.381  75.658 114.064  0.00  0.00    -0.090 HD
ATOM     20  H   LIG d   1      -0.110  75.949 115.034  0.00  0.00    -0.090 HD
ATOM     21  H   LIG d   1      -0.111  76.517 113.497  0.00  0.00    -0.090 HD
ENDBRANCH   5  18
BRANCH   3  22
ATOM     22  C   LIG d   1      -2.345  80.630 113.011  0.00  0.00     0.382 C 
ATOM     23  O   LIG d   1      -1.216  81.031 112.642  0.00  0.00    -0.241 OA
ATOM     24  O   LIG d   1      -3.365  81.247 112.648  0.00  0.00    -0.241 OA
ENDBRANCH   3  22
TORSDOF 7
ENDMDL
MODEL 6
REMARK VINA RESULT:      -4.5      2.660      3.468
REMARK  7 active torsions:
REMARK  status: ('A' for Active; 'I' for Inactive)
REMARK    1  A    between atoms: C_2  and  C_3 
REMARK    2  A    between atoms: C_3  and  O_6 
REMARK    3  A    between atoms: C_3  and  C_4 
REMARK    4  A    between atoms: C_7  and  O_6 
REMARK    5  A    between atoms: C_9  and  C_10 
REMARK    6  A    between atoms: N_15  and  C_14 
REMARK    7  A    between atoms: N_20  and  C_19 
REMARK       I    between atoms: C_22  and  N_20 
ROOT
ATOM      1  C   LIG d   1      -2.989  79.138 116.136  0.00  0.00     0.161 C 
ATOM      2  C   LIG d   1      -3.070  80.032 115.055  0.00  0.00     0.016 C 
ATOM      3  C   LIG d   1      -2.499  79.775 113.788  0.00  0.00     0.038 C 
ATOM      4  C   LIG d   1      -1.933  78.532 113.468  0.00  0.00     0.028 C 
ATOM      5  C   LIG d   1      -1.381  77.788 114.679  0.00  0.00    -0.047 C 
ATOM      6  C   LIG d   1      -2.472  77.730 115.772  0.00  0.00     0.091 C 
ENDROOT
BRANCH   1   7
ATOM      7  O   LIG d   1      -4.268  79.048 116.793  0.00  0.00    -0.368 OA
BRANCH   7   8
ATOM      8  C   LIG d   1      -4.669  80.204 117.568  0.00  0.00     0.119 C 
BRANCH   8   9
ATOM      9  C   LIG d   1      -3.939  80.129 118.923  0.00  0.00     0.028 C 
ATOM     10  C   LIG d   1      -4.240  78.825 119.681  0.00  0.00     0.006 C 
ENDBRANCH   8   9
BRANCH   8  11
ATOM     11  C   LIG d   1      -6.162  80.157 117.909  0.00  0.00     0.028 C 
ATOM     12  C   LIG d   1      -6.786  81.554 118.048  0.00  0.00     0.006 C 
ENDBRANCH   8  11
ENDBRANCH   7   8
ENDBRANCH   1   7
BRANCH   6  13
ATOM     13  N   LIG d   1      -1.987  77.092 117.024  0.00  0.00    -0.311 N 
ATOM     14  C   LIG d   1      -2.630  76.100 117.638  0.00  0.00     0.210 C 
ATOM     15  C   LIG d   1      -1.968  75.600 118.925  0.00  0.00     0.109 C 
ATOM     16  O   LIG d   1      -3.667  75.564 117.220  0.00  0.00    -0.276 OA
ATOM     17  H   LIG d   1      -1.135  77.444 117.415  0.00  0.00     0.149 HD
ENDBRANCH   6  13
BRANCH   5  18
ATOM     18  N   LIG d   1      -0.949  76.453 114.223  0.00  0.00     0.381 N 
ATOM     19  H   LIG d   1      -0.488  76.531 113.338  0.00  0.00    -0.090 HD
ATOM     20  H   LIG d   1      -1.759  75.871 114.107  0.00  0.00    -0.090 HD
ATOM     21  H   LIG d   1      -0.332  76.048 114.892  0.00  0.00    -0.090 HD
ENDBRANCH   5  18
BRANCH   3  22
ATOM     22  C   LIG d   1      -2.454  80.783 112.837  0.00  0.00     0.382 C 
ATOM     23  O   LIG d   1      -3.505  81.389 112.516  0.00  0.00    -0.241 OA
ATOM     24  O   LIG d   1      -1.385  81.065 112.264  0.00  0.00    -0.241 OA
ENDBRANCH   3  22
TORSDOF 7
ENDMDL
MODEL 7
REMARK VINA RESULT:      -4.3      3.073      5.464
REMARK  7 active torsions:
REMARK  status: ('A' for Active; 'I' for Inactive)
REMARK    1  A    between atoms: C_2  and  C_3 
REMARK    2  A    between atoms: C_3  and  O_6 
REMARK    3  A    between atoms: C_3  and  C_4 
REMARK    4  A    between atoms: C_7  and  O_6 
REMARK    5  A    between atoms: C_9  and  C_10 
REMARK    6  A    between atoms: N_15  and  C_14 
REMARK    7  A    between atoms: N_20  and  C_19 
REMARK       I    between atoms: C_22  and  N_20 
ROOT
ATOM      1  C   LIG d   1      -3.313  77.430 115.124  0.00  0.00     0.161 C 
ATOM      2  C   LIG d   1      -3.045  77.523 113.748  0.00  0.00     0.016 C 
ATOM      3  C   LIG d   1      -2.145  78.461 113.192  0.00  0.00     0.038 C 
ATOM      4  C   LIG d   1      -1.332  79.274 113.996  0.00  0.00     0.028 C 
ATOM      5  C   LIG d   1      -1.934  79.567 115.366  0.00  0.00    -0.047 C 
ATOM      6  C   LIG d   1      -2.353  78.234 116.026  0.00  0.00     0.091 C 
ENDROOT
BRANCH   1   7
ATOM      7  O   LIG d   1      -3.335  76.045 115.525  0.00  0.00    -0.368 OA
BRANCH   7   8
ATOM      8  C   LIG d   1      -2.121  75.537 116.130  0.00  0.00     0.119 C 
BRANCH   8   9
ATOM      9  C   LIG d   1      -1.508  74.516 115.151  0.00  0.00     0.028 C 
ATOM     10  C   LIG d   1      -0.216  75.034 114.496  0.00  0.00     0.006 C 
ENDBRANCH   8   9
BRANCH   8  11
ATOM     11  C   LIG d   1      -2.422  74.745 117.405  0.00  0.00     0.028 C 
ATOM     12  C   LIG d   1      -1.221  74.675 118.361  0.00  0.00     0.006 C 
ENDBRANCH   8  11
ENDBRANCH   7   8
ENDBRANCH   1   7
BRANCH   6  13
ATOM     13  N   LIG d   1      -3.028  78.436 117.334  0.00  0.00    -0.311 N 
ATOM     14  C   LIG d   1      -2.389  78.397 118.502  0.00  0.00     0.210 C 
ATOM     15  C   LIG d   1      -3.277  78.611 119.732  0.00  0.00     0.109 C 
ATOM     16  O   LIG d   1      -1.166  78.238 118.635  0.00  0.00    -0.276 OA
ATOM     17  H   LIG d   1      -4.015  78.602 117.317  0.00  0.00     0.149 HD
ENDBRANCH   6  13
BRANCH   5  18
ATOM     18  N   LIG d   1      -0.925  80.307 116.147  0.00  0.00     0.381 N 
ATOM     19  H   LIG d   1      -1.253  81.233 116.334  0.00  0.00    -0.090 HD
ATOM     20  H   LIG d   1      -0.081  80.375 115.606  0.00  0.00    -0.090 HD
ATOM     21  H   LIG d   1      -0.742  79.833 117.004  0.00  0.00    -0.090 HD
ENDBRANCH   5  18
BRANCH   3  22
ATOM     22  C   LIG d   1      -2.081  78.620 111.816  0.00  0.00     0.382 C 
ATOM     23  O   LIG d   1      -1.350  79.512 111.322  0.00  0.00    -0.241 OA
ATOM     24  O   LIG d   1      -2.778  77.911 111.066  0.00  0.00    -0.241 OA
ENDBRANCH   3  22
TORSDOF 7
ENDMDL
MODEL 8
REMARK VINA RESULT:      -4.2      3.357      6.185
REMARK  7 active torsions:
REMARK  status: ('A' for Active; 'I' for Inactive)
REMARK    1  A    between atoms: C_2  and  C_3 
REMARK    2  A    between atoms: C_3  and  O_6 
REMARK    3  A    between atoms: C_3  and  C_4 
REMARK    4  A    between atoms: C_7  and  O_6 
REMARK    5  A    between atoms: C_9  and  C_10 
REMARK    6  A    between atoms: N_15  and  C_14 
REMARK    7  A    between atoms: N_20  and  C_19 
REMARK       I    between atoms: C_22  and  N_20 
ROOT
ATOM      1  C   LIG d   1      -1.593  79.992 114.315  0.00  0.00     0.161 C 
ATOM      2  C   LIG d   1      -2.402  78.876 114.586  0.00  0.00     0.016 C 
ATOM      3  C   LIG d   1      -2.715  77.889 113.623  0.00  0.00     0.038 C 
ATOM      4  C   LIG d   1      -2.111  77.871 112.357  0.00  0.00     0.028 C 
ATOM      5  C   LIG d   1      -1.683  79.252 111.871  0.00  0.00    -0.047 C 
ATOM      6  C   LIG d   1      -0.836  79.931 112.971  0.00  0.00     0.091 C 
ENDROOT
BRANCH   1   7
ATOM      7  O   LIG d   1      -0.669  80.201 115.401  0.00  0.00    -0.368 OA
BRANCH   7   8
ATOM      8  C   LIG d   1      -1.084  79.699 116.696  0.00  0.00     0.119 C 
BRANCH   8   9
ATOM      9  C   LIG d   1      -1.182  80.906 117.650  0.00  0.00     0.028 C 
ATOM     10  C   LIG d   1      -2.490  80.909 118.458  0.00  0.00     0.006 C 
ENDBRANCH   8   9
BRANCH   8  11
ATOM     11  C   LIG d   1      -0.017  78.785 117.306  0.00  0.00     0.028 C 
ATOM     12  C   LIG d   1      -0.544  77.374 117.609  0.00  0.00     0.006 C 
ENDBRANCH   8  11
ENDBRANCH   7   8
ENDBRANCH   1   7
BRANCH   6  13
ATOM     13  N   LIG d   1      -0.446  81.319 112.611  0.00  0.00    -0.311 N 
ATOM     14  C   LIG d   1       0.708  81.627 112.023  0.00  0.00     0.210 C 
ATOM     15  C   LIG d   1       0.920  83.121 111.757  0.00  0.00     0.109 C 
ATOM     16  O   LIG d   1       1.563  80.802 111.667  0.00  0.00    -0.276 OA
ATOM     17  H   LIG d   1      -1.095  82.048 112.836  0.00  0.00     0.149 HD
ENDBRANCH   6  13
BRANCH   5  18
ATOM     18  N   LIG d   1      -0.947  79.070 110.605  0.00  0.00     0.381 N 
ATOM     19  H   LIG d   1      -1.590  78.867 109.866  0.00  0.00    -0.090 HD
ATOM     20  H   LIG d   1      -0.321  78.290 110.702  0.00  0.00    -0.090 HD
ATOM     21  H   LIG d   1      -0.431  79.894 110.389  0.00  0.00    -0.090 HD
ENDBRANCH   5  18
BRANCH   3  22
ATOM     22  C   LIG d   1      -3.671  76.927 113.911  0.00  0.00     0.382 C 
ATOM     23  O   LIG d   1      -3.414  76.013 114.732  0.00  0.00    -0.241 OA
ATOM     24  O   LIG d   1      -4.771  76.935 113.326  0.00  0.00    -0.241 OA
ENDBRANCH   3  22
TORSDOF 7
ENDMDL
MODEL 9
REMARK VINA RESULT:      -4.2      2.168      3.547
REMARK  7 active torsions:
REMARK  status: ('A' for Active; 'I' for Inactive)
REMARK    1  A    between atoms: C_2  and  C_3 
REMARK    2  A    between atoms: C_3  and  O_6 
REMARK    3  A    between atoms: C_3  and  C_4 
REMARK    4  A    between atoms: C_7  and  O_6 
REMARK    5  A    between atoms: C_9  and  C_10 
REMARK    6  A    between atoms: N_15  and  C_14 
REMARK    7  A    between atoms: N_20  and  C_19 
REMARK       I    between atoms: C_22  and  N_20 
ROOT
ATOM      1  C   LIG d   1      -3.881  77.418 117.230  0.00  0.00     0.161 C 
ATOM      2  C   LIG d   1      -4.712  78.436 117.724  0.00  0.00     0.016 C 
ATOM      3  C   LIG d   1      -4.543  79.803 117.404  0.00  0.00     0.038 C 
ATOM      4  C   LIG d   1      -3.617  80.229 116.439  0.00  0.00     0.028 C 
ATOM      5  C   LIG d   1      -2.422  79.294 116.293  0.00  0.00    -0.047 C 
ATOM      6  C   LIG d   1      -2.936  77.851 116.089  0.00  0.00     0.091 C 
ENDROOT
BRANCH   1   7
ATOM      7  O   LIG d   1      -4.681  76.292 116.817  0.00  0.00    -0.368 OA
BRANCH   7   8
ATOM      8  C   LIG d   1      -5.792  76.589 115.936  0.00  0.00     0.119 C 
BRANCH   8   9
ATOM      9  C   LIG d   1      -7.046  75.920 116.531  0.00  0.00     0.028 C 
ATOM     10  C   LIG d   1      -7.962  76.924 117.251  0.00  0.00     0.006 C 
ENDBRANCH   8   9
BRANCH   8  11
ATOM     11  C   LIG d   1      -5.602  75.941 114.561  0.00  0.00     0.028 C 
ATOM     12  C   LIG d   1      -4.876  74.588 114.635  0.00  0.00     0.006 C 
ENDBRANCH   8  11
ENDBRANCH   7   8
ENDBRANCH   1   7
BRANCH   6  13
ATOM     13  N   LIG d   1      -1.830  76.860 116.021  0.00  0.00    -0.311 N 
ATOM     14  C   LIG d   1      -1.331  76.396 114.877  0.00  0.00     0.210 C 
ATOM     15  C   LIG d   1      -0.208  75.366 115.031  0.00  0.00     0.109 C 
ATOM     16  O   LIG d   1      -1.689  76.765 113.748  0.00  0.00    -0.276 OA
ATOM     17  H   LIG d   1      -1.459  76.530 116.891  0.00  0.00     0.149 HD
ENDBRANCH   6  13
BRANCH   5  18
ATOM     18  N   LIG d   1      -1.610  79.783 115.162  0.00  0.00     0.381 N 
ATOM     19  H   LIG d   1      -2.030  80.604 114.773  0.00  0.00    -0.090 HD
ATOM     20  H   LIG d   1      -1.583  79.075 114.451  0.00  0.00    -0.090 HD
ATOM     21  H   LIG d   1      -0.685  79.989 115.471  0.00  0.00    -0.090 HD
ENDBRANCH   5  18
BRANCH   3  22
ATOM     22  C   LIG d   1      -5.279  80.764 118.080  0.00  0.00     0.382 C 
ATOM     23  O   LIG d   1      -6.267  81.302 117.526  0.00  0.00    -0.241 OA
ATOM     24  O   LIG d   1      -4.940  81.131 119.221  0.00  0.00    -0.241 OA
ENDBRANCH   3  22
TORSDOF 7
ENDMDL
