MODEL 1
REMARK VINA RESULT:      -5.1      0.000      0.000
REMARK  7 active torsions:
REMARK  status: ('A' for Active; 'I' for Inactive)
REMARK    1  A    between atoms: C_2  and  C_3 
REMARK    2  A    between atoms: C_3  and  O_6 
REMARK    3  A    between atoms: C_3  and  C_4 
REMARK    4  A    between atoms: C_7  and  O_6 
REMARK    5  A    between atoms: C_9  and  C_10 
REMARK    6  A    between atoms: N_15  and  C_14 
REMARK    7  A    between atoms: N_20  and  C_19 
REMARK       I    between atoms: C_22  and  N_20 
ROOT
ATOM      1  C   LIG d   1      -5.082  76.838 117.298  0.00  0.00     0.161 C 
ATOM      2  C   LIG d   1      -5.971  77.905 117.510  0.00  0.00     0.016 C 
ATOM      3  C   LIG d   1      -5.614  79.262 117.335  0.00  0.00     0.038 C 
ATOM      4  C   LIG d   1      -4.378  79.638 116.786  0.00  0.00     0.028 C 
ATOM      5  C   LIG d   1      -3.270  78.620 117.033  0.00  0.00    -0.047 C 
ATOM      6  C   LIG d   1      -3.765  77.224 116.593  0.00  0.00     0.091 C 
ENDROOT
BRANCH   1   7
ATOM      7  O   LIG d   1      -5.748  75.784 116.574  0.00  0.00    -0.368 OA
BRANCH   7   8
ATOM      8  C   LIG d   1      -6.314  76.150 115.292  0.00  0.00     0.119 C 
BRANCH   8   9
ATOM      9  C   LIG d   1      -7.773  75.655 115.271  0.00  0.00     0.028 C 
ATOM     10  C   LIG d   1      -7.978  74.399 116.135  0.00  0.00     0.006 C 
ENDBRANCH   8   9
BRANCH   8  11
ATOM     11  C   LIG d   1      -5.618  75.412 114.145  0.00  0.00     0.028 C 
ATOM     12  C   LIG d   1      -4.801  74.202 114.624  0.00  0.00     0.006 C 
ENDBRANCH   8  11
ENDBRANCH   7   8
ENDBRANCH   1   7
BRANCH   6  13
ATOM     13  N   LIG d   1      -2.772  76.155 116.878  0.00  0.00    -0.311 N 
ATOM     14  C   LIG d   1      -1.904  75.701 115.976  0.00  0.00     0.210 C 
ATOM     15  C   LIG d   1      -0.982  74.582 116.472  0.00  0.00     0.109 C 
ATOM     16  O   LIG d   1      -1.788  76.141 114.822  0.00  0.00    -0.276 OA
ATOM     17  H   LIG d   1      -2.776  75.763 117.800  0.00  0.00     0.149 HD
ENDBRANCH   6  13
BRANCH   5  18
ATOM     18  N   LIG d   1      -2.077  79.071 116.293  0.00  0.00     0.381 N 
ATOM     19  H   LIG d   1      -2.039  78.616 115.403  0.00  0.00    -0.090 HD
ATOM     20  H   LIG d   1      -1.256  78.818 116.813  0.00  0.00    -0.090 HD
ATOM     21  H   LIG d   1      -2.107  80.059 116.167  0.00  0.00    -0.090 HD
ENDBRANCH   5  18
BRANCH   3  22
ATOM     22  C   LIG d   1      -6.483  80.260 117.748  0.00  0.00     0.382 C 
ATOM     23  O   LIG d   1      -7.472  80.563 117.039  0.00  0.00    -0.241 OA
ATOM     24  O   LIG d   1      -6.265  80.892 118.799  0.00  0.00    -0.241 OA
ENDBRANCH   3  22
TORSDOF 7
ENDMDL
MODEL 2
REMARK VINA RESULT:      -5.1      3.601      5.344
REMARK  7 active torsions:
REMARK  status: ('A' for Active; 'I' for Inactive)
REMARK    1  A    between atoms: C_2  and  C_3 
REMARK    2  A    between atoms: C_3  and  O_6 
REMARK    3  A    between atoms: C_3  and  C_4 
REMARK    4  A    between atoms: C_7  and  O_6 
REMARK    5  A    between atoms: C_9  and  C_10 
REMARK    6  A    between atoms: N_15  and  C_14 
REMARK    7  A    between atoms: N_20  and  C_19 
REMARK       I    between atoms: C_22  and  N_20 
ROOT
ATOM      1  C   LIG d   1      -2.940  79.899 115.508  0.00  0.00     0.161 C 
ATOM      2  C   LIG d   1      -2.771  81.151 114.895  0.00  0.00     0.016 C 
ATOM      3  C   LIG d   1      -2.216  81.317 113.605  0.00  0.00     0.038 C 
ATOM      4  C   LIG d   1      -1.930  80.224 112.774  0.00  0.00     0.028 C 
ATOM      5  C   LIG d   1      -1.614  78.945 113.543  0.00  0.00    -0.047 C 
ATOM      6  C   LIG d   1      -2.737  78.688 114.573  0.00  0.00     0.091 C 
ENDROOT
BRANCH   1   7
ATOM      7  O   LIG d   1      -4.235  79.834 116.137  0.00  0.00    -0.368 OA
BRANCH   7   8
ATOM      8  C   LIG d   1      -4.431  80.699 117.283  0.00  0.00     0.119 C 
BRANCH   8   9
ATOM      9  C   LIG d   1      -3.698  80.058 118.477  0.00  0.00     0.028 C 
ATOM     10  C   LIG d   1      -2.633  80.990 119.081  0.00  0.00     0.006 C 
ENDBRANCH   8   9
BRANCH   8  11
ATOM     11  C   LIG d   1      -5.905  80.754 117.695  0.00  0.00     0.028 C 
ATOM     12  C   LIG d   1      -6.623  79.406 117.522  0.00  0.00     0.006 C 
ENDBRANCH   8  11
ENDBRANCH   7   8
ENDBRANCH   1   7
BRANCH   6  13
ATOM     13  N   LIG d   1      -2.464  77.502 115.426  0.00  0.00    -0.311 N 
ATOM     14  C   LIG d   1      -2.954  76.289 115.175  0.00  0.00     0.210 C 
ATOM     15  C   LIG d   1      -2.565  75.211 116.191  0.00  0.00     0.109 C 
ATOM     16  O   LIG d   1      -3.647  75.997 114.188  0.00  0.00    -0.276 OA
ATOM     17  H   LIG d   1      -1.885  77.643 116.231  0.00  0.00     0.149 HD
ENDBRANCH   6  13
BRANCH   5  18
ATOM     18  N   LIG d   1      -1.471  77.856 112.559  0.00  0.00     0.381 N 
ATOM     19  H   LIG d   1      -0.548  77.475 112.607  0.00  0.00    -0.090 HD
ATOM     20  H   LIG d   1      -1.610  78.231 111.637  0.00  0.00    -0.090 HD
ATOM     21  H   LIG d   1      -2.143  77.143 112.739  0.00  0.00    -0.090 HD
ENDBRANCH   5  18
BRANCH   3  22
ATOM     22  C   LIG d   1      -1.904  82.589 113.149  0.00  0.00     0.382 C 
ATOM     23  O   LIG d   1      -1.762  83.530 113.967  0.00  0.00    -0.241 OA
ATOM     24  O   LIG d   1      -1.807  82.817 111.929  0.00  0.00    -0.241 OA
ENDBRANCH   3  22
TORSDOF 7
ENDMDL
MODEL 3
REMARK VINA RESULT:      -4.9      4.163      5.883
REMARK  7 active torsions:
REMARK  status: ('A' for Active; 'I' for Inactive)
REMARK    1  A    between atoms: C_2  and  C_3 
REMARK    2  A    between atoms: C_3  and  O_6 
REMARK    3  A    between atoms: C_3  and  C_4 
REMARK    4  A    between atoms: C_7  and  O_6 
REMARK    5  A    between atoms: C_9  and  C_10 
REMARK    6  A    between atoms: N_15  and  C_14 
REMARK    7  A    between atoms: N_20  and  C_19 
REMARK       I    between atoms: C_22  and  N_20 
ROOT
ATOM      1  C   LIG d   1      -2.652  80.644 114.930  0.00  0.00     0.161 C 
ATOM      2  C   LIG d   1      -2.380  81.866 114.293  0.00  0.00     0.016 C 
ATOM      3  C   LIG d   1      -1.830  81.960 112.993  0.00  0.00     0.038 C 
ATOM      4  C   LIG d   1      -1.654  80.831 112.179  0.00  0.00     0.028 C 
ATOM      5  C   LIG d   1      -1.443  79.543 112.967  0.00  0.00    -0.047 C 
ATOM      6  C   LIG d   1      -2.571  79.404 114.015  0.00  0.00     0.091 C 
ENDROOT
BRANCH   1   7
ATOM      7  O   LIG d   1      -3.939  80.706 115.576  0.00  0.00    -0.368 OA
BRANCH   7   8
ATOM      8  C   LIG d   1      -3.930  81.055 116.982  0.00  0.00     0.119 C 
BRANCH   8   9
ATOM      9  C   LIG d   1      -2.749  80.312 117.636  0.00  0.00     0.028 C 
ATOM     10  C   LIG d   1      -2.032  81.166 118.696  0.00  0.00     0.006 C 
ENDBRANCH   8   9
BRANCH   8  11
ATOM     11  C   LIG d   1      -5.181  80.533 117.694  0.00  0.00     0.028 C 
ATOM     12  C   LIG d   1      -5.487  79.064 117.362  0.00  0.00     0.006 C 
ENDBRANCH   8  11
ENDBRANCH   7   8
ENDBRANCH   1   7
BRANCH   6  13
ATOM     13  N   LIG d   1      -2.392  78.213 114.885  0.00  0.00    -0.311 N 
ATOM     14  C   LIG d   1      -3.001  77.048 114.667  0.00  0.00     0.210 C 
ATOM     15  C   LIG d   1      -2.694  75.956 115.697  0.00  0.00     0.109 C 
ATOM     16  O   LIG d   1      -3.740  76.806 113.701  0.00  0.00    -0.276 OA
ATOM     17  H   LIG d   1      -1.785  78.312 115.675  0.00  0.00     0.149 HD
ENDBRANCH   6  13
BRANCH   5  18
ATOM     18  N   LIG d   1      -1.412  78.429 112.000  0.00  0.00     0.381 N 
ATOM     19  H   LIG d   1      -1.364  78.791 111.068  0.00  0.00    -0.090 HD
ATOM     20  H   LIG d   1      -2.260  77.898 112.089  0.00  0.00    -0.090 HD
ATOM     21  H   LIG d   1      -0.625  77.845 112.178  0.00  0.00    -0.090 HD
ENDBRANCH   5  18
BRANCH   3  22
ATOM     22  C   LIG d   1      -1.412  83.191 112.512  0.00  0.00     0.382 C 
ATOM     23  O   LIG d   1      -1.375  83.401 111.275  0.00  0.00    -0.241 OA
ATOM     24  O   LIG d   1      -1.030  84.080 113.296  0.00  0.00    -0.241 OA
ENDBRANCH   3  22
TORSDOF 7
ENDMDL
MODEL 4
REMARK VINA RESULT:      -4.9      2.493      6.420
REMARK  7 active torsions:
REMARK  status: ('A' for Active; 'I' for Inactive)
REMARK    1  A    between atoms: C_2  and  C_3 
REMARK    2  A    between atoms: C_3  and  O_6 
REMARK    3  A    between atoms: C_3  and  C_4 
REMARK    4  A    between atoms: C_7  and  O_6 
REMARK    5  A    between atoms: C_9  and  C_10 
REMARK    6  A    between atoms: N_15  and  C_14 
REMARK    7  A    between atoms: N_20  and  C_19 
REMARK       I    between atoms: C_22  and  N_20 
ROOT
ATOM      1  C   LIG d   1      -4.693  78.726 116.884  0.00  0.00     0.161 C 
ATOM      2  C   LIG d   1      -3.939  77.815 116.126  0.00  0.00     0.016 C 
ATOM      3  C   LIG d   1      -4.455  76.588 115.647  0.00  0.00     0.038 C 
ATOM      4  C   LIG d   1      -5.813  76.258 115.766  0.00  0.00     0.028 C 
ATOM      5  C   LIG d   1      -6.494  76.915 116.961  0.00  0.00    -0.047 C 
ATOM      6  C   LIG d   1      -6.207  78.434 116.929  0.00  0.00     0.091 C 
ENDROOT
BRANCH   1   7
ATOM      7  O   LIG d   1      -4.455  80.067 116.412  0.00  0.00    -0.368 OA
BRANCH   7   8
ATOM      8  C   LIG d   1      -3.941  81.005 117.390  0.00  0.00     0.119 C 
BRANCH   8   9
ATOM      9  C   LIG d   1      -2.670  81.642 116.796  0.00  0.00     0.028 C 
ATOM     10  C   LIG d   1      -2.989  82.720 115.746  0.00  0.00     0.006 C 
ENDBRANCH   8   9
BRANCH   8  11
ATOM     11  C   LIG d   1      -3.479  80.287 118.661  0.00  0.00     0.028 C 
ATOM     12  C   LIG d   1      -2.299  80.992 119.348  0.00  0.00     0.006 C 
ENDBRANCH   8  11
ENDBRANCH   7   8
ENDBRANCH   1   7
BRANCH   6  13
ATOM     13  N   LIG d   1      -6.767  79.142 118.110  0.00  0.00    -0.311 N 
ATOM     14  C   LIG d   1      -7.469  80.270 118.023  0.00  0.00     0.210 C 
ATOM     15  C   LIG d   1      -7.936  80.845 119.364  0.00  0.00     0.109 C 
ATOM     16  O   LIG d   1      -7.777  80.832 116.962  0.00  0.00    -0.276 OA
ATOM     17  H   LIG d   1      -6.591  78.738 119.009  0.00  0.00     0.149 HD
ENDBRANCH   6  13
BRANCH   5  18
ATOM     18  N   LIG d   1      -7.932  76.597 116.886  0.00  0.00     0.381 N 
ATOM     19  H   LIG d   1      -8.060  75.712 116.437  0.00  0.00    -0.090 HD
ATOM     20  H   LIG d   1      -8.392  77.299 116.334  0.00  0.00    -0.090 HD
ATOM     21  H   LIG d   1      -8.325  76.573 117.801  0.00  0.00    -0.090 HD
ENDBRANCH   5  18
BRANCH   3  22
ATOM     22  C   LIG d   1      -3.599  75.660 115.075  0.00  0.00     0.382 C 
ATOM     23  O   LIG d   1      -2.381  75.930 114.940  0.00  0.00    -0.241 OA
ATOM     24  O   LIG d   1      -4.036  74.573 114.652  0.00  0.00    -0.241 OA
ENDBRANCH   3  22
TORSDOF 7
ENDMDL
MODEL 5
REMARK VINA RESULT:      -4.9      3.563      4.868
REMARK  7 active torsions:
REMARK  status: ('A' for Active; 'I' for Inactive)
REMARK    1  A    between atoms: C_2  and  C_3 
REMARK    2  A    between atoms: C_3  and  O_6 
REMARK    3  A    between atoms: C_3  and  C_4 
REMARK    4  A    between atoms: C_7  and  O_6 
REMARK    5  A    between atoms: C_9  and  C_10 
REMARK    6  A    between atoms: N_15  and  C_14 
REMARK    7  A    between atoms: N_20  and  C_19 
REMARK       I    between atoms: C_22  and  N_20 
ROOT
ATOM      1  C   LIG d   1      -2.823  79.449 115.412  0.00  0.00     0.161 C 
ATOM      2  C   LIG d   1      -2.774  80.766 114.925  0.00  0.00     0.016 C 
ATOM      3  C   LIG d   1      -2.371  81.094 113.610  0.00  0.00     0.038 C 
ATOM      4  C   LIG d   1      -2.133  80.109 112.640  0.00  0.00     0.028 C 
ATOM      5  C   LIG d   1      -1.681  78.777 113.228  0.00  0.00    -0.047 C 
ATOM      6  C   LIG d   1      -2.673  78.354 114.335  0.00  0.00     0.091 C 
ENDROOT
BRANCH   1   7
ATOM      7  O   LIG d   1      -4.037  79.251 116.163  0.00  0.00    -0.368 OA
BRANCH   7   8
ATOM      8  C   LIG d   1      -3.874  78.902 117.560  0.00  0.00     0.119 C 
BRANCH   8   9
ATOM      9  C   LIG d   1      -4.848  77.747 117.866  0.00  0.00     0.028 C 
ATOM     10  C   LIG d   1      -5.969  77.633 116.819  0.00  0.00     0.006 C 
ENDBRANCH   8   9
BRANCH   8  11
ATOM     11  C   LIG d   1      -4.306  80.051 118.475  0.00  0.00     0.028 C 
ATOM     12  C   LIG d   1      -3.125  80.912 118.948  0.00  0.00     0.006 C 
ENDBRANCH   8  11
ENDBRANCH   7   8
ENDBRANCH   1   7
BRANCH   6  13
ATOM     13  N   LIG d   1      -2.258  77.103 115.021  0.00  0.00    -0.311 N 
ATOM     14  C   LIG d   1      -2.952  75.968 114.957  0.00  0.00     0.210 C 
ATOM     15  C   LIG d   1      -2.359  74.801 115.754  0.00  0.00     0.109 C 
ATOM     16  O   LIG d   1      -3.986  75.807 114.291  0.00  0.00    -0.276 OA
ATOM     17  H   LIG d   1      -1.415  77.135 115.559  0.00  0.00     0.149 HD
ENDBRANCH   6  13
BRANCH   5  18
ATOM     18  N   LIG d   1      -1.602  77.805 112.121  0.00  0.00     0.381 N 
ATOM     19  H   LIG d   1      -1.182  76.956 112.444  0.00  0.00    -0.090 HD
ATOM     20  H   LIG d   1      -1.022  78.186 111.394  0.00  0.00    -0.090 HD
ATOM     21  H   LIG d   1      -2.514  77.619 111.765  0.00  0.00    -0.090 HD
ENDBRANCH   5  18
BRANCH   3  22
ATOM     22  C   LIG d   1      -2.165  82.421 113.266  0.00  0.00     0.382 C 
ATOM     23  O   LIG d   1      -1.904  82.727 112.077  0.00  0.00    -0.241 OA
ATOM     24  O   LIG d   1      -2.193  83.311 114.137  0.00  0.00    -0.241 OA
ENDBRANCH   3  22
TORSDOF 7
ENDMDL
MODEL 6
REMARK VINA RESULT:      -4.8      3.433      5.166
REMARK  7 active torsions:
REMARK  status: ('A' for Active; 'I' for Inactive)
REMARK    1  A    between atoms: C_2  and  C_3 
REMARK    2  A    between atoms: C_3  and  O_6 
REMARK    3  A    between atoms: C_3  and  C_4 
REMARK    4  A    between atoms: C_7  and  O_6 
REMARK    5  A    between atoms: C_9  and  C_10 
REMARK    6  A    between atoms: N_15  and  C_14 
REMARK    7  A    between atoms: N_20  and  C_19 
REMARK       I    between atoms: C_22  and  N_20 
ROOT
ATOM      1  C   LIG d   1      -2.773  79.674 116.290  0.00  0.00     0.161 C 
ATOM      2  C   LIG d   1      -3.014  80.471 115.158  0.00  0.00     0.016 C 
ATOM      3  C   LIG d   1      -2.532  80.155 113.867  0.00  0.00     0.038 C 
ATOM      4  C   LIG d   1      -1.900  78.934 113.590  0.00  0.00     0.028 C 
ATOM      5  C   LIG d   1      -1.193  78.330 114.799  0.00  0.00    -0.047 C 
ATOM      6  C   LIG d   1      -2.181  78.282 115.986  0.00  0.00     0.091 C 
ENDROOT
BRANCH   1   7
ATOM      7  O   LIG d   1      -3.983  79.546 117.064  0.00  0.00    -0.368 OA
BRANCH   7   8
ATOM      8  C   LIG d   1      -3.889  79.922 118.460  0.00  0.00     0.119 C 
BRANCH   8   9
ATOM      9  C   LIG d   1      -5.223  80.589 118.850  0.00  0.00     0.028 C 
ATOM     10  C   LIG d   1      -6.225  80.624 117.683  0.00  0.00     0.006 C 
ENDBRANCH   8   9
BRANCH   8  11
ATOM     11  C   LIG d   1      -2.820  80.997 118.676  0.00  0.00     0.028 C 
ATOM     12  C   LIG d   1      -1.964  80.742 119.927  0.00  0.00     0.006 C 
ENDBRANCH   8  11
ENDBRANCH   7   8
ENDBRANCH   1   7
BRANCH   6  13
ATOM     13  N   LIG d   1      -1.545  77.782 117.233  0.00  0.00    -0.311 N 
ATOM     14  C   LIG d   1      -1.627  76.517 117.642  0.00  0.00     0.210 C 
ATOM     15  C   LIG d   1      -0.916  76.218 118.965  0.00  0.00     0.109 C 
ATOM     16  O   LIG d   1      -2.194  75.608 117.018  0.00  0.00    -0.276 OA
ATOM     17  H   LIG d   1      -1.038  78.447 117.785  0.00  0.00     0.149 HD
ENDBRANCH   6  13
BRANCH   5  18
ATOM     18  N   LIG d   1      -0.697  76.997 114.405  0.00  0.00     0.381 N 
ATOM     19  H   LIG d   1      -0.082  77.083 113.620  0.00  0.00    -0.090 HD
ATOM     20  H   LIG d   1      -1.478  76.427 114.133  0.00  0.00    -0.090 HD
ATOM     21  H   LIG d   1      -0.216  76.573 115.168  0.00  0.00    -0.090 HD
ENDBRANCH   5  18
BRANCH   3  22
ATOM     22  C   LIG d   1      -2.646  81.085 112.845  0.00  0.00     0.382 C 
ATOM     23  O   LIG d   1      -3.726  81.700 112.674  0.00  0.00    -0.241 OA
ATOM     24  O   LIG d   1      -1.696  81.284 112.063  0.00  0.00    -0.241 OA
ENDBRANCH   3  22
TORSDOF 7
ENDMDL
MODEL 7
REMARK VINA RESULT:      -4.8      4.745      7.327
REMARK  7 active torsions:
REMARK  status: ('A' for Active; 'I' for Inactive)
REMARK    1  A    between atoms: C_2  and  C_3 
REMARK    2  A    between atoms: C_3  and  O_6 
REMARK    3  A    between atoms: C_3  and  C_4 
REMARK    4  A    between atoms: C_7  and  O_6 
REMARK    5  A    between atoms: C_9  and  C_10 
REMARK    6  A    between atoms: N_15  and  C_14 
REMARK    7  A    between atoms: N_20  and  C_19 
REMARK       I    between atoms: C_22  and  N_20 
ROOT
ATOM      1  C   LIG d   1      -2.336  80.544 113.966  0.00  0.00     0.161 C 
ATOM      2  C   LIG d   1      -2.715  79.264 114.405  0.00  0.00     0.016 C 
ATOM      3  C   LIG d   1      -2.517  78.090 113.642  0.00  0.00     0.038 C 
ATOM      4  C   LIG d   1      -1.785  78.097 112.446  0.00  0.00     0.028 C 
ATOM      5  C   LIG d   1      -1.824  79.438 111.720  0.00  0.00    -0.047 C 
ATOM      6  C   LIG d   1      -1.436  80.558 112.713  0.00  0.00     0.091 C 
ENDROOT
BRANCH   1   7
ATOM      7  O   LIG d   1      -1.705  81.263 115.044  0.00  0.00    -0.368 OA
BRANCH   7   8
ATOM      8  C   LIG d   1      -2.595  81.895 115.996  0.00  0.00     0.119 C 
BRANCH   8   9
ATOM      9  C   LIG d   1      -2.641  83.398 115.660  0.00  0.00     0.028 C 
ATOM     10  C   LIG d   1      -1.265  83.951 115.254  0.00  0.00     0.006 C 
ENDBRANCH   8   9
BRANCH   8  11
ATOM     11  C   LIG d   1      -2.037  81.814 117.420  0.00  0.00     0.028 C 
ATOM     12  C   LIG d   1      -2.929  80.993 118.365  0.00  0.00     0.006 C 
ENDBRANCH   8  11
ENDBRANCH   7   8
ENDBRANCH   1   7
BRANCH   6  13
ATOM     13  N   LIG d   1      -1.530  81.911 112.106  0.00  0.00    -0.311 N 
ATOM     14  C   LIG d   1      -0.489  82.551 111.576  0.00  0.00     0.210 C 
ATOM     15  C   LIG d   1      -0.801  83.945 111.022  0.00  0.00     0.109 C 
ATOM     16  O   LIG d   1       0.656  82.084 111.483  0.00  0.00    -0.276 OA
ATOM     17  H   LIG d   1      -2.429  82.351 112.111  0.00  0.00     0.149 HD
ENDBRANCH   6  13
BRANCH   5  18
ATOM     18  N   LIG d   1      -0.910  79.347 110.566  0.00  0.00     0.381 N 
ATOM     19  H   LIG d   1      -0.611  78.400 110.444  0.00  0.00    -0.090 HD
ATOM     20  H   LIG d   1      -0.100  79.913 110.747  0.00  0.00    -0.090 HD
ATOM     21  H   LIG d   1      -1.369  79.665 109.741  0.00  0.00    -0.090 HD
ENDBRANCH   5  18
BRANCH   3  22
ATOM     22  C   LIG d   1      -3.090  76.897 114.056  0.00  0.00     0.382 C 
ATOM     23  O   LIG d   1      -4.248  76.595 113.682  0.00  0.00    -0.241 OA
ATOM     24  O   LIG d   1      -2.480  76.140 114.835  0.00  0.00    -0.241 OA
ENDBRANCH   3  22
TORSDOF 7
ENDMDL
MODEL 8
REMARK VINA RESULT:      -4.7      2.961      4.428
REMARK  7 active torsions:
REMARK  status: ('A' for Active; 'I' for Inactive)
REMARK    1  A    between atoms: C_2  and  C_3 
REMARK    2  A    between atoms: C_3  and  O_6 
REMARK    3  A    between atoms: C_3  and  C_4 
REMARK    4  A    between atoms: C_7  and  O_6 
REMARK    5  A    between atoms: C_9  and  C_10 
REMARK    6  A    between atoms: N_15  and  C_14 
REMARK    7  A    between atoms: N_20  and  C_19 
REMARK       I    between atoms: C_22  and  N_20 
ROOT
ATOM      1  C   LIG d   1      -2.533  79.663 116.676  0.00  0.00     0.161 C 
ATOM      2  C   LIG d   1      -2.862  80.704 115.792  0.00  0.00     0.016 C 
ATOM      3  C   LIG d   1      -2.614  80.651 114.401  0.00  0.00     0.038 C 
ATOM      4  C   LIG d   1      -2.154  79.483 113.774  0.00  0.00     0.028 C 
ATOM      5  C   LIG d   1      -1.335  78.584 114.694  0.00  0.00    -0.047 C 
ATOM      6  C   LIG d   1      -2.132  78.338 115.995  0.00  0.00     0.091 C 
ENDROOT
BRANCH   1   7
ATOM      7  O   LIG d   1      -3.618  79.445 117.599  0.00  0.00    -0.368 OA
BRANCH   7   8
ATOM      8  C   LIG d   1      -4.948  79.419 117.024  0.00  0.00     0.119 C 
BRANCH   8   9
ATOM      9  C   LIG d   1      -5.846  80.317 117.896  0.00  0.00     0.028 C 
ATOM     10  C   LIG d   1      -5.207  80.645 119.256  0.00  0.00     0.006 C 
ENDBRANCH   8   9
BRANCH   8  11
ATOM     11  C   LIG d   1      -5.566  78.020 117.112  0.00  0.00     0.028 C 
ATOM     12  C   LIG d   1      -7.101  78.051 117.187  0.00  0.00     0.006 C 
ENDBRANCH   8  11
ENDBRANCH   7   8
ENDBRANCH   1   7
BRANCH   6  13
ATOM     13  N   LIG d   1      -1.368  77.536 116.986  0.00  0.00    -0.311 N 
ATOM     14  C   LIG d   1      -1.509  76.220 117.129  0.00  0.00     0.210 C 
ATOM     15  C   LIG d   1      -0.640  75.591 118.223  0.00  0.00     0.109 C 
ATOM     16  O   LIG d   1      -2.249  75.508 116.433  0.00  0.00    -0.276 OA
ATOM     17  H   LIG d   1      -0.722  78.029 117.571  0.00  0.00     0.149 HD
ENDBRANCH   6  13
BRANCH   5  18
ATOM     18  N   LIG d   1      -1.037  77.342 113.955  0.00  0.00     0.381 N 
ATOM     19  H   LIG d   1      -1.380  76.554 114.466  0.00  0.00    -0.090 HD
ATOM     20  H   LIG d   1      -0.041  77.250 113.863  0.00  0.00    -0.090 HD
ATOM     21  H   LIG d   1      -1.460  77.373 113.053  0.00  0.00    -0.090 HD
ENDBRANCH   5  18
BRANCH   3  22
ATOM     22  C   LIG d   1      -2.789  81.788 113.628  0.00  0.00     0.382 C 
ATOM     23  O   LIG d   1      -2.235  82.864 113.961  0.00  0.00    -0.241 OA
ATOM     24  O   LIG d   1      -3.529  81.764 112.626  0.00  0.00    -0.241 OA
ENDBRANCH   3  22
TORSDOF 7
ENDMDL
MODEL 9
REMARK VINA RESULT:      -4.5      6.328      8.278
REMARK  7 active torsions:
REMARK  status: ('A' for Active; 'I' for Inactive)
REMARK    1  A    between atoms: C_2  and  C_3 
REMARK    2  A    between atoms: C_3  and  O_6 
REMARK    3  A    between atoms: C_3  and  C_4 
REMARK    4  A    between atoms: C_7  and  O_6 
REMARK    5  A    between atoms: C_9  and  C_10 
REMARK    6  A    between atoms: N_15  and  C_14 
REMARK    7  A    between atoms: N_20  and  C_19 
REMARK       I    between atoms: C_22  and  N_20 
ROOT
ATOM      1  C   LIG d   1      -0.993  81.742 112.715  0.00  0.00     0.161 C 
ATOM      2  C   LIG d   1      -0.447  82.799 111.967  0.00  0.00     0.016 C 
ATOM      3  C   LIG d   1       0.168  82.623 110.706  0.00  0.00     0.038 C 
ATOM      4  C   LIG d   1       0.144  81.392 110.035  0.00  0.00     0.028 C 
ATOM      5  C   LIG d   1       0.052  80.193 110.972  0.00  0.00    -0.047 C 
ATOM      6  C   LIG d   1      -1.126  80.409 111.949  0.00  0.00     0.091 C 
ENDROOT
BRANCH   1   7
ATOM      7  O   LIG d   1      -2.267  82.136 113.261  0.00  0.00    -0.368 OA
BRANCH   7   8
ATOM      8  C   LIG d   1      -2.437  81.943 114.687  0.00  0.00     0.119 C 
BRANCH   8   9
ATOM      9  C   LIG d   1      -3.106  83.213 115.249  0.00  0.00     0.028 C 
ATOM     10  C   LIG d   1      -2.117  84.382 115.395  0.00  0.00     0.006 C 
ENDBRANCH   8   9
BRANCH   8  11
ATOM     11  C   LIG d   1      -1.085  81.847 115.401  0.00  0.00     0.028 C 
ATOM     12  C   LIG d   1      -0.991  80.633 116.338  0.00  0.00     0.006 C 
ENDBRANCH   8  11
ENDBRANCH   7   8
ENDBRANCH   1   7
BRANCH   6  13
ATOM     13  N   LIG d   1      -1.235  79.321 112.955  0.00  0.00    -0.311 N 
ATOM     14  C   LIG d   1      -2.311  78.546 113.083  0.00  0.00     0.210 C 
ATOM     15  C   LIG d   1      -2.224  77.497 114.197  0.00  0.00     0.109 C 
ATOM     16  O   LIG d   1      -3.316  78.606 112.359  0.00  0.00    -0.276 OA
ATOM     17  H   LIG d   1      -0.453  79.182 113.563  0.00  0.00     0.149 HD
ENDBRANCH   6  13
BRANCH   5  18
ATOM     18  N   LIG d   1      -0.103  78.986 110.137  0.00  0.00     0.381 N 
ATOM     19  H   LIG d   1      -0.410  78.220 110.703  0.00  0.00    -0.090 HD
ATOM     20  H   LIG d   1       0.789  78.748 109.741  0.00  0.00    -0.090 HD
ATOM     21  H   LIG d   1      -0.763  79.156 109.411  0.00  0.00    -0.090 HD
ENDBRANCH   5  18
BRANCH   3  22
ATOM     22  C   LIG d   1       0.850  83.680 110.122  0.00  0.00     0.382 C 
ATOM     23  O   LIG d   1       2.102  83.652 110.047  0.00  0.00    -0.241 OA
ATOM     24  O   LIG d   1       0.233  84.680 109.709  0.00  0.00    -0.241 OA
ENDBRANCH   3  22
TORSDOF 7
ENDMDL
