MODEL 1
REMARK VINA RESULT:      -5.2      0.000      0.000
REMARK  7 active torsions:
REMARK  status: ('A' for Active; 'I' for Inactive)
REMARK    1  A    between atoms: C_2  and  C_3 
REMARK    2  A    between atoms: C_3  and  O_6 
REMARK    3  A    between atoms: C_3  and  C_4 
REMARK    4  A    between atoms: C_7  and  O_6 
REMARK    5  A    between atoms: C_9  and  C_10 
REMARK    6  A    between atoms: N_15  and  C_14 
REMARK    7  A    between atoms: N_20  and  C_19 
REMARK       I    between atoms: C_22  and  N_20 
ROOT
ATOM      1  C   LIG d   1      -2.991  78.860 115.908  0.00  0.00     0.161 C 
ATOM      2  C   LIG d   1      -3.020  79.916 114.981  0.00  0.00     0.016 C 
ATOM      3  C   LIG d   1      -2.467  79.826 113.682  0.00  0.00     0.038 C 
ATOM      4  C   LIG d   1      -1.979  78.617 113.166  0.00  0.00     0.028 C 
ATOM      5  C   LIG d   1      -1.472  77.661 114.240  0.00  0.00    -0.047 C 
ATOM      6  C   LIG d   1      -2.562  77.498 115.323  0.00  0.00     0.091 C 
ENDROOT
BRANCH   1   7
ATOM      7  O   LIG d   1      -4.273  78.746 116.557  0.00  0.00    -0.368 OA
BRANCH   7   8
ATOM      8  C   LIG d   1      -4.703  79.896 117.326  0.00  0.00     0.119 C 
BRANCH   8   9
ATOM      9  C   LIG d   1      -4.038  79.800 118.713  0.00  0.00     0.028 C 
ATOM     10  C   LIG d   1      -3.303  81.093 119.102  0.00  0.00     0.006 C 
ENDBRANCH   8   9
BRANCH   8  11
ATOM     11  C   LIG d   1      -6.210  79.854 117.595  0.00  0.00     0.028 C 
ATOM     12  C   LIG d   1      -6.847  81.253 117.634  0.00  0.00     0.006 C 
ENDBRANCH   8  11
ENDBRANCH   7   8
ENDBRANCH   1   7
BRANCH   6  13
ATOM     13  N   LIG d   1      -2.115  76.644 116.455  0.00  0.00    -0.311 N 
ATOM     14  C   LIG d   1      -2.332  75.332 116.513  0.00  0.00     0.210 C 
ATOM     15  C   LIG d   1      -1.805  74.645 117.777  0.00  0.00     0.109 C 
ATOM     16  O   LIG d   1      -2.882  74.665 115.623  0.00  0.00    -0.276 OA
ATOM     17  H   LIG d   1      -1.633  77.098 117.206  0.00  0.00     0.149 HD
ENDBRANCH   6  13
BRANCH   5  18
ATOM     18  N   LIG d   1      -1.122  76.390 113.577  0.00  0.00     0.381 N 
ATOM     19  H   LIG d   1      -0.701  76.577 112.689  0.00  0.00    -0.090 HD
ATOM     20  H   LIG d   1      -1.962  75.862 113.422  0.00  0.00    -0.090 HD
ATOM     21  H   LIG d   1      -0.493  75.869 114.148  0.00  0.00    -0.090 HD
ENDBRANCH   5  18
BRANCH   3  22
ATOM     22  C   LIG d   1      -2.363  80.966 112.900  0.00  0.00     0.382 C 
ATOM     23  O   LIG d   1      -3.163  81.918 113.069  0.00  0.00    -0.241 OA
ATOM     24  O   LIG d   1      -1.508  81.037 111.998  0.00  0.00    -0.241 OA
ENDBRANCH   3  22
TORSDOF 7
ENDMDL
MODEL 2
REMARK VINA RESULT:      -4.9      2.698      5.322
REMARK  7 active torsions:
REMARK  status: ('A' for Active; 'I' for Inactive)
REMARK    1  A    between atoms: C_2  and  C_3 
REMARK    2  A    between atoms: C_3  and  O_6 
REMARK    3  A    between atoms: C_3  and  C_4 
REMARK    4  A    between atoms: C_7  and  O_6 
REMARK    5  A    between atoms: C_9  and  C_10 
REMARK    6  A    between atoms: N_15  and  C_14 
REMARK    7  A    between atoms: N_20  and  C_19 
REMARK       I    between atoms: C_22  and  N_20 
ROOT
ATOM      1  C   LIG d   1      -2.004  79.831 114.615  0.00  0.00     0.161 C 
ATOM      2  C   LIG d   1      -2.636  78.635 114.994  0.00  0.00     0.016 C 
ATOM      3  C   LIG d   1      -2.862  77.558 114.106  0.00  0.00     0.038 C 
ATOM      4  C   LIG d   1      -2.331  77.545 112.807  0.00  0.00     0.028 C 
ATOM      5  C   LIG d   1      -2.123  78.938 112.224  0.00  0.00    -0.047 C 
ATOM      6  C   LIG d   1      -1.319  79.790 113.233  0.00  0.00     0.091 C 
ENDROOT
BRANCH   1   7
ATOM      7  O   LIG d   1      -1.060  80.227 115.630  0.00  0.00    -0.368 OA
BRANCH   7   8
ATOM      8  C   LIG d   1      -1.142  79.516 116.889  0.00  0.00     0.119 C 
BRANCH   8   9
ATOM      9  C   LIG d   1      -1.498  80.544 117.980  0.00  0.00     0.028 C 
ATOM     10  C   LIG d   1      -2.954  80.413 118.458  0.00  0.00     0.006 C 
ENDBRANCH   8   9
BRANCH   8  11
ATOM     11  C   LIG d   1       0.220  78.947 117.297  0.00  0.00     0.028 C 
ATOM     12  C   LIG d   1       0.146  77.473 117.726  0.00  0.00     0.006 C 
ENDBRANCH   8  11
ENDBRANCH   7   8
ENDBRANCH   1   7
BRANCH   6  13
ATOM     13  N   LIG d   1      -1.144  81.194 112.776  0.00  0.00    -0.311 N 
ATOM     14  C   LIG d   1      -0.077  81.617 112.100  0.00  0.00     0.210 C 
ATOM     15  C   LIG d   1      -0.087  83.107 111.744  0.00  0.00     0.109 C 
ATOM     16  O   LIG d   1       0.860  80.893 111.733  0.00  0.00    -0.276 OA
ATOM     17  H   LIG d   1      -1.872  81.842 113.004  0.00  0.00     0.149 HD
ENDBRANCH   6  13
BRANCH   5  18
ATOM     18  N   LIG d   1      -1.439  78.781 110.926  0.00  0.00     0.381 N 
ATOM     19  H   LIG d   1      -0.829  77.988 110.959  0.00  0.00    -0.090 HD
ATOM     20  H   LIG d   1      -0.883  79.599 110.750  0.00  0.00    -0.090 HD
ATOM     21  H   LIG d   1      -2.110  78.663 110.199  0.00  0.00    -0.090 HD
ENDBRANCH   5  18
BRANCH   3  22
ATOM     22  C   LIG d   1      -3.660  76.496 114.502  0.00  0.00     0.382 C 
ATOM     23  O   LIG d   1      -3.207  75.631 115.290  0.00  0.00    -0.241 OA
ATOM     24  O   LIG d   1      -4.812  76.367 114.046  0.00  0.00    -0.241 OA
ENDBRANCH   3  22
TORSDOF 7
ENDMDL
MODEL 3
REMARK VINA RESULT:      -4.8      2.769      4.073
REMARK  7 active torsions:
REMARK  status: ('A' for Active; 'I' for Inactive)
REMARK    1  A    between atoms: C_2  and  C_3 
REMARK    2  A    between atoms: C_3  and  O_6 
REMARK    3  A    between atoms: C_3  and  C_4 
REMARK    4  A    between atoms: C_7  and  O_6 
REMARK    5  A    between atoms: C_9  and  C_10 
REMARK    6  A    between atoms: N_15  and  C_14 
REMARK    7  A    between atoms: N_20  and  C_19 
REMARK       I    between atoms: C_22  and  N_20 
ROOT
ATOM      1  C   LIG d   1      -3.124  77.031 115.278  0.00  0.00     0.161 C 
ATOM      2  C   LIG d   1      -3.001  77.217 113.891  0.00  0.00     0.016 C 
ATOM      3  C   LIG d   1      -2.192  78.220 113.309  0.00  0.00     0.038 C 
ATOM      4  C   LIG d   1      -1.327  79.013 114.078  0.00  0.00     0.028 C 
ATOM      5  C   LIG d   1      -1.796  79.200 115.517  0.00  0.00    -0.047 C 
ATOM      6  C   LIG d   1      -2.103  77.814 116.129  0.00  0.00     0.091 C 
ENDROOT
BRANCH   1   7
ATOM      7  O   LIG d   1      -3.061  75.625 115.590  0.00  0.00    -0.368 OA
BRANCH   7   8
ATOM      8  C   LIG d   1      -4.118  75.113 116.439  0.00  0.00     0.119 C 
BRANCH   8   9
ATOM      9  C   LIG d   1      -3.465  74.184 117.481  0.00  0.00     0.028 C 
ATOM     10  C   LIG d   1      -1.929  74.200 117.400  0.00  0.00     0.006 C 
ENDBRANCH   8   9
BRANCH   8  11
ATOM     11  C   LIG d   1      -5.084  74.222 115.651  0.00  0.00     0.028 C 
ATOM     12  C   LIG d   1      -5.998  75.022 114.710  0.00  0.00     0.006 C 
ENDBRANCH   8  11
ENDBRANCH   7   8
ENDBRANCH   1   7
BRANCH   6  13
ATOM     13  N   LIG d   1      -2.647  77.912 117.508  0.00  0.00    -0.311 N 
ATOM     14  C   LIG d   1      -1.898  77.788 118.602  0.00  0.00     0.210 C 
ATOM     15  C   LIG d   1      -2.662  77.902 119.925  0.00  0.00     0.109 C 
ATOM     16  O   LIG d   1      -0.668  77.627 118.603  0.00  0.00    -0.276 OA
ATOM     17  H   LIG d   1      -3.631  78.072 117.600  0.00  0.00     0.149 HD
ENDBRANCH   6  13
BRANCH   5  18
ATOM     18  N   LIG d   1      -0.736  79.929 116.239  0.00  0.00     0.381 N 
ATOM     19  H   LIG d   1      -1.138  80.683 116.761  0.00  0.00    -0.090 HD
ATOM     20  H   LIG d   1      -0.094  80.316 115.570  0.00  0.00    -0.090 HD
ATOM     21  H   LIG d   1      -0.254  79.310 116.853  0.00  0.00    -0.090 HD
ENDBRANCH   5  18
BRANCH   3  22
ATOM     22  C   LIG d   1      -2.273  78.463 111.946  0.00  0.00     0.382 C 
ATOM     23  O   LIG d   1      -1.670  79.445 111.448  0.00  0.00    -0.241 OA
ATOM     24  O   LIG d   1      -2.977  77.741 111.216  0.00  0.00    -0.241 OA
ENDBRANCH   3  22
TORSDOF 7
ENDMDL
MODEL 4
REMARK VINA RESULT:      -4.7      1.533      2.255
REMARK  7 active torsions:
REMARK  status: ('A' for Active; 'I' for Inactive)
REMARK    1  A    between atoms: C_2  and  C_3 
REMARK    2  A    between atoms: C_3  and  O_6 
REMARK    3  A    between atoms: C_3  and  C_4 
REMARK    4  A    between atoms: C_7  and  O_6 
REMARK    5  A    between atoms: C_9  and  C_10 
REMARK    6  A    between atoms: N_15  and  C_14 
REMARK    7  A    between atoms: N_20  and  C_19 
REMARK       I    between atoms: C_22  and  N_20 
ROOT
ATOM      1  C   LIG d   1      -2.520  79.020 116.715  0.00  0.00     0.161 C 
ATOM      2  C   LIG d   1      -2.869  79.795 115.597  0.00  0.00     0.016 C 
ATOM      3  C   LIG d   1      -2.440  79.501 114.282  0.00  0.00     0.038 C 
ATOM      4  C   LIG d   1      -1.753  78.317 113.974  0.00  0.00     0.028 C 
ATOM      5  C   LIG d   1      -0.947  77.762 115.143  0.00  0.00    -0.047 C 
ATOM      6  C   LIG d   1      -1.864  77.663 116.383  0.00  0.00     0.091 C 
ENDROOT
BRANCH   1   7
ATOM      7  O   LIG d   1      -3.676  78.825 117.554  0.00  0.00    -0.368 OA
BRANCH   7   8
ATOM      8  C   LIG d   1      -4.824  78.204 116.924  0.00  0.00     0.119 C 
BRANCH   8   9
ATOM      9  C   LIG d   1      -6.075  78.986 117.368  0.00  0.00     0.028 C 
ATOM     10  C   LIG d   1      -5.778  80.474 117.622  0.00  0.00     0.006 C 
ENDBRANCH   8   9
BRANCH   8  11
ATOM     11  C   LIG d   1      -5.035  76.776 117.435  0.00  0.00     0.028 C 
ATOM     12  C   LIG d   1      -4.966  75.726 116.315  0.00  0.00     0.006 C 
ENDBRANCH   8  11
ENDBRANCH   7   8
ENDBRANCH   1   7
BRANCH   6  13
ATOM     13  N   LIG d   1      -1.133  77.208 117.594  0.00  0.00    -0.311 N 
ATOM     14  C   LIG d   1      -1.081  75.936 117.985  0.00  0.00     0.210 C 
ATOM     15  C   LIG d   1      -0.290  75.687 119.272  0.00  0.00     0.109 C 
ATOM     16  O   LIG d   1      -1.588  74.986 117.369  0.00  0.00    -0.276 OA
ATOM     17  H   LIG d   1      -0.667  77.910 118.136  0.00  0.00     0.149 HD
ENDBRANCH   6  13
BRANCH   5  18
ATOM     18  N   LIG d   1      -0.395  76.459 114.726  0.00  0.00     0.381 N 
ATOM     19  H   LIG d   1      -1.106  75.920 114.274  0.00  0.00    -0.090 HD
ATOM     20  H   LIG d   1      -0.091  75.959 115.542  0.00  0.00    -0.090 HD
ATOM     21  H   LIG d   1       0.372  76.597 114.106  0.00  0.00    -0.090 HD
ENDBRANCH   5  18
BRANCH   3  22
ATOM     22  C   LIG d   1      -2.664  80.417 113.265  0.00  0.00     0.382 C 
ATOM     23  O   LIG d   1      -2.144  80.240 112.137  0.00  0.00    -0.241 OA
ATOM     24  O   LIG d   1      -3.342  81.440 113.475  0.00  0.00    -0.241 OA
ENDBRANCH   3  22
TORSDOF 7
ENDMDL
MODEL 5
REMARK VINA RESULT:      -4.6      3.189      5.207
REMARK  7 active torsions:
REMARK  status: ('A' for Active; 'I' for Inactive)
REMARK    1  A    between atoms: C_2  and  C_3 
REMARK    2  A    between atoms: C_3  and  O_6 
REMARK    3  A    between atoms: C_3  and  C_4 
REMARK    4  A    between atoms: C_7  and  O_6 
REMARK    5  A    between atoms: C_9  and  C_10 
REMARK    6  A    between atoms: N_15  and  C_14 
REMARK    7  A    between atoms: N_20  and  C_19 
REMARK       I    between atoms: C_22  and  N_20 
ROOT
ATOM      1  C   LIG d   1      -1.413  76.636 114.911  0.00  0.00     0.161 C 
ATOM      2  C   LIG d   1      -1.020  76.794 116.250  0.00  0.00     0.016 C 
ATOM      3  C   LIG d   1      -0.798  78.053 116.853  0.00  0.00     0.038 C 
ATOM      4  C   LIG d   1      -1.104  79.254 116.195  0.00  0.00     0.028 C 
ATOM      5  C   LIG d   1      -1.021  79.150 114.676  0.00  0.00    -0.047 C 
ATOM      6  C   LIG d   1      -1.858  77.936 114.210  0.00  0.00     0.091 C 
ENDROOT
BRANCH   1   7
ATOM      7  O   LIG d   1      -2.449  75.638 114.820  0.00  0.00    -0.368 OA
BRANCH   7   8
ATOM      8  C   LIG d   1      -3.530  75.753 115.777  0.00  0.00     0.119 C 
BRANCH   8   9
ATOM      9  C   LIG d   1      -3.682  74.385 116.471  0.00  0.00     0.028 C 
ATOM     10  C   LIG d   1      -3.371  74.453 117.976  0.00  0.00     0.006 C 
ENDBRANCH   8   9
BRANCH   8  11
ATOM     11  C   LIG d   1      -4.869  76.004 115.078  0.00  0.00     0.028 C 
ATOM     12  C   LIG d   1      -5.764  74.754 115.038  0.00  0.00     0.006 C 
ENDBRANCH   8  11
ENDBRANCH   7   8
ENDBRANCH   1   7
BRANCH   6  13
ATOM     13  N   LIG d   1      -1.764  77.712 112.744  0.00  0.00    -0.311 N 
ATOM     14  C   LIG d   1      -2.815  77.756 111.927  0.00  0.00     0.210 C 
ATOM     15  C   LIG d   1      -2.500  77.476 110.454  0.00  0.00     0.109 C 
ATOM     16  O   LIG d   1      -3.972  78.032 112.277  0.00  0.00    -0.276 OA
ATOM     17  H   LIG d   1      -0.857  77.512 112.370  0.00  0.00     0.149 HD
ENDBRANCH   6  13
BRANCH   5  18
ATOM     18  N   LIG d   1      -1.496  80.429 114.115  0.00  0.00     0.381 N 
ATOM     19  H   LIG d   1      -0.879  81.168 114.387  0.00  0.00    -0.090 HD
ATOM     20  H   LIG d   1      -2.409  80.628 114.486  0.00  0.00    -0.090 HD
ATOM     21  H   LIG d   1      -1.540  80.371 113.121  0.00  0.00    -0.090 HD
ENDBRANCH   5  18
BRANCH   3  22
ATOM     22  C   LIG d   1      -0.228  78.121 118.115  0.00  0.00     0.382 C 
ATOM     23  O   LIG d   1      -0.479  77.232 118.965  0.00  0.00    -0.241 OA
ATOM     24  O   LIG d   1       0.499  79.082 118.429  0.00  0.00    -0.241 OA
ENDBRANCH   3  22
TORSDOF 7
ENDMDL
MODEL 6
REMARK VINA RESULT:      -4.5      2.719      3.328
REMARK  7 active torsions:
REMARK  status: ('A' for Active; 'I' for Inactive)
REMARK    1  A    between atoms: C_2  and  C_3 
REMARK    2  A    between atoms: C_3  and  O_6 
REMARK    3  A    between atoms: C_3  and  C_4 
REMARK    4  A    between atoms: C_7  and  O_6 
REMARK    5  A    between atoms: C_9  and  C_10 
REMARK    6  A    between atoms: N_15  and  C_14 
REMARK    7  A    between atoms: N_20  and  C_19 
REMARK       I    between atoms: C_22  and  N_20 
ROOT
ATOM      1  C   LIG d   1      -3.316  78.432 116.938  0.00  0.00     0.161 C 
ATOM      2  C   LIG d   1      -2.341  79.390 117.264  0.00  0.00     0.016 C 
ATOM      3  C   LIG d   1      -0.989  79.291 116.863  0.00  0.00     0.038 C 
ATOM      4  C   LIG d   1      -0.549  78.299 115.975  0.00  0.00     0.028 C 
ATOM      5  C   LIG d   1      -1.387  77.025 116.027  0.00  0.00    -0.047 C 
ATOM      6  C   LIG d   1      -2.879  77.400 115.877  0.00  0.00     0.091 C 
ENDROOT
BRANCH   1   7
ATOM      7  O   LIG d   1      -4.529  79.091 116.526  0.00  0.00    -0.368 OA
BRANCH   7   8
ATOM      8  C   LIG d   1      -5.491  79.368 117.574  0.00  0.00     0.119 C 
BRANCH   8   9
ATOM      9  C   LIG d   1      -6.761  78.552 117.263  0.00  0.00     0.028 C 
ATOM     10  C   LIG d   1      -6.764  77.181 117.960  0.00  0.00     0.006 C 
ENDBRANCH   8   9
BRANCH   8  11
ATOM     11  C   LIG d   1      -5.935  80.833 117.550  0.00  0.00     0.028 C 
ATOM     12  C   LIG d   1      -7.457  80.998 117.689  0.00  0.00     0.006 C 
ENDBRANCH   8  11
ENDBRANCH   7   8
ENDBRANCH   1   7
BRANCH   6  13
ATOM     13  N   LIG d   1      -3.775  76.221 116.001  0.00  0.00    -0.311 N 
ATOM     14  C   LIG d   1      -4.669  75.879 115.075  0.00  0.00     0.210 C 
ATOM     15  C   LIG d   1      -5.505  74.640 115.410  0.00  0.00     0.109 C 
ATOM     16  O   LIG d   1      -4.827  76.465 113.994  0.00  0.00    -0.276 OA
ATOM     17  H   LIG d   1      -3.692  75.671 116.833  0.00  0.00     0.149 HD
ENDBRANCH   6  13
BRANCH   5  18
ATOM     18  N   LIG d   1      -0.905  76.131 114.957  0.00  0.00     0.381 N 
ATOM     19  H   LIG d   1      -1.131  76.520 114.063  0.00  0.00    -0.090 HD
ATOM     20  H   LIG d   1      -1.369  75.244 115.042  0.00  0.00    -0.090 HD
ATOM     21  H   LIG d   1       0.080  76.007 115.034  0.00  0.00    -0.090 HD
ENDBRANCH   5  18
BRANCH   3  22
ATOM     22  C   LIG d   1      -0.052  80.171 117.385  0.00  0.00     0.382 C 
ATOM     23  O   LIG d   1       1.127  79.787 117.580  0.00  0.00    -0.241 OA
ATOM     24  O   LIG d   1      -0.381  81.329 117.703  0.00  0.00    -0.241 OA
ENDBRANCH   3  22
TORSDOF 7
ENDMDL
MODEL 7
REMARK VINA RESULT:      -4.4      2.121      4.122
REMARK  7 active torsions:
REMARK  status: ('A' for Active; 'I' for Inactive)
REMARK    1  A    between atoms: C_2  and  C_3 
REMARK    2  A    between atoms: C_3  and  O_6 
REMARK    3  A    between atoms: C_3  and  C_4 
REMARK    4  A    between atoms: C_7  and  O_6 
REMARK    5  A    between atoms: C_9  and  C_10 
REMARK    6  A    between atoms: N_15  and  C_14 
REMARK    7  A    between atoms: N_20  and  C_19 
REMARK       I    between atoms: C_22  and  N_20 
ROOT
ATOM      1  C   LIG d   1      -3.379  77.069 115.010  0.00  0.00     0.161 C 
ATOM      2  C   LIG d   1      -3.116  77.223 113.639  0.00  0.00     0.016 C 
ATOM      3  C   LIG d   1      -2.232  78.197 113.121  0.00  0.00     0.038 C 
ATOM      4  C   LIG d   1      -1.429  78.989 113.956  0.00  0.00     0.028 C 
ATOM      5  C   LIG d   1      -2.032  79.215 115.338  0.00  0.00    -0.047 C 
ATOM      6  C   LIG d   1      -2.429  77.849 115.943  0.00  0.00     0.091 C 
ENDROOT
BRANCH   1   7
ATOM      7  O   LIG d   1      -3.379  75.669 115.353  0.00  0.00    -0.368 OA
BRANCH   7   8
ATOM      8  C   LIG d   1      -4.672  75.084 115.646  0.00  0.00     0.119 C 
BRANCH   8   9
ATOM      9  C   LIG d   1      -5.748  76.094 115.202  0.00  0.00     0.028 C 
ATOM     10  C   LIG d   1      -6.752  76.413 116.322  0.00  0.00     0.006 C 
ENDBRANCH   8   9
BRANCH   8  11
ATOM     11  C   LIG d   1      -4.877  74.911 117.154  0.00  0.00     0.028 C 
ATOM     12  C   LIG d   1      -3.615  74.408 117.873  0.00  0.00     0.006 C 
ENDBRANCH   8  11
ENDBRANCH   7   8
ENDBRANCH   1   7
BRANCH   6  13
ATOM     13  N   LIG d   1      -3.103  77.986 117.260  0.00  0.00    -0.311 N 
ATOM     14  C   LIG d   1      -4.178  78.748 117.457  0.00  0.00     0.210 C 
ATOM     15  C   LIG d   1      -4.704  78.764 118.896  0.00  0.00     0.109 C 
ATOM     16  O   LIG d   1      -4.765  79.386 116.571  0.00  0.00    -0.276 OA
ATOM     17  H   LIG d   1      -2.712  77.478 118.028  0.00  0.00     0.149 HD
ENDBRANCH   6  13
BRANCH   5  18
ATOM     18  N   LIG d   1      -1.032  79.937 116.147  0.00  0.00     0.381 N 
ATOM     19  H   LIG d   1      -1.450  80.749 116.556  0.00  0.00    -0.090 HD
ATOM     20  H   LIG d   1      -0.283  80.236 115.548  0.00  0.00    -0.090 HD
ATOM     21  H   LIG d   1      -0.678  79.341 116.863  0.00  0.00    -0.090 HD
ENDBRANCH   5  18
BRANCH   3  22
ATOM     22  C   LIG d   1      -2.174  78.414 111.753  0.00  0.00     0.382 C 
ATOM     23  O   LIG d   1      -1.520  79.384 111.299  0.00  0.00    -0.241 OA
ATOM     24  O   LIG d   1      -2.804  77.679 110.969  0.00  0.00    -0.241 OA
ENDBRANCH   3  22
TORSDOF 7
ENDMDL
MODEL 8
REMARK VINA RESULT:      -4.4      1.261      2.028
REMARK  7 active torsions:
REMARK  status: ('A' for Active; 'I' for Inactive)
REMARK    1  A    between atoms: C_2  and  C_3 
REMARK    2  A    between atoms: C_3  and  O_6 
REMARK    3  A    between atoms: C_3  and  C_4 
REMARK    4  A    between atoms: C_7  and  O_6 
REMARK    5  A    between atoms: C_9  and  C_10 
REMARK    6  A    between atoms: N_15  and  C_14 
REMARK    7  A    between atoms: N_20  and  C_19 
REMARK       I    between atoms: C_22  and  N_20 
ROOT
ATOM      1  C   LIG d   1      -3.093  78.880 115.966  0.00  0.00     0.161 C 
ATOM      2  C   LIG d   1      -3.111  79.892 114.992  0.00  0.00     0.016 C 
ATOM      3  C   LIG d   1      -2.477  79.773 113.734  0.00  0.00     0.038 C 
ATOM      4  C   LIG d   1      -1.908  78.565 113.302  0.00  0.00     0.028 C 
ATOM      5  C   LIG d   1      -1.426  77.679 114.446  0.00  0.00    -0.047 C 
ATOM      6  C   LIG d   1      -2.573  77.514 115.470  0.00  0.00     0.091 C 
ENDROOT
BRANCH   1   7
ATOM      7  O   LIG d   1      -4.406  78.735 116.544  0.00  0.00    -0.368 OA
BRANCH   7   8
ATOM      8  C   LIG d   1      -4.587  79.304 117.864  0.00  0.00     0.119 C 
BRANCH   8   9
ATOM      9  C   LIG d   1      -5.434  80.582 117.705  0.00  0.00     0.028 C 
ATOM     10  C   LIG d   1      -6.945  80.292 117.733  0.00  0.00     0.006 C 
ENDBRANCH   8   9
BRANCH   8  11
ATOM     11  C   LIG d   1      -3.255  79.772 118.457  0.00  0.00     0.028 C 
ATOM     12  C   LIG d   1      -3.363  81.131 119.167  0.00  0.00     0.006 C 
ENDBRANCH   8  11
ENDBRANCH   7   8
ENDBRANCH   1   7
BRANCH   6  13
ATOM     13  N   LIG d   1      -2.159  76.731 116.663  0.00  0.00    -0.311 N 
ATOM     14  C   LIG d   1      -1.070  77.005 117.379  0.00  0.00     0.210 C 
ATOM     15  C   LIG d   1      -0.816  76.060 118.557  0.00  0.00     0.109 C 
ATOM     16  O   LIG d   1      -0.308  77.961 117.169  0.00  0.00    -0.276 OA
ATOM     17  H   LIG d   1      -2.737  75.956 116.923  0.00  0.00     0.149 HD
ENDBRANCH   6  13
BRANCH   5  18
ATOM     18  N   LIG d   1      -0.984  76.399 113.863  0.00  0.00     0.381 N 
ATOM     19  H   LIG d   1      -0.524  75.850 114.561  0.00  0.00    -0.090 HD
ATOM     20  H   LIG d   1      -0.326  76.588 113.126  0.00  0.00    -0.090 HD
ATOM     21  H   LIG d   1      -1.766  75.901 113.500  0.00  0.00    -0.090 HD
ENDBRANCH   5  18
BRANCH   3  22
ATOM     22  C   LIG d   1      -2.374  80.882 112.908  0.00  0.00     0.382 C 
ATOM     23  O   LIG d   1      -1.505  80.911 112.003  0.00  0.00    -0.241 OA
ATOM     24  O   LIG d   1      -3.109  81.872 113.085  0.00  0.00    -0.241 OA
ENDBRANCH   3  22
TORSDOF 7
ENDMDL
MODEL 9
REMARK VINA RESULT:      -4.3      2.682      5.095
REMARK  7 active torsions:
REMARK  status: ('A' for Active; 'I' for Inactive)
REMARK    1  A    between atoms: C_2  and  C_3 
REMARK    2  A    between atoms: C_3  and  O_6 
REMARK    3  A    between atoms: C_3  and  C_4 
REMARK    4  A    between atoms: C_7  and  O_6 
REMARK    5  A    between atoms: C_9  and  C_10 
REMARK    6  A    between atoms: N_15  and  C_14 
REMARK    7  A    between atoms: N_20  and  C_19 
REMARK       I    between atoms: C_22  and  N_20 
ROOT
ATOM      1  C   LIG d   1      -1.990  76.280 115.787  0.00  0.00     0.161 C 
ATOM      2  C   LIG d   1      -3.223  76.048 115.155  0.00  0.00     0.016 C 
ATOM      3  C   LIG d   1      -4.377  75.602 115.840  0.00  0.00     0.038 C 
ATOM      4  C   LIG d   1      -4.417  75.502 117.239  0.00  0.00     0.028 C 
ATOM      5  C   LIG d   1      -3.052  75.241 117.866  0.00  0.00    -0.047 C 
ATOM      6  C   LIG d   1      -2.045  76.283 117.329  0.00  0.00     0.091 C 
ENDROOT
BRANCH   1   7
ATOM      7  O   LIG d   1      -1.417  77.510 115.303  0.00  0.00    -0.368 OA
BRANCH   7   8
ATOM      8  C   LIG d   1      -2.355  78.502 114.815  0.00  0.00     0.119 C 
BRANCH   8   9
ATOM      9  C   LIG d   1      -1.757  79.113 113.533  0.00  0.00     0.028 C 
ATOM     10  C   LIG d   1      -2.497  78.656 112.265  0.00  0.00     0.006 C 
ENDBRANCH   8   9
BRANCH   8  11
ATOM     11  C   LIG d   1      -2.491  79.670 115.796  0.00  0.00     0.028 C 
ATOM     12  C   LIG d   1      -3.768  79.586 116.648  0.00  0.00     0.006 C 
ENDBRANCH   8  11
ENDBRANCH   7   8
ENDBRANCH   1   7
BRANCH   6  13
ATOM     13  N   LIG d   1      -0.665  76.048 117.828  0.00  0.00    -0.311 N 
ATOM     14  C   LIG d   1      -0.175  76.621 118.926  0.00  0.00     0.210 C 
ATOM     15  C   LIG d   1       1.277  76.257 119.252  0.00  0.00     0.109 C 
ATOM     16  O   LIG d   1      -0.815  77.370 119.679  0.00  0.00    -0.276 OA
ATOM     17  H   LIG d   1      -0.086  75.428 117.295  0.00  0.00     0.149 HD
ENDBRANCH   6  13
BRANCH   5  18
ATOM     18  N   LIG d   1      -3.217  75.298 119.331  0.00  0.00     0.381 N 
ATOM     19  H   LIG d   1      -3.465  76.226 119.608  0.00  0.00    -0.090 HD
ATOM     20  H   LIG d   1      -2.342  75.062 119.766  0.00  0.00    -0.090 HD
ATOM     21  H   LIG d   1      -3.923  74.657 119.620  0.00  0.00    -0.090 HD
ENDBRANCH   5  18
BRANCH   3  22
ATOM     22  C   LIG d   1      -5.496  75.212 115.120  0.00  0.00     0.382 C 
ATOM     23  O   LIG d   1      -6.178  74.231 115.504  0.00  0.00    -0.241 OA
ATOM     24  O   LIG d   1      -5.807  75.801 114.067  0.00  0.00    -0.241 OA
ENDBRANCH   3  22
TORSDOF 7
ENDMDL
