MODEL 1
REMARK VINA RESULT:      -5.4      0.000      0.000
REMARK  7 active torsions:
REMARK  status: ('A' for Active; 'I' for Inactive)
REMARK    1  A    between atoms: C_2  and  C_3 
REMARK    2  A    between atoms: C_3  and  O_6 
REMARK    3  A    between atoms: C_3  and  C_4 
REMARK    4  A    between atoms: C_7  and  O_6 
REMARK    5  A    between atoms: C_9  and  C_10 
REMARK    6  A    between atoms: N_15  and  C_14 
REMARK    7  A    between atoms: N_20  and  C_19 
REMARK       I    between atoms: C_22  and  N_20 
ROOT
ATOM      1  C   LIG d   1      -3.394  77.467 114.623  0.00  0.00     0.161 C 
ATOM      2  C   LIG d   1      -3.352  77.854 113.273  0.00  0.00     0.016 C 
ATOM      3  C   LIG d   1      -2.224  77.658 112.443  0.00  0.00     0.038 C 
ATOM      4  C   LIG d   1      -1.109  76.920 112.868  0.00  0.00     0.028 C 
ATOM      5  C   LIG d   1      -0.904  76.950 114.379  0.00  0.00    -0.047 C 
ATOM      6  C   LIG d   1      -2.229  76.562 115.074  0.00  0.00     0.091 C 
ENDROOT
BRANCH   1   7
ATOM      7  O   LIG d   1      -4.658  76.838 114.912  0.00  0.00    -0.368 OA
BRANCH   7   8
ATOM      8  C   LIG d   1      -4.672  75.389 114.877  0.00  0.00     0.119 C 
BRANCH   8   9
ATOM      9  C   LIG d   1      -5.602  74.962 113.726  0.00  0.00     0.028 C 
ATOM     10  C   LIG d   1      -6.779  75.933 113.531  0.00  0.00     0.006 C 
ENDBRANCH   8   9
BRANCH   8  11
ATOM     11  C   LIG d   1      -5.303  74.808 116.146  0.00  0.00     0.028 C 
ATOM     12  C   LIG d   1      -5.792  75.892 117.119  0.00  0.00     0.006 C 
ENDBRANCH   8  11
ENDBRANCH   7   8
ENDBRANCH   1   7
BRANCH   6  13
ATOM     13  N   LIG d   1      -2.139  76.648 116.555  0.00  0.00    -0.311 N 
ATOM     14  C   LIG d   1      -1.927  75.592 117.339  0.00  0.00     0.210 C 
ATOM     15  C   LIG d   1      -1.889  75.898 118.839  0.00  0.00     0.109 C 
ATOM     16  O   LIG d   1      -1.734  74.436 116.932  0.00  0.00    -0.276 OA
ATOM     17  H   LIG d   1      -2.253  77.553 116.967  0.00  0.00     0.149 HD
ENDBRANCH   6  13
BRANCH   5  18
ATOM     18  N   LIG d   1       0.206  76.032 114.696  0.00  0.00     0.381 N 
ATOM     19  H   LIG d   1       0.583  75.651 113.851  0.00  0.00    -0.090 HD
ATOM     20  H   LIG d   1      -0.148  75.274 115.253  0.00  0.00    -0.090 HD
ATOM     21  H   LIG d   1       0.918  76.517 115.197  0.00  0.00    -0.090 HD
ENDBRANCH   5  18
BRANCH   3  22
ATOM     22  C   LIG d   1      -2.189  78.238 111.184  0.00  0.00     0.382 C 
ATOM     23  O   LIG d   1      -2.846  77.732 110.242  0.00  0.00    -0.241 OA
ATOM     24  O   LIG d   1      -1.473  79.234 110.967  0.00  0.00    -0.241 OA
ENDBRANCH   3  22
TORSDOF 7
ENDMDL
MODEL 2
REMARK VINA RESULT:      -5.3      1.886      2.491
REMARK  7 active torsions:
REMARK  status: ('A' for Active; 'I' for Inactive)
REMARK    1  A    between atoms: C_2  and  C_3 
REMARK    2  A    between atoms: C_3  and  O_6 
REMARK    3  A    between atoms: C_3  and  C_4 
REMARK    4  A    between atoms: C_7  and  O_6 
REMARK    5  A    between atoms: C_9  and  C_10 
REMARK    6  A    between atoms: N_15  and  C_14 
REMARK    7  A    between atoms: N_20  and  C_19 
REMARK       I    between atoms: C_22  and  N_20 
ROOT
ATOM      1  C   LIG d   1      -2.566  78.432 116.349  0.00  0.00     0.161 C 
ATOM      2  C   LIG d   1      -2.992  79.035 115.154  0.00  0.00     0.016 C 
ATOM      3  C   LIG d   1      -2.428  78.743 113.891  0.00  0.00     0.038 C 
ATOM      4  C   LIG d   1      -1.496  77.709 113.717  0.00  0.00     0.028 C 
ATOM      5  C   LIG d   1      -0.671  77.420 114.966  0.00  0.00    -0.047 C 
ATOM      6  C   LIG d   1      -1.628  77.221 116.164  0.00  0.00     0.091 C 
ENDROOT
BRANCH   1   7
ATOM      7  O   LIG d   1      -3.710  78.061 117.144  0.00  0.00    -0.368 OA
BRANCH   7   8
ATOM      8  C   LIG d   1      -4.927  77.768 116.413  0.00  0.00     0.119 C 
BRANCH   8   9
ATOM      9  C   LIG d   1      -6.107  78.314 117.240  0.00  0.00     0.028 C 
ATOM     10  C   LIG d   1      -5.985  79.822 117.513  0.00  0.00     0.006 C 
ENDBRANCH   8   9
BRANCH   8  11
ATOM     11  C   LIG d   1      -5.166  76.259 116.312  0.00  0.00     0.028 C 
ATOM     12  C   LIG d   1      -4.956  75.717 114.889  0.00  0.00     0.006 C 
ENDBRANCH   8  11
ENDBRANCH   7   8
ENDBRANCH   1   7
BRANCH   6  13
ATOM     13  N   LIG d   1      -0.900  77.017 117.443  0.00  0.00    -0.311 N 
ATOM     14  C   LIG d   1      -1.213  76.065 118.321  0.00  0.00     0.210 C 
ATOM     15  C   LIG d   1      -0.347  76.041 119.585  0.00  0.00     0.109 C 
ATOM     16  O   LIG d   1      -2.104  75.219 118.159  0.00  0.00    -0.276 OA
ATOM     17  H   LIG d   1      -0.141  77.640 117.641  0.00  0.00     0.149 HD
ENDBRANCH   6  13
BRANCH   5  18
ATOM     18  N   LIG d   1       0.160  76.234 114.687  0.00  0.00     0.381 N 
ATOM     19  H   LIG d   1       0.123  75.604 115.463  0.00  0.00    -0.090 HD
ATOM     20  H   LIG d   1       1.113  76.526 114.563  0.00  0.00    -0.090 HD
ATOM     21  H   LIG d   1      -0.165  75.776 113.863  0.00  0.00    -0.090 HD
ENDBRANCH   5  18
BRANCH   3  22
ATOM     22  C   LIG d   1      -2.767  79.517 112.792  0.00  0.00     0.382 C 
ATOM     23  O   LIG d   1      -2.282  79.252 111.665  0.00  0.00    -0.241 OA
ATOM     24  O   LIG d   1      -3.516  80.504 112.921  0.00  0.00    -0.241 OA
ENDBRANCH   3  22
TORSDOF 7
ENDMDL
MODEL 3
REMARK VINA RESULT:      -5.3      1.908      2.565
REMARK  7 active torsions:
REMARK  status: ('A' for Active; 'I' for Inactive)
REMARK    1  A    between atoms: C_2  and  C_3 
REMARK    2  A    between atoms: C_3  and  O_6 
REMARK    3  A    between atoms: C_3  and  C_4 
REMARK    4  A    between atoms: C_7  and  O_6 
REMARK    5  A    between atoms: C_9  and  C_10 
REMARK    6  A    between atoms: N_15  and  C_14 
REMARK    7  A    between atoms: N_20  and  C_19 
REMARK       I    between atoms: C_22  and  N_20 
ROOT
ATOM      1  C   LIG d   1      -3.247  78.534 115.631  0.00  0.00     0.161 C 
ATOM      2  C   LIG d   1      -3.202  79.355 114.493  0.00  0.00     0.016 C 
ATOM      3  C   LIG d   1      -2.206  79.249 113.495  0.00  0.00     0.038 C 
ATOM      4  C   LIG d   1      -1.267  78.207 113.494  0.00  0.00     0.028 C 
ATOM      5  C   LIG d   1      -0.964  77.662 114.885  0.00  0.00    -0.047 C 
ATOM      6  C   LIG d   1      -2.297  77.320 115.591  0.00  0.00     0.091 C 
ENDROOT
BRANCH   1   7
ATOM      7  O   LIG d   1      -4.602  78.103 115.870  0.00  0.00    -0.368 OA
BRANCH   7   8
ATOM      8  C   LIG d   1      -5.123  78.344 117.200  0.00  0.00     0.119 C 
BRANCH   8   9
ATOM      9  C   LIG d   1      -6.295  77.368 117.422  0.00  0.00     0.028 C 
ATOM     10  C   LIG d   1      -5.915  75.912 117.104  0.00  0.00     0.006 C 
ENDBRANCH   8   9
BRANCH   8  11
ATOM     11  C   LIG d   1      -5.733  79.744 117.314  0.00  0.00     0.028 C 
ATOM     12  C   LIG d   1      -7.125  79.736 117.967  0.00  0.00     0.006 C 
ENDBRANCH   8  11
ENDBRANCH   7   8
ENDBRANCH   1   7
BRANCH   6  13
ATOM     13  N   LIG d   1      -2.095  76.859 116.989  0.00  0.00    -0.311 N 
ATOM     14  C   LIG d   1      -2.034  75.575 117.337  0.00  0.00     0.210 C 
ATOM     15  C   LIG d   1      -1.842  75.318 118.835  0.00  0.00     0.109 C 
ATOM     16  O   LIG d   1      -2.089  74.624 116.542  0.00  0.00    -0.276 OA
ATOM     17  H   LIG d   1      -2.010  77.565 117.694  0.00  0.00     0.149 HD
ENDBRANCH   6  13
BRANCH   5  18
ATOM     18  N   LIG d   1      -0.079  76.493 114.724  0.00  0.00     0.381 N 
ATOM     19  H   LIG d   1      -0.575  75.657 114.959  0.00  0.00    -0.090 HD
ATOM     20  H   LIG d   1       0.699  76.585 115.353  0.00  0.00    -0.090 HD
ATOM     21  H   LIG d   1       0.249  76.441 113.784  0.00  0.00    -0.090 HD
ENDBRANCH   5  18
BRANCH   3  22
ATOM     22  C   LIG d   1      -2.118  80.216 112.506  0.00  0.00     0.382 C 
ATOM     23  O   LIG d   1      -1.303  80.075 111.562  0.00  0.00    -0.241 OA
ATOM     24  O   LIG d   1      -2.811  81.249 112.569  0.00  0.00    -0.241 OA
ENDBRANCH   3  22
TORSDOF 7
ENDMDL
MODEL 4
REMARK VINA RESULT:      -5.2      1.845      4.899
REMARK  7 active torsions:
REMARK  status: ('A' for Active; 'I' for Inactive)
REMARK    1  A    between atoms: C_2  and  C_3 
REMARK    2  A    between atoms: C_3  and  O_6 
REMARK    3  A    between atoms: C_3  and  C_4 
REMARK    4  A    between atoms: C_7  and  O_6 
REMARK    5  A    between atoms: C_9  and  C_10 
REMARK    6  A    between atoms: N_15  and  C_14 
REMARK    7  A    between atoms: N_20  and  C_19 
REMARK       I    between atoms: C_22  and  N_20 
ROOT
ATOM      1  C   LIG d   1      -2.088  75.828 115.006  0.00  0.00     0.161 C 
ATOM      2  C   LIG d   1      -1.951  75.543 116.375  0.00  0.00     0.016 C 
ATOM      3  C   LIG d   1      -1.331  76.420 117.294  0.00  0.00     0.038 C 
ATOM      4  C   LIG d   1      -0.938  77.717 116.931  0.00  0.00     0.028 C 
ATOM      5  C   LIG d   1      -0.599  77.856 115.450  0.00  0.00    -0.047 C 
ATOM      6  C   LIG d   1      -1.766  77.284 114.613  0.00  0.00     0.091 C 
ENDROOT
BRANCH   1   7
ATOM      7  O   LIG d   1      -3.413  75.471 114.563  0.00  0.00    -0.368 OA
BRANCH   7   8
ATOM      8  C   LIG d   1      -4.446  75.471 115.579  0.00  0.00     0.119 C 
BRANCH   8   9
ATOM      9  C   LIG d   1      -5.411  74.313 115.258  0.00  0.00     0.028 C 
ATOM     10  C   LIG d   1      -6.599  74.253 116.232  0.00  0.00     0.006 C 
ENDBRANCH   8   9
BRANCH   8  11
ATOM     11  C   LIG d   1      -5.298  76.741 115.506  0.00  0.00     0.028 C 
ATOM     12  C   LIG d   1      -4.956  77.753 116.611  0.00  0.00     0.006 C 
ENDBRANCH   8  11
ENDBRANCH   7   8
ENDBRANCH   1   7
BRANCH   6  13
ATOM     13  N   LIG d   1      -1.479  77.304 113.155  0.00  0.00    -0.311 N 
ATOM     14  C   LIG d   1      -2.275  77.885 112.259  0.00  0.00     0.210 C 
ATOM     15  C   LIG d   1      -1.804  77.772 110.805  0.00  0.00     0.109 C 
ATOM     16  O   LIG d   1      -3.310  78.512 112.533  0.00  0.00    -0.276 OA
ATOM     17  H   LIG d   1      -0.644  76.846 112.848  0.00  0.00     0.149 HD
ENDBRANCH   6  13
BRANCH   5  18
ATOM     18  N   LIG d   1      -0.341  79.283 115.184  0.00  0.00     0.381 N 
ATOM     19  H   LIG d   1      -0.654  79.835 115.958  0.00  0.00    -0.090 HD
ATOM     20  H   LIG d   1      -0.858  79.561 114.369  0.00  0.00    -0.090 HD
ATOM     21  H   LIG d   1       0.633  79.432 115.034  0.00  0.00    -0.090 HD
ENDBRANCH   5  18
BRANCH   3  22
ATOM     22  C   LIG d   1      -1.062  75.987 118.583  0.00  0.00     0.382 C 
ATOM     23  O   LIG d   1      -1.851  75.198 119.157  0.00  0.00    -0.241 OA
ATOM     24  O   LIG d   1      -0.064  76.410 119.196  0.00  0.00    -0.241 OA
ENDBRANCH   3  22
TORSDOF 7
ENDMDL
MODEL 5
REMARK VINA RESULT:      -5.1      2.319      2.932
REMARK  7 active torsions:
REMARK  status: ('A' for Active; 'I' for Inactive)
REMARK    1  A    between atoms: C_2  and  C_3 
REMARK    2  A    between atoms: C_3  and  O_6 
REMARK    3  A    between atoms: C_3  and  C_4 
REMARK    4  A    between atoms: C_7  and  O_6 
REMARK    5  A    between atoms: C_9  and  C_10 
REMARK    6  A    between atoms: N_15  and  C_14 
REMARK    7  A    between atoms: N_20  and  C_19 
REMARK       I    between atoms: C_22  and  N_20 
ROOT
ATOM      1  C   LIG d   1      -3.159  78.360 115.938  0.00  0.00     0.161 C 
ATOM      2  C   LIG d   1      -3.249  79.167 114.792  0.00  0.00     0.016 C 
ATOM      3  C   LIG d   1      -2.334  79.095 113.716  0.00  0.00     0.038 C 
ATOM      4  C   LIG d   1      -1.347  78.101 113.647  0.00  0.00     0.028 C 
ATOM      5  C   LIG d   1      -0.904  77.590 115.014  0.00  0.00    -0.047 C 
ATOM      6  C   LIG d   1      -2.155  77.193 115.831  0.00  0.00     0.091 C 
ENDROOT
BRANCH   1   7
ATOM      7  O   LIG d   1      -4.466  77.866 116.292  0.00  0.00    -0.368 OA
BRANCH   7   8
ATOM      8  C   LIG d   1      -4.936  78.200 117.621  0.00  0.00     0.119 C 
BRANCH   8   9
ATOM      9  C   LIG d   1      -6.324  78.851 117.471  0.00  0.00     0.028 C 
ATOM     10  C   LIG d   1      -6.278  80.378 117.651  0.00  0.00     0.006 C 
ENDBRANCH   8   9
BRANCH   8  11
ATOM     11  C   LIG d   1      -4.054  79.269 118.271  0.00  0.00     0.028 C 
ATOM     12  C   LIG d   1      -3.499  78.834 119.637  0.00  0.00     0.006 C 
ENDBRANCH   8  11
ENDBRANCH   7   8
ENDBRANCH   1   7
BRANCH   6  13
ATOM     13  N   LIG d   1      -1.817  76.762 117.212  0.00  0.00    -0.311 N 
ATOM     14  C   LIG d   1      -2.098  75.551 117.692  0.00  0.00     0.210 C 
ATOM     15  C   LIG d   1      -1.681  75.320 119.148  0.00  0.00     0.109 C 
ATOM     16  O   LIG d   1      -2.624  74.637 117.040  0.00  0.00    -0.276 OA
ATOM     17  H   LIG d   1      -1.361  77.431 117.800  0.00  0.00     0.149 HD
ENDBRANCH   6  13
BRANCH   5  18
ATOM     18  N   LIG d   1       0.022  76.464 114.791  0.00  0.00     0.381 N 
ATOM     19  H   LIG d   1      -0.485  75.602 114.798  0.00  0.00    -0.090 HD
ATOM     20  H   LIG d   1       0.693  76.442 115.539  0.00  0.00    -0.090 HD
ATOM     21  H   LIG d   1       0.490  76.576 113.918  0.00  0.00    -0.090 HD
ENDBRANCH   5  18
BRANCH   3  22
ATOM     22  C   LIG d   1      -2.376  80.052 112.714  0.00  0.00     0.382 C 
ATOM     23  O   LIG d   1      -3.176  81.015 112.799  0.00  0.00    -0.241 OA
ATOM     24  O   LIG d   1      -1.655  79.942 111.704  0.00  0.00    -0.241 OA
ENDBRANCH   3  22
TORSDOF 7
ENDMDL
MODEL 6
REMARK VINA RESULT:      -5.0      2.519      5.047
REMARK  7 active torsions:
REMARK  status: ('A' for Active; 'I' for Inactive)
REMARK    1  A    between atoms: C_2  and  C_3 
REMARK    2  A    between atoms: C_3  and  O_6 
REMARK    3  A    between atoms: C_3  and  C_4 
REMARK    4  A    between atoms: C_7  and  O_6 
REMARK    5  A    between atoms: C_9  and  C_10 
REMARK    6  A    between atoms: N_15  and  C_14 
REMARK    7  A    between atoms: N_20  and  C_19 
REMARK       I    between atoms: C_22  and  N_20 
ROOT
ATOM      1  C   LIG d   1      -3.248  78.371 115.428  0.00  0.00     0.161 C 
ATOM      2  C   LIG d   1      -2.016  78.874 115.878  0.00  0.00     0.016 C 
ATOM      3  C   LIG d   1      -1.053  78.086 116.550  0.00  0.00     0.038 C 
ATOM      4  C   LIG d   1      -1.193  76.697 116.684  0.00  0.00     0.028 C 
ATOM      5  C   LIG d   1      -2.646  76.233 116.692  0.00  0.00    -0.047 C 
ATOM      6  C   LIG d   1      -3.371  76.833 115.466  0.00  0.00     0.091 C 
ENDROOT
BRANCH   1   7
ATOM      7  O   LIG d   1      -3.520  78.862 114.100  0.00  0.00    -0.368 OA
BRANCH   7   8
ATOM      8  C   LIG d   1      -2.511  78.585 113.098  0.00  0.00     0.119 C 
BRANCH   8   9
ATOM      9  C   LIG d   1      -1.963  79.938 112.606  0.00  0.00     0.028 C 
ATOM     10  C   LIG d   1      -2.985  81.077 112.762  0.00  0.00     0.006 C 
ENDBRANCH   8   9
BRANCH   8  11
ATOM     11  C   LIG d   1      -3.122  77.921 111.861  0.00  0.00     0.028 C 
ATOM     12  C   LIG d   1      -2.156  77.884 110.666  0.00  0.00     0.006 C 
ENDBRANCH   8  11
ENDBRANCH   7   8
ENDBRANCH   1   7
BRANCH   6  13
ATOM     13  N   LIG d   1      -4.819  76.497 115.444  0.00  0.00    -0.311 N 
ATOM     14  C   LIG d   1      -5.388  75.769 114.485  0.00  0.00     0.210 C 
ATOM     15  C   LIG d   1      -6.897  75.558 114.642  0.00  0.00     0.109 C 
ATOM     16  O   LIG d   1      -4.781  75.251 113.535  0.00  0.00    -0.276 OA
ATOM     17  H   LIG d   1      -5.381  76.851 116.193  0.00  0.00     0.149 HD
ENDBRANCH   6  13
BRANCH   5  18
ATOM     18  N   LIG d   1      -2.643  74.758 116.698  0.00  0.00     0.381 N 
ATOM     19  H   LIG d   1      -3.523  74.419 117.031  0.00  0.00    -0.090 HD
ATOM     20  H   LIG d   1      -1.925  74.437 117.323  0.00  0.00    -0.090 HD
ATOM     21  H   LIG d   1      -2.473  74.414 115.779  0.00  0.00    -0.090 HD
ENDBRANCH   5  18
BRANCH   3  22
ATOM     22  C   LIG d   1       0.048  78.696 117.132  0.00  0.00     0.382 C 
ATOM     23  O   LIG d   1       0.611  78.164 118.119  0.00  0.00    -0.241 OA
ATOM     24  O   LIG d   1       0.459  79.794 116.709  0.00  0.00    -0.241 OA
ENDBRANCH   3  22
TORSDOF 7
ENDMDL
MODEL 7
REMARK VINA RESULT:      -4.6      2.820      4.150
REMARK  7 active torsions:
REMARK  status: ('A' for Active; 'I' for Inactive)
REMARK    1  A    between atoms: C_2  and  C_3 
REMARK    2  A    between atoms: C_3  and  O_6 
REMARK    3  A    between atoms: C_3  and  C_4 
REMARK    4  A    between atoms: C_7  and  O_6 
REMARK    5  A    between atoms: C_9  and  C_10 
REMARK    6  A    between atoms: N_15  and  C_14 
REMARK    7  A    between atoms: N_20  and  C_19 
REMARK       I    between atoms: C_22  and  N_20 
ROOT
ATOM      1  C   LIG d   1      -2.609  78.648 116.004  0.00  0.00     0.161 C 
ATOM      2  C   LIG d   1      -3.657  77.831 115.547  0.00  0.00     0.016 C 
ATOM      3  C   LIG d   1      -3.451  76.615 114.857  0.00  0.00     0.038 C 
ATOM      4  C   LIG d   1      -2.175  76.053 114.708  0.00  0.00     0.028 C 
ATOM      5  C   LIG d   1      -1.054  77.087 114.709  0.00  0.00    -0.047 C 
ATOM      6  C   LIG d   1      -1.211  77.996 115.949  0.00  0.00     0.091 C 
ENDROOT
BRANCH   1   7
ATOM      7  O   LIG d   1      -2.895  79.108 117.339  0.00  0.00    -0.368 OA
BRANCH   7   8
ATOM      8  C   LIG d   1      -4.095  78.577 117.953  0.00  0.00     0.119 C 
BRANCH   8   9
ATOM      9  C   LIG d   1      -4.936  79.773 118.438  0.00  0.00     0.028 C 
ATOM     10  C   LIG d   1      -6.257  79.915 117.663  0.00  0.00     0.006 C 
ENDBRANCH   8   9
BRANCH   8  11
ATOM     11  C   LIG d   1      -3.766  77.774 119.215  0.00  0.00     0.028 C 
ATOM     12  C   LIG d   1      -2.740  76.659 118.962  0.00  0.00     0.006 C 
ENDBRANCH   8  11
ENDBRANCH   7   8
ENDBRANCH   1   7
BRANCH   6  13
ATOM     13  N   LIG d   1      -0.204  79.089 115.982  0.00  0.00    -0.311 N 
ATOM     14  C   LIG d   1       0.627  79.289 117.003  0.00  0.00     0.210 C 
ATOM     15  C   LIG d   1       1.572  80.484 116.843  0.00  0.00     0.109 C 
ATOM     16  O   LIG d   1       0.694  78.571 118.012  0.00  0.00    -0.276 OA
ATOM     17  H   LIG d   1      -0.169  79.700 115.190  0.00  0.00     0.149 HD
ENDBRANCH   6  13
BRANCH   5  18
ATOM     18  N   LIG d   1       0.227  76.356 114.687  0.00  0.00     0.381 N 
ATOM     19  H   LIG d   1       0.954  76.936 115.056  0.00  0.00    -0.090 HD
ATOM     20  H   LIG d   1       0.456  76.131 113.735  0.00  0.00    -0.090 HD
ATOM     21  H   LIG d   1       0.153  75.521 115.225  0.00  0.00    -0.090 HD
ENDBRANCH   5  18
BRANCH   3  22
ATOM     22  C   LIG d   1      -4.528  75.966 114.271  0.00  0.00     0.382 C 
ATOM     23  O   LIG d   1      -5.025  74.954 114.820  0.00  0.00    -0.241 OA
ATOM     24  O   LIG d   1      -4.981  76.355 113.177  0.00  0.00    -0.241 OA
ENDBRANCH   3  22
TORSDOF 7
ENDMDL
MODEL 8
REMARK VINA RESULT:      -4.5      3.058      4.701
REMARK  7 active torsions:
REMARK  status: ('A' for Active; 'I' for Inactive)
REMARK    1  A    between atoms: C_2  and  C_3 
REMARK    2  A    between atoms: C_3  and  O_6 
REMARK    3  A    between atoms: C_3  and  C_4 
REMARK    4  A    between atoms: C_7  and  O_6 
REMARK    5  A    between atoms: C_9  and  C_10 
REMARK    6  A    between atoms: N_15  and  C_14 
REMARK    7  A    between atoms: N_20  and  C_19 
REMARK       I    between atoms: C_22  and  N_20 
ROOT
ATOM      1  C   LIG d   1      -3.250  78.166 116.464  0.00  0.00     0.161 C 
ATOM      2  C   LIG d   1      -2.279  79.003 117.039  0.00  0.00     0.016 C 
ATOM      3  C   LIG d   1      -0.904  78.934 116.718  0.00  0.00     0.038 C 
ATOM      4  C   LIG d   1      -0.424  78.121 115.681  0.00  0.00     0.028 C 
ATOM      5  C   LIG d   1      -1.294  76.895 115.421  0.00  0.00    -0.047 C 
ATOM      6  C   LIG d   1      -2.762  77.348 115.250  0.00  0.00     0.091 C 
ENDROOT
BRANCH   1   7
ATOM      7  O   LIG d   1      -4.415  78.938 116.111  0.00  0.00    -0.368 OA
BRANCH   7   8
ATOM      8  C   LIG d   1      -5.588  78.734 116.936  0.00  0.00     0.119 C 
BRANCH   8   9
ATOM      9  C   LIG d   1      -5.791  80.010 117.776  0.00  0.00     0.028 C 
ATOM     10  C   LIG d   1      -5.232  79.869 119.202  0.00  0.00     0.006 C 
ENDBRANCH   8   9
BRANCH   8  11
ATOM     11  C   LIG d   1      -5.367  77.610 117.952  0.00  0.00     0.028 C 
ATOM     12  C   LIG d   1      -6.268  76.391 117.699  0.00  0.00     0.006 C 
ENDBRANCH   8  11
ENDBRANCH   7   8
ENDBRANCH   1   7
BRANCH   6  13
ATOM     13  N   LIG d   1      -3.692  76.202 115.075  0.00  0.00    -0.311 N 
ATOM     14  C   LIG d   1      -4.436  76.021 113.986  0.00  0.00     0.210 C 
ATOM     15  C   LIG d   1      -5.342  74.786 114.019  0.00  0.00     0.109 C 
ATOM     16  O   LIG d   1      -4.409  76.749 112.982  0.00  0.00    -0.276 OA
ATOM     17  H   LIG d   1      -3.753  75.546 115.829  0.00  0.00     0.149 HD
ENDBRANCH   6  13
BRANCH   5  18
ATOM     18  N   LIG d   1      -0.756  76.212 114.229  0.00  0.00     0.381 N 
ATOM     19  H   LIG d   1      -0.113  76.814 113.755  0.00  0.00    -0.090 HD
ATOM     20  H   LIG d   1      -1.515  76.005 113.603  0.00  0.00    -0.090 HD
ATOM     21  H   LIG d   1      -0.298  75.369 114.497  0.00  0.00    -0.090 HD
ENDBRANCH   5  18
BRANCH   3  22
ATOM     22  C   LIG d   1       0.013  79.657 117.466  0.00  0.00     0.382 C 
ATOM     23  O   LIG d   1       0.774  80.479 116.900  0.00  0.00    -0.241 OA
ATOM     24  O   LIG d   1       0.119  79.466 118.692  0.00  0.00    -0.241 OA
ENDBRANCH   3  22
TORSDOF 7
ENDMDL
MODEL 9
REMARK VINA RESULT:      -4.4      2.367      4.892
REMARK  7 active torsions:
REMARK  status: ('A' for Active; 'I' for Inactive)
REMARK    1  A    between atoms: C_2  and  C_3 
REMARK    2  A    between atoms: C_3  and  O_6 
REMARK    3  A    between atoms: C_3  and  C_4 
REMARK    4  A    between atoms: C_7  and  O_6 
REMARK    5  A    between atoms: C_9  and  C_10 
REMARK    6  A    between atoms: N_15  and  C_14 
REMARK    7  A    between atoms: N_20  and  C_19 
REMARK       I    between atoms: C_22  and  N_20 
ROOT
ATOM      1  C   LIG d   1      -2.829  77.622 114.400  0.00  0.00     0.161 C 
ATOM      2  C   LIG d   1      -3.861  76.722 114.088  0.00  0.00     0.016 C 
ATOM      3  C   LIG d   1      -4.420  75.824 115.026  0.00  0.00     0.038 C 
ATOM      4  C   LIG d   1      -4.084  75.870 116.388  0.00  0.00     0.028 C 
ATOM      5  C   LIG d   1      -2.685  76.417 116.649  0.00  0.00    -0.047 C 
ATOM      6  C   LIG d   1      -2.527  77.764 115.907  0.00  0.00     0.091 C 
ENDROOT
BRANCH   1   7
ATOM      7  O   LIG d   1      -3.114  78.912 113.823  0.00  0.00    -0.368 OA
BRANCH   7   8
ATOM      8  C   LIG d   1      -2.486  79.193 112.548  0.00  0.00     0.119 C 
BRANCH   8   9
ATOM      9  C   LIG d   1      -2.960  78.117 111.552  0.00  0.00     0.028 C 
ATOM     10  C   LIG d   1      -1.956  77.892 110.408  0.00  0.00     0.006 C 
ENDBRANCH   8   9
BRANCH   8  11
ATOM     11  C   LIG d   1      -0.965  79.029 112.627  0.00  0.00     0.028 C 
ATOM     12  C   LIG d   1      -0.210  80.342 112.366  0.00  0.00     0.006 C 
ENDBRANCH   8  11
ENDBRANCH   7   8
ENDBRANCH   1   7
BRANCH   6  13
ATOM     13  N   LIG d   1      -1.158  78.327 116.040  0.00  0.00    -0.311 N 
ATOM     14  C   LIG d   1      -0.809  79.187 116.996  0.00  0.00     0.210 C 
ATOM     15  C   LIG d   1       0.647  79.659 116.940  0.00  0.00     0.109 C 
ATOM     16  O   LIG d   1      -1.558  79.577 117.904  0.00  0.00    -0.276 OA
ATOM     17  H   LIG d   1      -0.478  78.040 115.364  0.00  0.00     0.149 HD
ENDBRANCH   6  13
BRANCH   5  18
ATOM     18  N   LIG d   1      -2.519  76.539 118.109  0.00  0.00     0.381 N 
ATOM     19  H   LIG d   1      -1.546  76.586 118.337  0.00  0.00    -0.090 HD
ATOM     20  H   LIG d   1      -2.907  75.723 118.549  0.00  0.00    -0.090 HD
ATOM     21  H   LIG d   1      -2.984  77.356 118.438  0.00  0.00    -0.090 HD
ENDBRANCH   5  18
BRANCH   3  22
ATOM     22  C   LIG d   1      -5.296  74.839 114.597  0.00  0.00     0.382 C 
ATOM     23  O   LIG d   1      -5.958  74.180 115.435  0.00  0.00    -0.241 OA
ATOM     24  O   LIG d   1      -5.399  74.570 113.385  0.00  0.00    -0.241 OA
ENDBRANCH   3  22
TORSDOF 7
ENDMDL
