MODEL 1
REMARK VINA RESULT:      -4.7      0.000      0.000
REMARK  7 active torsions:
REMARK  status: ('A' for Active; 'I' for Inactive)
REMARK    1  A    between atoms: C_2  and  C_3 
REMARK    2  A    between atoms: C_3  and  O_6 
REMARK    3  A    between atoms: C_3  and  C_4 
REMARK    4  A    between atoms: C_7  and  O_6 
REMARK    5  A    between atoms: C_9  and  C_10 
REMARK    6  A    between atoms: N_15  and  C_14 
REMARK    7  A    between atoms: N_20  and  C_19 
REMARK       I    between atoms: C_22  and  N_20 
ROOT
ATOM      1  C   LIG d   1      -2.780  74.809 115.136  0.00  0.00     0.161 C 
ATOM      2  C   LIG d   1      -4.054  75.136 114.643  0.00  0.00     0.016 C 
ATOM      3  C   LIG d   1      -5.017  75.856 115.388  0.00  0.00     0.038 C 
ATOM      4  C   LIG d   1      -4.713  76.433 116.630  0.00  0.00     0.028 C 
ATOM      5  C   LIG d   1      -3.608  75.700 117.384  0.00  0.00    -0.047 C 
ATOM      6  C   LIG d   1      -2.391  75.526 116.446  0.00  0.00     0.091 C 
ENDROOT
BRANCH   1   7
ATOM      7  O   LIG d   1      -1.787  75.048 114.120  0.00  0.00    -0.368 OA
BRANCH   7   8
ATOM      8  C   LIG d   1      -1.424  76.433 113.896  0.00  0.00     0.119 C 
BRANCH   8   9
ATOM      9  C   LIG d   1      -1.565  76.710 112.387  0.00  0.00     0.028 C 
ATOM     10  C   LIG d   1      -2.765  77.616 112.066  0.00  0.00     0.006 C 
ENDBRANCH   8   9
BRANCH   8  11
ATOM     11  C   LIG d   1       0.052  76.682 114.218  0.00  0.00     0.028 C 
ATOM     12  C   LIG d   1       0.330  78.126 114.662  0.00  0.00     0.006 C 
ENDBRANCH   8  11
ENDBRANCH   7   8
ENDBRANCH   1   7
BRANCH   6  13
ATOM     13  N   LIG d   1      -1.296  74.744 117.078  0.00  0.00    -0.311 N 
ATOM     14  C   LIG d   1      -0.255  75.305 117.691  0.00  0.00     0.210 C 
ATOM     15  C   LIG d   1       0.771  74.318 118.256  0.00  0.00     0.109 C 
ATOM     16  O   LIG d   1      -0.100  76.525 117.848  0.00  0.00    -0.276 OA
ATOM     17  H   LIG d   1      -1.358  73.747 117.024  0.00  0.00     0.149 HD
ENDBRANCH   6  13
BRANCH   5  18
ATOM     18  N   LIG d   1      -3.297  76.485 118.593  0.00  0.00     0.381 N 
ATOM     19  H   LIG d   1      -3.641  76.009 119.403  0.00  0.00    -0.090 HD
ATOM     20  H   LIG d   1      -3.760  77.375 118.531  0.00  0.00    -0.090 HD
ATOM     21  H   LIG d   1      -2.313  76.619 118.670  0.00  0.00    -0.090 HD
ENDBRANCH   5  18
BRANCH   3  22
ATOM     22  C   LIG d   1      -6.312  75.970 114.908  0.00  0.00     0.382 C 
ATOM     23  O   LIG d   1      -7.282  75.922 115.703  0.00  0.00    -0.241 OA
ATOM     24  O   LIG d   1      -6.526  76.077 113.685  0.00  0.00    -0.241 OA
ENDBRANCH   3  22
TORSDOF 7
ENDMDL
MODEL 2
REMARK VINA RESULT:      -4.6      2.289      4.576
REMARK  7 active torsions:
REMARK  status: ('A' for Active; 'I' for Inactive)
REMARK    1  A    between atoms: C_2  and  C_3 
REMARK    2  A    between atoms: C_3  and  O_6 
REMARK    3  A    between atoms: C_3  and  C_4 
REMARK    4  A    between atoms: C_7  and  O_6 
REMARK    5  A    between atoms: C_9  and  C_10 
REMARK    6  A    between atoms: N_15  and  C_14 
REMARK    7  A    between atoms: N_20  and  C_19 
REMARK       I    between atoms: C_22  and  N_20 
ROOT
ATOM      1  C   LIG d   1      -2.365  76.603 115.346  0.00  0.00     0.161 C 
ATOM      2  C   LIG d   1      -2.702  77.650 114.473  0.00  0.00     0.016 C 
ATOM      3  C   LIG d   1      -2.116  77.818 113.197  0.00  0.00     0.038 C 
ATOM      4  C   LIG d   1      -1.257  76.856 112.643  0.00  0.00     0.028 C 
ATOM      5  C   LIG d   1      -0.501  76.045 113.690  0.00  0.00    -0.047 C 
ATOM      6  C   LIG d   1      -1.512  75.482 114.715  0.00  0.00     0.091 C 
ENDROOT
BRANCH   1   7
ATOM      7  O   LIG d   1      -3.561  76.052 115.933  0.00  0.00    -0.368 OA
BRANCH   7   8
ATOM      8  C   LIG d   1      -4.815  76.598 115.455  0.00  0.00     0.119 C 
BRANCH   8   9
ATOM      9  C   LIG d   1      -5.642  77.007 116.689  0.00  0.00     0.028 C 
ATOM     10  C   LIG d   1      -5.653  78.529 116.910  0.00  0.00     0.006 C 
ENDBRANCH   8   9
BRANCH   8  11
ATOM     11  C   LIG d   1      -5.651  75.531 114.741  0.00  0.00     0.028 C 
ATOM     12  C   LIG d   1      -4.926  74.180 114.633  0.00  0.00     0.006 C 
ENDBRANCH   8  11
ENDBRANCH   7   8
ENDBRANCH   1   7
BRANCH   6  13
ATOM     13  N   LIG d   1      -0.847  74.745 115.821  0.00  0.00    -0.311 N 
ATOM     14  C   LIG d   1       0.077  75.288 116.612  0.00  0.00     0.210 C 
ATOM     15  C   LIG d   1       0.649  74.347 117.677  0.00  0.00     0.109 C 
ATOM     16  O   LIG d   1       0.454  76.468 116.553  0.00  0.00    -0.276 OA
ATOM     17  H   LIG d   1      -1.116  73.791 115.959  0.00  0.00     0.149 HD
ENDBRANCH   6  13
BRANCH   5  18
ATOM     18  N   LIG d   1       0.249  74.991 112.980  0.00  0.00     0.381 N 
ATOM     19  H   LIG d   1      -0.381  74.282 112.663  0.00  0.00    -0.090 HD
ATOM     20  H   LIG d   1       0.902  74.572 113.618  0.00  0.00    -0.090 HD
ATOM     21  H   LIG d   1       0.736  75.383 112.204  0.00  0.00    -0.090 HD
ENDBRANCH   5  18
BRANCH   3  22
ATOM     22  C   LIG d   1      -2.357  78.978 112.477  0.00  0.00     0.382 C 
ATOM     23  O   LIG d   1      -1.793  79.158 111.371  0.00  0.00    -0.241 OA
ATOM     24  O   LIG d   1      -3.097  79.867 112.941  0.00  0.00    -0.241 OA
ENDBRANCH   3  22
TORSDOF 7
ENDMDL
MODEL 3
REMARK VINA RESULT:      -4.5      2.796      6.044
REMARK  7 active torsions:
REMARK  status: ('A' for Active; 'I' for Inactive)
REMARK    1  A    between atoms: C_2  and  C_3 
REMARK    2  A    between atoms: C_3  and  O_6 
REMARK    3  A    between atoms: C_3  and  C_4 
REMARK    4  A    between atoms: C_7  and  O_6 
REMARK    5  A    between atoms: C_9  and  C_10 
REMARK    6  A    between atoms: N_15  and  C_14 
REMARK    7  A    between atoms: N_20  and  C_19 
REMARK       I    between atoms: C_22  and  N_20 
ROOT
ATOM      1  C   LIG d   1      -2.008  77.693 116.096  0.00  0.00     0.161 C 
ATOM      2  C   LIG d   1      -0.909  78.565 116.159  0.00  0.00     0.016 C 
ATOM      3  C   LIG d   1       0.021  78.722 115.106  0.00  0.00     0.038 C 
ATOM      4  C   LIG d   1      -0.172  78.125 113.851  0.00  0.00     0.028 C 
ATOM      5  C   LIG d   1      -0.994  76.842 113.911  0.00  0.00    -0.047 C 
ATOM      6  C   LIG d   1      -2.298  77.117 114.694  0.00  0.00     0.091 C 
ENDROOT
BRANCH   1   7
ATOM      7  O   LIG d   1      -3.181  78.346 116.622  0.00  0.00    -0.368 OA
BRANCH   7   8
ATOM      8  C   LIG d   1      -3.625  77.904 117.928  0.00  0.00     0.119 C 
BRANCH   8   9
ATOM      9  C   LIG d   1      -4.950  77.141 117.732  0.00  0.00     0.028 C 
ATOM     10  C   LIG d   1      -5.835  77.772 116.644  0.00  0.00     0.006 C 
ENDBRANCH   8   9
BRANCH   8  11
ATOM     11  C   LIG d   1      -3.971  79.092 118.830  0.00  0.00     0.028 C 
ATOM     12  C   LIG d   1      -2.782  80.041 119.047  0.00  0.00     0.006 C 
ENDBRANCH   8  11
ENDBRANCH   7   8
ENDBRANCH   1   7
BRANCH   6  13
ATOM     13  N   LIG d   1      -3.122  75.893 114.872  0.00  0.00    -0.311 N 
ATOM     14  C   LIG d   1      -4.141  75.574 114.076  0.00  0.00     0.210 C 
ATOM     15  C   LIG d   1      -4.870  74.279 114.448  0.00  0.00     0.109 C 
ATOM     16  O   LIG d   1      -4.491  76.223 113.080  0.00  0.00    -0.276 OA
ATOM     17  H   LIG d   1      -2.887  75.293 115.638  0.00  0.00     0.149 HD
ENDBRANCH   6  13
BRANCH   5  18
ATOM     18  N   LIG d   1      -1.235  76.402 112.523  0.00  0.00     0.381 N 
ATOM     19  H   LIG d   1      -2.179  76.609 112.262  0.00  0.00    -0.090 HD
ATOM     20  H   LIG d   1      -1.104  75.408 112.470  0.00  0.00    -0.090 HD
ATOM     21  H   LIG d   1      -0.603  76.862 111.905  0.00  0.00    -0.090 HD
ENDBRANCH   5  18
BRANCH   3  22
ATOM     22  C   LIG d   1       1.181  79.451 115.316  0.00  0.00     0.382 C 
ATOM     23  O   LIG d   1       1.119  80.693 115.487  0.00  0.00    -0.241 OA
ATOM     24  O   LIG d   1       2.293  78.891 115.293  0.00  0.00    -0.241 OA
ENDBRANCH   3  22
TORSDOF 7
ENDMDL
MODEL 4
REMARK VINA RESULT:      -4.5      2.460      5.739
REMARK  7 active torsions:
REMARK  status: ('A' for Active; 'I' for Inactive)
REMARK    1  A    between atoms: C_2  and  C_3 
REMARK    2  A    between atoms: C_3  and  O_6 
REMARK    3  A    between atoms: C_3  and  C_4 
REMARK    4  A    between atoms: C_7  and  O_6 
REMARK    5  A    between atoms: C_9  and  C_10 
REMARK    6  A    between atoms: N_15  and  C_14 
REMARK    7  A    between atoms: N_20  and  C_19 
REMARK       I    between atoms: C_22  and  N_20 
ROOT
ATOM      1  C   LIG d   1      -1.101  75.346 114.537  0.00  0.00     0.161 C 
ATOM      2  C   LIG d   1      -0.428  74.761 115.623  0.00  0.00     0.016 C 
ATOM      3  C   LIG d   1       0.317  75.504 116.567  0.00  0.00     0.038 C 
ATOM      4  C   LIG d   1       0.315  76.907 116.575  0.00  0.00     0.028 C 
ATOM      5  C   LIG d   1       0.063  77.521 115.202  0.00  0.00    -0.047 C 
ATOM      6  C   LIG d   1      -1.207  76.884 114.593  0.00  0.00     0.091 C 
ENDROOT
BRANCH   1   7
ATOM      7  O   LIG d   1      -2.410  74.758 114.400  0.00  0.00    -0.368 OA
BRANCH   7   8
ATOM      8  C   LIG d   1      -3.510  75.513 114.965  0.00  0.00     0.119 C 
BRANCH   8   9
ATOM      9  C   LIG d   1      -3.876  74.860 116.312  0.00  0.00     0.028 C 
ATOM     10  C   LIG d   1      -3.435  75.711 117.516  0.00  0.00     0.006 C 
ENDBRANCH   8   9
BRANCH   8  11
ATOM     11  C   LIG d   1      -4.769  75.394 114.102  0.00  0.00     0.028 C 
ATOM     12  C   LIG d   1      -6.054  75.744 114.870  0.00  0.00     0.006 C 
ENDBRANCH   8  11
ENDBRANCH   7   8
ENDBRANCH   1   7
BRANCH   6  13
ATOM     13  N   LIG d   1      -1.478  77.367 113.214  0.00  0.00    -0.311 N 
ATOM     14  C   LIG d   1      -2.275  78.399 112.942  0.00  0.00     0.210 C 
ATOM     15  C   LIG d   1      -2.433  78.719 111.453  0.00  0.00     0.109 C 
ATOM     16  O   LIG d   1      -2.840  79.100 113.795  0.00  0.00    -0.276 OA
ATOM     17  H   LIG d   1      -1.035  76.875 112.463  0.00  0.00     0.149 HD
ENDBRANCH   6  13
BRANCH   5  18
ATOM     18  N   LIG d   1      -0.050  78.981 115.380  0.00  0.00     0.381 N 
ATOM     19  H   LIG d   1       0.769  79.331 115.834  0.00  0.00    -0.090 HD
ATOM     20  H   LIG d   1      -0.843  79.176 115.966  0.00  0.00    -0.090 HD
ATOM     21  H   LIG d   1      -0.165  79.424 114.496  0.00  0.00    -0.090 HD
ENDBRANCH   5  18
BRANCH   3  22
ATOM     22  C   LIG d   1       1.108  74.842 117.493  0.00  0.00     0.382 C 
ATOM     23  O   LIG d   1       0.574  74.183 118.417  0.00  0.00    -0.241 OA
ATOM     24  O   LIG d   1       2.350  74.930 117.442  0.00  0.00    -0.241 OA
ENDBRANCH   3  22
TORSDOF 7
ENDMDL
MODEL 5
REMARK VINA RESULT:      -4.4      2.371      4.361
REMARK  7 active torsions:
REMARK  status: ('A' for Active; 'I' for Inactive)
REMARK    1  A    between atoms: C_2  and  C_3 
REMARK    2  A    between atoms: C_3  and  O_6 
REMARK    3  A    between atoms: C_3  and  C_4 
REMARK    4  A    between atoms: C_7  and  O_6 
REMARK    5  A    between atoms: C_9  and  C_10 
REMARK    6  A    between atoms: N_15  and  C_14 
REMARK    7  A    between atoms: N_20  and  C_19 
REMARK       I    between atoms: C_22  and  N_20 
ROOT
ATOM      1  C   LIG d   1      -1.717  77.864 115.336  0.00  0.00     0.161 C 
ATOM      2  C   LIG d   1      -2.395  78.209 114.155  0.00  0.00     0.016 C 
ATOM      3  C   LIG d   1      -2.159  77.580 112.910  0.00  0.00     0.038 C 
ATOM      4  C   LIG d   1      -1.331  76.454 112.794  0.00  0.00     0.028 C 
ATOM      5  C   LIG d   1      -0.242  76.389 113.860  0.00  0.00    -0.047 C 
ATOM      6  C   LIG d   1      -0.892  76.563 115.252  0.00  0.00     0.091 C 
ENDROOT
BRANCH   1   7
ATOM      7  O   LIG d   1      -2.650  77.795 116.432  0.00  0.00    -0.368 OA
BRANCH   7   8
ATOM      8  C   LIG d   1      -3.397  76.559 116.557  0.00  0.00     0.119 C 
BRANCH   8   9
ATOM      9  C   LIG d   1      -4.891  76.904 116.405  0.00  0.00     0.028 C 
ATOM     10  C   LIG d   1      -5.197  78.366 116.773  0.00  0.00     0.006 C 
ENDBRANCH   8   9
BRANCH   8  11
ATOM     11  C   LIG d   1      -3.259  75.964 117.961  0.00  0.00     0.028 C 
ATOM     12  C   LIG d   1      -2.485  76.880 118.923  0.00  0.00     0.006 C 
ENDBRANCH   8  11
ENDBRANCH   7   8
ENDBRANCH   1   7
BRANCH   6  13
ATOM     13  N   LIG d   1       0.113  76.596 116.346  0.00  0.00    -0.311 N 
ATOM     14  C   LIG d   1       0.453  75.526 117.063  0.00  0.00     0.210 C 
ATOM     15  C   LIG d   1       1.494  75.784 118.156  0.00  0.00     0.109 C 
ATOM     16  O   LIG d   1       0.014  74.381 116.875  0.00  0.00    -0.276 OA
ATOM     17  H   LIG d   1       0.542  77.479 116.545  0.00  0.00     0.149 HD
ENDBRANCH   6  13
BRANCH   5  18
ATOM     18  N   LIG d   1       0.457  75.100 113.705  0.00  0.00     0.381 N 
ATOM     19  H   LIG d   1       0.851  74.821 114.581  0.00  0.00    -0.090 HD
ATOM     20  H   LIG d   1       1.206  75.213 113.044  0.00  0.00    -0.090 HD
ATOM     21  H   LIG d   1      -0.178  74.404 113.382  0.00  0.00    -0.090 HD
ENDBRANCH   5  18
BRANCH   3  22
ATOM     22  C   LIG d   1      -2.724  78.104 111.758  0.00  0.00     0.382 C 
ATOM     23  O   LIG d   1      -3.741  77.567 111.257  0.00  0.00    -0.241 OA
ATOM     24  O   LIG d   1      -2.203  79.082 111.187  0.00  0.00    -0.241 OA
ENDBRANCH   3  22
TORSDOF 7
ENDMDL
MODEL 6
REMARK VINA RESULT:      -4.4      2.642      5.495
REMARK  7 active torsions:
REMARK  status: ('A' for Active; 'I' for Inactive)
REMARK    1  A    between atoms: C_2  and  C_3 
REMARK    2  A    between atoms: C_3  and  O_6 
REMARK    3  A    between atoms: C_3  and  C_4 
REMARK    4  A    between atoms: C_7  and  O_6 
REMARK    5  A    between atoms: C_9  and  C_10 
REMARK    6  A    between atoms: N_15  and  C_14 
REMARK    7  A    between atoms: N_20  and  C_19 
REMARK       I    between atoms: C_22  and  N_20 
ROOT
ATOM      1  C   LIG d   1      -1.074  76.022 114.062  0.00  0.00     0.161 C 
ATOM      2  C   LIG d   1      -0.847  75.233 115.202  0.00  0.00     0.016 C 
ATOM      3  C   LIG d   1      -0.072  75.662 116.304  0.00  0.00     0.038 C 
ATOM      4  C   LIG d   1       0.406  76.976 116.407  0.00  0.00     0.028 C 
ATOM      5  C   LIG d   1       0.629  77.648 115.056  0.00  0.00    -0.047 C 
ATOM      6  C   LIG d   1      -0.653  77.500 114.205  0.00  0.00     0.091 C 
ENDROOT
BRANCH   1   7
ATOM      7  O   LIG d   1      -2.458  75.931 113.672  0.00  0.00    -0.368 OA
BRANCH   7   8
ATOM      8  C   LIG d   1      -3.417  75.800 114.751  0.00  0.00     0.119 C 
BRANCH   8   9
ATOM      9  C   LIG d   1      -4.681  75.139 114.169  0.00  0.00     0.028 C 
ATOM     10  C   LIG d   1      -5.975  75.780 114.698  0.00  0.00     0.006 C 
ENDBRANCH   8   9
BRANCH   8  11
ATOM     11  C   LIG d   1      -3.873  77.170 115.260  0.00  0.00     0.028 C 
ATOM     12  C   LIG d   1      -3.414  77.454 116.699  0.00  0.00     0.006 C 
ENDBRANCH   8  11
ENDBRANCH   7   8
ENDBRANCH   1   7
BRANCH   6  13
ATOM     13  N   LIG d   1      -0.491  78.055 112.836  0.00  0.00    -0.311 N 
ATOM     14  C   LIG d   1      -1.295  78.985 112.322  0.00  0.00     0.210 C 
ATOM     15  C   LIG d   1      -0.964  79.405 110.887  0.00  0.00     0.109 C 
ATOM     16  O   LIG d   1      -2.231  79.525 112.931  0.00  0.00    -0.276 OA
ATOM     17  H   LIG d   1       0.263  77.696 112.283  0.00  0.00     0.149 HD
ENDBRANCH   6  13
BRANCH   5  18
ATOM     18  N   LIG d   1       0.994  79.054 115.312  0.00  0.00     0.381 N 
ATOM     19  H   LIG d   1       0.565  79.645 114.628  0.00  0.00    -0.090 HD
ATOM     20  H   LIG d   1       1.991  79.150 115.231  0.00  0.00    -0.090 HD
ATOM     21  H   LIG d   1       0.700  79.322 116.225  0.00  0.00    -0.090 HD
ENDBRANCH   5  18
BRANCH   3  22
ATOM     22  C   LIG d   1       0.265  74.758 117.300  0.00  0.00     0.382 C 
ATOM     23  O   LIG d   1       1.470  74.484 117.517  0.00  0.00    -0.241 OA
ATOM     24  O   LIG d   1      -0.623  74.180 117.956  0.00  0.00    -0.241 OA
ENDBRANCH   3  22
TORSDOF 7
ENDMDL
MODEL 7
REMARK VINA RESULT:      -4.3      1.914      2.419
REMARK  7 active torsions:
REMARK  status: ('A' for Active; 'I' for Inactive)
REMARK    1  A    between atoms: C_2  and  C_3 
REMARK    2  A    between atoms: C_3  and  O_6 
REMARK    3  A    between atoms: C_3  and  C_4 
REMARK    4  A    between atoms: C_7  and  O_6 
REMARK    5  A    between atoms: C_9  and  C_10 
REMARK    6  A    between atoms: N_15  and  C_14 
REMARK    7  A    between atoms: N_20  and  C_19 
REMARK       I    between atoms: C_22  and  N_20 
ROOT
ATOM      1  C   LIG d   1      -3.324  76.540 115.230  0.00  0.00     0.161 C 
ATOM      2  C   LIG d   1      -4.660  76.107 115.188  0.00  0.00     0.016 C 
ATOM      3  C   LIG d   1      -5.466  75.957 116.339  0.00  0.00     0.038 C 
ATOM      4  C   LIG d   1      -5.035  76.376 117.606  0.00  0.00     0.028 C 
ATOM      5  C   LIG d   1      -3.519  76.346 117.771  0.00  0.00    -0.047 C 
ATOM      6  C   LIG d   1      -2.871  77.108 116.592  0.00  0.00     0.091 C 
ENDROOT
BRANCH   1   7
ATOM      7  O   LIG d   1      -3.088  77.501 114.183  0.00  0.00    -0.368 OA
BRANCH   7   8
ATOM      8  C   LIG d   1      -2.543  76.977 112.947  0.00  0.00     0.119 C 
BRANCH   8   9
ATOM      9  C   LIG d   1      -1.007  77.054 113.049  0.00  0.00     0.028 C 
ATOM     10  C   LIG d   1      -0.377  75.709 113.448  0.00  0.00     0.006 C 
ENDBRANCH   8   9
BRANCH   8  11
ATOM     11  C   LIG d   1      -2.915  77.862 111.754  0.00  0.00     0.028 C 
ATOM     12  C   LIG d   1      -2.023  79.108 111.636  0.00  0.00     0.006 C 
ENDBRANCH   8  11
ENDBRANCH   7   8
ENDBRANCH   1   7
BRANCH   6  13
ATOM     13  N   LIG d   1      -1.386  77.054 116.630  0.00  0.00    -0.311 N 
ATOM     14  C   LIG d   1      -0.612  78.136 116.567  0.00  0.00     0.210 C 
ATOM     15  C   LIG d   1       0.894  77.857 116.602  0.00  0.00     0.109 C 
ATOM     16  O   LIG d   1      -1.030  79.303 116.517  0.00  0.00    -0.276 OA
ATOM     17  H   LIG d   1      -0.964  76.149 116.701  0.00  0.00     0.149 HD
ENDBRANCH   6  13
BRANCH   5  18
ATOM     18  N   LIG d   1      -3.201  76.936 119.085  0.00  0.00     0.381 N 
ATOM     19  H   LIG d   1      -3.377  76.268 119.808  0.00  0.00    -0.090 HD
ATOM     20  H   LIG d   1      -3.798  77.730 119.237  0.00  0.00    -0.090 HD
ATOM     21  H   LIG d   1      -2.246  77.220 119.109  0.00  0.00    -0.090 HD
ENDBRANCH   5  18
BRANCH   3  22
ATOM     22  C   LIG d   1      -6.706  75.344 116.235  0.00  0.00     0.382 C 
ATOM     23  O   LIG d   1      -6.892  74.216 116.750  0.00  0.00    -0.241 OA
ATOM     24  O   LIG d   1      -7.626  75.886 115.594  0.00  0.00    -0.241 OA
ENDBRANCH   3  22
TORSDOF 7
ENDMDL
MODEL 8
REMARK VINA RESULT:      -4.2      2.975      4.809
REMARK  7 active torsions:
REMARK  status: ('A' for Active; 'I' for Inactive)
REMARK    1  A    between atoms: C_2  and  C_3 
REMARK    2  A    between atoms: C_3  and  O_6 
REMARK    3  A    between atoms: C_3  and  C_4 
REMARK    4  A    between atoms: C_7  and  O_6 
REMARK    5  A    between atoms: C_9  and  C_10 
REMARK    6  A    between atoms: N_15  and  C_14 
REMARK    7  A    between atoms: N_20  and  C_19 
REMARK       I    between atoms: C_22  and  N_20 
ROOT
ATOM      1  C   LIG d   1      -3.034  77.948 116.156  0.00  0.00     0.161 C 
ATOM      2  C   LIG d   1      -4.010  77.077 115.644  0.00  0.00     0.016 C 
ATOM      3  C   LIG d   1      -3.790  76.226 114.537  0.00  0.00     0.038 C 
ATOM      4  C   LIG d   1      -2.522  76.077 113.957  0.00  0.00     0.028 C 
ATOM      5  C   LIG d   1      -1.635  77.307 114.116  0.00  0.00    -0.047 C 
ATOM      6  C   LIG d   1      -1.610  77.718 115.606  0.00  0.00     0.091 C 
ENDROOT
BRANCH   1   7
ATOM      7  O   LIG d   1      -3.030  77.886 117.596  0.00  0.00    -0.368 OA
BRANCH   7   8
ATOM      8  C   LIG d   1      -3.494  79.072 118.286  0.00  0.00     0.119 C 
BRANCH   8   9
ATOM      9  C   LIG d   1      -2.399  79.480 119.291  0.00  0.00     0.028 C 
ATOM     10  C   LIG d   1      -1.912  80.923 119.075  0.00  0.00     0.006 C 
ENDBRANCH   8   9
BRANCH   8  11
ATOM     11  C   LIG d   1      -4.733  78.775 119.135  0.00  0.00     0.028 C 
ATOM     12  C   LIG d   1      -6.029  79.310 118.504  0.00  0.00     0.006 C 
ENDBRANCH   8  11
ENDBRANCH   7   8
ENDBRANCH   1   7
BRANCH   6  13
ATOM     13  N   LIG d   1      -0.833  78.963 115.838  0.00  0.00    -0.311 N 
ATOM     14  C   LIG d   1       0.442  78.970 116.223  0.00  0.00     0.210 C 
ATOM     15  C   LIG d   1       1.049  80.362 116.424  0.00  0.00     0.109 C 
ATOM     16  O   LIG d   1       1.137  77.956 116.386  0.00  0.00    -0.276 OA
ATOM     17  H   LIG d   1      -1.310  79.832 115.698  0.00  0.00     0.149 HD
ENDBRANCH   6  13
BRANCH   5  18
ATOM     18  N   LIG d   1      -0.300  76.965 113.589  0.00  0.00     0.381 N 
ATOM     19  H   LIG d   1       0.077  76.191 114.098  0.00  0.00    -0.090 HD
ATOM     20  H   LIG d   1       0.311  77.753 113.714  0.00  0.00    -0.090 HD
ATOM     21  H   LIG d   1      -0.364  76.736 112.621  0.00  0.00    -0.090 HD
ENDBRANCH   5  18
BRANCH   3  22
ATOM     22  C   LIG d   1      -4.857  75.542 113.974  0.00  0.00     0.382 C 
ATOM     23  O   LIG d   1      -4.758  74.314 113.735  0.00  0.00    -0.241 OA
ATOM     24  O   LIG d   1      -5.900  76.146 113.660  0.00  0.00    -0.241 OA
ENDBRANCH   3  22
TORSDOF 7
ENDMDL
MODEL 9
REMARK VINA RESULT:      -4.1      2.939      4.050
REMARK  7 active torsions:
REMARK  status: ('A' for Active; 'I' for Inactive)
REMARK    1  A    between atoms: C_2  and  C_3 
REMARK    2  A    between atoms: C_3  and  O_6 
REMARK    3  A    between atoms: C_3  and  C_4 
REMARK    4  A    between atoms: C_7  and  O_6 
REMARK    5  A    between atoms: C_9  and  C_10 
REMARK    6  A    between atoms: N_15  and  C_14 
REMARK    7  A    between atoms: N_20  and  C_19 
REMARK       I    between atoms: C_22  and  N_20 
ROOT
ATOM      1  C   LIG d   1      -3.573  77.916 116.508  0.00  0.00     0.161 C 
ATOM      2  C   LIG d   1      -4.750  78.441 117.067  0.00  0.00     0.016 C 
ATOM      3  C   LIG d   1      -6.032  77.889 116.841  0.00  0.00     0.038 C 
ATOM      4  C   LIG d   1      -6.208  76.677 116.157  0.00  0.00     0.028 C 
ATOM      5  C   LIG d   1      -5.102  76.385 115.149  0.00  0.00    -0.047 C 
ATOM      6  C   LIG d   1      -3.732  76.529 115.850  0.00  0.00     0.091 C 
ENDROOT
BRANCH   1   7
ATOM      7  O   LIG d   1      -2.532  77.882 117.504  0.00  0.00    -0.368 OA
BRANCH   7   8
ATOM      8  C   LIG d   1      -1.608  78.998 117.499  0.00  0.00     0.119 C 
BRANCH   8   9
ATOM      9  C   LIG d   1      -0.228  78.455 117.080  0.00  0.00     0.028 C 
ATOM     10  C   LIG d   1       0.119  78.796 115.621  0.00  0.00     0.006 C 
ENDBRANCH   8   9
BRANCH   8  11
ATOM     11  C   LIG d   1      -1.410  79.564 118.908  0.00  0.00     0.028 C 
ATOM     12  C   LIG d   1      -2.190  80.867 119.141  0.00  0.00     0.006 C 
ENDBRANCH   8  11
ENDBRANCH   7   8
ENDBRANCH   1   7
BRANCH   6  13
ATOM     13  N   LIG d   1      -2.593  76.343 114.913  0.00  0.00    -0.311 N 
ATOM     14  C   LIG d   1      -1.614  75.463 115.115  0.00  0.00     0.210 C 
ATOM     15  C   LIG d   1      -0.527  75.446 114.036  0.00  0.00     0.109 C 
ATOM     16  O   LIG d   1      -1.560  74.672 116.069  0.00  0.00    -0.276 OA
ATOM     17  H   LIG d   1      -2.575  76.922 114.097  0.00  0.00     0.149 HD
ENDBRANCH   6  13
BRANCH   5  18
ATOM     18  N   LIG d   1      -5.336  75.032 114.610  0.00  0.00     0.381 N 
ATOM     19  H   LIG d   1      -5.481  74.388 115.362  0.00  0.00    -0.090 HD
ATOM     20  H   LIG d   1      -4.522  74.741 114.098  0.00  0.00    -0.090 HD
ATOM     21  H   LIG d   1      -6.131  75.037 114.010  0.00  0.00    -0.090 HD
ENDBRANCH   5  18
BRANCH   3  22
ATOM     22  C   LIG d   1      -7.160  78.574 117.268  0.00  0.00     0.382 C 
ATOM     23  O   LIG d   1      -7.258  79.808 117.066  0.00  0.00    -0.241 OA
ATOM     24  O   LIG d   1      -8.060  77.981 117.893  0.00  0.00    -0.241 OA
ENDBRANCH   3  22
TORSDOF 7
ENDMDL
