MODEL 1
REMARK VINA RESULT:      -5.0      0.000      0.000
REMARK  7 active torsions:
REMARK  status: ('A' for Active; 'I' for Inactive)
REMARK    1  A    between atoms: C_2  and  C_3 
REMARK    2  A    between atoms: C_3  and  O_6 
REMARK    3  A    between atoms: C_3  and  C_4 
REMARK    4  A    between atoms: C_7  and  O_6 
REMARK    5  A    between atoms: C_9  and  C_10 
REMARK    6  A    between atoms: N_15  and  C_14 
REMARK    7  A    between atoms: N_20  and  C_19 
REMARK       I    between atoms: C_22  and  N_20 
ROOT
ATOM      1  C   LIG d   1      -2.900  79.028 115.892  0.00  0.00     0.161 C 
ATOM      2  C   LIG d   1      -2.928  79.974 114.854  0.00  0.00     0.016 C 
ATOM      3  C   LIG d   1      -2.206  79.827 113.648  0.00  0.00     0.038 C 
ATOM      4  C   LIG d   1      -1.521  78.645 113.333  0.00  0.00     0.028 C 
ATOM      5  C   LIG d   1      -1.050  77.872 114.561  0.00  0.00    -0.047 C 
ATOM      6  C   LIG d   1      -2.246  77.680 115.521  0.00  0.00     0.091 C 
ENDROOT
BRANCH   1   7
ATOM      7  O   LIG d   1      -4.233  78.816 116.397  0.00  0.00    -0.368 OA
BRANCH   7   8
ATOM      8  C   LIG d   1      -4.736  79.822 117.310  0.00  0.00     0.119 C 
BRANCH   8   9
ATOM      9  C   LIG d   1      -4.170  79.504 118.708  0.00  0.00     0.028 C 
ATOM     10  C   LIG d   1      -4.600  78.117 119.213  0.00  0.00     0.006 C 
ENDBRANCH   8   9
BRANCH   8  11
ATOM     11  C   LIG d   1      -6.258  79.729 117.458  0.00  0.00     0.028 C 
ATOM     12  C   LIG d   1      -6.927  81.104 117.612  0.00  0.00     0.006 C 
ENDBRANCH   8  11
ENDBRANCH   7   8
ENDBRANCH   1   7
BRANCH   6  13
ATOM     13  N   LIG d   1      -1.854  77.006 116.787  0.00  0.00    -0.311 N 
ATOM     14  C   LIG d   1      -2.399  75.867 117.210  0.00  0.00     0.210 C 
ATOM     15  C   LIG d   1      -1.865  75.354 118.551  0.00  0.00     0.109 C 
ATOM     16  O   LIG d   1      -3.252  75.217 116.587  0.00  0.00    -0.276 OA
ATOM     17  H   LIG d   1      -1.147  77.450 117.339  0.00  0.00     0.149 HD
ENDBRANCH   6  13
BRANCH   5  18
ATOM     18  N   LIG d   1      -0.475  76.597 114.091  0.00  0.00     0.381 N 
ATOM     19  H   LIG d   1       0.071  76.184 114.820  0.00  0.00    -0.090 HD
ATOM     20  H   LIG d   1       0.129  76.781 113.310  0.00  0.00    -0.090 HD
ATOM     21  H   LIG d   1      -1.203  75.974 113.818  0.00  0.00    -0.090 HD
ENDBRANCH   5  18
BRANCH   3  22
ATOM     22  C   LIG d   1      -2.132  80.888 112.758  0.00  0.00     0.382 C 
ATOM     23  O   LIG d   1      -3.112  81.659 112.618  0.00  0.00    -0.241 OA
ATOM     24  O   LIG d   1      -1.114  81.058 112.061  0.00  0.00    -0.241 OA
ENDBRANCH   3  22
TORSDOF 7
ENDMDL
MODEL 2
REMARK VINA RESULT:      -5.0      2.274      2.987
REMARK  7 active torsions:
REMARK  status: ('A' for Active; 'I' for Inactive)
REMARK    1  A    between atoms: C_2  and  C_3 
REMARK    2  A    between atoms: C_3  and  O_6 
REMARK    3  A    between atoms: C_3  and  C_4 
REMARK    4  A    between atoms: C_7  and  O_6 
REMARK    5  A    between atoms: C_9  and  C_10 
REMARK    6  A    between atoms: N_15  and  C_14 
REMARK    7  A    between atoms: N_20  and  C_19 
REMARK       I    between atoms: C_22  and  N_20 
ROOT
ATOM      1  C   LIG d   1      -2.482  77.515 115.250  0.00  0.00     0.161 C 
ATOM      2  C   LIG d   1      -2.693  78.468 114.241  0.00  0.00     0.016 C 
ATOM      3  C   LIG d   1      -1.743  79.454 113.890  0.00  0.00     0.038 C 
ATOM      4  C   LIG d   1      -0.446  79.458 114.426  0.00  0.00     0.028 C 
ATOM      5  C   LIG d   1      -0.362  78.826 115.811  0.00  0.00    -0.047 C 
ATOM      6  C   LIG d   1      -1.031  77.433 115.769  0.00  0.00     0.091 C 
ENDROOT
BRANCH   1   7
ATOM      7  O   LIG d   1      -2.926  76.220 114.800  0.00  0.00    -0.368 OA
BRANCH   7   8
ATOM      8  C   LIG d   1      -4.008  75.619 115.553  0.00  0.00     0.119 C 
BRANCH   8   9
ATOM      9  C   LIG d   1      -5.056  75.119 114.540  0.00  0.00     0.028 C 
ATOM     10  C   LIG d   1      -6.311  76.008 114.506  0.00  0.00     0.006 C 
ENDBRANCH   8   9
BRANCH   8  11
ATOM     11  C   LIG d   1      -4.736  76.660 116.409  0.00  0.00     0.028 C 
ATOM     12  C   LIG d   1      -4.533  76.440 117.916  0.00  0.00     0.006 C 
ENDBRANCH   8  11
ENDBRANCH   7   8
ENDBRANCH   1   7
BRANCH   6  13
ATOM     13  N   LIG d   1      -1.067  76.781 117.104  0.00  0.00    -0.311 N 
ATOM     14  C   LIG d   1      -0.793  75.492 117.298  0.00  0.00     0.210 C 
ATOM     15  C   LIG d   1      -0.908  75.018 118.750  0.00  0.00     0.109 C 
ATOM     16  O   LIG d   1      -0.435  74.704 116.410  0.00  0.00    -0.276 OA
ATOM     17  H   LIG d   1      -1.317  77.355 117.885  0.00  0.00     0.149 HD
ENDBRANCH   6  13
BRANCH   5  18
ATOM     18  N   LIG d   1       1.063  78.772 116.190  0.00  0.00     0.381 N 
ATOM     19  H   LIG d   1       1.158  78.339 117.087  0.00  0.00    -0.090 HD
ATOM     20  H   LIG d   1       1.418  79.710 116.254  0.00  0.00    -0.090 HD
ATOM     21  H   LIG d   1       1.578  78.259 115.509  0.00  0.00    -0.090 HD
ENDBRANCH   5  18
BRANCH   3  22
ATOM     22  C   LIG d   1      -2.100  80.475 113.022  0.00  0.00     0.382 C 
ATOM     23  O   LIG d   1      -3.180  81.091 113.189  0.00  0.00    -0.241 OA
ATOM     24  O   LIG d   1      -1.376  80.758 112.048  0.00  0.00    -0.241 OA
ENDBRANCH   3  22
TORSDOF 7
ENDMDL
MODEL 3
REMARK VINA RESULT:      -4.9      3.445      4.825
REMARK  7 active torsions:
REMARK  status: ('A' for Active; 'I' for Inactive)
REMARK    1  A    between atoms: C_2  and  C_3 
REMARK    2  A    between atoms: C_3  and  O_6 
REMARK    3  A    between atoms: C_3  and  C_4 
REMARK    4  A    between atoms: C_7  and  O_6 
REMARK    5  A    between atoms: C_9  and  C_10 
REMARK    6  A    between atoms: N_15  and  C_14 
REMARK    7  A    between atoms: N_20  and  C_19 
REMARK       I    between atoms: C_22  and  N_20 
ROOT
ATOM      1  C   LIG d   1      -5.385  77.185 118.164  0.00  0.00     0.161 C 
ATOM      2  C   LIG d   1      -6.263  78.264 117.967  0.00  0.00     0.016 C 
ATOM      3  C   LIG d   1      -5.831  79.566 117.622  0.00  0.00     0.038 C 
ATOM      4  C   LIG d   1      -4.493  79.843 117.302  0.00  0.00     0.028 C 
ATOM      5  C   LIG d   1      -3.502  78.902 117.978  0.00  0.00    -0.047 C 
ATOM      6  C   LIG d   1      -3.933  77.442 117.711  0.00  0.00     0.091 C 
ENDROOT
BRANCH   1   7
ATOM      7  O   LIG d   1      -5.909  76.006 117.524  0.00  0.00    -0.368 OA
BRANCH   7   8
ATOM      8  C   LIG d   1      -6.866  76.230 116.460  0.00  0.00     0.119 C 
BRANCH   8   9
ATOM      9  C   LIG d   1      -8.041  75.258 116.681  0.00  0.00     0.028 C 
ATOM     10  C   LIG d   1      -8.060  74.674 118.104  0.00  0.00     0.006 C 
ENDBRANCH   8   9
BRANCH   8  11
ATOM     11  C   LIG d   1      -6.281  75.854 115.095  0.00  0.00     0.028 C 
ATOM     12  C   LIG d   1      -5.448  74.564 115.139  0.00  0.00     0.006 C 
ENDBRANCH   8  11
ENDBRANCH   7   8
ENDBRANCH   1   7
BRANCH   6  13
ATOM     13  N   LIG d   1      -3.064  76.458 118.408  0.00  0.00    -0.311 N 
ATOM     14  C   LIG d   1      -2.385  75.502 117.775  0.00  0.00     0.210 C 
ATOM     15  C   LIG d   1      -1.565  74.581 118.684  0.00  0.00     0.109 C 
ATOM     16  O   LIG d   1      -2.358  75.350 116.545  0.00  0.00    -0.276 OA
ATOM     17  H   LIG d   1      -3.003  76.529 119.404  0.00  0.00     0.149 HD
ENDBRANCH   6  13
BRANCH   5  18
ATOM     18  N   LIG d   1      -2.160  79.215 117.450  0.00  0.00     0.381 N 
ATOM     19  H   LIG d   1      -2.119  78.992 116.476  0.00  0.00    -0.090 HD
ATOM     20  H   LIG d   1      -1.482  78.651 117.931  0.00  0.00    -0.090 HD
ATOM     21  H   LIG d   1      -1.956  80.180 117.587  0.00  0.00    -0.090 HD
ENDBRANCH   5  18
BRANCH   3  22
ATOM     22  C   LIG d   1      -6.736  80.616 117.634  0.00  0.00     0.382 C 
ATOM     23  O   LIG d   1      -7.726  80.582 118.405  0.00  0.00    -0.241 OA
ATOM     24  O   LIG d   1      -6.600  81.576 116.853  0.00  0.00    -0.241 OA
ENDBRANCH   3  22
TORSDOF 7
ENDMDL
MODEL 4
REMARK VINA RESULT:      -4.8      2.237      3.167
REMARK  7 active torsions:
REMARK  status: ('A' for Active; 'I' for Inactive)
REMARK    1  A    between atoms: C_2  and  C_3 
REMARK    2  A    between atoms: C_3  and  O_6 
REMARK    3  A    between atoms: C_3  and  C_4 
REMARK    4  A    between atoms: C_7  and  O_6 
REMARK    5  A    between atoms: C_9  and  C_10 
REMARK    6  A    between atoms: N_15  and  C_14 
REMARK    7  A    between atoms: N_20  and  C_19 
REMARK       I    between atoms: C_22  and  N_20 
ROOT
ATOM      1  C   LIG d   1      -2.965  76.730 116.683  0.00  0.00     0.161 C 
ATOM      2  C   LIG d   1      -2.952  77.841 115.823  0.00  0.00     0.016 C 
ATOM      3  C   LIG d   1      -1.965  78.044 114.831  0.00  0.00     0.038 C 
ATOM      4  C   LIG d   1      -1.004  77.068 114.530  0.00  0.00     0.028 C 
ATOM      5  C   LIG d   1      -0.673  76.160 115.709  0.00  0.00    -0.047 C 
ATOM      6  C   LIG d   1      -1.989  75.600 116.296  0.00  0.00     0.091 C 
ENDROOT
BRANCH   1   7
ATOM      7  O   LIG d   1      -4.307  76.216 116.796  0.00  0.00    -0.368 OA
BRANCH   7   8
ATOM      8  C   LIG d   1      -5.261  76.704 115.821  0.00  0.00     0.119 C 
BRANCH   8   9
ATOM      9  C   LIG d   1      -6.515  77.164 116.590  0.00  0.00     0.028 C 
ATOM     10  C   LIG d   1      -6.287  78.482 117.349  0.00  0.00     0.006 C 
ENDBRANCH   8   9
BRANCH   8  11
ATOM     11  C   LIG d   1      -5.740  75.579 114.899  0.00  0.00     0.028 C 
ATOM     12  C   LIG d   1      -5.455  74.180 115.469  0.00  0.00     0.006 C 
ENDBRANCH   8  11
ENDBRANCH   7   8
ENDBRANCH   1   7
BRANCH   6  13
ATOM     13  N   LIG d   1      -1.761  74.768 117.506  0.00  0.00    -0.311 N 
ATOM     14  C   LIG d   1      -1.117  75.206 118.586  0.00  0.00     0.210 C 
ATOM     15  C   LIG d   1      -0.974  74.180 119.715  0.00  0.00     0.109 C 
ATOM     16  O   LIG d   1      -0.678  76.357 118.730  0.00  0.00    -0.276 OA
ATOM     17  H   LIG d   1      -2.112  73.830 117.487  0.00  0.00     0.149 HD
ENDBRANCH   6  13
BRANCH   5  18
ATOM     18  N   LIG d   1       0.236  75.106 115.219  0.00  0.00     0.381 N 
ATOM     19  H   LIG d   1       0.367  75.204 114.232  0.00  0.00    -0.090 HD
ATOM     20  H   LIG d   1      -0.181  74.209 115.395  0.00  0.00    -0.090 HD
ATOM     21  H   LIG d   1       1.114  75.169 115.686  0.00  0.00    -0.090 HD
ENDBRANCH   5  18
BRANCH   3  22
ATOM     22  C   LIG d   1      -1.909  79.254 114.155  0.00  0.00     0.382 C 
ATOM     23  O   LIG d   1      -0.980  80.062 114.392  0.00  0.00    -0.241 OA
ATOM     24  O   LIG d   1      -2.802  79.565 113.343  0.00  0.00    -0.241 OA
ENDBRANCH   3  22
TORSDOF 7
ENDMDL
MODEL 5
REMARK VINA RESULT:      -4.7      0.681      1.526
REMARK  7 active torsions:
REMARK  status: ('A' for Active; 'I' for Inactive)
REMARK    1  A    between atoms: C_2  and  C_3 
REMARK    2  A    between atoms: C_3  and  O_6 
REMARK    3  A    between atoms: C_3  and  C_4 
REMARK    4  A    between atoms: C_7  and  O_6 
REMARK    5  A    between atoms: C_9  and  C_10 
REMARK    6  A    between atoms: N_15  and  C_14 
REMARK    7  A    between atoms: N_20  and  C_19 
REMARK       I    between atoms: C_22  and  N_20 
ROOT
ATOM      1  C   LIG d   1      -2.925  78.932 115.985  0.00  0.00     0.161 C 
ATOM      2  C   LIG d   1      -2.998  79.908 114.977  0.00  0.00     0.016 C 
ATOM      3  C   LIG d   1      -2.288  79.821 113.758  0.00  0.00     0.038 C 
ATOM      4  C   LIG d   1      -1.570  78.671 113.398  0.00  0.00     0.028 C 
ATOM      5  C   LIG d   1      -1.058  77.878 114.596  0.00  0.00    -0.047 C 
ATOM      6  C   LIG d   1      -2.234  77.618 115.565  0.00  0.00     0.091 C 
ENDROOT
BRANCH   1   7
ATOM      7  O   LIG d   1      -4.244  78.662 116.500  0.00  0.00    -0.368 OA
BRANCH   7   8
ATOM      8  C   LIG d   1      -4.427  78.865 117.923  0.00  0.00     0.119 C 
BRANCH   8   9
ATOM      9  C   LIG d   1      -5.698  79.715 118.110  0.00  0.00     0.028 C 
ATOM     10  C   LIG d   1      -6.921  79.105 117.406  0.00  0.00     0.006 C 
ENDBRANCH   8   9
BRANCH   8  11
ATOM     11  C   LIG d   1      -3.289  79.700 118.518  0.00  0.00     0.028 C 
ATOM     12  C   LIG d   1      -3.791  80.815 119.449  0.00  0.00     0.006 C 
ENDBRANCH   8  11
ENDBRANCH   7   8
ENDBRANCH   1   7
BRANCH   6  13
ATOM     13  N   LIG d   1      -1.804  76.920 116.804  0.00  0.00    -0.311 N 
ATOM     14  C   LIG d   1      -2.343  75.778 117.227  0.00  0.00     0.210 C 
ATOM     15  C   LIG d   1      -1.766  75.237 118.539  0.00  0.00     0.109 C 
ATOM     16  O   LIG d   1      -3.222  75.145 116.624  0.00  0.00    -0.276 OA
ATOM     17  H   LIG d   1      -1.074  77.348 117.339  0.00  0.00     0.149 HD
ENDBRANCH   6  13
BRANCH   5  18
ATOM     18  N   LIG d   1      -0.449  76.637 114.081  0.00  0.00     0.381 N 
ATOM     19  H   LIG d   1       0.139  76.232 114.781  0.00  0.00    -0.090 HD
ATOM     20  H   LIG d   1       0.120  76.861 113.283  0.00  0.00    -0.090 HD
ATOM     21  H   LIG d   1      -1.160  75.990 113.820  0.00  0.00    -0.090 HD
ENDBRANCH   5  18
BRANCH   3  22
ATOM     22  C   LIG d   1      -2.261  80.910 112.900  0.00  0.00     0.382 C 
ATOM     23  O   LIG d   1      -1.303  81.056 112.102  0.00  0.00    -0.241 OA
ATOM     24  O   LIG d   1      -3.158  81.773 112.945  0.00  0.00    -0.241 OA
ENDBRANCH   3  22
TORSDOF 7
ENDMDL
MODEL 6
REMARK VINA RESULT:      -4.7      2.701      3.362
REMARK  7 active torsions:
REMARK  status: ('A' for Active; 'I' for Inactive)
REMARK    1  A    between atoms: C_2  and  C_3 
REMARK    2  A    between atoms: C_3  and  O_6 
REMARK    3  A    between atoms: C_3  and  C_4 
REMARK    4  A    between atoms: C_7  and  O_6 
REMARK    5  A    between atoms: C_9  and  C_10 
REMARK    6  A    between atoms: N_15  and  C_14 
REMARK    7  A    between atoms: N_20  and  C_19 
REMARK       I    between atoms: C_22  and  N_20 
ROOT
ATOM      1  C   LIG d   1      -3.069  78.420 116.945  0.00  0.00     0.161 C 
ATOM      2  C   LIG d   1      -2.140  79.338 117.463  0.00  0.00     0.016 C 
ATOM      3  C   LIG d   1      -0.760  79.304 117.157  0.00  0.00     0.038 C 
ATOM      4  C   LIG d   1      -0.237  78.438 116.185  0.00  0.00     0.028 C 
ATOM      5  C   LIG d   1      -1.052  77.161 116.012  0.00  0.00    -0.047 C 
ATOM      6  C   LIG d   1      -2.535  77.537 115.798  0.00  0.00     0.091 C 
ENDROOT
BRANCH   1   7
ATOM      7  O   LIG d   1      -4.262  79.115 116.530  0.00  0.00    -0.368 OA
BRANCH   7   8
ATOM      8  C   LIG d   1      -5.348  79.146 117.489  0.00  0.00     0.119 C 
BRANCH   8   9
ATOM      9  C   LIG d   1      -6.413  78.139 117.015  0.00  0.00     0.028 C 
ATOM     10  C   LIG d   1      -6.393  76.836 117.831  0.00  0.00     0.006 C 
ENDBRANCH   8   9
BRANCH   8  11
ATOM     11  C   LIG d   1      -6.049  80.508 117.491  0.00  0.00     0.028 C 
ATOM     12  C   LIG d   1      -7.555  80.401 117.778  0.00  0.00     0.006 C 
ENDBRANCH   8  11
ENDBRANCH   7   8
ENDBRANCH   1   7
BRANCH   6  13
ATOM     13  N   LIG d   1      -3.415  76.343 115.703  0.00  0.00    -0.311 N 
ATOM     14  C   LIG d   1      -4.195  76.088 114.654  0.00  0.00     0.210 C 
ATOM     15  C   LIG d   1      -5.037  74.814 114.768  0.00  0.00     0.109 C 
ATOM     16  O   LIG d   1      -4.245  76.780 113.625  0.00  0.00    -0.276 OA
ATOM     17  H   LIG d   1      -3.413  75.712 116.481  0.00  0.00     0.149 HD
ENDBRANCH   6  13
BRANCH   5  18
ATOM     18  N   LIG d   1      -0.475  76.415 114.877  0.00  0.00     0.381 N 
ATOM     19  H   LIG d   1      -0.986  75.567 114.734  0.00  0.00    -0.090 HD
ATOM     20  H   LIG d   1       0.477  76.177 115.094  0.00  0.00    -0.090 HD
ATOM     21  H   LIG d   1      -0.506  76.973 114.052  0.00  0.00    -0.090 HD
ENDBRANCH   5  18
BRANCH   3  22
ATOM     22  C   LIG d   1       0.119  80.119 117.855  0.00  0.00     0.382 C 
ATOM     23  O   LIG d   1       0.370  79.881 119.061  0.00  0.00    -0.241 OA
ATOM     24  O   LIG d   1       0.629  81.114 117.306  0.00  0.00    -0.241 OA
ENDBRANCH   3  22
TORSDOF 7
ENDMDL
MODEL 7
REMARK VINA RESULT:      -4.5      2.902      3.832
REMARK  7 active torsions:
REMARK  status: ('A' for Active; 'I' for Inactive)
REMARK    1  A    between atoms: C_2  and  C_3 
REMARK    2  A    between atoms: C_3  and  O_6 
REMARK    3  A    between atoms: C_3  and  C_4 
REMARK    4  A    between atoms: C_7  and  O_6 
REMARK    5  A    between atoms: C_9  and  C_10 
REMARK    6  A    between atoms: N_15  and  C_14 
REMARK    7  A    between atoms: N_20  and  C_19 
REMARK       I    between atoms: C_22  and  N_20 
ROOT
ATOM      1  C   LIG d   1      -4.553  77.714 117.701  0.00  0.00     0.161 C 
ATOM      2  C   LIG d   1      -3.401  78.406 117.294  0.00  0.00     0.016 C 
ATOM      3  C   LIG d   1      -2.764  78.194 116.050  0.00  0.00     0.038 C 
ATOM      4  C   LIG d   1      -3.328  77.377 115.059  0.00  0.00     0.028 C 
ATOM      5  C   LIG d   1      -4.218  76.273 115.618  0.00  0.00    -0.047 C 
ATOM      6  C   LIG d   1      -5.246  76.900 116.588  0.00  0.00     0.091 C 
ENDROOT
BRANCH   1   7
ATOM      7  O   LIG d   1      -5.487  78.631 118.305  0.00  0.00    -0.368 OA
BRANCH   7   8
ATOM      8  C   LIG d   1      -6.342  79.363 117.393  0.00  0.00     0.119 C 
BRANCH   8   9
ATOM      9  C   LIG d   1      -6.024  80.861 117.562  0.00  0.00     0.028 C 
ATOM     10  C   LIG d   1      -7.271  81.747 117.406  0.00  0.00     0.006 C 
ENDBRANCH   8   9
BRANCH   8  11
ATOM     11  C   LIG d   1      -7.818  79.216 117.775  0.00  0.00     0.028 C 
ATOM     12  C   LIG d   1      -8.020  78.461 119.098  0.00  0.00     0.006 C 
ENDBRANCH   8  11
ENDBRANCH   7   8
ENDBRANCH   1   7
BRANCH   6  13
ATOM     13  N   LIG d   1      -6.102  75.878 117.244  0.00  0.00    -0.311 N 
ATOM     14  C   LIG d   1      -7.343  75.598 116.849  0.00  0.00     0.210 C 
ATOM     15  C   LIG d   1      -8.059  74.526 117.677  0.00  0.00     0.109 C 
ATOM     16  O   LIG d   1      -7.908  76.114 115.873  0.00  0.00    -0.276 OA
ATOM     17  H   LIG d   1      -5.712  75.389 118.026  0.00  0.00     0.149 HD
ENDBRANCH   6  13
BRANCH   5  18
ATOM     18  N   LIG d   1      -4.848  75.586 114.474  0.00  0.00     0.381 N 
ATOM     19  H   LIG d   1      -5.401  76.235 113.952  0.00  0.00    -0.090 HD
ATOM     20  H   LIG d   1      -5.454  74.863 114.822  0.00  0.00    -0.090 HD
ATOM     21  H   LIG d   1      -4.147  75.188 113.888  0.00  0.00    -0.090 HD
ENDBRANCH   5  18
BRANCH   3  22
ATOM     22  C   LIG d   1      -1.528  78.772 115.803  0.00  0.00     0.382 C 
ATOM     23  O   LIG d   1      -0.747  78.250 114.972  0.00  0.00    -0.241 OA
ATOM     24  O   LIG d   1      -1.167  79.784 116.433  0.00  0.00    -0.241 OA
ENDBRANCH   3  22
TORSDOF 7
ENDMDL
MODEL 8
REMARK VINA RESULT:      -4.5      2.910      5.621
REMARK  7 active torsions:
REMARK  status: ('A' for Active; 'I' for Inactive)
REMARK    1  A    between atoms: C_2  and  C_3 
REMARK    2  A    between atoms: C_3  and  O_6 
REMARK    3  A    between atoms: C_3  and  C_4 
REMARK    4  A    between atoms: C_7  and  O_6 
REMARK    5  A    between atoms: C_9  and  C_10 
REMARK    6  A    between atoms: N_15  and  C_14 
REMARK    7  A    between atoms: N_20  and  C_19 
REMARK       I    between atoms: C_22  and  N_20 
ROOT
ATOM      1  C   LIG d   1      -2.102  77.445 114.879  0.00  0.00     0.161 C 
ATOM      2  C   LIG d   1      -3.240  76.651 114.662  0.00  0.00     0.016 C 
ATOM      3  C   LIG d   1      -3.833  75.851 115.665  0.00  0.00     0.038 C 
ATOM      4  C   LIG d   1      -3.414  75.908 117.003  0.00  0.00     0.028 C 
ATOM      5  C   LIG d   1      -1.952  76.310 117.163  0.00  0.00    -0.047 C 
ATOM      6  C   LIG d   1      -1.697  77.606 116.359  0.00  0.00     0.091 C 
ENDROOT
BRANCH   1   7
ATOM      7  O   LIG d   1      -2.283  78.737 114.266  0.00  0.00    -0.368 OA
BRANCH   7   8
ATOM      8  C   LIG d   1      -1.561  78.964 113.030  0.00  0.00     0.119 C 
BRANCH   8   9
ATOM      9  C   LIG d   1      -1.321  80.481 112.906  0.00  0.00     0.028 C 
ATOM     10  C   LIG d   1      -2.632  81.285 112.918  0.00  0.00     0.006 C 
ENDBRANCH   8   9
BRANCH   8  11
ATOM     11  C   LIG d   1      -2.410  78.586 111.812  0.00  0.00     0.028 C 
ATOM     12  C   LIG d   1      -1.561  78.153 110.606  0.00  0.00     0.006 C 
ENDBRANCH   8  11
ENDBRANCH   7   8
ENDBRANCH   1   7
BRANCH   6  13
ATOM     13  N   LIG d   1      -0.271  78.023 116.393  0.00  0.00    -0.311 N 
ATOM     14  C   LIG d   1       0.122  79.269 116.653  0.00  0.00     0.210 C 
ATOM     15  C   LIG d   1       1.638  79.489 116.619  0.00  0.00     0.109 C 
ATOM     16  O   LIG d   1      -0.639  80.205 116.940  0.00  0.00    -0.276 OA
ATOM     17  H   LIG d   1       0.415  77.319 116.203  0.00  0.00     0.149 HD
ENDBRANCH   6  13
BRANCH   5  18
ATOM     18  N   LIG d   1      -1.688  76.464 118.606  0.00  0.00     0.381 N 
ATOM     19  H   LIG d   1      -0.754  76.169 118.813  0.00  0.00    -0.090 HD
ATOM     20  H   LIG d   1      -2.324  75.879 119.117  0.00  0.00    -0.090 HD
ATOM     21  H   LIG d   1      -1.810  77.415 118.876  0.00  0.00    -0.090 HD
ENDBRANCH   5  18
BRANCH   3  22
ATOM     22  C   LIG d   1      -4.832  74.952 115.326  0.00  0.00     0.382 C 
ATOM     23  O   LIG d   1      -5.499  74.386 116.225  0.00  0.00    -0.241 OA
ATOM     24  O   LIG d   1      -5.046  74.665 114.132  0.00  0.00    -0.241 OA
ENDBRANCH   3  22
TORSDOF 7
ENDMDL
MODEL 9
REMARK VINA RESULT:      -4.3      2.733      3.510
REMARK  7 active torsions:
REMARK  status: ('A' for Active; 'I' for Inactive)
REMARK    1  A    between atoms: C_2  and  C_3 
REMARK    2  A    between atoms: C_3  and  O_6 
REMARK    3  A    between atoms: C_3  and  C_4 
REMARK    4  A    between atoms: C_7  and  O_6 
REMARK    5  A    between atoms: C_9  and  C_10 
REMARK    6  A    between atoms: N_15  and  C_14 
REMARK    7  A    between atoms: N_20  and  C_19 
REMARK       I    between atoms: C_22  and  N_20 
ROOT
ATOM      1  C   LIG d   1      -1.833  77.787 115.971  0.00  0.00     0.161 C 
ATOM      2  C   LIG d   1      -2.322  78.405 114.809  0.00  0.00     0.016 C 
ATOM      3  C   LIG d   1      -1.597  79.376 114.080  0.00  0.00     0.038 C 
ATOM      4  C   LIG d   1      -0.262  79.686 114.382  0.00  0.00     0.028 C 
ATOM      5  C   LIG d   1       0.096  79.458 115.846  0.00  0.00    -0.047 C 
ATOM      6  C   LIG d   1      -0.335  78.030 116.252  0.00  0.00     0.091 C 
ENDROOT
BRANCH   1   7
ATOM      7  O   LIG d   1      -2.111  76.373 115.926  0.00  0.00    -0.368 OA
BRANCH   7   8
ATOM      8  C   LIG d   1      -3.004  75.866 116.948  0.00  0.00     0.119 C 
BRANCH   8   9
ATOM      9  C   LIG d   1      -2.197  74.890 117.826  0.00  0.00     0.028 C 
ATOM     10  C   LIG d   1      -2.116  75.349 119.292  0.00  0.00     0.006 C 
ENDBRANCH   8   9
BRANCH   8  11
ATOM     11  C   LIG d   1      -4.130  75.027 116.338  0.00  0.00     0.028 C 
ATOM     12  C   LIG d   1      -4.550  75.517 114.943  0.00  0.00     0.006 C 
ENDBRANCH   8  11
ENDBRANCH   7   8
ENDBRANCH   1   7
BRANCH   6  13
ATOM     13  N   LIG d   1      -0.097  77.753 117.692  0.00  0.00    -0.311 N 
ATOM     14  C   LIG d   1       1.051  77.271 118.167  0.00  0.00     0.210 C 
ATOM     15  C   LIG d   1       1.078  77.040 119.681  0.00  0.00     0.109 C 
ATOM     16  O   LIG d   1       2.059  77.042 117.481  0.00  0.00    -0.276 OA
ATOM     17  H   LIG d   1      -0.851  77.940 118.324  0.00  0.00     0.149 HD
ENDBRANCH   6  13
BRANCH   5  18
ATOM     18  N   LIG d   1       1.547  79.686 115.991  0.00  0.00     0.381 N 
ATOM     19  H   LIG d   1       1.980  78.875 116.383  0.00  0.00    -0.090 HD
ATOM     20  H   LIG d   1       1.693  80.457 116.619  0.00  0.00    -0.090 HD
ATOM     21  H   LIG d   1       1.950  79.891 115.103  0.00  0.00    -0.090 HD
ENDBRANCH   5  18
BRANCH   3  22
ATOM     22  C   LIG d   1      -2.222  80.078 113.060  0.00  0.00     0.382 C 
ATOM     23  O   LIG d   1      -3.154  80.874 113.327  0.00  0.00    -0.241 OA
ATOM     24  O   LIG d   1      -1.894  79.893 111.873  0.00  0.00    -0.241 OA
ENDBRANCH   3  22
TORSDOF 7
ENDMDL
