MODEL 1
REMARK VINA RESULT:      -5.3      0.000      0.000
REMARK  7 active torsions:
REMARK  status: ('A' for Active; 'I' for Inactive)
REMARK    1  A    between atoms: C_2  and  C_3 
REMARK    2  A    between atoms: C_3  and  O_6 
REMARK    3  A    between atoms: C_3  and  C_4 
REMARK    4  A    between atoms: C_7  and  O_6 
REMARK    5  A    between atoms: C_9  and  C_10 
REMARK    6  A    between atoms: N_15  and  C_14 
REMARK    7  A    between atoms: N_20  and  C_19 
REMARK       I    between atoms: C_22  and  N_20 
ROOT
ATOM      1  C   LIG d   1      -2.070  81.338 112.459  0.00  0.00     0.161 C 
ATOM      2  C   LIG d   1      -2.635  80.174 113.007  0.00  0.00     0.016 C 
ATOM      3  C   LIG d   1      -2.172  78.871 112.711  0.00  0.00     0.038 C 
ATOM      4  C   LIG d   1      -1.009  78.650 111.960  0.00  0.00     0.028 C 
ATOM      5  C   LIG d   1      -0.702  79.772 110.973  0.00  0.00    -0.047 C 
ATOM      6  C   LIG d   1      -0.730  81.123 111.725  0.00  0.00     0.091 C 
ENDROOT
BRANCH   1   7
ATOM      7  O   LIG d   1      -1.924  82.340 113.485  0.00  0.00    -0.368 OA
BRANCH   7   8
ATOM      8  C   LIG d   1      -0.841  82.136 114.426  0.00  0.00     0.119 C 
BRANCH   8   9
ATOM      9  C   LIG d   1      -1.461  82.058 115.834  0.00  0.00     0.028 C 
ATOM     10  C   LIG d   1      -0.415  82.242 116.947  0.00  0.00     0.006 C 
ENDBRANCH   8   9
BRANCH   8  11
ATOM     11  C   LIG d   1       0.100  83.343 114.463  0.00  0.00     0.028 C 
ATOM     12  C   LIG d   1      -0.405  84.519 113.611  0.00  0.00     0.006 C 
ENDBRANCH   8  11
ENDBRANCH   7   8
ENDBRANCH   1   7
BRANCH   6  13
ATOM     13  N   LIG d   1      -0.523  82.281 110.817  0.00  0.00    -0.311 N 
ATOM     14  C   LIG d   1       0.666  82.838 110.598  0.00  0.00     0.210 C 
ATOM     15  C   LIG d   1       0.654  84.035 109.642  0.00  0.00     0.109 C 
ATOM     16  O   LIG d   1       1.735  82.435 111.081  0.00  0.00    -0.276 OA
ATOM     17  H   LIG d   1      -1.333  82.652 110.359  0.00  0.00     0.149 HD
ENDBRANCH   6  13
BRANCH   5  18
ATOM     18  N   LIG d   1       0.606  79.479 110.357  0.00  0.00     0.381 N 
ATOM     19  H   LIG d   1       0.708  78.492 110.232  0.00  0.00    -0.090 HD
ATOM     20  H   LIG d   1       1.333  79.796 110.974  0.00  0.00    -0.090 HD
ATOM     21  H   LIG d   1       0.680  79.942 109.478  0.00  0.00    -0.090 HD
ENDBRANCH   5  18
BRANCH   3  22
ATOM     22  C   LIG d   1      -2.900  77.771 113.137  0.00  0.00     0.382 C 
ATOM     23  O   LIG d   1      -2.418  76.994 113.996  0.00  0.00    -0.241 OA
ATOM     24  O   LIG d   1      -4.015  77.520 112.640  0.00  0.00    -0.241 OA
ENDBRANCH   3  22
TORSDOF 7
ENDMDL
MODEL 2
REMARK VINA RESULT:      -5.1      2.678      5.419
REMARK  7 active torsions:
REMARK  status: ('A' for Active; 'I' for Inactive)
REMARK    1  A    between atoms: C_2  and  C_3 
REMARK    2  A    between atoms: C_3  and  O_6 
REMARK    3  A    between atoms: C_3  and  C_4 
REMARK    4  A    between atoms: C_7  and  O_6 
REMARK    5  A    between atoms: C_9  and  C_10 
REMARK    6  A    between atoms: N_15  and  C_14 
REMARK    7  A    between atoms: N_20  and  C_19 
REMARK       I    between atoms: C_22  and  N_20 
ROOT
ATOM      1  C   LIG d   1      -2.304  80.511 114.843  0.00  0.00     0.161 C 
ATOM      2  C   LIG d   1      -1.942  81.658 114.118  0.00  0.00     0.016 C 
ATOM      3  C   LIG d   1      -1.389  81.614 112.817  0.00  0.00     0.038 C 
ATOM      4  C   LIG d   1      -1.300  80.418 112.089  0.00  0.00     0.028 C 
ATOM      5  C   LIG d   1      -1.185  79.180 112.971  0.00  0.00    -0.047 C 
ATOM      6  C   LIG d   1      -2.318  79.205 114.022  0.00  0.00     0.091 C 
ENDROOT
BRANCH   1   7
ATOM      7  O   LIG d   1      -3.582  80.717 115.478  0.00  0.00    -0.368 OA
BRANCH   7   8
ATOM      8  C   LIG d   1      -3.577  81.549 116.665  0.00  0.00     0.119 C 
BRANCH   8   9
ATOM      9  C   LIG d   1      -2.641  80.884 117.692  0.00  0.00     0.028 C 
ATOM     10  C   LIG d   1      -1.612  81.869 118.273  0.00  0.00     0.006 C 
ENDBRANCH   8   9
BRANCH   8  11
ATOM     11  C   LIG d   1      -4.956  81.577 117.331  0.00  0.00     0.028 C 
ATOM     12  C   LIG d   1      -5.478  80.174 117.678  0.00  0.00     0.006 C 
ENDBRANCH   8  11
ENDBRANCH   7   8
ENDBRANCH   1   7
BRANCH   6  13
ATOM     13  N   LIG d   1      -2.228  78.071 114.980  0.00  0.00    -0.311 N 
ATOM     14  C   LIG d   1      -2.929  76.946 114.852  0.00  0.00     0.210 C 
ATOM     15  C   LIG d   1      -2.702  75.913 115.960  0.00  0.00     0.109 C 
ATOM     16  O   LIG d   1      -3.694  76.693 113.909  0.00  0.00    -0.276 OA
ATOM     17  H   LIG d   1      -1.607  78.180 115.758  0.00  0.00     0.149 HD
ENDBRANCH   6  13
BRANCH   5  18
ATOM     18  N   LIG d   1      -1.239  77.998 112.090  0.00  0.00     0.381 N 
ATOM     19  H   LIG d   1      -1.996  77.405 112.365  0.00  0.00    -0.090 HD
ATOM     20  H   LIG d   1      -0.383  77.482 112.185  0.00  0.00    -0.090 HD
ATOM     21  H   LIG d   1      -1.359  78.284 111.143  0.00  0.00    -0.090 HD
ENDBRANCH   5  18
BRANCH   3  22
ATOM     22  C   LIG d   1      -0.881  82.772 112.247  0.00  0.00     0.382 C 
ATOM     23  O   LIG d   1       0.115  83.338 112.758  0.00  0.00    -0.241 OA
ATOM     24  O   LIG d   1      -1.434  83.282 111.254  0.00  0.00    -0.241 OA
ENDBRANCH   3  22
TORSDOF 7
ENDMDL
MODEL 3
REMARK VINA RESULT:      -5.0      1.986      3.874
REMARK  7 active torsions:
REMARK  status: ('A' for Active; 'I' for Inactive)
REMARK    1  A    between atoms: C_2  and  C_3 
REMARK    2  A    between atoms: C_3  and  O_6 
REMARK    3  A    between atoms: C_3  and  C_4 
REMARK    4  A    between atoms: C_7  and  O_6 
REMARK    5  A    between atoms: C_9  and  C_10 
REMARK    6  A    between atoms: N_15  and  C_14 
REMARK    7  A    between atoms: N_20  and  C_19 
REMARK       I    between atoms: C_22  and  N_20 
ROOT
ATOM      1  C   LIG d   1      -0.552  80.770 112.098  0.00  0.00     0.161 C 
ATOM      2  C   LIG d   1      -1.302  79.583 112.056  0.00  0.00     0.016 C 
ATOM      3  C   LIG d   1      -2.105  79.131 113.128  0.00  0.00     0.038 C 
ATOM      4  C   LIG d   1      -2.333  79.918 114.267  0.00  0.00     0.028 C 
ATOM      5  C   LIG d   1      -1.198  80.891 114.568  0.00  0.00    -0.047 C 
ATOM      6  C   LIG d   1      -0.876  81.697 113.289  0.00  0.00     0.091 C 
ENDROOT
BRANCH   1   7
ATOM      7  O   LIG d   1      -0.696  81.483 110.854  0.00  0.00    -0.368 OA
BRANCH   7   8
ATOM      8  C   LIG d   1       0.466  81.495 109.988  0.00  0.00     0.119 C 
BRANCH   8   9
ATOM      9  C   LIG d   1       1.641  80.892 110.782  0.00  0.00     0.028 C 
ATOM     10  C   LIG d   1       2.302  79.713 110.047  0.00  0.00     0.006 C 
ENDBRANCH   8   9
BRANCH   8  11
ATOM     11  C   LIG d   1       0.896  82.926 109.652  0.00  0.00     0.028 C 
ATOM     12  C   LIG d   1       2.320  83.248 110.131  0.00  0.00     0.006 C 
ENDBRANCH   8  11
ENDBRANCH   7   8
ENDBRANCH   1   7
BRANCH   6  13
ATOM     13  N   LIG d   1       0.280  82.613 113.472  0.00  0.00    -0.311 N 
ATOM     14  C   LIG d   1       0.222  83.922 113.237  0.00  0.00     0.210 C 
ATOM     15  C   LIG d   1       1.533  84.680 113.471  0.00  0.00     0.109 C 
ATOM     16  O   LIG d   1      -0.799  84.534 112.888  0.00  0.00    -0.276 OA
ATOM     17  H   LIG d   1       1.140  82.205 113.783  0.00  0.00     0.149 HD
ENDBRANCH   6  13
BRANCH   5  18
ATOM     18  N   LIG d   1      -1.626  81.741 115.694  0.00  0.00     0.381 N 
ATOM     19  H   LIG d   1      -2.625  81.789 115.721  0.00  0.00    -0.090 HD
ATOM     20  H   LIG d   1      -1.269  82.670 115.555  0.00  0.00    -0.090 HD
ATOM     21  H   LIG d   1      -1.281  81.370 116.552  0.00  0.00    -0.090 HD
ENDBRANCH   5  18
BRANCH   3  22
ATOM     22  C   LIG d   1      -2.659  77.860 113.084  0.00  0.00     0.382 C 
ATOM     23  O   LIG d   1      -3.777  77.682 112.544  0.00  0.00    -0.241 OA
ATOM     24  O   LIG d   1      -2.074  76.898 113.617  0.00  0.00    -0.241 OA
ENDBRANCH   3  22
TORSDOF 7
ENDMDL
MODEL 4
REMARK VINA RESULT:      -5.0      2.005      4.187
REMARK  7 active torsions:
REMARK  status: ('A' for Active; 'I' for Inactive)
REMARK    1  A    between atoms: C_2  and  C_3 
REMARK    2  A    between atoms: C_3  and  O_6 
REMARK    3  A    between atoms: C_3  and  C_4 
REMARK    4  A    between atoms: C_7  and  O_6 
REMARK    5  A    between atoms: C_9  and  C_10 
REMARK    6  A    between atoms: N_15  and  C_14 
REMARK    7  A    between atoms: N_20  and  C_19 
REMARK       I    between atoms: C_22  and  N_20 
ROOT
ATOM      1  C   LIG d   1      -0.052  80.433 112.445  0.00  0.00     0.161 C 
ATOM      2  C   LIG d   1      -0.837  79.270 112.394  0.00  0.00     0.016 C 
ATOM      3  C   LIG d   1      -2.075  79.136 113.065  0.00  0.00     0.038 C 
ATOM      4  C   LIG d   1      -2.686  80.218 113.715  0.00  0.00     0.028 C 
ATOM      5  C   LIG d   1      -1.695  81.262 114.218  0.00  0.00    -0.047 C 
ATOM      6  C   LIG d   1      -0.756  81.662 113.057  0.00  0.00     0.091 C 
ENDROOT
BRANCH   1   7
ATOM      7  O   LIG d   1       0.446  80.745 111.129  0.00  0.00    -0.368 OA
BRANCH   7   8
ATOM      8  C   LIG d   1       1.880  80.644 110.950  0.00  0.00     0.119 C 
BRANCH   8   9
ATOM      9  C   LIG d   1       2.391  82.032 110.516  0.00  0.00     0.028 C 
ATOM     10  C   LIG d   1       1.427  82.735 109.545  0.00  0.00     0.006 C 
ENDBRANCH   8   9
BRANCH   8  11
ATOM     11  C   LIG d   1       2.233  79.703 109.794  0.00  0.00     0.028 C 
ATOM     12  C   LIG d   1       1.084  78.749 109.431  0.00  0.00     0.006 C 
ENDBRANCH   8  11
ENDBRANCH   7   8
ENDBRANCH   1   7
BRANCH   6  13
ATOM     13  N   LIG d   1       0.299  82.618 113.485  0.00  0.00    -0.311 N 
ATOM     14  C   LIG d   1       0.415  83.851 112.994  0.00  0.00     0.210 C 
ATOM     15  C   LIG d   1       1.584  84.664 113.558  0.00  0.00     0.109 C 
ATOM     16  O   LIG d   1      -0.359  84.359 112.170  0.00  0.00    -0.276 OA
ATOM     17  H   LIG d   1       0.951  82.298 114.175  0.00  0.00     0.149 HD
ENDBRANCH   6  13
BRANCH   5  18
ATOM     18  N   LIG d   1      -2.473  82.397 114.749  0.00  0.00     0.381 N 
ATOM     19  H   LIG d   1      -2.104  82.676 115.636  0.00  0.00    -0.090 HD
ATOM     20  H   LIG d   1      -3.425  82.104 114.882  0.00  0.00    -0.090 HD
ATOM     21  H   LIG d   1      -2.440  83.162 114.112  0.00  0.00    -0.090 HD
ENDBRANCH   5  18
BRANCH   3  22
ATOM     22  C   LIG d   1      -2.694  77.897 113.125  0.00  0.00     0.382 C 
ATOM     23  O   LIG d   1      -3.778  77.708 112.522  0.00  0.00    -0.241 OA
ATOM     24  O   LIG d   1      -2.205  76.979 113.810  0.00  0.00    -0.241 OA
ENDBRANCH   3  22
TORSDOF 7
ENDMDL
MODEL 5
REMARK VINA RESULT:      -5.0      0.920      1.726
REMARK  7 active torsions:
REMARK  status: ('A' for Active; 'I' for Inactive)
REMARK    1  A    between atoms: C_2  and  C_3 
REMARK    2  A    between atoms: C_3  and  O_6 
REMARK    3  A    between atoms: C_3  and  C_4 
REMARK    4  A    between atoms: C_7  and  O_6 
REMARK    5  A    between atoms: C_9  and  C_10 
REMARK    6  A    between atoms: N_15  and  C_14 
REMARK    7  A    between atoms: N_20  and  C_19 
REMARK       I    between atoms: C_22  and  N_20 
ROOT
ATOM      1  C   LIG d   1      -1.066  80.955 112.427  0.00  0.00     0.161 C 
ATOM      2  C   LIG d   1      -1.845  79.951 113.026  0.00  0.00     0.016 C 
ATOM      3  C   LIG d   1      -1.981  78.649 112.492  0.00  0.00     0.038 C 
ATOM      4  C   LIG d   1      -1.221  78.214 111.396  0.00  0.00     0.028 C 
ATOM      5  C   LIG d   1      -0.805  79.344 110.461  0.00  0.00    -0.047 C 
ATOM      6  C   LIG d   1      -0.141  80.465 111.293  0.00  0.00     0.091 C 
ENDROOT
BRANCH   1   7
ATOM      7  O   LIG d   1      -0.300  81.645 113.434  0.00  0.00    -0.368 OA
BRANCH   7   8
ATOM      8  C   LIG d   1      -1.018  82.631 114.217  0.00  0.00     0.119 C 
BRANCH   8   9
ATOM      9  C   LIG d   1      -0.424  84.012 113.881  0.00  0.00     0.028 C 
ATOM     10  C   LIG d   1       1.102  83.964 113.694  0.00  0.00     0.006 C 
ENDBRANCH   8   9
BRANCH   8  11
ATOM     11  C   LIG d   1      -0.773  82.438 115.716  0.00  0.00     0.028 C 
ATOM     12  C   LIG d   1      -1.894  81.643 116.406  0.00  0.00     0.006 C 
ENDBRANCH   8  11
ENDBRANCH   7   8
ENDBRANCH   1   7
BRANCH   6  13
ATOM     13  N   LIG d   1       0.220  81.646 110.466  0.00  0.00    -0.311 N 
ATOM     14  C   LIG d   1       1.443  82.173 110.436  0.00  0.00     0.210 C 
ATOM     15  C   LIG d   1       1.596  83.401 109.532  0.00  0.00     0.109 C 
ATOM     16  O   LIG d   1       2.423  81.722 111.047  0.00  0.00    -0.276 OA
ATOM     17  H   LIG d   1      -0.507  82.057 109.914  0.00  0.00     0.149 HD
ENDBRANCH   6  13
BRANCH   5  18
ATOM     18  N   LIG d   1       0.095  78.770 109.442  0.00  0.00     0.381 N 
ATOM     19  H   LIG d   1       0.552  77.961 109.811  0.00  0.00    -0.090 HD
ATOM     20  H   LIG d   1       0.797  79.450 109.208  0.00  0.00    -0.090 HD
ATOM     21  H   LIG d   1      -0.425  78.525 108.628  0.00  0.00    -0.090 HD
ENDBRANCH   5  18
BRANCH   3  22
ATOM     22  C   LIG d   1      -2.916  77.779 113.032  0.00  0.00     0.382 C 
ATOM     23  O   LIG d   1      -2.663  77.170 114.099  0.00  0.00    -0.241 OA
ATOM     24  O   LIG d   1      -3.992  77.563 112.443  0.00  0.00    -0.241 OA
ENDBRANCH   3  22
TORSDOF 7
ENDMDL
MODEL 6
REMARK VINA RESULT:      -4.7      2.212      5.033
REMARK  7 active torsions:
REMARK  status: ('A' for Active; 'I' for Inactive)
REMARK    1  A    between atoms: C_2  and  C_3 
REMARK    2  A    between atoms: C_3  and  O_6 
REMARK    3  A    between atoms: C_3  and  C_4 
REMARK    4  A    between atoms: C_7  and  O_6 
REMARK    5  A    between atoms: C_9  and  C_10 
REMARK    6  A    between atoms: N_15  and  C_14 
REMARK    7  A    between atoms: N_20  and  C_19 
REMARK       I    between atoms: C_22  and  N_20 
ROOT
ATOM      1  C   LIG d   1      -1.294  80.768 114.136  0.00  0.00     0.161 C 
ATOM      2  C   LIG d   1      -1.189  82.059 113.592  0.00  0.00     0.016 C 
ATOM      3  C   LIG d   1      -0.809  82.311 112.253  0.00  0.00     0.038 C 
ATOM      4  C   LIG d   1      -0.655  81.276 111.319  0.00  0.00     0.028 C 
ATOM      5  C   LIG d   1      -0.258  79.945 111.949  0.00  0.00    -0.047 C 
ATOM      6  C   LIG d   1      -1.237  79.624 113.102  0.00  0.00     0.091 C 
ENDROOT
BRANCH   1   7
ATOM      7  O   LIG d   1      -2.493  80.668 114.929  0.00  0.00    -0.368 OA
BRANCH   7   8
ATOM      8  C   LIG d   1      -2.304  80.387 116.337  0.00  0.00     0.119 C 
BRANCH   8   9
ATOM      9  C   LIG d   1      -3.511  79.553 116.808  0.00  0.00     0.028 C 
ATOM     10  C   LIG d   1      -3.570  79.417 118.339  0.00  0.00     0.006 C 
ENDBRANCH   8   9
BRANCH   8  11
ATOM     11  C   LIG d   1      -2.348  81.670 117.173  0.00  0.00     0.028 C 
ATOM     12  C   LIG d   1      -0.969  82.070 117.722  0.00  0.00     0.006 C 
ENDBRANCH   8  11
ENDBRANCH   7   8
ENDBRANCH   1   7
BRANCH   6  13
ATOM     13  N   LIG d   1      -0.870  78.380 113.827  0.00  0.00    -0.311 N 
ATOM     14  C   LIG d   1      -1.689  77.338 113.956  0.00  0.00     0.210 C 
ATOM     15  C   LIG d   1      -1.121  76.164 114.759  0.00  0.00     0.109 C 
ATOM     16  O   LIG d   1      -2.821  77.261 113.454  0.00  0.00    -0.276 OA
ATOM     17  H   LIG d   1       0.042  78.345 114.239  0.00  0.00     0.149 HD
ENDBRANCH   6  13
BRANCH   5  18
ATOM     18  N   LIG d   1      -0.267  78.927 110.883  0.00  0.00     0.381 N 
ATOM     19  H   LIG d   1      -1.162  78.912 110.436  0.00  0.00    -0.090 HD
ATOM     20  H   LIG d   1      -0.105  78.024 111.294  0.00  0.00    -0.090 HD
ATOM     21  H   LIG d   1       0.443  79.127 110.214  0.00  0.00    -0.090 HD
ENDBRANCH   5  18
BRANCH   3  22
ATOM     22  C   LIG d   1      -0.542  83.610 111.847  0.00  0.00     0.382 C 
ATOM     23  O   LIG d   1      -1.228  84.137 110.939  0.00  0.00    -0.241 OA
ATOM     24  O   LIG d   1       0.405  84.245 112.348  0.00  0.00    -0.241 OA
ENDBRANCH   3  22
TORSDOF 7
ENDMDL
MODEL 7
REMARK VINA RESULT:      -4.7      3.001      5.681
REMARK  7 active torsions:
REMARK  status: ('A' for Active; 'I' for Inactive)
REMARK    1  A    between atoms: C_2  and  C_3 
REMARK    2  A    between atoms: C_3  and  O_6 
REMARK    3  A    between atoms: C_3  and  C_4 
REMARK    4  A    between atoms: C_7  and  O_6 
REMARK    5  A    between atoms: C_9  and  C_10 
REMARK    6  A    between atoms: N_15  and  C_14 
REMARK    7  A    between atoms: N_20  and  C_19 
REMARK       I    between atoms: C_22  and  N_20 
ROOT
ATOM      1  C   LIG d   1      -2.186  78.408 114.163  0.00  0.00     0.161 C 
ATOM      2  C   LIG d   1      -1.839  77.982 112.870  0.00  0.00     0.016 C 
ATOM      3  C   LIG d   1      -1.507  78.869 111.820  0.00  0.00     0.038 C 
ATOM      4  C   LIG d   1      -1.352  80.247 112.035  0.00  0.00     0.028 C 
ATOM      5  C   LIG d   1      -2.183  80.775 113.200  0.00  0.00    -0.047 C 
ATOM      6  C   LIG d   1      -1.914  79.901 114.446  0.00  0.00     0.091 C 
ENDROOT
BRANCH   1   7
ATOM      7  O   LIG d   1      -1.525  77.584 115.143  0.00  0.00    -0.368 OA
BRANCH   7   8
ATOM      8  C   LIG d   1      -1.711  76.154 115.003  0.00  0.00     0.119 C 
BRANCH   8   9
ATOM      9  C   LIG d   1      -2.845  75.739 115.961  0.00  0.00     0.028 C 
ATOM     10  C   LIG d   1      -4.156  75.429 115.219  0.00  0.00     0.006 C 
ENDBRANCH   8   9
BRANCH   8  11
ATOM     11  C   LIG d   1      -0.477  75.382 115.478  0.00  0.00     0.028 C 
ATOM     12  C   LIG d   1      -0.590  74.917 116.939  0.00  0.00     0.006 C 
ENDBRANCH   8  11
ENDBRANCH   7   8
ENDBRANCH   1   7
BRANCH   6  13
ATOM     13  N   LIG d   1      -2.751  80.297 115.608  0.00  0.00    -0.311 N 
ATOM     14  C   LIG d   1      -2.372  81.202 116.509  0.00  0.00     0.210 C 
ATOM     15  C   LIG d   1      -3.376  81.449 117.640  0.00  0.00     0.109 C 
ATOM     16  O   LIG d   1      -1.314  81.848 116.462  0.00  0.00    -0.276 OA
ATOM     17  H   LIG d   1      -3.639  79.846 115.706  0.00  0.00     0.149 HD
ENDBRANCH   6  13
BRANCH   5  18
ATOM     18  N   LIG d   1      -1.821  82.191 113.399  0.00  0.00     0.381 N 
ATOM     19  H   LIG d   1      -1.314  82.526 112.604  0.00  0.00    -0.090 HD
ATOM     20  H   LIG d   1      -1.227  82.265 114.206  0.00  0.00    -0.090 HD
ATOM     21  H   LIG d   1      -2.644  82.738 113.532  0.00  0.00    -0.090 HD
ENDBRANCH   5  18
BRANCH   3  22
ATOM     22  C   LIG d   1      -1.366  78.384 110.529  0.00  0.00     0.382 C 
ATOM     23  O   LIG d   1      -1.238  77.152 110.333  0.00  0.00    -0.241 OA
ATOM     24  O   LIG d   1      -1.321  79.167 109.561  0.00  0.00    -0.241 OA
ENDBRANCH   3  22
TORSDOF 7
ENDMDL
MODEL 8
REMARK VINA RESULT:      -4.6      4.765      6.376
REMARK  7 active torsions:
REMARK  status: ('A' for Active; 'I' for Inactive)
REMARK    1  A    between atoms: C_2  and  C_3 
REMARK    2  A    between atoms: C_3  and  O_6 
REMARK    3  A    between atoms: C_3  and  C_4 
REMARK    4  A    between atoms: C_7  and  O_6 
REMARK    5  A    between atoms: C_9  and  C_10 
REMARK    6  A    between atoms: N_15  and  C_14 
REMARK    7  A    between atoms: N_20  and  C_19 
REMARK       I    between atoms: C_22  and  N_20 
ROOT
ATOM      1  C   LIG d   1      -1.661  77.740 115.589  0.00  0.00     0.161 C 
ATOM      2  C   LIG d   1      -2.857  77.397 114.937  0.00  0.00     0.016 C 
ATOM      3  C   LIG d   1      -3.460  76.122 115.038  0.00  0.00     0.038 C 
ATOM      4  C   LIG d   1      -2.985  75.145 115.925  0.00  0.00     0.028 C 
ATOM      5  C   LIG d   1      -1.494  75.270 116.222  0.00  0.00    -0.047 C 
ATOM      6  C   LIG d   1      -1.188  76.724 116.649  0.00  0.00     0.091 C 
ENDROOT
BRANCH   1   7
ATOM      7  O   LIG d   1      -1.782  79.053 116.172  0.00  0.00    -0.368 OA
BRANCH   7   8
ATOM      8  C   LIG d   1      -3.127  79.484 116.497  0.00  0.00     0.119 C 
BRANCH   8   9
ATOM      9  C   LIG d   1      -3.199  81.003 116.245  0.00  0.00     0.028 C 
ATOM     10  C   LIG d   1      -2.026  81.761 116.888  0.00  0.00     0.006 C 
ENDBRANCH   8   9
BRANCH   8  11
ATOM     11  C   LIG d   1      -3.423  79.307 117.989  0.00  0.00     0.028 C 
ATOM     12  C   LIG d   1      -4.601  78.355 118.254  0.00  0.00     0.006 C 
ENDBRANCH   8  11
ENDBRANCH   7   8
ENDBRANCH   1   7
BRANCH   6  13
ATOM     13  N   LIG d   1       0.263  76.954 116.877  0.00  0.00    -0.311 N 
ATOM     14  C   LIG d   1       0.835  76.891 118.078  0.00  0.00     0.210 C 
ATOM     15  C   LIG d   1       2.340  77.181 118.093  0.00  0.00     0.109 C 
ATOM     16  O   LIG d   1       0.247  76.590 119.127  0.00  0.00    -0.276 OA
ATOM     17  H   LIG d   1       0.821  77.173 116.075  0.00  0.00     0.149 HD
ENDBRANCH   6  13
BRANCH   5  18
ATOM     18  N   LIG d   1      -1.162  74.279 117.263  0.00  0.00     0.381 N 
ATOM     19  H   LIG d   1      -0.215  74.405 117.560  0.00  0.00    -0.090 HD
ATOM     20  H   LIG d   1      -1.251  73.357 116.874  0.00  0.00    -0.090 HD
ATOM     21  H   LIG d   1      -1.778  74.381 118.039  0.00  0.00    -0.090 HD
ENDBRANCH   5  18
BRANCH   3  22
ATOM     22  C   LIG d   1      -4.529  75.800 114.215  0.00  0.00     0.382 C 
ATOM     23  O   LIG d   1      -5.217  74.779 114.452  0.00  0.00    -0.241 OA
ATOM     24  O   LIG d   1      -4.786  76.494 113.213  0.00  0.00    -0.241 OA
ENDBRANCH   3  22
TORSDOF 7
ENDMDL
MODEL 9
REMARK VINA RESULT:      -4.6      2.365      4.133
REMARK  7 active torsions:
REMARK  status: ('A' for Active; 'I' for Inactive)
REMARK    1  A    between atoms: C_2  and  C_3 
REMARK    2  A    between atoms: C_3  and  O_6 
REMARK    3  A    between atoms: C_3  and  C_4 
REMARK    4  A    between atoms: C_7  and  O_6 
REMARK    5  A    between atoms: C_9  and  C_10 
REMARK    6  A    between atoms: N_15  and  C_14 
REMARK    7  A    between atoms: N_20  and  C_19 
REMARK       I    between atoms: C_22  and  N_20 
ROOT
ATOM      1  C   LIG d   1      -1.795  80.931 113.234  0.00  0.00     0.161 C 
ATOM      2  C   LIG d   1      -2.468  81.329 114.401  0.00  0.00     0.016 C 
ATOM      3  C   LIG d   1      -2.615  80.499 115.537  0.00  0.00     0.038 C 
ATOM      4  C   LIG d   1      -1.963  79.261 115.640  0.00  0.00     0.028 C 
ATOM      5  C   LIG d   1      -1.691  78.606 114.290  0.00  0.00    -0.047 C 
ATOM      6  C   LIG d   1      -0.982  79.626 113.370  0.00  0.00     0.091 C 
ENDROOT
BRANCH   1   7
ATOM      7  O   LIG d   1      -0.950  82.001 112.769  0.00  0.00    -0.368 OA
BRANCH   7   8
ATOM      8  C   LIG d   1      -0.634  83.032 113.737  0.00  0.00     0.119 C 
BRANCH   8   9
ATOM      9  C   LIG d   1      -0.448  84.352 112.964  0.00  0.00     0.028 C 
ATOM     10  C   LIG d   1      -0.546  84.159 111.441  0.00  0.00     0.006 C 
ENDBRANCH   8   9
BRANCH   8  11
ATOM     11  C   LIG d   1       0.713  82.765 114.415  0.00  0.00     0.028 C 
ATOM     12  C   LIG d   1       0.599  82.654 115.944  0.00  0.00     0.006 C 
ENDBRANCH   8  11
ENDBRANCH   7   8
ENDBRANCH   1   7
BRANCH   6  13
ATOM     13  N   LIG d   1      -0.755  79.093 112.002  0.00  0.00    -0.311 N 
ATOM     14  C   LIG d   1      -1.615  78.292 111.375  0.00  0.00     0.210 C 
ATOM     15  C   LIG d   1      -1.177  77.841 109.978  0.00  0.00     0.109 C 
ATOM     16  O   LIG d   1      -2.712  77.938 111.830  0.00  0.00    -0.276 OA
ATOM     17  H   LIG d   1       0.097  79.356 111.546  0.00  0.00     0.149 HD
ENDBRANCH   6  13
BRANCH   5  18
ATOM     18  N   LIG d   1      -0.888  77.394 114.537  0.00  0.00     0.381 N 
ATOM     19  H   LIG d   1      -1.097  76.702 113.845  0.00  0.00    -0.090 HD
ATOM     20  H   LIG d   1      -1.130  77.021 115.438  0.00  0.00    -0.090 HD
ATOM     21  H   LIG d   1       0.083  77.617 114.511  0.00  0.00    -0.090 HD
ENDBRANCH   5  18
BRANCH   3  22
ATOM     22  C   LIG d   1      -3.454  80.889 116.569  0.00  0.00     0.382 C 
ATOM     23  O   LIG d   1      -4.632  80.460 116.616  0.00  0.00    -0.241 OA
ATOM     24  O   LIG d   1      -3.063  81.701 117.429  0.00  0.00    -0.241 OA
ENDBRANCH   3  22
TORSDOF 7
ENDMDL
