MODEL 1
REMARK VINA RESULT:      -5.1      0.000      0.000
REMARK  7 active torsions:
REMARK  status: ('A' for Active; 'I' for Inactive)
REMARK    1  A    between atoms: C_2  and  C_3 
REMARK    2  A    between atoms: C_3  and  O_6 
REMARK    3  A    between atoms: C_3  and  C_4 
REMARK    4  A    between atoms: C_7  and  O_6 
REMARK    5  A    between atoms: C_9  and  C_10 
REMARK    6  A    between atoms: N_15  and  C_14 
REMARK    7  A    between atoms: N_20  and  C_19 
REMARK       I    between atoms: C_22  and  N_20 
ROOT
ATOM      1  C   LIG d   1      -2.763  81.268 113.120  0.00  0.00     0.161 C 
ATOM      2  C   LIG d   1      -3.196  79.975 113.458  0.00  0.00     0.016 C 
ATOM      3  C   LIG d   1      -2.386  78.823 113.326  0.00  0.00     0.038 C 
ATOM      4  C   LIG d   1      -1.027  78.907 112.986  0.00  0.00     0.028 C 
ATOM      5  C   LIG d   1      -0.687  80.136 112.149  0.00  0.00    -0.047 C 
ATOM      6  C   LIG d   1      -1.248  81.393 112.852  0.00  0.00     0.091 C 
ENDROOT
BRANCH   1   7
ATOM      7  O   LIG d   1      -3.171  82.202 114.138  0.00  0.00    -0.368 OA
BRANCH   7   8
ATOM      8  C   LIG d   1      -2.416  82.167 115.374  0.00  0.00     0.119 C 
BRANCH   8   9
ATOM      9  C   LIG d   1      -3.426  82.025 116.529  0.00  0.00     0.028 C 
ATOM     10  C   LIG d   1      -3.486  80.591 117.083  0.00  0.00     0.006 C 
ENDBRANCH   8   9
BRANCH   8  11
ATOM     11  C   LIG d   1      -1.697  83.496 115.626  0.00  0.00     0.028 C 
ATOM     12  C   LIG d   1      -0.357  83.319 116.358  0.00  0.00     0.006 C 
ENDBRANCH   8  11
ENDBRANCH   7   8
ENDBRANCH   1   7
BRANCH   6  13
ATOM     13  N   LIG d   1      -1.032  82.630 112.058  0.00  0.00    -0.311 N 
ATOM     14  C   LIG d   1       0.002  83.449 112.242  0.00  0.00     0.210 C 
ATOM     15  C   LIG d   1       0.023  84.679 111.330  0.00  0.00     0.109 C 
ATOM     16  O   LIG d   1       0.920  83.257 113.053  0.00  0.00    -0.276 OA
ATOM     17  H   LIG d   1      -1.714  82.847 111.357  0.00  0.00     0.149 HD
ENDBRANCH   6  13
BRANCH   5  18
ATOM     18  N   LIG d   1       0.778  80.171 111.984  0.00  0.00     0.381 N 
ATOM     19  H   LIG d   1       1.067  81.090 111.716  0.00  0.00    -0.090 HD
ATOM     20  H   LIG d   1       1.038  79.533 111.252  0.00  0.00    -0.090 HD
ATOM     21  H   LIG d   1       1.224  79.910 112.836  0.00  0.00    -0.090 HD
ENDBRANCH   5  18
BRANCH   3  22
ATOM     22  C   LIG d   1      -2.946  77.566 113.497  0.00  0.00     0.382 C 
ATOM     23  O   LIG d   1      -2.213  76.586 113.773  0.00  0.00    -0.241 OA
ATOM     24  O   LIG d   1      -4.168  77.392 113.335  0.00  0.00    -0.241 OA
ENDBRANCH   3  22
TORSDOF 7
ENDMDL
MODEL 2
REMARK VINA RESULT:      -5.0      2.121      4.468
REMARK  7 active torsions:
REMARK  status: ('A' for Active; 'I' for Inactive)
REMARK    1  A    between atoms: C_2  and  C_3 
REMARK    2  A    between atoms: C_3  and  O_6 
REMARK    3  A    between atoms: C_3  and  C_4 
REMARK    4  A    between atoms: C_7  and  O_6 
REMARK    5  A    between atoms: C_9  and  C_10 
REMARK    6  A    between atoms: N_15  and  C_14 
REMARK    7  A    between atoms: N_20  and  C_19 
REMARK       I    between atoms: C_22  and  N_20 
ROOT
ATOM      1  C   LIG d   1      -0.190  80.583 112.708  0.00  0.00     0.161 C 
ATOM      2  C   LIG d   1      -0.981  79.442 112.494  0.00  0.00     0.016 C 
ATOM      3  C   LIG d   1      -2.263  79.266 113.063  0.00  0.00     0.038 C 
ATOM      4  C   LIG d   1      -2.909  80.293 113.768  0.00  0.00     0.028 C 
ATOM      5  C   LIG d   1      -1.945  81.269 114.434  0.00  0.00    -0.047 C 
ATOM      6  C   LIG d   1      -0.923  81.761 113.383  0.00  0.00     0.091 C 
ENDROOT
BRANCH   1   7
ATOM      7  O   LIG d   1       0.401  81.008 111.464  0.00  0.00    -0.368 OA
BRANCH   7   8
ATOM      8  C   LIG d   1       1.845  80.923 111.382  0.00  0.00     0.119 C 
BRANCH   8   9
ATOM      9  C   LIG d   1       2.380  82.347 111.139  0.00  0.00     0.028 C 
ATOM     10  C   LIG d   1       1.463  83.169 110.217  0.00  0.00     0.006 C 
ENDBRANCH   8   9
BRANCH   8  11
ATOM     11  C   LIG d   1       2.287  80.109 110.162  0.00  0.00     0.028 C 
ATOM     12  C   LIG d   1       1.111  79.433 109.440  0.00  0.00     0.006 C 
ENDBRANCH   8  11
ENDBRANCH   7   8
ENDBRANCH   1   7
BRANCH   6  13
ATOM     13  N   LIG d   1       0.108  82.655 113.971  0.00  0.00    -0.311 N 
ATOM     14  C   LIG d   1       0.227  83.944 113.655  0.00  0.00     0.210 C 
ATOM     15  C   LIG d   1       1.370  84.680 114.361  0.00  0.00     0.109 C 
ATOM     16  O   LIG d   1      -0.525  84.555 112.881  0.00  0.00    -0.276 OA
ATOM     17  H   LIG d   1       0.741  82.249 114.631  0.00  0.00     0.149 HD
ENDBRANCH   6  13
BRANCH   5  18
ATOM     18  N   LIG d   1      -2.748  82.362 115.015  0.00  0.00     0.381 N 
ATOM     19  H   LIG d   1      -3.448  81.982 115.621  0.00  0.00    -0.090 HD
ATOM     20  H   LIG d   1      -3.208  82.858 114.273  0.00  0.00    -0.090 HD
ATOM     21  H   LIG d   1      -2.159  82.983 115.525  0.00  0.00    -0.090 HD
ENDBRANCH   5  18
BRANCH   3  22
ATOM     22  C   LIG d   1      -2.897  78.037 112.963  0.00  0.00     0.382 C 
ATOM     23  O   LIG d   1      -2.322  77.000 113.374  0.00  0.00    -0.241 OA
ATOM     24  O   LIG d   1      -4.017  77.945 112.426  0.00  0.00    -0.241 OA
ENDBRANCH   3  22
TORSDOF 7
ENDMDL
MODEL 3
REMARK VINA RESULT:      -4.9      2.731      5.219
REMARK  7 active torsions:
REMARK  status: ('A' for Active; 'I' for Inactive)
REMARK    1  A    between atoms: C_2  and  C_3 
REMARK    2  A    between atoms: C_3  and  O_6 
REMARK    3  A    between atoms: C_3  and  C_4 
REMARK    4  A    between atoms: C_7  and  O_6 
REMARK    5  A    between atoms: C_9  and  C_10 
REMARK    6  A    between atoms: N_15  and  C_14 
REMARK    7  A    between atoms: N_20  and  C_19 
REMARK       I    between atoms: C_22  and  N_20 
ROOT
ATOM      1  C   LIG d   1      -1.551  79.459 115.868  0.00  0.00     0.161 C 
ATOM      2  C   LIG d   1      -2.126  80.504 115.126  0.00  0.00     0.016 C 
ATOM      3  C   LIG d   1      -2.379  80.425 113.737  0.00  0.00     0.038 C 
ATOM      4  C   LIG d   1      -2.210  79.231 113.020  0.00  0.00     0.028 C 
ATOM      5  C   LIG d   1      -1.159  78.306 113.622  0.00  0.00    -0.047 C 
ATOM      6  C   LIG d   1      -1.464  78.110 115.125  0.00  0.00     0.091 C 
ENDROOT
BRANCH   1   7
ATOM      7  O   LIG d   1      -2.256  79.300 117.115  0.00  0.00    -0.368 OA
BRANCH   7   8
ATOM      8  C   LIG d   1      -3.283  80.282 117.397  0.00  0.00     0.119 C 
BRANCH   8   9
ATOM      9  C   LIG d   1      -2.864  81.037 118.673  0.00  0.00     0.028 C 
ATOM     10  C   LIG d   1      -2.466  82.495 118.389  0.00  0.00     0.006 C 
ENDBRANCH   8   9
BRANCH   8  11
ATOM     11  C   LIG d   1      -4.616  79.612 117.742  0.00  0.00     0.028 C 
ATOM     12  C   LIG d   1      -5.729  80.624 118.056  0.00  0.00     0.006 C 
ENDBRANCH   8  11
ENDBRANCH   7   8
ENDBRANCH   1   7
BRANCH   6  13
ATOM     13  N   LIG d   1      -0.434  77.285 115.810  0.00  0.00    -0.311 N 
ATOM     14  C   LIG d   1      -0.506  75.959 115.911  0.00  0.00     0.210 C 
ATOM     15  C   LIG d   1       0.650  75.306 116.674  0.00  0.00     0.109 C 
ATOM     16  O   LIG d   1      -1.401  75.259 115.414  0.00  0.00    -0.276 OA
ATOM     17  H   LIG d   1       0.343  77.769 116.215  0.00  0.00     0.149 HD
ENDBRANCH   6  13
BRANCH   5  18
ATOM     18  N   LIG d   1      -1.184  77.045 112.858  0.00  0.00     0.381 N 
ATOM     19  H   LIG d   1      -1.790  76.388 113.308  0.00  0.00    -0.090 HD
ATOM     20  H   LIG d   1      -0.257  76.657 112.839  0.00  0.00    -0.090 HD
ATOM     21  H   LIG d   1      -1.500  77.215 111.929  0.00  0.00    -0.090 HD
ENDBRANCH   5  18
BRANCH   3  22
ATOM     22  C   LIG d   1      -2.767  81.561 113.043  0.00  0.00     0.382 C 
ATOM     23  O   LIG d   1      -3.982  81.866 112.970  0.00  0.00    -0.241 OA
ATOM     24  O   LIG d   1      -1.922  82.260 112.453  0.00  0.00    -0.241 OA
ENDBRANCH   3  22
TORSDOF 7
ENDMDL
MODEL 4
REMARK VINA RESULT:      -4.9      2.122      3.693
REMARK  7 active torsions:
REMARK  status: ('A' for Active; 'I' for Inactive)
REMARK    1  A    between atoms: C_2  and  C_3 
REMARK    2  A    between atoms: C_3  and  O_6 
REMARK    3  A    between atoms: C_3  and  C_4 
REMARK    4  A    between atoms: C_7  and  O_6 
REMARK    5  A    between atoms: C_9  and  C_10 
REMARK    6  A    between atoms: N_15  and  C_14 
REMARK    7  A    between atoms: N_20  and  C_19 
REMARK       I    between atoms: C_22  and  N_20 
ROOT
ATOM      1  C   LIG d   1      -2.250  81.592 113.182  0.00  0.00     0.161 C 
ATOM      2  C   LIG d   1      -2.930  81.711 114.406  0.00  0.00     0.016 C 
ATOM      3  C   LIG d   1      -2.820  80.768 115.453  0.00  0.00     0.038 C 
ATOM      4  C   LIG d   1      -1.897  79.712 115.404  0.00  0.00     0.028 C 
ATOM      5  C   LIG d   1      -1.559  79.267 113.985  0.00  0.00    -0.047 C 
ATOM      6  C   LIG d   1      -1.155  80.506 113.154  0.00  0.00     0.091 C 
ENDROOT
BRANCH   1   7
ATOM      7  O   LIG d   1      -1.700  82.869 112.803  0.00  0.00    -0.368 OA
BRANCH   7   8
ATOM      8  C   LIG d   1      -0.394  83.186 113.344  0.00  0.00     0.119 C 
BRANCH   8   9
ATOM      9  C   LIG d   1      -0.594  84.242 114.448  0.00  0.00     0.028 C 
ATOM     10  C   LIG d   1      -0.165  83.732 115.833  0.00  0.00     0.006 C 
ENDBRANCH   8   9
BRANCH   8  11
ATOM     11  C   LIG d   1       0.495  83.860 112.295  0.00  0.00     0.028 C 
ATOM     12  C   LIG d   1      -0.171  83.940 110.912  0.00  0.00     0.006 C 
ENDBRANCH   8  11
ENDBRANCH   7   8
ENDBRANCH   1   7
BRANCH   6  13
ATOM     13  N   LIG d   1      -0.889  80.171 111.731  0.00  0.00    -0.311 N 
ATOM     14  C   LIG d   1       0.320  80.235 111.176  0.00  0.00     0.210 C 
ATOM     15  C   LIG d   1       0.370  79.867 109.690  0.00  0.00     0.109 C 
ATOM     16  O   LIG d   1       1.361  80.529 111.782  0.00  0.00    -0.276 OA
ATOM     17  H   LIG d   1      -1.673  79.892 111.174  0.00  0.00     0.149 HD
ENDBRANCH   6  13
BRANCH   5  18
ATOM     18  N   LIG d   1      -0.487  78.258 114.078  0.00  0.00     0.381 N 
ATOM     19  H   LIG d   1      -0.616  77.702 114.900  0.00  0.00    -0.090 HD
ATOM     20  H   LIG d   1       0.397  78.729 114.151  0.00  0.00    -0.090 HD
ATOM     21  H   LIG d   1      -0.496  77.676 113.270  0.00  0.00    -0.090 HD
ENDBRANCH   5  18
BRANCH   3  22
ATOM     22  C   LIG d   1      -3.667  80.853 116.547  0.00  0.00     0.382 C 
ATOM     23  O   LIG d   1      -4.282  81.921 116.782  0.00  0.00    -0.241 OA
ATOM     24  O   LIG d   1      -3.789  79.890 117.328  0.00  0.00    -0.241 OA
ENDBRANCH   3  22
TORSDOF 7
ENDMDL
MODEL 5
REMARK VINA RESULT:      -4.7      2.667      5.498
REMARK  7 active torsions:
REMARK  status: ('A' for Active; 'I' for Inactive)
REMARK    1  A    between atoms: C_2  and  C_3 
REMARK    2  A    between atoms: C_3  and  O_6 
REMARK    3  A    between atoms: C_3  and  C_4 
REMARK    4  A    between atoms: C_7  and  O_6 
REMARK    5  A    between atoms: C_9  and  C_10 
REMARK    6  A    between atoms: N_15  and  C_14 
REMARK    7  A    between atoms: N_20  and  C_19 
REMARK       I    between atoms: C_22  and  N_20 
ROOT
ATOM      1  C   LIG d   1      -2.948  79.434 115.619  0.00  0.00     0.161 C 
ATOM      2  C   LIG d   1      -2.768  80.693 115.022  0.00  0.00     0.016 C 
ATOM      3  C   LIG d   1      -2.101  80.882 113.790  0.00  0.00     0.038 C 
ATOM      4  C   LIG d   1      -1.699  79.802 112.991  0.00  0.00     0.028 C 
ATOM      5  C   LIG d   1      -1.409  78.534 113.788  0.00  0.00    -0.047 C 
ATOM      6  C   LIG d   1      -2.614  78.233 114.708  0.00  0.00     0.091 C 
ENDROOT
BRANCH   1   7
ATOM      7  O   LIG d   1      -4.293  79.320 116.124  0.00  0.00    -0.368 OA
BRANCH   7   8
ATOM      8  C   LIG d   1      -4.444  79.422 117.561  0.00  0.00     0.119 C 
BRANCH   8   9
ATOM      9  C   LIG d   1      -5.117  78.125 118.049  0.00  0.00     0.028 C 
ATOM     10  C   LIG d   1      -6.034  77.502 116.983  0.00  0.00     0.006 C 
ENDBRANCH   8   9
BRANCH   8  11
ATOM     11  C   LIG d   1      -5.411  80.548 117.941  0.00  0.00     0.028 C 
ATOM     12  C   LIG d   1      -4.739  81.930 117.956  0.00  0.00     0.006 C 
ENDBRANCH   8  11
ENDBRANCH   7   8
ENDBRANCH   1   7
BRANCH   6  13
ATOM     13  N   LIG d   1      -2.378  77.056 115.585  0.00  0.00    -0.311 N 
ATOM     14  C   LIG d   1      -3.069  75.922 115.490  0.00  0.00     0.210 C 
ATOM     15  C   LIG d   1      -2.679  74.841 116.503  0.00  0.00     0.109 C 
ATOM     16  O   LIG d   1      -3.946  75.696 114.643  0.00  0.00    -0.276 OA
ATOM     17  H   LIG d   1      -1.662  77.141 116.280  0.00  0.00     0.149 HD
ENDBRANCH   6  13
BRANCH   5  18
ATOM     18  N   LIG d   1      -1.135  77.453 112.822  0.00  0.00     0.381 N 
ATOM     19  H   LIG d   1      -1.234  77.800 111.889  0.00  0.00    -0.090 HD
ATOM     20  H   LIG d   1      -1.806  76.718 112.959  0.00  0.00    -0.090 HD
ATOM     21  H   LIG d   1      -0.213  77.101 112.957  0.00  0.00    -0.090 HD
ENDBRANCH   5  18
BRANCH   3  22
ATOM     22  C   LIG d   1      -1.795  82.166 113.364  0.00  0.00     0.382 C 
ATOM     23  O   LIG d   1      -1.714  82.417 112.138  0.00  0.00    -0.241 OA
ATOM     24  O   LIG d   1      -1.556  83.066 114.192  0.00  0.00    -0.241 OA
ENDBRANCH   3  22
TORSDOF 7
ENDMDL
MODEL 6
REMARK VINA RESULT:      -4.5      2.215      5.053
REMARK  7 active torsions:
REMARK  status: ('A' for Active; 'I' for Inactive)
REMARK    1  A    between atoms: C_2  and  C_3 
REMARK    2  A    between atoms: C_3  and  O_6 
REMARK    3  A    between atoms: C_3  and  C_4 
REMARK    4  A    between atoms: C_7  and  O_6 
REMARK    5  A    between atoms: C_9  and  C_10 
REMARK    6  A    between atoms: N_15  and  C_14 
REMARK    7  A    between atoms: N_20  and  C_19 
REMARK       I    between atoms: C_22  and  N_20 
ROOT
ATOM      1  C   LIG d   1      -2.275  80.900 115.094  0.00  0.00     0.161 C 
ATOM      2  C   LIG d   1      -1.796  81.884 114.213  0.00  0.00     0.016 C 
ATOM      3  C   LIG d   1      -1.140  81.586 112.996  0.00  0.00     0.038 C 
ATOM      4  C   LIG d   1      -1.052  80.275 112.503  0.00  0.00     0.028 C 
ATOM      5  C   LIG d   1      -1.073  79.214 113.597  0.00  0.00    -0.047 C 
ATOM      6  C   LIG d   1      -2.287  79.468 114.520  0.00  0.00     0.091 C 
ENDROOT
BRANCH   1   7
ATOM      7  O   LIG d   1      -3.589  81.262 115.563  0.00  0.00    -0.368 OA
BRANCH   7   8
ATOM      8  C   LIG d   1      -3.655  81.835 116.893  0.00  0.00     0.119 C 
BRANCH   8   9
ATOM      9  C   LIG d   1      -2.321  81.523 117.598  0.00  0.00     0.028 C 
ATOM     10  C   LIG d   1      -1.716  82.761 118.282  0.00  0.00     0.006 C 
ENDBRANCH   8   9
BRANCH   8  11
ATOM     11  C   LIG d   1      -4.732  81.152 117.741  0.00  0.00     0.028 C 
ATOM     12  C   LIG d   1      -5.830  82.122 118.203  0.00  0.00     0.006 C 
ENDBRANCH   8  11
ENDBRANCH   7   8
ENDBRANCH   1   7
BRANCH   6  13
ATOM     13  N   LIG d   1      -2.335  78.524 115.667  0.00  0.00    -0.311 N 
ATOM     14  C   LIG d   1      -3.444  77.896 116.053  0.00  0.00     0.210 C 
ATOM     15  C   LIG d   1      -3.278  76.982 117.271  0.00  0.00     0.109 C 
ATOM     16  O   LIG d   1      -4.542  77.984 115.484  0.00  0.00    -0.276 OA
ATOM     17  H   LIG d   1      -1.481  78.369 116.166  0.00  0.00     0.149 HD
ENDBRANCH   6  13
BRANCH   5  18
ATOM     18  N   LIG d   1      -1.114  77.895 112.937  0.00  0.00     0.381 N 
ATOM     19  H   LIG d   1      -0.987  77.172 113.617  0.00  0.00    -0.090 HD
ATOM     20  H   LIG d   1      -0.362  77.840 112.274  0.00  0.00    -0.090 HD
ATOM     21  H   LIG d   1      -1.987  77.773 112.472  0.00  0.00    -0.090 HD
ENDBRANCH   5  18
BRANCH   3  22
ATOM     22  C   LIG d   1      -0.528  82.602 112.279  0.00  0.00     0.382 C 
ATOM     23  O   LIG d   1      -1.180  83.245 111.421  0.00  0.00    -0.241 OA
ATOM     24  O   LIG d   1       0.680  82.855 112.447  0.00  0.00    -0.241 OA
ENDBRANCH   3  22
TORSDOF 7
ENDMDL
MODEL 7
REMARK VINA RESULT:      -4.4      1.420      2.089
REMARK  7 active torsions:
REMARK  status: ('A' for Active; 'I' for Inactive)
REMARK    1  A    between atoms: C_2  and  C_3 
REMARK    2  A    between atoms: C_3  and  O_6 
REMARK    3  A    between atoms: C_3  and  C_4 
REMARK    4  A    between atoms: C_7  and  O_6 
REMARK    5  A    between atoms: C_9  and  C_10 
REMARK    6  A    between atoms: N_15  and  C_14 
REMARK    7  A    between atoms: N_20  and  C_19 
REMARK       I    between atoms: C_22  and  N_20 
ROOT
ATOM      1  C   LIG d   1      -1.959  81.013 114.356  0.00  0.00     0.161 C 
ATOM      2  C   LIG d   1      -2.595  79.857 114.837  0.00  0.00     0.016 C 
ATOM      3  C   LIG d   1      -2.563  78.614 114.164  0.00  0.00     0.038 C 
ATOM      4  C   LIG d   1      -1.761  78.404 113.033  0.00  0.00     0.028 C 
ATOM      5  C   LIG d   1      -1.503  79.674 112.228  0.00  0.00    -0.047 C 
ATOM      6  C   LIG d   1      -0.986  80.775 113.182  0.00  0.00     0.091 C 
ENDROOT
BRANCH   1   7
ATOM      7  O   LIG d   1      -1.283  81.685 115.437  0.00  0.00    -0.368 OA
BRANCH   7   8
ATOM      8  C   LIG d   1      -1.921  82.885 115.940  0.00  0.00     0.119 C 
BRANCH   8   9
ATOM      9  C   LIG d   1      -1.193  84.092 115.316  0.00  0.00     0.028 C 
ATOM     10  C   LIG d   1       0.334  84.003 115.475  0.00  0.00     0.006 C 
ENDBRANCH   8   9
BRANCH   8  11
ATOM     11  C   LIG d   1      -1.723  83.030 117.452  0.00  0.00     0.028 C 
ATOM     12  C   LIG d   1      -2.134  81.769 118.230  0.00  0.00     0.006 C 
ENDBRANCH   8  11
ENDBRANCH   7   8
ENDBRANCH   1   7
BRANCH   6  13
ATOM     13  N   LIG d   1      -0.789  82.076 112.490  0.00  0.00    -0.311 N 
ATOM     14  C   LIG d   1       0.383  82.475 111.999  0.00  0.00     0.210 C 
ATOM     15  C   LIG d   1       0.372  83.859 111.343  0.00  0.00     0.109 C 
ATOM     16  O   LIG d   1       1.424  81.801 112.017  0.00  0.00    -0.276 OA
ATOM     17  H   LIG d   1      -1.588  82.673 112.404  0.00  0.00     0.149 HD
ENDBRANCH   6  13
BRANCH   5  18
ATOM     18  N   LIG d   1      -0.544  79.337 111.160  0.00  0.00     0.381 N 
ATOM     19  H   LIG d   1       0.280  78.933 111.559  0.00  0.00    -0.090 HD
ATOM     20  H   LIG d   1      -0.281  80.181 110.681  0.00  0.00    -0.090 HD
ATOM     21  H   LIG d   1      -0.958  78.698 110.518  0.00  0.00    -0.090 HD
ENDBRANCH   5  18
BRANCH   3  22
ATOM     22  C   LIG d   1      -3.372  77.576 114.600  0.00  0.00     0.382 C 
ATOM     23  O   LIG d   1      -4.161  77.756 115.558  0.00  0.00    -0.241 OA
ATOM     24  O   LIG d   1      -3.291  76.449 114.076  0.00  0.00    -0.241 OA
ENDBRANCH   3  22
TORSDOF 7
ENDMDL
MODEL 8
REMARK VINA RESULT:      -4.2      1.806      2.150
REMARK  7 active torsions:
REMARK  status: ('A' for Active; 'I' for Inactive)
REMARK    1  A    between atoms: C_2  and  C_3 
REMARK    2  A    between atoms: C_3  and  O_6 
REMARK    3  A    between atoms: C_3  and  C_4 
REMARK    4  A    between atoms: C_7  and  O_6 
REMARK    5  A    between atoms: C_9  and  C_10 
REMARK    6  A    between atoms: N_15  and  C_14 
REMARK    7  A    between atoms: N_20  and  C_19 
REMARK       I    between atoms: C_22  and  N_20 
ROOT
ATOM      1  C   LIG d   1      -2.460  80.092 115.383  0.00  0.00     0.161 C 
ATOM      2  C   LIG d   1      -3.120  78.858 115.506  0.00  0.00     0.016 C 
ATOM      3  C   LIG d   1      -3.188  77.905 114.464  0.00  0.00     0.038 C 
ATOM      4  C   LIG d   1      -2.467  78.059 113.270  0.00  0.00     0.028 C 
ATOM      5  C   LIG d   1      -2.199  79.515 112.907  0.00  0.00    -0.047 C 
ATOM      6  C   LIG d   1      -1.574  80.230 114.127  0.00  0.00     0.091 C 
ENDROOT
BRANCH   1   7
ATOM      7  O   LIG d   1      -1.688  80.354 116.572  0.00  0.00    -0.368 OA
BRANCH   7   8
ATOM      8  C   LIG d   1      -2.146  81.451 117.400  0.00  0.00     0.119 C 
BRANCH   8   9
ATOM      9  C   LIG d   1      -3.470  81.963 116.800  0.00  0.00     0.028 C 
ATOM     10  C   LIG d   1      -4.615  81.969 117.827  0.00  0.00     0.006 C 
ENDBRANCH   8   9
BRANCH   8  11
ATOM     11  C   LIG d   1      -1.183  82.641 117.331  0.00  0.00     0.028 C 
ATOM     12  C   LIG d   1      -0.746  83.134 118.719  0.00  0.00     0.006 C 
ENDBRANCH   8  11
ENDBRANCH   7   8
ENDBRANCH   1   7
BRANCH   6  13
ATOM     13  N   LIG d   1      -1.357  81.680 113.885  0.00  0.00    -0.311 N 
ATOM     14  C   LIG d   1      -0.198  82.190 113.473  0.00  0.00     0.210 C 
ATOM     15  C   LIG d   1      -0.184  83.712 113.305  0.00  0.00     0.109 C 
ATOM     16  O   LIG d   1       0.811  81.522 113.199  0.00  0.00    -0.276 OA
ATOM     17  H   LIG d   1      -2.133  82.291 114.053  0.00  0.00     0.149 HD
ENDBRANCH   6  13
BRANCH   5  18
ATOM     18  N   LIG d   1      -1.324  79.525 111.720  0.00  0.00     0.381 N 
ATOM     19  H   LIG d   1      -0.370  79.629 112.003  0.00  0.00    -0.090 HD
ATOM     20  H   LIG d   1      -1.569  80.310 111.142  0.00  0.00    -0.090 HD
ATOM     21  H   LIG d   1      -1.435  78.679 111.207  0.00  0.00    -0.090 HD
ENDBRANCH   5  18
BRANCH   3  22
ATOM     22  C   LIG d   1      -4.017  76.802 114.595  0.00  0.00     0.382 C 
ATOM     23  O   LIG d   1      -5.262  76.954 114.643  0.00  0.00    -0.241 OA
ATOM     24  O   LIG d   1      -3.535  75.659 114.711  0.00  0.00    -0.241 OA
ENDBRANCH   3  22
TORSDOF 7
ENDMDL
MODEL 9
REMARK VINA RESULT:      -4.1      3.657      5.734
REMARK  7 active torsions:
REMARK  status: ('A' for Active; 'I' for Inactive)
REMARK    1  A    between atoms: C_2  and  C_3 
REMARK    2  A    between atoms: C_3  and  O_6 
REMARK    3  A    between atoms: C_3  and  C_4 
REMARK    4  A    between atoms: C_7  and  O_6 
REMARK    5  A    between atoms: C_9  and  C_10 
REMARK    6  A    between atoms: N_15  and  C_14 
REMARK    7  A    between atoms: N_20  and  C_19 
REMARK       I    between atoms: C_22  and  N_20 
ROOT
ATOM      1  C   LIG d   1      -3.634  79.176 116.227  0.00  0.00     0.161 C 
ATOM      2  C   LIG d   1      -3.558  77.947 115.550  0.00  0.00     0.016 C 
ATOM      3  C   LIG d   1      -4.465  76.884 115.763  0.00  0.00     0.038 C 
ATOM      4  C   LIG d   1      -5.609  77.034 116.562  0.00  0.00     0.028 C 
ATOM      5  C   LIG d   1      -5.449  78.084 117.656  0.00  0.00    -0.047 C 
ATOM      6  C   LIG d   1      -4.939  79.397 117.020  0.00  0.00     0.091 C 
ENDROOT
BRANCH   1   7
ATOM      7  O   LIG d   1      -3.421  80.258 115.300  0.00  0.00    -0.368 OA
BRANCH   7   8
ATOM      8  C   LIG d   1      -2.043  80.645 115.077  0.00  0.00     0.119 C 
BRANCH   8   9
ATOM      9  C   LIG d   1      -1.808  81.972 115.823  0.00  0.00     0.028 C 
ATOM     10  C   LIG d   1      -3.028  82.906 115.759  0.00  0.00     0.006 C 
ENDBRANCH   8   9
BRANCH   8  11
ATOM     11  C   LIG d   1      -1.784  80.959 113.600  0.00  0.00     0.028 C 
ATOM     12  C   LIG d   1      -2.108  79.776 112.674  0.00  0.00     0.006 C 
ENDBRANCH   8  11
ENDBRANCH   7   8
ENDBRANCH   1   7
BRANCH   6  13
ATOM     13  N   LIG d   1      -4.676  80.453 118.033  0.00  0.00    -0.311 N 
ATOM     14  C   LIG d   1      -5.521  81.449 118.290  0.00  0.00     0.210 C 
ATOM     15  C   LIG d   1      -5.047  82.440 119.357  0.00  0.00     0.109 C 
ATOM     16  O   LIG d   1      -6.633  81.589 117.758  0.00  0.00    -0.276 OA
ATOM     17  H   LIG d   1      -3.810  80.399 118.534  0.00  0.00     0.149 HD
ENDBRANCH   6  13
BRANCH   5  18
ATOM     18  N   LIG d   1      -6.756  78.235 118.323  0.00  0.00     0.381 N 
ATOM     19  H   LIG d   1      -7.493  78.085 117.663  0.00  0.00    -0.090 HD
ATOM     20  H   LIG d   1      -6.835  79.172 118.677  0.00  0.00    -0.090 HD
ATOM     21  H   LIG d   1      -6.834  77.582 119.072  0.00  0.00    -0.090 HD
ENDBRANCH   5  18
BRANCH   3  22
ATOM     22  C   LIG d   1      -4.211  75.641 115.203  0.00  0.00     0.382 C 
ATOM     23  O   LIG d   1      -5.029  75.138 114.395  0.00  0.00    -0.241 OA
ATOM     24  O   LIG d   1      -3.197  74.997 115.529  0.00  0.00    -0.241 OA
ENDBRANCH   3  22
TORSDOF 7
ENDMDL
