MODEL 1
REMARK VINA RESULT:      -5.0      0.000      0.000
REMARK  7 active torsions:
REMARK  status: ('A' for Active; 'I' for Inactive)
REMARK    1  A    between atoms: C_2  and  C_3 
REMARK    2  A    between atoms: C_3  and  O_6 
REMARK    3  A    between atoms: C_3  and  C_4 
REMARK    4  A    between atoms: C_7  and  O_6 
REMARK    5  A    between atoms: C_9  and  C_10 
REMARK    6  A    between atoms: N_15  and  C_14 
REMARK    7  A    between atoms: N_20  and  C_19 
REMARK       I    between atoms: C_22  and  N_20 
ROOT
ATOM      1  C   LIG d   1       0.087  80.944 113.252  0.00  0.00     0.161 C 
ATOM      2  C   LIG d   1      -0.534  79.898 112.549  0.00  0.00     0.016 C 
ATOM      3  C   LIG d   1      -1.911  79.596 112.660  0.00  0.00     0.038 C 
ATOM      4  C   LIG d   1      -2.796  80.421 113.371  0.00  0.00     0.028 C 
ATOM      5  C   LIG d   1      -2.127  81.194 114.503  0.00  0.00    -0.047 C 
ATOM      6  C   LIG d   1      -0.883  81.923 113.946  0.00  0.00     0.091 C 
ENDROOT
BRANCH   1   7
ATOM      7  O   LIG d   1       0.979  81.660 112.375  0.00  0.00    -0.368 OA
BRANCH   7   8
ATOM      8  C   LIG d   1       0.563  81.764 110.990  0.00  0.00     0.119 C 
BRANCH   8   9
ATOM      9  C   LIG d   1       1.771  81.380 110.114  0.00  0.00     0.028 C 
ATOM     10  C   LIG d   1       1.711  79.917 109.641  0.00  0.00     0.006 C 
ENDBRANCH   8   9
BRANCH   8  11
ATOM     11  C   LIG d   1       0.235  83.212 110.615  0.00  0.00     0.028 C 
ATOM     12  C   LIG d   1       1.272  83.832 109.665  0.00  0.00     0.006 C 
ENDBRANCH   8  11
ENDBRANCH   7   8
ENDBRANCH   1   7
BRANCH   6  13
ATOM     13  N   LIG d   1      -0.122  82.636 115.005  0.00  0.00    -0.311 N 
ATOM     14  C   LIG d   1      -0.339  83.908 115.332  0.00  0.00     0.210 C 
ATOM     15  C   LIG d   1       0.570  84.455 116.438  0.00  0.00     0.109 C 
ATOM     16  O   LIG d   1      -1.218  84.627 114.835  0.00  0.00    -0.276 OA
ATOM     17  H   LIG d   1       0.590  82.118 115.481  0.00  0.00     0.149 HD
ENDBRANCH   6  13
BRANCH   5  18
ATOM     18  N   LIG d   1      -3.132  82.114 115.068  0.00  0.00     0.381 N 
ATOM     19  H   LIG d   1      -3.246  81.932 116.046  0.00  0.00    -0.090 HD
ATOM     20  H   LIG d   1      -4.013  81.953 114.613  0.00  0.00    -0.090 HD
ATOM     21  H   LIG d   1      -2.846  83.058 114.930  0.00  0.00    -0.090 HD
ENDBRANCH   5  18
BRANCH   3  22
ATOM     22  C   LIG d   1      -2.408  78.435 112.088  0.00  0.00     0.382 C 
ATOM     23  O   LIG d   1      -1.828  77.925 111.100  0.00  0.00    -0.241 OA
ATOM     24  O   LIG d   1      -3.455  77.916 112.520  0.00  0.00    -0.241 OA
ENDBRANCH   3  22
TORSDOF 7
ENDMDL
MODEL 2
REMARK VINA RESULT:      -4.9      1.990      4.504
REMARK  7 active torsions:
REMARK  status: ('A' for Active; 'I' for Inactive)
REMARK    1  A    between atoms: C_2  and  C_3 
REMARK    2  A    between atoms: C_3  and  O_6 
REMARK    3  A    between atoms: C_3  and  C_4 
REMARK    4  A    between atoms: C_7  and  O_6 
REMARK    5  A    between atoms: C_9  and  C_10 
REMARK    6  A    between atoms: N_15  and  C_14 
REMARK    7  A    between atoms: N_20  and  C_19 
REMARK       I    between atoms: C_22  and  N_20 
ROOT
ATOM      1  C   LIG d   1      -1.642  82.153 112.923  0.00  0.00     0.161 C 
ATOM      2  C   LIG d   1      -2.400  81.031 113.298  0.00  0.00     0.016 C 
ATOM      3  C   LIG d   1      -1.980  79.699 113.078  0.00  0.00     0.038 C 
ATOM      4  C   LIG d   1      -0.697  79.395 112.601  0.00  0.00     0.028 C 
ATOM      5  C   LIG d   1      -0.094  80.500 111.739  0.00  0.00    -0.047 C 
ATOM      6  C   LIG d   1      -0.190  81.841 112.502  0.00  0.00     0.091 C 
ENDROOT
BRANCH   1   7
ATOM      7  O   LIG d   1      -1.657  83.130 113.982  0.00  0.00    -0.368 OA
BRANCH   7   8
ATOM      8  C   LIG d   1      -1.331  82.640 115.306  0.00  0.00     0.119 C 
BRANCH   8   9
ATOM      9  C   LIG d   1      -2.412  83.160 116.272  0.00  0.00     0.028 C 
ATOM     10  C   LIG d   1      -1.982  83.059 117.745  0.00  0.00     0.006 C 
ENDBRANCH   8   9
BRANCH   8  11
ATOM     11  C   LIG d   1      -0.014  83.236 115.812  0.00  0.00     0.028 C 
ATOM     12  C   LIG d   1       0.313  84.592 115.166  0.00  0.00     0.006 C 
ENDBRANCH   8  11
ENDBRANCH   7   8
ENDBRANCH   1   7
BRANCH   6  13
ATOM     13  N   LIG d   1       0.301  82.988 111.696  0.00  0.00    -0.311 N 
ATOM     14  C   LIG d   1       1.541  83.468 111.781  0.00  0.00     0.210 C 
ATOM     15  C   LIG d   1       1.834  84.668 110.876  0.00  0.00     0.109 C 
ATOM     16  O   LIG d   1       2.434  82.992 112.498  0.00  0.00    -0.276 OA
ATOM     17  H   LIG d   1      -0.350  83.415 111.065  0.00  0.00     0.149 HD
ENDBRANCH   6  13
BRANCH   5  18
ATOM     18  N   LIG d   1       1.294  80.112 111.425  0.00  0.00     0.381 N 
ATOM     19  H   LIG d   1       1.305  79.510 110.625  0.00  0.00    -0.090 HD
ATOM     20  H   LIG d   1       1.676  79.607 112.205  0.00  0.00    -0.090 HD
ATOM     21  H   LIG d   1       1.843  80.924 111.245  0.00  0.00    -0.090 HD
ENDBRANCH   5  18
BRANCH   3  22
ATOM     22  C   LIG d   1      -2.865  78.654 113.299  0.00  0.00     0.382 C 
ATOM     23  O   LIG d   1      -3.145  78.307 114.472  0.00  0.00    -0.241 OA
ATOM     24  O   LIG d   1      -3.352  78.026 112.341  0.00  0.00    -0.241 OA
ENDBRANCH   3  22
TORSDOF 7
ENDMDL
MODEL 3
REMARK VINA RESULT:      -4.8      1.908      3.102
REMARK  7 active torsions:
REMARK  status: ('A' for Active; 'I' for Inactive)
REMARK    1  A    between atoms: C_2  and  C_3 
REMARK    2  A    between atoms: C_3  and  O_6 
REMARK    3  A    between atoms: C_3  and  C_4 
REMARK    4  A    between atoms: C_7  and  O_6 
REMARK    5  A    between atoms: C_9  and  C_10 
REMARK    6  A    between atoms: N_15  and  C_14 
REMARK    7  A    between atoms: N_20  and  C_19 
REMARK       I    between atoms: C_22  and  N_20 
ROOT
ATOM      1  C   LIG d   1      -1.205  81.345 113.410  0.00  0.00     0.161 C 
ATOM      2  C   LIG d   1      -0.954  80.533 112.292  0.00  0.00     0.016 C 
ATOM      3  C   LIG d   1      -1.408  79.198 112.182  0.00  0.00     0.038 C 
ATOM      4  C   LIG d   1      -2.277  78.631 113.126  0.00  0.00     0.028 C 
ATOM      5  C   LIG d   1      -2.145  79.242 114.516  0.00  0.00    -0.047 C 
ATOM      6  C   LIG d   1      -2.246  80.781 114.400  0.00  0.00     0.091 C 
ENDROOT
BRANCH   1   7
ATOM      7  O   LIG d   1      -1.589  82.666 112.979  0.00  0.00    -0.368 OA
BRANCH   7   8
ATOM      8  C   LIG d   1      -0.529  83.652 112.926  0.00  0.00     0.119 C 
BRANCH   8   9
ATOM      9  C   LIG d   1      -0.797  84.680 114.043  0.00  0.00     0.028 C 
ATOM     10  C   LIG d   1       0.187  84.540 115.217  0.00  0.00     0.006 C 
ENDBRANCH   8   9
BRANCH   8  11
ATOM     11  C   LIG d   1      -0.576  84.451 111.620  0.00  0.00     0.028 C 
ATOM     12  C   LIG d   1       0.311  83.848 110.520  0.00  0.00     0.006 C 
ENDBRANCH   8  11
ENDBRANCH   7   8
ENDBRANCH   1   7
BRANCH   6  13
ATOM     13  N   LIG d   1      -2.042  81.462 115.704  0.00  0.00    -0.311 N 
ATOM     14  C   LIG d   1      -2.848  82.417 116.166  0.00  0.00     0.210 C 
ATOM     15  C   LIG d   1      -2.446  83.002 117.524  0.00  0.00     0.109 C 
ATOM     16  O   LIG d   1      -3.875  82.813 115.595  0.00  0.00    -0.276 OA
ATOM     17  H   LIG d   1      -1.250  81.181 116.248  0.00  0.00     0.149 HD
ENDBRANCH   6  13
BRANCH   5  18
ATOM     18  N   LIG d   1      -3.201  78.657 115.363  0.00  0.00     0.381 N 
ATOM     19  H   LIG d   1      -3.626  79.372 115.918  0.00  0.00    -0.090 HD
ATOM     20  H   LIG d   1      -2.786  77.983 115.982  0.00  0.00    -0.090 HD
ATOM     21  H   LIG d   1      -3.889  78.215 114.794  0.00  0.00    -0.090 HD
ENDBRANCH   5  18
BRANCH   3  22
ATOM     22  C   LIG d   1      -0.958  78.403 111.139  0.00  0.00     0.382 C 
ATOM     23  O   LIG d   1      -0.752  77.180 111.327  0.00  0.00    -0.241 OA
ATOM     24  O   LIG d   1      -0.713  78.902 110.025  0.00  0.00    -0.241 OA
ENDBRANCH   3  22
TORSDOF 7
ENDMDL
MODEL 4
REMARK VINA RESULT:      -4.8      1.963      2.660
REMARK  7 active torsions:
REMARK  status: ('A' for Active; 'I' for Inactive)
REMARK    1  A    between atoms: C_2  and  C_3 
REMARK    2  A    between atoms: C_3  and  O_6 
REMARK    3  A    between atoms: C_3  and  C_4 
REMARK    4  A    between atoms: C_7  and  O_6 
REMARK    5  A    between atoms: C_9  and  C_10 
REMARK    6  A    between atoms: N_15  and  C_14 
REMARK    7  A    between atoms: N_20  and  C_19 
REMARK       I    between atoms: C_22  and  N_20 
ROOT
ATOM      1  C   LIG d   1      -0.217  81.364 112.136  0.00  0.00     0.161 C 
ATOM      2  C   LIG d   1       0.071  80.322 111.239  0.00  0.00     0.016 C 
ATOM      3  C   LIG d   1      -0.413  79.003 111.397  0.00  0.00     0.038 C 
ATOM      4  C   LIG d   1      -1.347  78.670 112.389  0.00  0.00     0.028 C 
ATOM      5  C   LIG d   1      -1.273  79.571 113.618  0.00  0.00    -0.047 C 
ATOM      6  C   LIG d   1      -1.325  81.047 113.162  0.00  0.00     0.091 C 
ENDROOT
BRANCH   1   7
ATOM      7  O   LIG d   1      -0.541  82.563 111.404  0.00  0.00    -0.368 OA
BRANCH   7   8
ATOM      8  C   LIG d   1       0.368  83.679 111.575  0.00  0.00     0.119 C 
BRANCH   8   9
ATOM      9  C   LIG d   1       0.785  84.156 110.170  0.00  0.00     0.028 C 
ATOM     10  C   LIG d   1       1.873  83.265 109.547  0.00  0.00     0.006 C 
ENDBRANCH   8   9
BRANCH   8  11
ATOM     11  C   LIG d   1       1.667  83.240 112.256  0.00  0.00     0.028 C 
ATOM     12  C   LIG d   1       1.972  84.042 113.531  0.00  0.00     0.006 C 
ENDBRANCH   8  11
ENDBRANCH   7   8
ENDBRANCH   1   7
BRANCH   6  13
ATOM     13  N   LIG d   1      -1.173  81.996 114.295  0.00  0.00    -0.311 N 
ATOM     14  C   LIG d   1      -2.204  82.524 114.952  0.00  0.00     0.210 C 
ATOM     15  C   LIG d   1      -1.826  83.495 116.075  0.00  0.00     0.109 C 
ATOM     16  O   LIG d   1      -3.395  82.256 114.733  0.00  0.00    -0.276 OA
ATOM     17  H   LIG d   1      -0.240  82.244 114.561  0.00  0.00     0.149 HD
ENDBRANCH   6  13
BRANCH   5  18
ATOM     18  N   LIG d   1      -2.389  79.201 114.509  0.00  0.00     0.381 N 
ATOM     19  H   LIG d   1      -2.882  78.418 114.128  0.00  0.00    -0.090 HD
ATOM     20  H   LIG d   1      -3.027  79.976 114.570  0.00  0.00    -0.090 HD
ATOM     21  H   LIG d   1      -2.042  78.976 115.415  0.00  0.00    -0.090 HD
ENDBRANCH   5  18
BRANCH   3  22
ATOM     22  C   LIG d   1       0.070  77.991 110.582  0.00  0.00     0.382 C 
ATOM     23  O   LIG d   1      -0.507  76.877 110.556  0.00  0.00    -0.241 OA
ATOM     24  O   LIG d   1       1.102  78.163 109.905  0.00  0.00    -0.241 OA
ENDBRANCH   3  22
TORSDOF 7
ENDMDL
MODEL 5
REMARK VINA RESULT:      -4.6      2.922      6.404
REMARK  7 active torsions:
REMARK  status: ('A' for Active; 'I' for Inactive)
REMARK    1  A    between atoms: C_2  and  C_3 
REMARK    2  A    between atoms: C_3  and  O_6 
REMARK    3  A    between atoms: C_3  and  C_4 
REMARK    4  A    between atoms: C_7  and  O_6 
REMARK    5  A    between atoms: C_9  and  C_10 
REMARK    6  A    between atoms: N_15  and  C_14 
REMARK    7  A    between atoms: N_20  and  C_19 
REMARK       I    between atoms: C_22  and  N_20 
ROOT
ATOM      1  C   LIG d   1      -2.221  79.239 114.074  0.00  0.00     0.161 C 
ATOM      2  C   LIG d   1      -2.756  80.214 114.932  0.00  0.00     0.016 C 
ATOM      3  C   LIG d   1      -2.581  81.604 114.736  0.00  0.00     0.038 C 
ATOM      4  C   LIG d   1      -1.982  82.120 113.577  0.00  0.00     0.028 C 
ATOM      5  C   LIG d   1      -0.984  81.163 112.934  0.00  0.00    -0.047 C 
ATOM      6  C   LIG d   1      -1.660  79.786 112.744  0.00  0.00     0.091 C 
ENDROOT
BRANCH   1   7
ATOM      7  O   LIG d   1      -3.206  78.219 113.820  0.00  0.00    -0.368 OA
BRANCH   7   8
ATOM      8  C   LIG d   1      -2.904  76.899 114.336  0.00  0.00     0.119 C 
BRANCH   8   9
ATOM      9  C   LIG d   1      -4.029  76.518 115.318  0.00  0.00     0.028 C 
ATOM     10  C   LIG d   1      -5.044  75.542 114.697  0.00  0.00     0.006 C 
ENDBRANCH   8   9
BRANCH   8  11
ATOM     11  C   LIG d   1      -1.622  76.908 115.173  0.00  0.00     0.028 C 
ATOM     12  C   LIG d   1      -0.642  75.794 114.774  0.00  0.00     0.006 C 
ENDBRANCH   8  11
ENDBRANCH   7   8
ENDBRANCH   1   7
BRANCH   6  13
ATOM     13  N   LIG d   1      -0.726  78.767 112.197  0.00  0.00    -0.311 N 
ATOM     14  C   LIG d   1      -1.011  78.001 111.145  0.00  0.00     0.210 C 
ATOM     15  C   LIG d   1       0.083  77.001 110.758  0.00  0.00     0.109 C 
ATOM     16  O   LIG d   1      -2.053  78.077 110.477  0.00  0.00    -0.276 OA
ATOM     17  H   LIG d   1       0.155  78.660 112.660  0.00  0.00     0.149 HD
ENDBRANCH   6  13
BRANCH   5  18
ATOM     18  N   LIG d   1      -0.541  81.769 111.664  0.00  0.00     0.381 N 
ATOM     19  H   LIG d   1      -1.336  82.000 111.103  0.00  0.00    -0.090 HD
ATOM     20  H   LIG d   1       0.016  81.101 111.162  0.00  0.00    -0.090 HD
ATOM     21  H   LIG d   1      -0.004  82.589 111.847  0.00  0.00    -0.090 HD
ENDBRANCH   5  18
BRANCH   3  22
ATOM     22  C   LIG d   1      -2.972  82.492 115.727  0.00  0.00     0.382 C 
ATOM     23  O   LIG d   1      -2.245  82.667 116.734  0.00  0.00    -0.241 OA
ATOM     24  O   LIG d   1      -4.064  83.086 115.647  0.00  0.00    -0.241 OA
ENDBRANCH   3  22
TORSDOF 7
ENDMDL
MODEL 6
REMARK VINA RESULT:      -4.6      3.380      6.712
REMARK  7 active torsions:
REMARK  status: ('A' for Active; 'I' for Inactive)
REMARK    1  A    between atoms: C_2  and  C_3 
REMARK    2  A    between atoms: C_3  and  O_6 
REMARK    3  A    between atoms: C_3  and  C_4 
REMARK    4  A    between atoms: C_7  and  O_6 
REMARK    5  A    between atoms: C_9  and  C_10 
REMARK    6  A    between atoms: N_15  and  C_14 
REMARK    7  A    between atoms: N_20  and  C_19 
REMARK       I    between atoms: C_22  and  N_20 
ROOT
ATOM      1  C   LIG d   1      -2.665  80.454 115.354  0.00  0.00     0.161 C 
ATOM      2  C   LIG d   1      -2.299  81.602 114.631  0.00  0.00     0.016 C 
ATOM      3  C   LIG d   1      -1.549  81.561 113.433  0.00  0.00     0.038 C 
ATOM      4  C   LIG d   1      -1.243  80.352 112.792  0.00  0.00     0.028 C 
ATOM      5  C   LIG d   1      -1.155  79.165 113.746  0.00  0.00    -0.047 C 
ATOM      6  C   LIG d   1      -2.435  79.122 114.611  0.00  0.00     0.091 C 
ENDROOT
BRANCH   1   7
ATOM      7  O   LIG d   1      -4.039  80.561 115.777  0.00  0.00    -0.368 OA
BRANCH   7   8
ATOM      8  C   LIG d   1      -4.261  80.643 117.207  0.00  0.00     0.119 C 
BRANCH   8   9
ATOM      9  C   LIG d   1      -5.623  79.985 117.502  0.00  0.00     0.028 C 
ATOM     10  C   LIG d   1      -5.540  78.450 117.530  0.00  0.00     0.006 C 
ENDBRANCH   8   9
BRANCH   8  11
ATOM     11  C   LIG d   1      -4.404  82.096 117.666  0.00  0.00     0.028 C 
ATOM     12  C   LIG d   1      -3.130  82.639 118.332  0.00  0.00     0.006 C 
ENDBRANCH   8  11
ENDBRANCH   7   8
ENDBRANCH   1   7
BRANCH   6  13
ATOM     13  N   LIG d   1      -2.394  78.040 115.630  0.00  0.00    -0.311 N 
ATOM     14  C   LIG d   1      -2.898  76.824 115.428  0.00  0.00     0.210 C 
ATOM     15  C   LIG d   1      -2.769  75.865 116.616  0.00  0.00     0.109 C 
ATOM     16  O   LIG d   1      -3.411  76.438 114.367  0.00  0.00    -0.276 OA
ATOM     17  H   LIG d   1      -1.968  78.258 116.509  0.00  0.00     0.149 HD
ENDBRANCH   6  13
BRANCH   5  18
ATOM     18  N   LIG d   1      -0.967  77.951 112.930  0.00  0.00     0.381 N 
ATOM     19  H   LIG d   1      -1.844  77.486 112.807  0.00  0.00    -0.090 HD
ATOM     20  H   LIG d   1      -0.345  77.327 113.414  0.00  0.00    -0.090 HD
ATOM     21  H   LIG d   1      -0.583  78.192 112.043  0.00  0.00    -0.090 HD
ENDBRANCH   5  18
BRANCH   3  22
ATOM     22  C   LIG d   1      -1.064  82.739 112.886  0.00  0.00     0.382 C 
ATOM     23  O   LIG d   1      -1.417  83.086 111.733  0.00  0.00    -0.241 OA
ATOM     24  O   LIG d   1      -0.244  83.436 113.512  0.00  0.00    -0.241 OA
ENDBRANCH   3  22
TORSDOF 7
ENDMDL
MODEL 7
REMARK VINA RESULT:      -4.5      3.522      6.620
REMARK  7 active torsions:
REMARK  status: ('A' for Active; 'I' for Inactive)
REMARK    1  A    between atoms: C_2  and  C_3 
REMARK    2  A    between atoms: C_3  and  O_6 
REMARK    3  A    between atoms: C_3  and  C_4 
REMARK    4  A    between atoms: C_7  and  O_6 
REMARK    5  A    between atoms: C_9  and  C_10 
REMARK    6  A    between atoms: N_15  and  C_14 
REMARK    7  A    between atoms: N_20  and  C_19 
REMARK       I    between atoms: C_22  and  N_20 
ROOT
ATOM      1  C   LIG d   1      -1.481  78.110 114.669  0.00  0.00     0.161 C 
ATOM      2  C   LIG d   1      -2.037  78.475 115.907  0.00  0.00     0.016 C 
ATOM      3  C   LIG d   1      -2.628  79.736 116.152  0.00  0.00     0.038 C 
ATOM      4  C   LIG d   1      -2.839  80.668 115.125  0.00  0.00     0.028 C 
ATOM      5  C   LIG d   1      -1.841  80.543 113.979  0.00  0.00    -0.047 C 
ATOM      6  C   LIG d   1      -1.802  79.072 113.507  0.00  0.00     0.091 C 
ENDROOT
BRANCH   1   7
ATOM      7  O   LIG d   1      -1.880  76.766 114.332  0.00  0.00    -0.368 OA
BRANCH   7   8
ATOM      8  C   LIG d   1      -2.899  76.174 115.174  0.00  0.00     0.119 C 
BRANCH   8   9
ATOM      9  C   LIG d   1      -2.541  74.686 115.358  0.00  0.00     0.028 C 
ATOM     10  C   LIG d   1      -1.083  74.382 114.974  0.00  0.00     0.006 C 
ENDBRANCH   8   9
BRANCH   8  11
ATOM     11  C   LIG d   1      -4.266  76.180 114.483  0.00  0.00     0.028 C 
ATOM     12  C   LIG d   1      -5.045  74.871 114.692  0.00  0.00     0.006 C 
ENDBRANCH   8  11
ENDBRANCH   7   8
ENDBRANCH   1   7
BRANCH   6  13
ATOM     13  N   LIG d   1      -0.789  78.845 112.443  0.00  0.00    -0.311 N 
ATOM     14  C   LIG d   1      -1.087  78.364 111.237  0.00  0.00     0.210 C 
ATOM     15  C   LIG d   1       0.110  78.188 110.297  0.00  0.00     0.109 C 
ATOM     16  O   LIG d   1      -2.233  78.096 110.846  0.00  0.00    -0.276 OA
ATOM     17  H   LIG d   1       0.162  79.065 112.664  0.00  0.00     0.149 HD
ENDBRANCH   6  13
BRANCH   5  18
ATOM     18  N   LIG d   1      -2.261  81.479 112.919  0.00  0.00     0.381 N 
ATOM     19  H   LIG d   1      -2.503  80.970 112.093  0.00  0.00    -0.090 HD
ATOM     20  H   LIG d   1      -1.491  82.088 112.699  0.00  0.00    -0.090 HD
ATOM     21  H   LIG d   1      -3.041  82.017 113.227  0.00  0.00    -0.090 HD
ENDBRANCH   5  18
BRANCH   3  22
ATOM     22  C   LIG d   1      -2.978  80.091 117.446  0.00  0.00     0.382 C 
ATOM     23  O   LIG d   1      -3.655  81.127 117.650  0.00  0.00    -0.241 OA
ATOM     24  O   LIG d   1      -2.589  79.411 118.415  0.00  0.00    -0.241 OA
ENDBRANCH   3  22
TORSDOF 7
ENDMDL
MODEL 8
REMARK VINA RESULT:      -4.4      4.178      7.561
REMARK  7 active torsions:
REMARK  status: ('A' for Active; 'I' for Inactive)
REMARK    1  A    between atoms: C_2  and  C_3 
REMARK    2  A    between atoms: C_3  and  O_6 
REMARK    3  A    between atoms: C_3  and  C_4 
REMARK    4  A    between atoms: C_7  and  O_6 
REMARK    5  A    between atoms: C_9  and  C_10 
REMARK    6  A    between atoms: N_15  and  C_14 
REMARK    7  A    between atoms: N_20  and  C_19 
REMARK       I    between atoms: C_22  and  N_20 
ROOT
ATOM      1  C   LIG d   1      -3.386  78.698 116.439  0.00  0.00     0.161 C 
ATOM      2  C   LIG d   1      -3.824  80.026 116.570  0.00  0.00     0.016 C 
ATOM      3  C   LIG d   1      -3.142  81.129 116.007  0.00  0.00     0.038 C 
ATOM      4  C   LIG d   1      -2.051  80.963 115.141  0.00  0.00     0.028 C 
ATOM      5  C   LIG d   1      -1.272  79.676 115.388  0.00  0.00    -0.047 C 
ATOM      6  C   LIG d   1      -2.259  78.487 115.406  0.00  0.00     0.091 C 
ENDROOT
BRANCH   1   7
ATOM      7  O   LIG d   1      -4.506  77.841 116.141  0.00  0.00    -0.368 OA
BRANCH   7   8
ATOM      8  C   LIG d   1      -4.820  76.834 117.135  0.00  0.00     0.119 C 
BRANCH   8   9
ATOM      9  C   LIG d   1      -5.316  75.583 116.385  0.00  0.00     0.028 C 
ATOM     10  C   LIG d   1      -4.793  75.518 114.940  0.00  0.00     0.006 C 
ENDBRANCH   8   9
BRANCH   8  11
ATOM     11  C   LIG d   1      -5.993  77.270 118.018  0.00  0.00     0.028 C 
ATOM     12  C   LIG d   1      -7.026  78.119 117.260  0.00  0.00     0.006 C 
ENDBRANCH   8  11
ENDBRANCH   7   8
ENDBRANCH   1   7
BRANCH   6  13
ATOM     13  N   LIG d   1      -1.591  77.199 115.725  0.00  0.00    -0.311 N 
ATOM     14  C   LIG d   1      -1.150  76.351 114.797  0.00  0.00     0.210 C 
ATOM     15  C   LIG d   1      -0.509  75.071 115.343  0.00  0.00     0.109 C 
ATOM     16  O   LIG d   1      -1.200  76.553 113.575  0.00  0.00    -0.276 OA
ATOM     17  H   LIG d   1      -1.481  76.970 116.694  0.00  0.00     0.149 HD
ENDBRANCH   6  13
BRANCH   5  18
ATOM     18  N   LIG d   1      -0.249  79.563 114.331  0.00  0.00     0.381 N 
ATOM     19  H   LIG d   1       0.253  80.424 114.252  0.00  0.00    -0.090 HD
ATOM     20  H   LIG d   1      -0.707  79.383 113.455  0.00  0.00    -0.090 HD
ATOM     21  H   LIG d   1       0.381  78.821 114.543  0.00  0.00    -0.090 HD
ENDBRANCH   5  18
BRANCH   3  22
ATOM     22  C   LIG d   1      -3.527  82.419 116.341  0.00  0.00     0.382 C 
ATOM     23  O   LIG d   1      -4.277  83.068 115.573  0.00  0.00    -0.241 OA
ATOM     24  O   LIG d   1      -3.098  82.957 117.379  0.00  0.00    -0.241 OA
ENDBRANCH   3  22
TORSDOF 7
ENDMDL
MODEL 9
REMARK VINA RESULT:      -4.4      2.165      4.680
REMARK  7 active torsions:
REMARK  status: ('A' for Active; 'I' for Inactive)
REMARK    1  A    between atoms: C_2  and  C_3 
REMARK    2  A    between atoms: C_3  and  O_6 
REMARK    3  A    between atoms: C_3  and  C_4 
REMARK    4  A    between atoms: C_7  and  O_6 
REMARK    5  A    between atoms: C_9  and  C_10 
REMARK    6  A    between atoms: N_15  and  C_14 
REMARK    7  A    between atoms: N_20  and  C_19 
REMARK       I    between atoms: C_22  and  N_20 
ROOT
ATOM      1  C   LIG d   1      -1.551  80.966 114.123  0.00  0.00     0.161 C 
ATOM      2  C   LIG d   1      -2.357  79.852 114.409  0.00  0.00     0.016 C 
ATOM      3  C   LIG d   1      -2.276  78.631 113.701  0.00  0.00     0.038 C 
ATOM      4  C   LIG d   1      -1.271  78.389 112.753  0.00  0.00     0.028 C 
ATOM      5  C   LIG d   1      -0.758  79.656 112.078  0.00  0.00    -0.047 C 
ATOM      6  C   LIG d   1      -0.373  80.684 113.166  0.00  0.00     0.091 C 
ENDROOT
BRANCH   1   7
ATOM      7  O   LIG d   1      -1.070  81.549 115.351  0.00  0.00    -0.368 OA
BRANCH   7   8
ATOM      8  C   LIG d   1      -1.815  82.686 115.851  0.00  0.00     0.119 C 
BRANCH   8   9
ATOM      9  C   LIG d   1      -0.827  83.860 115.994  0.00  0.00     0.028 C 
ATOM     10  C   LIG d   1      -0.697  84.680 114.699  0.00  0.00     0.006 C 
ENDBRANCH   8   9
BRANCH   8  11
ATOM     11  C   LIG d   1      -2.345  82.428 117.264  0.00  0.00     0.028 C 
ATOM     12  C   LIG d   1      -1.682  83.324 118.322  0.00  0.00     0.006 C 
ENDBRANCH   8  11
ENDBRANCH   7   8
ENDBRANCH   1   7
BRANCH   6  13
ATOM     13  N   LIG d   1       0.060  81.984 112.591  0.00  0.00    -0.311 N 
ATOM     14  C   LIG d   1       1.334  82.297 112.363  0.00  0.00     0.210 C 
ATOM     15  C   LIG d   1       1.563  83.697 111.784  0.00  0.00     0.109 C 
ATOM     16  O   LIG d   1       2.294  81.536 112.556  0.00  0.00    -0.276 OA
ATOM     17  H   LIG d   1      -0.657  82.649 112.375  0.00  0.00     0.149 HD
ENDBRANCH   6  13
BRANCH   5  18
ATOM     18  N   LIG d   1       0.378  79.274 111.217  0.00  0.00     0.381 N 
ATOM     19  H   LIG d   1       0.676  80.063 110.679  0.00  0.00    -0.090 HD
ATOM     20  H   LIG d   1       0.077  78.555 110.582  0.00  0.00    -0.090 HD
ATOM     21  H   LIG d   1       1.132  78.940 111.775  0.00  0.00    -0.090 HD
ENDBRANCH   5  18
BRANCH   3  22
ATOM     22  C   LIG d   1      -3.232  77.649 113.912  0.00  0.00     0.382 C 
ATOM     23  O   LIG d   1      -4.004  77.315 112.981  0.00  0.00    -0.241 OA
ATOM     24  O   LIG d   1      -3.362  77.125 115.035  0.00  0.00    -0.241 OA
ENDBRANCH   3  22
TORSDOF 7
ENDMDL
