MODEL 1
REMARK VINA RESULT:      -5.1      0.000      0.000
REMARK  7 active torsions:
REMARK  status: ('A' for Active; 'I' for Inactive)
REMARK    1  A    between atoms: C_2  and  C_3 
REMARK    2  A    between atoms: C_3  and  O_6 
REMARK    3  A    between atoms: C_3  and  C_4 
REMARK    4  A    between atoms: C_7  and  O_6 
REMARK    5  A    between atoms: C_9  and  C_10 
REMARK    6  A    between atoms: N_15  and  C_14 
REMARK    7  A    between atoms: N_20  and  C_19 
REMARK       I    between atoms: C_22  and  N_20 
ROOT
ATOM      1  C   LIG d   1      -1.737  74.960 115.395  0.00  0.00     0.161 C 
ATOM      2  C   LIG d   1      -1.288  74.549 116.661  0.00  0.00     0.016 C 
ATOM      3  C   LIG d   1      -0.743  75.434 117.619  0.00  0.00     0.038 C 
ATOM      4  C   LIG d   1      -0.750  76.825 117.431  0.00  0.00     0.028 C 
ATOM      5  C   LIG d   1      -0.729  77.238 115.963  0.00  0.00    -0.047 C 
ATOM      6  C   LIG d   1      -1.855  76.488 115.215  0.00  0.00     0.091 C 
ENDROOT
BRANCH   1   7
ATOM      7  O   LIG d   1      -2.993  74.321 115.090  0.00  0.00    -0.368 OA
BRANCH   7   8
ATOM      8  C   LIG d   1      -4.177  74.952 115.636  0.00  0.00     0.119 C 
BRANCH   8   9
ATOM      9  C   LIG d   1      -4.568  74.180 116.911  0.00  0.00     0.028 C 
ATOM     10  C   LIG d   1      -6.080  74.232 117.188  0.00  0.00     0.006 C 
ENDBRANCH   8   9
BRANCH   8  11
ATOM     11  C   LIG d   1      -5.373  74.805 114.690  0.00  0.00     0.028 C 
ATOM     12  C   LIG d   1      -5.742  76.120 113.987  0.00  0.00     0.006 C 
ENDBRANCH   8  11
ENDBRANCH   7   8
ENDBRANCH   1   7
BRANCH   6  13
ATOM     13  N   LIG d   1      -1.851  76.771 113.756  0.00  0.00    -0.311 N 
ATOM     14  C   LIG d   1      -2.479  77.810 113.209  0.00  0.00     0.210 C 
ATOM     15  C   LIG d   1      -2.366  77.905 111.685  0.00  0.00     0.109 C 
ATOM     16  O   LIG d   1      -3.093  78.680 113.846  0.00  0.00    -0.276 OA
ATOM     17  H   LIG d   1      -1.351  76.132 113.169  0.00  0.00     0.149 HD
ENDBRANCH   6  13
BRANCH   5  18
ATOM     18  N   LIG d   1      -0.878  78.705 115.911  0.00  0.00     0.381 N 
ATOM     19  H   LIG d   1      -1.699  78.980 116.412  0.00  0.00    -0.090 HD
ATOM     20  H   LIG d   1      -0.984  78.987 114.953  0.00  0.00    -0.090 HD
ATOM     21  H   LIG d   1      -0.076  79.143 116.308  0.00  0.00    -0.090 HD
ENDBRANCH   5  18
BRANCH   3  22
ATOM     22  C   LIG d   1      -0.148  74.927 118.763  0.00  0.00     0.382 C 
ATOM     23  O   LIG d   1      -0.828  74.765 119.805  0.00  0.00    -0.241 OA
ATOM     24  O   LIG d   1       1.071  74.670 118.781  0.00  0.00    -0.241 OA
ENDBRANCH   3  22
TORSDOF 7
ENDMDL
MODEL 2
REMARK VINA RESULT:      -4.8      3.195      3.966
REMARK  7 active torsions:
REMARK  status: ('A' for Active; 'I' for Inactive)
REMARK    1  A    between atoms: C_2  and  C_3 
REMARK    2  A    between atoms: C_3  and  O_6 
REMARK    3  A    between atoms: C_3  and  C_4 
REMARK    4  A    between atoms: C_7  and  O_6 
REMARK    5  A    between atoms: C_9  and  C_10 
REMARK    6  A    between atoms: N_15  and  C_14 
REMARK    7  A    between atoms: N_20  and  C_19 
REMARK       I    between atoms: C_22  and  N_20 
ROOT
ATOM      1  C   LIG d   1      -3.226  77.754 117.128  0.00  0.00     0.161 C 
ATOM      2  C   LIG d   1      -2.412  78.713 117.753  0.00  0.00     0.016 C 
ATOM      3  C   LIG d   1      -1.031  78.855 117.486  0.00  0.00     0.038 C 
ATOM      4  C   LIG d   1      -0.398  78.142 116.457  0.00  0.00     0.028 C 
ATOM      5  C   LIG d   1      -1.066  76.807 116.146  0.00  0.00    -0.047 C 
ATOM      6  C   LIG d   1      -2.577  77.042 115.923  0.00  0.00     0.091 C 
ENDROOT
BRANCH   1   7
ATOM      7  O   LIG d   1      -4.478  78.354 116.740  0.00  0.00    -0.368 OA
BRANCH   7   8
ATOM      8  C   LIG d   1      -5.544  78.294 117.720  0.00  0.00     0.119 C 
BRANCH   8   9
ATOM      9  C   LIG d   1      -6.598  77.299 117.198  0.00  0.00     0.028 C 
ATOM     10  C   LIG d   1      -6.357  75.868 117.708  0.00  0.00     0.006 C 
ENDBRANCH   8   9
BRANCH   8  11
ATOM     11  C   LIG d   1      -6.273  79.636 117.833  0.00  0.00     0.028 C 
ATOM     12  C   LIG d   1      -7.740  79.483 118.263  0.00  0.00     0.006 C 
ENDBRANCH   8  11
ENDBRANCH   7   8
ENDBRANCH   1   7
BRANCH   6  13
ATOM     13  N   LIG d   1      -3.320  75.775 115.695  0.00  0.00    -0.311 N 
ATOM     14  C   LIG d   1      -4.212  75.613 114.719  0.00  0.00     0.210 C 
ATOM     15  C   LIG d   1      -4.878  74.235 114.674  0.00  0.00     0.109 C 
ATOM     16  O   LIG d   1      -4.490  76.470 113.866  0.00  0.00    -0.276 OA
ATOM     17  H   LIG d   1      -3.133  75.017 116.322  0.00  0.00     0.149 HD
ENDBRANCH   6  13
BRANCH   5  18
ATOM     18  N   LIG d   1      -0.389  76.234 114.967  0.00  0.00     0.381 N 
ATOM     19  H   LIG d   1       0.357  75.636 115.261  0.00  0.00    -0.090 HD
ATOM     20  H   LIG d   1       0.003  76.982 114.422  0.00  0.00    -0.090 HD
ATOM     21  H   LIG d   1      -1.041  75.719 114.417  0.00  0.00    -0.090 HD
ENDBRANCH   5  18
BRANCH   3  22
ATOM     22  C   LIG d   1      -0.260  79.690 118.280  0.00  0.00     0.382 C 
ATOM     23  O   LIG d   1      -0.370  79.646 119.529  0.00  0.00    -0.241 OA
ATOM     24  O   LIG d   1       0.513  80.518 117.762  0.00  0.00    -0.241 OA
ENDBRANCH   3  22
TORSDOF 7
ENDMDL
MODEL 3
REMARK VINA RESULT:      -4.6      2.388      4.569
REMARK  7 active torsions:
REMARK  status: ('A' for Active; 'I' for Inactive)
REMARK    1  A    between atoms: C_2  and  C_3 
REMARK    2  A    between atoms: C_3  and  O_6 
REMARK    3  A    between atoms: C_3  and  C_4 
REMARK    4  A    between atoms: C_7  and  O_6 
REMARK    5  A    between atoms: C_9  and  C_10 
REMARK    6  A    between atoms: N_15  and  C_14 
REMARK    7  A    between atoms: N_20  and  C_19 
REMARK       I    between atoms: C_22  and  N_20 
ROOT
ATOM      1  C   LIG d   1      -2.410  77.943 116.283  0.00  0.00     0.161 C 
ATOM      2  C   LIG d   1      -1.266  78.706 116.573  0.00  0.00     0.016 C 
ATOM      3  C   LIG d   1      -0.044  78.143 117.007  0.00  0.00     0.038 C 
ATOM      4  C   LIG d   1       0.164  76.756 117.035  0.00  0.00     0.028 C 
ATOM      5  C   LIG d   1      -1.117  75.955 117.236  0.00  0.00    -0.047 C 
ATOM      6  C   LIG d   1      -2.168  76.421 116.202  0.00  0.00     0.091 C 
ENDROOT
BRANCH   1   7
ATOM      7  O   LIG d   1      -3.020  78.419 115.067  0.00  0.00    -0.368 OA
BRANCH   7   8
ATOM      8  C   LIG d   1      -2.136  78.578 113.930  0.00  0.00     0.119 C 
BRANCH   8   9
ATOM      9  C   LIG d   1      -2.456  79.939 113.282  0.00  0.00     0.028 C 
ATOM     10  C   LIG d   1      -1.310  80.449 112.391  0.00  0.00     0.006 C 
ENDBRANCH   8   9
BRANCH   8  11
ATOM     11  C   LIG d   1      -2.426  77.535 112.848  0.00  0.00     0.028 C 
ATOM     12  C   LIG d   1      -3.886  77.563 112.369  0.00  0.00     0.006 C 
ENDBRANCH   8  11
ENDBRANCH   7   8
ENDBRANCH   1   7
BRANCH   6  13
ATOM     13  N   LIG d   1      -3.480  75.747 116.383  0.00  0.00    -0.311 N 
ATOM     14  C   LIG d   1      -3.997  74.900 115.494  0.00  0.00     0.210 C 
ATOM     15  C   LIG d   1      -5.371  74.332 115.867  0.00  0.00     0.109 C 
ATOM     16  O   LIG d   1      -3.436  74.541 114.448  0.00  0.00    -0.276 OA
ATOM     17  H   LIG d   1      -3.989  75.957 117.219  0.00  0.00     0.149 HD
ENDBRANCH   6  13
BRANCH   5  18
ATOM     18  N   LIG d   1      -0.775  74.526 117.107  0.00  0.00     0.381 N 
ATOM     19  H   LIG d   1       0.203  74.428 116.916  0.00  0.00    -0.090 HD
ATOM     20  H   LIG d   1      -1.288  74.136 116.336  0.00  0.00    -0.090 HD
ATOM     21  H   LIG d   1      -1.006  74.043 117.948  0.00  0.00    -0.090 HD
ENDBRANCH   5  18
BRANCH   3  22
ATOM     22  C   LIG d   1       0.973  78.972 117.456  0.00  0.00     0.382 C 
ATOM     23  O   LIG d   1       0.859  80.217 117.352  0.00  0.00    -0.241 OA
ATOM     24  O   LIG d   1       2.022  78.488 117.923  0.00  0.00    -0.241 OA
ENDBRANCH   3  22
TORSDOF 7
ENDMDL
MODEL 4
REMARK VINA RESULT:      -4.5      3.151      4.374
REMARK  7 active torsions:
REMARK  status: ('A' for Active; 'I' for Inactive)
REMARK    1  A    between atoms: C_2  and  C_3 
REMARK    2  A    between atoms: C_3  and  O_6 
REMARK    3  A    between atoms: C_3  and  C_4 
REMARK    4  A    between atoms: C_7  and  O_6 
REMARK    5  A    between atoms: C_9  and  C_10 
REMARK    6  A    between atoms: N_15  and  C_14 
REMARK    7  A    between atoms: N_20  and  C_19 
REMARK       I    between atoms: C_22  and  N_20 
ROOT
ATOM      1  C   LIG d   1      -2.945  78.083 116.720  0.00  0.00     0.161 C 
ATOM      2  C   LIG d   1      -1.857  77.203 116.842  0.00  0.00     0.016 C 
ATOM      3  C   LIG d   1      -1.739  76.250 117.880  0.00  0.00     0.038 C 
ATOM      4  C   LIG d   1      -2.782  76.008 118.786  0.00  0.00     0.028 C 
ATOM      5  C   LIG d   1      -3.684  77.217 119.008  0.00  0.00    -0.047 C 
ATOM      6  C   LIG d   1      -4.145  77.758 117.635  0.00  0.00     0.091 C 
ENDROOT
BRANCH   1   7
ATOM      7  O   LIG d   1      -3.369  78.149 115.344  0.00  0.00    -0.368 OA
BRANCH   7   8
ATOM      8  C   LIG d   1      -3.059  76.994 114.526  0.00  0.00     0.119 C 
BRANCH   8   9
ATOM      9  C   LIG d   1      -2.673  77.510 113.126  0.00  0.00     0.028 C 
ATOM     10  C   LIG d   1      -2.282  78.997 113.135  0.00  0.00     0.006 C 
ENDBRANCH   8   9
BRANCH   8  11
ATOM     11  C   LIG d   1      -4.296  76.118 114.308  0.00  0.00     0.028 C 
ATOM     12  C   LIG d   1      -4.212  74.774 115.050  0.00  0.00     0.006 C 
ENDBRANCH   8  11
ENDBRANCH   7   8
ENDBRANCH   1   7
BRANCH   6  13
ATOM     13  N   LIG d   1      -4.963  78.993 117.758  0.00  0.00    -0.311 N 
ATOM     14  C   LIG d   1      -6.293  78.986 117.838  0.00  0.00     0.210 C 
ATOM     15  C   LIG d   1      -6.942  80.370 117.939  0.00  0.00     0.109 C 
ATOM     16  O   LIG d   1      -6.994  77.964 117.866  0.00  0.00    -0.276 OA
ATOM     17  H   LIG d   1      -4.473  79.866 117.774  0.00  0.00     0.149 HD
ENDBRANCH   6  13
BRANCH   5  18
ATOM     18  N   LIG d   1      -4.804  76.786 119.865  0.00  0.00     0.381 N 
ATOM     19  H   LIG d   1      -5.202  77.579 120.328  0.00  0.00    -0.090 HD
ATOM     20  H   LIG d   1      -4.454  76.156 120.565  0.00  0.00    -0.090 HD
ATOM     21  H   LIG d   1      -5.499  76.331 119.315  0.00  0.00    -0.090 HD
ENDBRANCH   5  18
BRANCH   3  22
ATOM     22  C   LIG d   1      -0.551  75.554 118.042  0.00  0.00     0.382 C 
ATOM     23  O   LIG d   1       0.463  76.141 118.490  0.00  0.00    -0.241 OA
ATOM     24  O   LIG d   1      -0.468  74.358 117.703  0.00  0.00    -0.241 OA
ENDBRANCH   3  22
TORSDOF 7
ENDMDL
MODEL 5
REMARK VINA RESULT:      -4.4      3.573      4.994
REMARK  7 active torsions:
REMARK  status: ('A' for Active; 'I' for Inactive)
REMARK    1  A    between atoms: C_2  and  C_3 
REMARK    2  A    between atoms: C_3  and  O_6 
REMARK    3  A    between atoms: C_3  and  C_4 
REMARK    4  A    between atoms: C_7  and  O_6 
REMARK    5  A    between atoms: C_9  and  C_10 
REMARK    6  A    between atoms: N_15  and  C_14 
REMARK    7  A    between atoms: N_20  and  C_19 
REMARK       I    between atoms: C_22  and  N_20 
ROOT
ATOM      1  C   LIG d   1      -4.089  77.358 116.967  0.00  0.00     0.161 C 
ATOM      2  C   LIG d   1      -5.379  77.757 117.354  0.00  0.00     0.016 C 
ATOM      3  C   LIG d   1      -5.627  78.783 118.295  0.00  0.00     0.038 C 
ATOM      4  C   LIG d   1      -4.596  79.588 118.803  0.00  0.00     0.028 C 
ATOM      5  C   LIG d   1      -3.239  78.892 118.826  0.00  0.00    -0.047 C 
ATOM      6  C   LIG d   1      -2.955  78.299 117.427  0.00  0.00     0.091 C 
ENDROOT
BRANCH   1   7
ATOM      7  O   LIG d   1      -4.041  77.178 115.538  0.00  0.00    -0.368 OA
BRANCH   7   8
ATOM      8  C   LIG d   1      -3.908  75.812 115.072  0.00  0.00     0.119 C 
BRANCH   8   9
ATOM      9  C   LIG d   1      -5.303  75.341 114.618  0.00  0.00     0.028 C 
ATOM     10  C   LIG d   1      -5.859  74.213 115.503  0.00  0.00     0.006 C 
ENDBRANCH   8   9
BRANCH   8  11
ATOM     11  C   LIG d   1      -3.514  74.870 116.213  0.00  0.00     0.028 C 
ATOM     12  C   LIG d   1      -2.161  74.181 115.976  0.00  0.00     0.006 C 
ENDBRANCH   8  11
ENDBRANCH   7   8
ENDBRANCH   1   7
BRANCH   6  13
ATOM     13  N   LIG d   1      -1.686  77.528 117.385  0.00  0.00    -0.311 N 
ATOM     14  C   LIG d   1      -0.516  78.061 117.037  0.00  0.00     0.210 C 
ATOM     15  C   LIG d   1       0.666  77.085 117.041  0.00  0.00     0.109 C 
ATOM     16  O   LIG d   1      -0.338  79.256 116.757  0.00  0.00    -0.276 OA
ATOM     17  H   LIG d   1      -1.733  76.558 117.628  0.00  0.00     0.149 HD
ENDBRANCH   6  13
BRANCH   5  18
ATOM     18  N   LIG d   1      -2.235  79.887 119.247  0.00  0.00     0.381 N 
ATOM     19  H   LIG d   1      -1.417  79.804 118.678  0.00  0.00    -0.090 HD
ATOM     20  H   LIG d   1      -1.976  79.704 120.201  0.00  0.00    -0.090 HD
ATOM     21  H   LIG d   1      -2.612  80.806 119.168  0.00  0.00    -0.090 HD
ENDBRANCH   5  18
BRANCH   3  22
ATOM     22  C   LIG d   1      -6.914  78.986 118.767  0.00  0.00     0.382 C 
ATOM     23  O   LIG d   1      -7.766  79.553 118.041  0.00  0.00    -0.241 OA
ATOM     24  O   LIG d   1      -7.223  78.649 119.926  0.00  0.00    -0.241 OA
ENDBRANCH   3  22
TORSDOF 7
ENDMDL
MODEL 6
REMARK VINA RESULT:      -4.4      3.140      5.344
REMARK  7 active torsions:
REMARK  status: ('A' for Active; 'I' for Inactive)
REMARK    1  A    between atoms: C_2  and  C_3 
REMARK    2  A    between atoms: C_3  and  O_6 
REMARK    3  A    between atoms: C_3  and  C_4 
REMARK    4  A    between atoms: C_7  and  O_6 
REMARK    5  A    between atoms: C_9  and  C_10 
REMARK    6  A    between atoms: N_15  and  C_14 
REMARK    7  A    between atoms: N_20  and  C_19 
REMARK       I    between atoms: C_22  and  N_20 
ROOT
ATOM      1  C   LIG d   1      -4.325  75.958 118.237  0.00  0.00     0.161 C 
ATOM      2  C   LIG d   1      -5.395  76.808 117.912  0.00  0.00     0.016 C 
ATOM      3  C   LIG d   1      -5.321  78.217 117.988  0.00  0.00     0.038 C 
ATOM      4  C   LIG d   1      -4.114  78.883 118.251  0.00  0.00     0.028 C 
ATOM      5  C   LIG d   1      -3.135  78.056 119.079  0.00  0.00    -0.047 C 
ATOM      6  C   LIG d   1      -2.968  76.668 118.419  0.00  0.00     0.091 C 
ENDROOT
BRANCH   1   7
ATOM      7  O   LIG d   1      -4.215  74.912 117.251  0.00  0.00    -0.368 OA
BRANCH   7   8
ATOM      8  C   LIG d   1      -3.825  75.330 115.920  0.00  0.00     0.119 C 
BRANCH   8   9
ATOM      9  C   LIG d   1      -4.848  74.737 114.931  0.00  0.00     0.028 C 
ATOM     10  C   LIG d   1      -5.706  75.819 114.255  0.00  0.00     0.006 C 
ENDBRANCH   8   9
BRANCH   8  11
ATOM     11  C   LIG d   1      -2.476  74.726 115.519  0.00  0.00     0.028 C 
ATOM     12  C   LIG d   1      -1.456  75.787 115.077  0.00  0.00     0.006 C 
ENDBRANCH   8  11
ENDBRANCH   7   8
ENDBRANCH   1   7
BRANCH   6  13
ATOM     13  N   LIG d   1      -2.091  75.767 119.211  0.00  0.00    -0.311 N 
ATOM     14  C   LIG d   1      -0.778  75.662 119.014  0.00  0.00     0.210 C 
ATOM     15  C   LIG d   1      -0.065  74.659 119.926  0.00  0.00     0.109 C 
ATOM     16  O   LIG d   1      -0.131  76.328 118.192  0.00  0.00    -0.276 OA
ATOM     17  H   LIG d   1      -2.529  75.212 119.920  0.00  0.00     0.149 HD
ENDBRANCH   6  13
BRANCH   5  18
ATOM     18  N   LIG d   1      -1.872  78.813 119.161  0.00  0.00     0.381 N 
ATOM     19  H   LIG d   1      -1.914  79.461 119.923  0.00  0.00    -0.090 HD
ATOM     20  H   LIG d   1      -1.749  79.334 118.311  0.00  0.00    -0.090 HD
ATOM     21  H   LIG d   1      -1.107  78.188 119.289  0.00  0.00    -0.090 HD
ENDBRANCH   5  18
BRANCH   3  22
ATOM     22  C   LIG d   1      -6.472  78.976 117.838  0.00  0.00     0.382 C 
ATOM     23  O   LIG d   1      -7.584  78.498 118.165  0.00  0.00    -0.241 OA
ATOM     24  O   LIG d   1      -6.417  80.116 117.339  0.00  0.00    -0.241 OA
ENDBRANCH   3  22
TORSDOF 7
ENDMDL
MODEL 7
REMARK VINA RESULT:      -4.3      3.027      5.346
REMARK  7 active torsions:
REMARK  status: ('A' for Active; 'I' for Inactive)
REMARK    1  A    between atoms: C_2  and  C_3 
REMARK    2  A    between atoms: C_3  and  O_6 
REMARK    3  A    between atoms: C_3  and  C_4 
REMARK    4  A    between atoms: C_7  and  O_6 
REMARK    5  A    between atoms: C_9  and  C_10 
REMARK    6  A    between atoms: N_15  and  C_14 
REMARK    7  A    between atoms: N_20  and  C_19 
REMARK       I    between atoms: C_22  and  N_20 
ROOT
ATOM      1  C   LIG d   1      -2.747  77.595 116.889  0.00  0.00     0.161 C 
ATOM      2  C   LIG d   1      -3.711  77.101 115.995  0.00  0.00     0.016 C 
ATOM      3  C   LIG d   1      -3.680  75.792 115.462  0.00  0.00     0.038 C 
ATOM      4  C   LIG d   1      -2.758  74.832 115.906  0.00  0.00     0.028 C 
ATOM      5  C   LIG d   1      -1.460  75.436 116.430  0.00  0.00    -0.047 C 
ATOM      6  C   LIG d   1      -1.798  76.527 117.472  0.00  0.00     0.091 C 
ENDROOT
BRANCH   1   7
ATOM      7  O   LIG d   1      -3.394  78.323 117.952  0.00  0.00    -0.368 OA
BRANCH   7   8
ATOM      8  C   LIG d   1      -4.839  78.229 118.002  0.00  0.00     0.119 C 
BRANCH   8   9
ATOM      9  C   LIG d   1      -5.391  79.660 118.155  0.00  0.00     0.028 C 
ATOM     10  C   LIG d   1      -6.924  79.712 118.048  0.00  0.00     0.006 C 
ENDBRANCH   8   9
BRANCH   8  11
ATOM     11  C   LIG d   1      -5.305  77.478 119.252  0.00  0.00     0.028 C 
ATOM     12  C   LIG d   1      -5.450  75.966 119.020  0.00  0.00     0.006 C 
ENDBRANCH   8  11
ENDBRANCH   7   8
ENDBRANCH   1   7
BRANCH   6  13
ATOM     13  N   LIG d   1      -0.586  77.227 117.973  0.00  0.00    -0.311 N 
ATOM     14  C   LIG d   1       0.065  76.867 119.077  0.00  0.00     0.210 C 
ATOM     15  C   LIG d   1       1.277  77.736 119.426  0.00  0.00     0.109 C 
ATOM     16  O   LIG d   1      -0.228  75.890 119.784  0.00  0.00    -0.276 OA
ATOM     17  H   LIG d   1      -0.261  78.012 117.443  0.00  0.00     0.149 HD
ENDBRANCH   6  13
BRANCH   5  18
ATOM     18  N   LIG d   1      -0.649  74.336 116.987  0.00  0.00     0.381 N 
ATOM     19  H   LIG d   1       0.093  74.711 117.544  0.00  0.00    -0.090 HD
ATOM     20  H   LIG d   1      -0.243  73.816 116.229  0.00  0.00    -0.090 HD
ATOM     21  H   LIG d   1      -1.221  73.738 117.541  0.00  0.00    -0.090 HD
ENDBRANCH   5  18
BRANCH   3  22
ATOM     22  C   LIG d   1      -4.552  75.444 114.442  0.00  0.00     0.382 C 
ATOM     23  O   LIG d   1      -4.877  74.243 114.277  0.00  0.00    -0.241 OA
ATOM     24  O   LIG d   1      -4.985  76.310 113.658  0.00  0.00    -0.241 OA
ENDBRANCH   3  22
TORSDOF 7
ENDMDL
MODEL 8
REMARK VINA RESULT:      -4.2      2.481      5.012
REMARK  7 active torsions:
REMARK  status: ('A' for Active; 'I' for Inactive)
REMARK    1  A    between atoms: C_2  and  C_3 
REMARK    2  A    between atoms: C_3  and  O_6 
REMARK    3  A    between atoms: C_3  and  C_4 
REMARK    4  A    between atoms: C_7  and  O_6 
REMARK    5  A    between atoms: C_9  and  C_10 
REMARK    6  A    between atoms: N_15  and  C_14 
REMARK    7  A    between atoms: N_20  and  C_19 
REMARK       I    between atoms: C_22  and  N_20 
ROOT
ATOM      1  C   LIG d   1      -3.050  77.061 117.123  0.00  0.00     0.161 C 
ATOM      2  C   LIG d   1      -3.109  77.925 116.017  0.00  0.00     0.016 C 
ATOM      3  C   LIG d   1      -2.501  77.638 114.773  0.00  0.00     0.038 C 
ATOM      4  C   LIG d   1      -1.916  76.392 114.503  0.00  0.00     0.028 C 
ATOM      5  C   LIG d   1      -1.392  75.686 115.749  0.00  0.00    -0.047 C 
ATOM      6  C   LIG d   1      -2.512  75.649 116.814  0.00  0.00     0.091 C 
ENDROOT
BRANCH   1   7
ATOM      7  O   LIG d   1      -4.346  76.978 117.748  0.00  0.00    -0.368 OA
BRANCH   7   8
ATOM      8  C   LIG d   1      -5.487  77.175 116.877  0.00  0.00     0.119 C 
BRANCH   8   9
ATOM      9  C   LIG d   1      -6.557  77.939 117.681  0.00  0.00     0.028 C 
ATOM     10  C   LIG d   1      -6.226  79.434 117.825  0.00  0.00     0.006 C 
ENDBRANCH   8   9
BRANCH   8  11
ATOM     11  C   LIG d   1      -6.138  75.841 116.501  0.00  0.00     0.028 C 
ATOM     12  C   LIG d   1      -5.806  75.399 115.067  0.00  0.00     0.006 C 
ENDBRANCH   8  11
ENDBRANCH   7   8
ENDBRANCH   1   7
BRANCH   6  13
ATOM     13  N   LIG d   1      -2.056  75.050 118.095  0.00  0.00    -0.311 N 
ATOM     14  C   LIG d   1      -0.843  75.251 118.608  0.00  0.00     0.210 C 
ATOM     15  C   LIG d   1      -0.571  74.524 119.928  0.00  0.00     0.109 C 
ATOM     16  O   LIG d   1       0.022  75.987 118.110  0.00  0.00    -0.276 OA
ATOM     17  H   LIG d   1      -2.706  74.463 118.581  0.00  0.00     0.149 HD
ENDBRANCH   6  13
BRANCH   5  18
ATOM     18  N   LIG d   1      -0.935  74.344 115.342  0.00  0.00     0.381 N 
ATOM     19  H   LIG d   1      -1.534  73.647 115.741  0.00  0.00    -0.090 HD
ATOM     20  H   LIG d   1      -0.005  74.197 115.691  0.00  0.00    -0.090 HD
ATOM     21  H   LIG d   1      -0.941  74.268 114.349  0.00  0.00    -0.090 HD
ENDBRANCH   5  18
BRANCH   3  22
ATOM     22  C   LIG d   1      -2.438  78.620 113.796  0.00  0.00     0.382 C 
ATOM     23  O   LIG d   1      -1.660  79.594 113.934  0.00  0.00    -0.241 OA
ATOM     24  O   LIG d   1      -3.183  78.567 112.799  0.00  0.00    -0.241 OA
ENDBRANCH   3  22
TORSDOF 7
ENDMDL
MODEL 9
REMARK VINA RESULT:      -4.2      3.435      5.394
REMARK  7 active torsions:
REMARK  status: ('A' for Active; 'I' for Inactive)
REMARK    1  A    between atoms: C_2  and  C_3 
REMARK    2  A    between atoms: C_3  and  O_6 
REMARK    3  A    between atoms: C_3  and  C_4 
REMARK    4  A    between atoms: C_7  and  O_6 
REMARK    5  A    between atoms: C_9  and  C_10 
REMARK    6  A    between atoms: N_15  and  C_14 
REMARK    7  A    between atoms: N_20  and  C_19 
REMARK       I    between atoms: C_22  and  N_20 
ROOT
ATOM      1  C   LIG d   1      -3.924  76.896 117.489  0.00  0.00     0.161 C 
ATOM      2  C   LIG d   1      -5.138  77.585 117.331  0.00  0.00     0.016 C 
ATOM      3  C   LIG d   1      -5.428  78.810 117.976  0.00  0.00     0.038 C 
ATOM      4  C   LIG d   1      -4.457  79.509 118.709  0.00  0.00     0.028 C 
ATOM      5  C   LIG d   1      -3.385  78.606 119.309  0.00  0.00    -0.047 C 
ATOM      6  C   LIG d   1      -2.812  77.698 118.196  0.00  0.00     0.091 C 
ENDROOT
BRANCH   1   7
ATOM      7  O   LIG d   1      -3.462  76.421 116.209  0.00  0.00    -0.368 OA
BRANCH   7   8
ATOM      8  C   LIG d   1      -3.306  74.986 116.080  0.00  0.00     0.119 C 
BRANCH   8   9
ATOM      9  C   LIG d   1      -1.835  74.712 115.711  0.00  0.00     0.028 C 
ATOM     10  C   LIG d   1      -1.141  75.946 115.110  0.00  0.00     0.006 C 
ENDBRANCH   8   9
BRANCH   8  11
ATOM     11  C   LIG d   1      -4.126  74.440 114.908  0.00  0.00     0.028 C 
ATOM     12  C   LIG d   1      -5.641  74.506 115.158  0.00  0.00     0.006 C 
ENDBRANCH   8  11
ENDBRANCH   7   8
ENDBRANCH   1   7
BRANCH   6  13
ATOM     13  N   LIG d   1      -1.816  76.725 118.715  0.00  0.00    -0.311 N 
ATOM     14  C   LIG d   1      -0.501  76.934 118.680  0.00  0.00     0.210 C 
ATOM     15  C   LIG d   1       0.350  75.793 119.249  0.00  0.00     0.109 C 
ATOM     16  O   LIG d   1       0.040  77.968 118.261  0.00  0.00    -0.276 OA
ATOM     17  H   LIG d   1      -2.170  75.872 119.101  0.00  0.00     0.149 HD
ENDBRANCH   6  13
BRANCH   5  18
ATOM     18  N   LIG d   1      -2.366  79.475 119.928  0.00  0.00     0.381 N 
ATOM     19  H   LIG d   1      -1.650  79.685 119.261  0.00  0.00    -0.090 HD
ATOM     20  H   LIG d   1      -1.945  78.985 120.698  0.00  0.00    -0.090 HD
ATOM     21  H   LIG d   1      -2.787  80.318 120.251  0.00  0.00    -0.090 HD
ENDBRANCH   5  18
BRANCH   3  22
ATOM     22  C   LIG d   1      -6.713  79.327 117.923  0.00  0.00     0.382 C 
ATOM     23  O   LIG d   1      -7.694  78.601 118.214  0.00  0.00    -0.241 OA
ATOM     24  O   LIG d   1      -6.907  80.498 117.546  0.00  0.00    -0.241 OA
ENDBRANCH   3  22
TORSDOF 7
ENDMDL
