MODEL 1
REMARK VINA RESULT:      -4.7      0.000      0.000
REMARK  7 active torsions:
REMARK  status: ('A' for Active; 'I' for Inactive)
REMARK    1  A    between atoms: C_2  and  C_3 
REMARK    2  A    between atoms: C_3  and  O_6 
REMARK    3  A    between atoms: C_3  and  C_4 
REMARK    4  A    between atoms: C_7  and  O_6 
REMARK    5  A    between atoms: C_9  and  C_10 
REMARK    6  A    between atoms: N_15  and  C_14 
REMARK    7  A    between atoms: N_20  and  C_19 
REMARK       I    between atoms: C_22  and  N_20 
ROOT
ATOM      1  C   LIG d   1      -2.858  78.463 115.457  0.00  0.00     0.161 C 
ATOM      2  C   LIG d   1      -2.878  79.523 114.535  0.00  0.00     0.016 C 
ATOM      3  C   LIG d   1      -2.253  79.464 113.268  0.00  0.00     0.038 C 
ATOM      4  C   LIG d   1      -1.691  78.277 112.773  0.00  0.00     0.028 C 
ATOM      5  C   LIG d   1      -1.205  77.335 113.869  0.00  0.00    -0.047 C 
ATOM      6  C   LIG d   1      -2.345  77.123 114.891  0.00  0.00     0.091 C 
ENDROOT
BRANCH   1   7
ATOM      7  O   LIG d   1      -4.167  78.295 116.036  0.00  0.00    -0.368 OA
BRANCH   7   8
ATOM      8  C   LIG d   1      -4.462  79.113 117.195  0.00  0.00     0.119 C 
BRANCH   8   9
ATOM      9  C   LIG d   1      -3.909  78.380 118.432  0.00  0.00     0.028 C 
ATOM     10  C   LIG d   1      -4.455  76.948 118.559  0.00  0.00     0.006 C 
ENDBRANCH   8   9
BRANCH   8  11
ATOM     11  C   LIG d   1      -5.971  79.224 117.429  0.00  0.00     0.028 C 
ATOM     12  C   LIG d   1      -6.403  80.629 117.879  0.00  0.00     0.006 C 
ENDBRANCH   8  11
ENDBRANCH   7   8
ENDBRANCH   1   7
BRANCH   6  13
ATOM     13  N   LIG d   1      -1.926  76.280 116.041  0.00  0.00    -0.311 N 
ATOM     14  C   LIG d   1      -2.122  74.964 116.095  0.00  0.00     0.210 C 
ATOM     15  C   LIG d   1      -1.632  74.289 117.380  0.00  0.00     0.109 C 
ATOM     16  O   LIG d   1      -2.628  74.286 115.188  0.00  0.00    -0.276 OA
ATOM     17  H   LIG d   1      -1.479  76.744 116.808  0.00  0.00     0.149 HD
ENDBRANCH   6  13
BRANCH   5  18
ATOM     18  N   LIG d   1      -0.770  76.083 113.220  0.00  0.00     0.381 N 
ATOM     19  H   LIG d   1      -0.488  76.270 112.278  0.00  0.00    -0.090 HD
ATOM     20  H   LIG d   1      -1.545  75.444 113.195  0.00  0.00    -0.090 HD
ATOM     21  H   LIG d   1      -0.014  75.681 113.727  0.00  0.00    -0.090 HD
ENDBRANCH   5  18
BRANCH   3  22
ATOM     22  C   LIG d   1      -2.152  80.612 112.497  0.00  0.00     0.382 C 
ATOM     23  O   LIG d   1      -1.105  80.839 111.845  0.00  0.00    -0.241 OA
ATOM     24  O   LIG d   1      -3.078  81.445 112.481  0.00  0.00    -0.241 OA
ENDBRANCH   3  22
TORSDOF 7
ENDMDL
MODEL 2
REMARK VINA RESULT:      -4.6      0.814      1.034
REMARK  7 active torsions:
REMARK  status: ('A' for Active; 'I' for Inactive)
REMARK    1  A    between atoms: C_2  and  C_3 
REMARK    2  A    between atoms: C_3  and  O_6 
REMARK    3  A    between atoms: C_3  and  C_4 
REMARK    4  A    between atoms: C_7  and  O_6 
REMARK    5  A    between atoms: C_9  and  C_10 
REMARK    6  A    between atoms: N_15  and  C_14 
REMARK    7  A    between atoms: N_20  and  C_19 
REMARK       I    between atoms: C_22  and  N_20 
ROOT
ATOM      1  C   LIG d   1      -2.495  78.398 115.126  0.00  0.00     0.161 C 
ATOM      2  C   LIG d   1      -2.715  79.580 114.399  0.00  0.00     0.016 C 
ATOM      3  C   LIG d   1      -2.371  79.730 113.036  0.00  0.00     0.038 C 
ATOM      4  C   LIG d   1      -1.920  78.652 112.261  0.00  0.00     0.028 C 
ATOM      5  C   LIG d   1      -1.208  77.577 113.076  0.00  0.00    -0.047 C 
ATOM      6  C   LIG d   1      -2.106  77.175 114.269  0.00  0.00     0.091 C 
ENDROOT
BRANCH   1   7
ATOM      7  O   LIG d   1      -3.652  78.097 115.931  0.00  0.00    -0.368 OA
BRANCH   7   8
ATOM      8  C   LIG d   1      -4.027  79.100 116.907  0.00  0.00     0.119 C 
BRANCH   8   9
ATOM      9  C   LIG d   1      -3.323  78.745 118.231  0.00  0.00     0.028 C 
ATOM     10  C   LIG d   1      -2.456  79.899 118.762  0.00  0.00     0.006 C 
ENDBRANCH   8   9
BRANCH   8  11
ATOM     11  C   LIG d   1      -5.526  79.043 117.217  0.00  0.00     0.028 C 
ATOM     12  C   LIG d   1      -6.073  80.372 117.763  0.00  0.00     0.006 C 
ENDBRANCH   8  11
ENDBRANCH   7   8
ENDBRANCH   1   7
BRANCH   6  13
ATOM     13  N   LIG d   1      -1.449  76.188 115.166  0.00  0.00    -0.311 N 
ATOM     14  C   LIG d   1      -2.019  75.044 115.539  0.00  0.00     0.210 C 
ATOM     15  C   LIG d   1      -1.177  74.180 116.483  0.00  0.00     0.109 C 
ATOM     16  O   LIG d   1      -3.128  74.647 115.152  0.00  0.00    -0.276 OA
ATOM     17  H   LIG d   1      -0.534  76.416 115.502  0.00  0.00     0.149 HD
ENDBRANCH   6  13
BRANCH   5  18
ATOM     18  N   LIG d   1      -0.913  76.452 112.170  0.00  0.00     0.381 N 
ATOM     19  H   LIG d   1      -1.642  76.364 111.490  0.00  0.00    -0.090 HD
ATOM     20  H   LIG d   1      -0.878  75.603 112.706  0.00  0.00    -0.090 HD
ATOM     21  H   LIG d   1      -0.040  76.601 111.713  0.00  0.00    -0.090 HD
ENDBRANCH   5  18
BRANCH   3  22
ATOM     22  C   LIG d   1      -2.441  80.982 112.444  0.00  0.00     0.382 C 
ATOM     23  O   LIG d   1      -1.399  81.528 112.007  0.00  0.00    -0.241 OA
ATOM     24  O   LIG d   1      -3.526  81.592 112.381  0.00  0.00    -0.241 OA
ENDBRANCH   3  22
TORSDOF 7
ENDMDL
MODEL 3
REMARK VINA RESULT:      -4.5      2.487      3.107
REMARK  7 active torsions:
REMARK  status: ('A' for Active; 'I' for Inactive)
REMARK    1  A    between atoms: C_2  and  C_3 
REMARK    2  A    between atoms: C_3  and  O_6 
REMARK    3  A    between atoms: C_3  and  C_4 
REMARK    4  A    between atoms: C_7  and  O_6 
REMARK    5  A    between atoms: C_9  and  C_10 
REMARK    6  A    between atoms: N_15  and  C_14 
REMARK    7  A    between atoms: N_20  and  C_19 
REMARK       I    between atoms: C_22  and  N_20 
ROOT
ATOM      1  C   LIG d   1      -2.741  76.727 115.232  0.00  0.00     0.161 C 
ATOM      2  C   LIG d   1      -2.895  77.598 114.140  0.00  0.00     0.016 C 
ATOM      3  C   LIG d   1      -1.969  78.618 113.822  0.00  0.00     0.038 C 
ATOM      4  C   LIG d   1      -0.741  78.739 114.490  0.00  0.00     0.028 C 
ATOM      5  C   LIG d   1      -0.773  78.206 115.918  0.00  0.00    -0.047 C 
ATOM      6  C   LIG d   1      -1.354  76.774 115.906  0.00  0.00     0.091 C 
ENDROOT
BRANCH   1   7
ATOM      7  O   LIG d   1      -3.059  75.380 114.832  0.00  0.00    -0.368 OA
BRANCH   7   8
ATOM      8  C   LIG d   1      -4.280  74.824 115.379  0.00  0.00     0.119 C 
BRANCH   8   9
ATOM      9  C   LIG d   1      -5.383  74.995 114.316  0.00  0.00     0.028 C 
ATOM     10  C   LIG d   1      -6.466  75.998 114.749  0.00  0.00     0.006 C 
ENDBRANCH   8   9
BRANCH   8  11
ATOM     11  C   LIG d   1      -4.761  75.622 116.594  0.00  0.00     0.028 C 
ATOM     12  C   LIG d   1      -4.822  74.777 117.876  0.00  0.00     0.006 C 
ENDBRANCH   8  11
ENDBRANCH   7   8
ENDBRANCH   1   7
BRANCH   6  13
ATOM     13  N   LIG d   1      -1.498  76.209 117.273  0.00  0.00    -0.311 N 
ATOM     14  C   LIG d   1      -0.984  75.036 117.640  0.00  0.00     0.210 C 
ATOM     15  C   LIG d   1      -1.267  74.632 119.090  0.00  0.00     0.109 C 
ATOM     16  O   LIG d   1      -0.294  74.308 116.912  0.00  0.00    -0.276 OA
ATOM     17  H   LIG d   1      -2.018  76.749 117.937  0.00  0.00     0.149 HD
ENDBRANCH   6  13
BRANCH   5  18
ATOM     18  N   LIG d   1       0.602  78.269 116.448  0.00  0.00     0.381 N 
ATOM     19  H   LIG d   1       1.092  79.034 116.029  0.00  0.00    -0.090 HD
ATOM     20  H   LIG d   1       1.081  77.418 116.209  0.00  0.00    -0.090 HD
ATOM     21  H   LIG d   1       0.581  78.380 117.438  0.00  0.00    -0.090 HD
ENDBRANCH   5  18
BRANCH   3  22
ATOM     22  C   LIG d   1      -2.286  79.554 112.850  0.00  0.00     0.382 C 
ATOM     23  O   LIG d   1      -1.725  79.509 111.729  0.00  0.00    -0.241 OA
ATOM     24  O   LIG d   1      -3.093  80.471 113.096  0.00  0.00    -0.241 OA
ENDBRANCH   3  22
TORSDOF 7
ENDMDL
MODEL 4
REMARK VINA RESULT:      -4.4      1.382      2.049
REMARK  7 active torsions:
REMARK  status: ('A' for Active; 'I' for Inactive)
REMARK    1  A    between atoms: C_2  and  C_3 
REMARK    2  A    between atoms: C_3  and  O_6 
REMARK    3  A    between atoms: C_3  and  C_4 
REMARK    4  A    between atoms: C_7  and  O_6 
REMARK    5  A    between atoms: C_9  and  C_10 
REMARK    6  A    between atoms: N_15  and  C_14 
REMARK    7  A    between atoms: N_20  and  C_19 
REMARK       I    between atoms: C_22  and  N_20 
ROOT
ATOM      1  C   LIG d   1      -2.304  78.146 116.210  0.00  0.00     0.161 C 
ATOM      2  C   LIG d   1      -2.595  79.035 115.162  0.00  0.00     0.016 C 
ATOM      3  C   LIG d   1      -2.187  78.821 113.825  0.00  0.00     0.038 C 
ATOM      4  C   LIG d   1      -1.587  77.621 113.416  0.00  0.00     0.028 C 
ATOM      5  C   LIG d   1      -0.823  76.914 114.531  0.00  0.00    -0.047 C 
ATOM      6  C   LIG d   1      -1.747  76.778 115.763  0.00  0.00     0.091 C 
ENDROOT
BRANCH   1   7
ATOM      7  O   LIG d   1      -3.471  77.966 117.036  0.00  0.00    -0.368 OA
BRANCH   7   8
ATOM      8  C   LIG d   1      -4.725  77.778 116.335  0.00  0.00     0.119 C 
BRANCH   8   9
ATOM      9  C   LIG d   1      -5.826  78.469 117.162  0.00  0.00     0.028 C 
ATOM     10  C   LIG d   1      -5.436  79.896 117.584  0.00  0.00     0.006 C 
ENDBRANCH   8   9
BRANCH   8  11
ATOM     11  C   LIG d   1      -5.122  76.300 116.287  0.00  0.00     0.028 C 
ATOM     12  C   LIG d   1      -5.264  75.767 114.852  0.00  0.00     0.006 C 
ENDBRANCH   8  11
ENDBRANCH   7   8
ENDBRANCH   1   7
BRANCH   6  13
ATOM     13  N   LIG d   1      -1.051  76.173 116.929  0.00  0.00    -0.311 N 
ATOM     14  C   LIG d   1      -1.343  74.967 117.412  0.00  0.00     0.210 C 
ATOM     15  C   LIG d   1      -0.519  74.542 118.631  0.00  0.00     0.109 C 
ATOM     16  O   LIG d   1      -2.184  74.196 116.926  0.00  0.00    -0.276 OA
ATOM     17  H   LIG d   1      -0.333  76.718 117.364  0.00  0.00     0.149 HD
ENDBRANCH   6  13
BRANCH   5  18
ATOM     18  N   LIG d   1      -0.367  75.614 114.004  0.00  0.00     0.381 N 
ATOM     19  H   LIG d   1      -0.884  74.874 114.434  0.00  0.00    -0.090 HD
ATOM     20  H   LIG d   1       0.604  75.494 114.233  0.00  0.00    -0.090 HD
ATOM     21  H   LIG d   1      -0.489  75.585 113.016  0.00  0.00    -0.090 HD
ENDBRANCH   5  18
BRANCH   3  22
ATOM     22  C   LIG d   1      -2.344  79.831 112.889  0.00  0.00     0.382 C 
ATOM     23  O   LIG d   1      -1.630  79.846 111.857  0.00  0.00    -0.241 OA
ATOM     24  O   LIG d   1      -3.159  80.753 113.084  0.00  0.00    -0.241 OA
ENDBRANCH   3  22
TORSDOF 7
ENDMDL
MODEL 5
REMARK VINA RESULT:      -4.2      2.627      4.247
REMARK  7 active torsions:
REMARK  status: ('A' for Active; 'I' for Inactive)
REMARK    1  A    between atoms: C_2  and  C_3 
REMARK    2  A    between atoms: C_3  and  O_6 
REMARK    3  A    between atoms: C_3  and  C_4 
REMARK    4  A    between atoms: C_7  and  O_6 
REMARK    5  A    between atoms: C_9  and  C_10 
REMARK    6  A    between atoms: N_15  and  C_14 
REMARK    7  A    between atoms: N_20  and  C_19 
REMARK       I    between atoms: C_22  and  N_20 
ROOT
ATOM      1  C   LIG d   1      -3.145  76.354 117.016  0.00  0.00     0.161 C 
ATOM      2  C   LIG d   1      -4.083  77.307 117.445  0.00  0.00     0.016 C 
ATOM      3  C   LIG d   1      -4.091  78.648 116.996  0.00  0.00     0.038 C 
ATOM      4  C   LIG d   1      -3.249  79.090 115.966  0.00  0.00     0.028 C 
ATOM      5  C   LIG d   1      -1.951  78.296 115.862  0.00  0.00    -0.047 C 
ATOM      6  C   LIG d   1      -2.287  76.788 115.809  0.00  0.00     0.091 C 
ENDROOT
BRANCH   1   7
ATOM      7  O   LIG d   1      -3.809  75.106 116.735  0.00  0.00    -0.368 OA
BRANCH   7   8
ATOM      8  C   LIG d   1      -5.140  75.206 116.170  0.00  0.00     0.119 C 
BRANCH   8   9
ATOM      9  C   LIG d   1      -6.030  74.181 116.899  0.00  0.00     0.028 C 
ATOM     10  C   LIG d   1      -7.486  74.657 117.031  0.00  0.00     0.006 C 
ENDBRANCH   8   9
BRANCH   8  11
ATOM     11  C   LIG d   1      -5.154  74.781 114.698  0.00  0.00     0.028 C 
ATOM     12  C   LIG d   1      -5.771  75.845 113.777  0.00  0.00     0.006 C 
ENDBRANCH   8  11
ENDBRANCH   7   8
ENDBRANCH   1   7
BRANCH   6  13
ATOM     13  N   LIG d   1      -1.070  75.936 115.791  0.00  0.00    -0.311 N 
ATOM     14  C   LIG d   1      -0.498  75.498 114.671  0.00  0.00     0.210 C 
ATOM     15  C   LIG d   1       0.737  74.616 114.879  0.00  0.00     0.109 C 
ATOM     16  O   LIG d   1      -0.876  75.783 113.525  0.00  0.00    -0.276 OA
ATOM     17  H   LIG d   1      -0.678  75.683 116.677  0.00  0.00     0.149 HD
ENDBRANCH   6  13
BRANCH   5  18
ATOM     18  N   LIG d   1      -1.232  78.771 114.664  0.00  0.00     0.381 N 
ATOM     19  H   LIG d   1      -0.978  77.992 114.091  0.00  0.00    -0.090 HD
ATOM     20  H   LIG d   1      -0.391  79.238 114.954  0.00  0.00    -0.090 HD
ATOM     21  H   LIG d   1      -1.808  79.399 114.148  0.00  0.00    -0.090 HD
ENDBRANCH   5  18
BRANCH   3  22
ATOM     22  C   LIG d   1      -4.923  79.573 117.609  0.00  0.00     0.382 C 
ATOM     23  O   LIG d   1      -5.866  80.092 116.964  0.00  0.00    -0.241 OA
ATOM     24  O   LIG d   1      -4.716  79.927 118.785  0.00  0.00    -0.241 OA
ENDBRANCH   3  22
TORSDOF 7
ENDMDL
MODEL 6
REMARK VINA RESULT:      -4.1      2.754      5.598
REMARK  7 active torsions:
REMARK  status: ('A' for Active; 'I' for Inactive)
REMARK    1  A    between atoms: C_2  and  C_3 
REMARK    2  A    between atoms: C_3  and  O_6 
REMARK    3  A    between atoms: C_3  and  C_4 
REMARK    4  A    between atoms: C_7  and  O_6 
REMARK    5  A    between atoms: C_9  and  C_10 
REMARK    6  A    between atoms: N_15  and  C_14 
REMARK    7  A    between atoms: N_20  and  C_19 
REMARK       I    between atoms: C_22  and  N_20 
ROOT
ATOM      1  C   LIG d   1      -1.032  75.822 115.375  0.00  0.00     0.161 C 
ATOM      2  C   LIG d   1      -0.767  75.211 116.612  0.00  0.00     0.016 C 
ATOM      3  C   LIG d   1      -0.367  75.926 117.764  0.00  0.00     0.038 C 
ATOM      4  C   LIG d   1      -0.351  77.328 117.798  0.00  0.00     0.028 C 
ATOM      5  C   LIG d   1      -0.123  77.964 116.431  0.00  0.00    -0.047 C 
ATOM      6  C   LIG d   1      -1.128  77.362 115.423  0.00  0.00     0.091 C 
ENDROOT
BRANCH   1   7
ATOM      7  O   LIG d   1      -2.230  75.263 114.801  0.00  0.00    -0.368 OA
BRANCH   7   8
ATOM      8  C   LIG d   1      -3.475  75.617 115.453  0.00  0.00     0.119 C 
BRANCH   8   9
ATOM      9  C   LIG d   1      -4.123  74.311 115.951  0.00  0.00     0.028 C 
ATOM     10  C   LIG d   1      -4.096  74.190 117.484  0.00  0.00     0.006 C 
ENDBRANCH   8   9
BRANCH   8  11
ATOM     11  C   LIG d   1      -4.475  76.212 114.458  0.00  0.00     0.028 C 
ATOM     12  C   LIG d   1      -5.926  75.800 114.754  0.00  0.00     0.006 C 
ENDBRANCH   8  11
ENDBRANCH   7   8
ENDBRANCH   1   7
BRANCH   6  13
ATOM     13  N   LIG d   1      -0.918  77.868 114.041  0.00  0.00    -0.311 N 
ATOM     14  C   LIG d   1      -1.747  78.719 113.438  0.00  0.00     0.210 C 
ATOM     15  C   LIG d   1      -1.355  79.098 112.007  0.00  0.00     0.109 C 
ATOM     16  O   LIG d   1      -2.751  79.220 113.965  0.00  0.00    -0.276 OA
ATOM     17  H   LIG d   1      -0.110  77.537 113.552  0.00  0.00     0.149 HD
ENDBRANCH   6  13
BRANCH   5  18
ATOM     18  N   LIG d   1      -0.267  79.424 116.589  0.00  0.00     0.381 N 
ATOM     19  H   LIG d   1       0.409  79.895 116.021  0.00  0.00    -0.090 HD
ATOM     20  H   LIG d   1      -0.096  79.665 117.549  0.00  0.00    -0.090 HD
ATOM     21  H   LIG d   1      -1.186  79.706 116.327  0.00  0.00    -0.090 HD
ENDBRANCH   5  18
BRANCH   3  22
ATOM     22  C   LIG d   1       0.061  75.235 118.887  0.00  0.00     0.382 C 
ATOM     23  O   LIG d   1       1.183  75.488 119.389  0.00  0.00    -0.241 OA
ATOM     24  O   LIG d   1      -0.641  74.331 119.379  0.00  0.00    -0.241 OA
ENDBRANCH   3  22
TORSDOF 7
ENDMDL
MODEL 7
REMARK VINA RESULT:      -4.0      2.621      3.372
REMARK  7 active torsions:
REMARK  status: ('A' for Active; 'I' for Inactive)
REMARK    1  A    between atoms: C_2  and  C_3 
REMARK    2  A    between atoms: C_3  and  O_6 
REMARK    3  A    between atoms: C_3  and  C_4 
REMARK    4  A    between atoms: C_7  and  O_6 
REMARK    5  A    between atoms: C_9  and  C_10 
REMARK    6  A    between atoms: N_15  and  C_14 
REMARK    7  A    between atoms: N_20  and  C_19 
REMARK       I    between atoms: C_22  and  N_20 
ROOT
ATOM      1  C   LIG d   1      -2.999  77.125 115.389  0.00  0.00     0.161 C 
ATOM      2  C   LIG d   1      -2.993  77.287 113.993  0.00  0.00     0.016 C 
ATOM      3  C   LIG d   1      -2.001  78.014 113.298  0.00  0.00     0.038 C 
ATOM      4  C   LIG d   1      -0.855  78.506 113.941  0.00  0.00     0.028 C 
ATOM      5  C   LIG d   1      -1.071  78.803 115.421  0.00  0.00    -0.047 C 
ATOM      6  C   LIG d   1      -1.698  77.560 116.095  0.00  0.00     0.091 C 
ENDROOT
BRANCH   1   7
ATOM      7  O   LIG d   1      -3.317  75.759 115.721  0.00  0.00    -0.368 OA
BRANCH   7   8
ATOM      8  C   LIG d   1      -4.613  75.537 116.329  0.00  0.00     0.119 C 
BRANCH   8   9
ATOM      9  C   LIG d   1      -4.435  74.464 117.421  0.00  0.00     0.028 C 
ATOM     10  C   LIG d   1      -2.955  74.180 117.728  0.00  0.00     0.006 C 
ENDBRANCH   8   9
BRANCH   8  11
ATOM     11  C   LIG d   1      -5.602  74.934 115.326  0.00  0.00     0.028 C 
ATOM     12  C   LIG d   1      -6.646  75.949 114.835  0.00  0.00     0.006 C 
ENDBRANCH   8  11
ENDBRANCH   7   8
ENDBRANCH   1   7
BRANCH   6  13
ATOM     13  N   LIG d   1      -2.020  77.794 117.527  0.00  0.00    -0.311 N 
ATOM     14  C   LIG d   1      -1.199  77.472 118.525  0.00  0.00     0.210 C 
ATOM     15  C   LIG d   1      -1.734  77.780 119.927  0.00  0.00     0.109 C 
ATOM     16  O   LIG d   1      -0.066  76.990 118.381  0.00  0.00    -0.276 OA
ATOM     17  H   LIG d   1      -2.907  78.211 117.733  0.00  0.00     0.149 HD
ENDBRANCH   6  13
BRANCH   5  18
ATOM     18  N   LIG d   1       0.235  79.176 115.997  0.00  0.00     0.381 N 
ATOM     19  H   LIG d   1       0.104  79.565 116.909  0.00  0.00    -0.090 HD
ATOM     20  H   LIG d   1       0.659  79.875 115.413  0.00  0.00    -0.090 HD
ATOM     21  H   LIG d   1       0.825  78.375 116.050  0.00  0.00    -0.090 HD
ENDBRANCH   5  18
BRANCH   3  22
ATOM     22  C   LIG d   1      -2.169  78.291 111.950  0.00  0.00     0.382 C 
ATOM     23  O   LIG d   1      -2.927  77.574 111.252  0.00  0.00    -0.241 OA
ATOM     24  O   LIG d   1      -1.538  79.221 111.412  0.00  0.00    -0.241 OA
ENDBRANCH   3  22
TORSDOF 7
ENDMDL
MODEL 8
REMARK VINA RESULT:      -4.0      2.688      3.559
REMARK  7 active torsions:
REMARK  status: ('A' for Active; 'I' for Inactive)
REMARK    1  A    between atoms: C_2  and  C_3 
REMARK    2  A    between atoms: C_3  and  O_6 
REMARK    3  A    between atoms: C_3  and  C_4 
REMARK    4  A    between atoms: C_7  and  O_6 
REMARK    5  A    between atoms: C_9  and  C_10 
REMARK    6  A    between atoms: N_15  and  C_14 
REMARK    7  A    between atoms: N_20  and  C_19 
REMARK       I    between atoms: C_22  and  N_20 
ROOT
ATOM      1  C   LIG d   1      -3.367  78.543 116.930  0.00  0.00     0.161 C 
ATOM      2  C   LIG d   1      -2.325  79.297 117.495  0.00  0.00     0.016 C 
ATOM      3  C   LIG d   1      -0.975  79.187 117.087  0.00  0.00     0.038 C 
ATOM      4  C   LIG d   1      -0.597  78.421 115.974  0.00  0.00     0.028 C 
ATOM      5  C   LIG d   1      -1.539  77.255 115.693  0.00  0.00    -0.047 C 
ATOM      6  C   LIG d   1      -2.990  77.784 115.640  0.00  0.00     0.091 C 
ENDROOT
BRANCH   1   7
ATOM      7  O   LIG d   1      -4.511  79.389 116.697  0.00  0.00    -0.368 OA
BRANCH   7   8
ATOM      8  C   LIG d   1      -5.492  79.440 117.762  0.00  0.00     0.119 C 
BRANCH   8   9
ATOM      9  C   LIG d   1      -6.565  78.376 117.454  0.00  0.00     0.028 C 
ATOM     10  C   LIG d   1      -7.743  78.429 118.441  0.00  0.00     0.006 C 
ENDBRANCH   8   9
BRANCH   8  11
ATOM     11  C   LIG d   1      -6.238  80.777 117.768  0.00  0.00     0.028 C 
ATOM     12  C   LIG d   1      -5.893  81.646 118.988  0.00  0.00     0.006 C 
ENDBRANCH   8  11
ENDBRANCH   7   8
ENDBRANCH   1   7
BRANCH   6  13
ATOM     13  N   LIG d   1      -3.984  76.695 115.453  0.00  0.00    -0.311 N 
ATOM     14  C   LIG d   1      -4.487  76.357 114.267  0.00  0.00     0.210 C 
ATOM     15  C   LIG d   1      -5.513  75.220 114.299  0.00  0.00     0.109 C 
ATOM     16  O   LIG d   1      -4.158  76.870 113.187  0.00  0.00    -0.276 OA
ATOM     17  H   LIG d   1      -4.284  76.205 116.273  0.00  0.00     0.149 HD
ENDBRANCH   6  13
BRANCH   5  18
ATOM     18  N   LIG d   1      -1.106  76.626 114.431  0.00  0.00     0.381 N 
ATOM     19  H   LIG d   1      -1.118  75.631 114.527  0.00  0.00    -0.090 HD
ATOM     20  H   LIG d   1      -0.163  76.912 114.232  0.00  0.00    -0.090 HD
ATOM     21  H   LIG d   1      -1.708  76.904 113.688  0.00  0.00    -0.090 HD
ENDBRANCH   5  18
BRANCH   3  22
ATOM     22  C   LIG d   1       0.018  79.819 117.820  0.00  0.00     0.382 C 
ATOM     23  O   LIG d   1       0.767  80.660 117.267  0.00  0.00    -0.241 OA
ATOM     24  O   LIG d   1       0.203  79.525 119.017  0.00  0.00    -0.241 OA
ENDBRANCH   3  22
TORSDOF 7
ENDMDL
MODEL 9
REMARK VINA RESULT:      -3.8      2.756      5.411
REMARK  7 active torsions:
REMARK  status: ('A' for Active; 'I' for Inactive)
REMARK    1  A    between atoms: C_2  and  C_3 
REMARK    2  A    between atoms: C_3  and  O_6 
REMARK    3  A    between atoms: C_3  and  C_4 
REMARK    4  A    between atoms: C_7  and  O_6 
REMARK    5  A    between atoms: C_9  and  C_10 
REMARK    6  A    between atoms: N_15  and  C_14 
REMARK    7  A    between atoms: N_20  and  C_19 
REMARK       I    between atoms: C_22  and  N_20 
ROOT
ATOM      1  C   LIG d   1      -2.704  76.433 115.467  0.00  0.00     0.161 C 
ATOM      2  C   LIG d   1      -2.718  75.782 116.712  0.00  0.00     0.016 C 
ATOM      3  C   LIG d   1      -1.797  76.062 117.747  0.00  0.00     0.038 C 
ATOM      4  C   LIG d   1      -0.889  77.128 117.663  0.00  0.00     0.028 C 
ATOM      5  C   LIG d   1      -0.503  77.483 116.231  0.00  0.00    -0.047 C 
ATOM      6  C   LIG d   1      -1.791  77.675 115.398  0.00  0.00     0.091 C 
ENDROOT
BRANCH   1   7
ATOM      7  O   LIG d   1      -4.049  76.778 115.081  0.00  0.00    -0.368 OA
BRANCH   7   8
ATOM      8  C   LIG d   1      -5.103  75.953 115.636  0.00  0.00     0.119 C 
BRANCH   8   9
ATOM      9  C   LIG d   1      -5.685  75.109 114.486  0.00  0.00     0.028 C 
ATOM     10  C   LIG d   1      -6.073  75.965 113.268  0.00  0.00     0.006 C 
ENDBRANCH   8   9
BRANCH   8  11
ATOM     11  C   LIG d   1      -6.269  76.806 116.144  0.00  0.00     0.028 C 
ATOM     12  C   LIG d   1      -7.467  75.962 116.606  0.00  0.00     0.006 C 
ENDBRANCH   8  11
ENDBRANCH   7   8
ENDBRANCH   1   7
BRANCH   6  13
ATOM     13  N   LIG d   1      -1.504  77.943 113.964  0.00  0.00    -0.311 N 
ATOM     14  C   LIG d   1      -1.953  79.015 113.314  0.00  0.00     0.210 C 
ATOM     15  C   LIG d   1      -1.557  79.088 111.836  0.00  0.00     0.109 C 
ATOM     16  O   LIG d   1      -2.613  79.929 113.830  0.00  0.00    -0.276 OA
ATOM     17  H   LIG d   1      -0.948  77.268 113.477  0.00  0.00     0.149 HD
ENDBRANCH   6  13
BRANCH   5  18
ATOM     18  N   LIG d   1       0.338  78.694 116.283  0.00  0.00     0.381 N 
ATOM     19  H   LIG d   1       1.303  78.435 116.324  0.00  0.00    -0.090 HD
ATOM     20  H   LIG d   1       0.114  79.210 117.116  0.00  0.00    -0.090 HD
ATOM     21  H   LIG d   1       0.172  79.259 115.480  0.00  0.00    -0.090 HD
ENDBRANCH   5  18
BRANCH   3  22
ATOM     22  C   LIG d   1      -1.754  75.247 118.868  0.00  0.00     0.382 C 
ATOM     23  O   LIG d   1      -0.688  74.661 119.176  0.00  0.00    -0.241 OA
ATOM     24  O   LIG d   1      -2.778  75.054 119.549  0.00  0.00    -0.241 OA
ENDBRANCH   3  22
TORSDOF 7
ENDMDL
