MODEL 1
REMARK VINA RESULT:      -5.6      0.000      0.000
REMARK  7 active torsions:
REMARK  status: ('A' for Active; 'I' for Inactive)
REMARK    1  A    between atoms: C_2  and  C_3 
REMARK    2  A    between atoms: C_3  and  O_6 
REMARK    3  A    between atoms: C_3  and  C_4 
REMARK    4  A    between atoms: C_7  and  O_6 
REMARK    5  A    between atoms: C_9  and  C_10 
REMARK    6  A    between atoms: N_15  and  C_14 
REMARK    7  A    between atoms: N_20  and  C_19 
REMARK       I    between atoms: C_22  and  N_20 
ROOT
ATOM      1  C   LIG d   1      -1.655  80.403 112.470  0.00  0.00     0.161 C 
ATOM      2  C   LIG d   1      -2.451  79.451 113.130  0.00  0.00     0.016 C 
ATOM      3  C   LIG d   1      -2.504  78.088 112.758  0.00  0.00     0.038 C 
ATOM      4  C   LIG d   1      -1.644  77.550 111.789  0.00  0.00     0.028 C 
ATOM      5  C   LIG d   1      -1.186  78.570 110.752  0.00  0.00    -0.047 C 
ATOM      6  C   LIG d   1      -0.627  79.812 111.483  0.00  0.00     0.091 C 
ENDROOT
BRANCH   1   7
ATOM      7  O   LIG d   1      -0.996  81.244 113.437  0.00  0.00    -0.368 OA
BRANCH   7   8
ATOM      8  C   LIG d   1      -1.506  82.594 113.561  0.00  0.00     0.119 C 
BRANCH   8   9
ATOM      9  C   LIG d   1      -0.357  83.557 113.206  0.00  0.00     0.028 C 
ATOM     10  C   LIG d   1      -0.686  84.441 111.991  0.00  0.00     0.006 C 
ENDBRANCH   8   9
BRANCH   8  11
ATOM     11  C   LIG d   1      -1.875  82.919 115.011  0.00  0.00     0.028 C 
ATOM     12  C   LIG d   1      -0.686  82.775 115.975  0.00  0.00     0.006 C 
ENDBRANCH   8  11
ENDBRANCH   7   8
ENDBRANCH   1   7
BRANCH   6  13
ATOM     13  N   LIG d   1      -0.234  80.894 110.542  0.00  0.00    -0.311 N 
ATOM     14  C   LIG d   1       1.006  81.370 110.450  0.00  0.00     0.210 C 
ATOM     15  C   LIG d   1       1.191  82.499 109.430  0.00  0.00     0.109 C 
ATOM     16  O   LIG d   1       1.977  80.944 111.092  0.00  0.00    -0.276 OA
ATOM     17  H   LIG d   1      -0.954  81.276 109.961  0.00  0.00     0.149 HD
ENDBRANCH   6  13
BRANCH   5  18
ATOM     18  N   LIG d   1      -0.190  77.910 109.888  0.00  0.00     0.381 N 
ATOM     19  H   LIG d   1       0.279  77.190 110.400  0.00  0.00    -0.090 HD
ATOM     20  H   LIG d   1       0.493  78.589 109.602  0.00  0.00    -0.090 HD
ATOM     21  H   LIG d   1      -0.637  77.521 109.087  0.00  0.00    -0.090 HD
ENDBRANCH   5  18
BRANCH   3  22
ATOM     22  C   LIG d   1      -3.454  77.256 113.331  0.00  0.00     0.382 C 
ATOM     23  O   LIG d   1      -3.463  77.077 114.573  0.00  0.00    -0.241 OA
ATOM     24  O   LIG d   1      -4.274  76.649 112.617  0.00  0.00    -0.241 OA
ENDBRANCH   3  22
TORSDOF 7
ENDMDL
MODEL 2
REMARK VINA RESULT:      -5.4      1.340      2.135
REMARK  7 active torsions:
REMARK  status: ('A' for Active; 'I' for Inactive)
REMARK    1  A    between atoms: C_2  and  C_3 
REMARK    2  A    between atoms: C_3  and  O_6 
REMARK    3  A    between atoms: C_3  and  C_4 
REMARK    4  A    between atoms: C_7  and  O_6 
REMARK    5  A    between atoms: C_9  and  C_10 
REMARK    6  A    between atoms: N_15  and  C_14 
REMARK    7  A    between atoms: N_20  and  C_19 
REMARK       I    between atoms: C_22  and  N_20 
ROOT
ATOM      1  C   LIG d   1      -1.906  80.277 112.799  0.00  0.00     0.161 C 
ATOM      2  C   LIG d   1      -2.619  79.247 113.434  0.00  0.00     0.016 C 
ATOM      3  C   LIG d   1      -2.577  77.898 113.013  0.00  0.00     0.038 C 
ATOM      4  C   LIG d   1      -1.695  77.460 112.015  0.00  0.00     0.028 C 
ATOM      5  C   LIG d   1      -1.329  78.547 111.010  0.00  0.00    -0.047 C 
ATOM      6  C   LIG d   1      -0.852  79.800 111.778  0.00  0.00     0.091 C 
ENDROOT
BRANCH   1   7
ATOM      7  O   LIG d   1      -1.295  81.130 113.788  0.00  0.00    -0.368 OA
BRANCH   7   8
ATOM      8  C   LIG d   1      -0.069  80.639 114.384  0.00  0.00     0.119 C 
BRANCH   8   9
ATOM      9  C   LIG d   1      -0.304  80.530 115.903  0.00  0.00     0.028 C 
ATOM     10  C   LIG d   1      -0.487  79.075 116.367  0.00  0.00     0.006 C 
ENDBRANCH   8   9
BRANCH   8  11
ATOM     11  C   LIG d   1       1.072  81.646 114.221  0.00  0.00     0.028 C 
ATOM     12  C   LIG d   1       0.591  83.014 113.712  0.00  0.00     0.006 C 
ENDBRANCH   8  11
ENDBRANCH   7   8
ENDBRANCH   1   7
BRANCH   6  13
ATOM     13  N   LIG d   1      -0.554  80.941 110.873  0.00  0.00    -0.311 N 
ATOM     14  C   LIG d   1       0.674  81.247 110.459  0.00  0.00     0.210 C 
ATOM     15  C   LIG d   1       0.762  82.474 109.546  0.00  0.00     0.109 C 
ATOM     16  O   LIG d   1       1.695  80.600 110.736  0.00  0.00    -0.276 OA
ATOM     17  H   LIG d   1      -1.329  81.500 110.575  0.00  0.00     0.149 HD
ENDBRANCH   6  13
BRANCH   5  18
ATOM     18  N   LIG d   1      -0.300  77.994 110.109  0.00  0.00     0.381 N 
ATOM     19  H   LIG d   1       0.282  78.732 109.767  0.00  0.00    -0.090 HD
ATOM     20  H   LIG d   1      -0.754  77.560 109.325  0.00  0.00    -0.090 HD
ATOM     21  H   LIG d   1       0.253  77.322 110.595  0.00  0.00    -0.090 HD
ENDBRANCH   5  18
BRANCH   3  22
ATOM     22  C   LIG d   1      -3.455  76.978 113.567  0.00  0.00     0.382 C 
ATOM     23  O   LIG d   1      -3.307  76.609 114.757  0.00  0.00    -0.241 OA
ATOM     24  O   LIG d   1      -4.364  76.478 112.878  0.00  0.00    -0.241 OA
ENDBRANCH   3  22
TORSDOF 7
ENDMDL
MODEL 3
REMARK VINA RESULT:      -5.3      0.774      1.156
REMARK  7 active torsions:
REMARK  status: ('A' for Active; 'I' for Inactive)
REMARK    1  A    between atoms: C_2  and  C_3 
REMARK    2  A    between atoms: C_3  and  O_6 
REMARK    3  A    between atoms: C_3  and  C_4 
REMARK    4  A    between atoms: C_7  and  O_6 
REMARK    5  A    between atoms: C_9  and  C_10 
REMARK    6  A    between atoms: N_15  and  C_14 
REMARK    7  A    between atoms: N_20  and  C_19 
REMARK       I    between atoms: C_22  and  N_20 
ROOT
ATOM      1  C   LIG d   1      -1.670  80.185 113.088  0.00  0.00     0.161 C 
ATOM      2  C   LIG d   1      -2.351  79.135 113.726  0.00  0.00     0.016 C 
ATOM      3  C   LIG d   1      -2.429  77.825 113.199  0.00  0.00     0.038 C 
ATOM      4  C   LIG d   1      -1.700  77.437 112.065  0.00  0.00     0.028 C 
ATOM      5  C   LIG d   1      -1.408  78.589 111.110  0.00  0.00    -0.047 C 
ATOM      6  C   LIG d   1      -0.776  79.754 111.906  0.00  0.00     0.091 C 
ENDROOT
BRANCH   1   7
ATOM      7  O   LIG d   1      -0.900  80.927 114.054  0.00  0.00    -0.368 OA
BRANCH   7   8
ATOM      8  C   LIG d   1      -1.518  82.130 114.574  0.00  0.00     0.119 C 
BRANCH   8   9
ATOM      9  C   LIG d   1      -1.150  83.287 113.625  0.00  0.00     0.028 C 
ATOM     10  C   LIG d   1      -0.776  84.571 114.383  0.00  0.00     0.006 C 
ENDBRANCH   8   9
BRANCH   8  11
ATOM     11  C   LIG d   1      -0.928  82.517 115.933  0.00  0.00     0.028 C 
ATOM     12  C   LIG d   1      -0.366  81.311 116.703  0.00  0.00     0.006 C 
ENDBRANCH   8  11
ENDBRANCH   7   8
ENDBRANCH   1   7
BRANCH   6  13
ATOM     13  N   LIG d   1      -0.536  80.953 111.062  0.00  0.00    -0.311 N 
ATOM     14  C   LIG d   1       0.667  81.496 110.885  0.00  0.00     0.210 C 
ATOM     15  C   LIG d   1       0.690  82.740 109.993  0.00  0.00     0.109 C 
ATOM     16  O   LIG d   1       1.723  81.045 111.356  0.00  0.00    -0.276 OA
ATOM     17  H   LIG d   1      -1.333  81.365 110.617  0.00  0.00     0.149 HD
ENDBRANCH   6  13
BRANCH   5  18
ATOM     18  N   LIG d   1      -0.527  78.072 110.045  0.00  0.00     0.381 N 
ATOM     19  H   LIG d   1       0.314  78.614 110.009  0.00  0.00    -0.090 HD
ATOM     20  H   LIG d   1      -0.998  78.161 109.162  0.00  0.00    -0.090 HD
ATOM     21  H   LIG d   1      -0.307  77.116 110.218  0.00  0.00    -0.090 HD
ENDBRANCH   5  18
BRANCH   3  22
ATOM     22  C   LIG d   1      -3.276  76.898 113.786  0.00  0.00     0.382 C 
ATOM     23  O   LIG d   1      -4.204  76.383 113.116  0.00  0.00    -0.241 OA
ATOM     24  O   LIG d   1      -3.152  76.602 114.990  0.00  0.00    -0.241 OA
ENDBRANCH   3  22
TORSDOF 7
ENDMDL
MODEL 4
REMARK VINA RESULT:      -5.2      3.992      5.745
REMARK  7 active torsions:
REMARK  status: ('A' for Active; 'I' for Inactive)
REMARK    1  A    between atoms: C_2  and  C_3 
REMARK    2  A    between atoms: C_3  and  O_6 
REMARK    3  A    between atoms: C_3  and  C_4 
REMARK    4  A    between atoms: C_7  and  O_6 
REMARK    5  A    between atoms: C_9  and  C_10 
REMARK    6  A    between atoms: N_15  and  C_14 
REMARK    7  A    between atoms: N_20  and  C_19 
REMARK       I    between atoms: C_22  and  N_20 
ROOT
ATOM      1  C   LIG d   1      -2.122  76.973 114.938  0.00  0.00     0.161 C 
ATOM      2  C   LIG d   1      -3.342  76.657 114.317  0.00  0.00     0.016 C 
ATOM      3  C   LIG d   1      -4.191  75.614 114.755  0.00  0.00     0.038 C 
ATOM      4  C   LIG d   1      -3.947  74.909 115.942  0.00  0.00     0.028 C 
ATOM      5  C   LIG d   1      -2.471  74.853 116.322  0.00  0.00    -0.047 C 
ATOM      6  C   LIG d   1      -1.893  76.287 116.301  0.00  0.00     0.091 C 
ENDROOT
BRANCH   1   7
ATOM      7  O   LIG d   1      -1.995  78.402 115.069  0.00  0.00    -0.368 OA
BRANCH   7   8
ATOM      8  C   LIG d   1      -1.480  79.105 113.911  0.00  0.00     0.119 C 
BRANCH   8   9
ATOM      9  C   LIG d   1      -0.563  80.232 114.425  0.00  0.00     0.028 C 
ATOM     10  C   LIG d   1      -0.323  80.149 115.942  0.00  0.00     0.006 C 
ENDBRANCH   8   9
BRANCH   8  11
ATOM     11  C   LIG d   1      -2.601  79.813 113.144  0.00  0.00     0.028 C 
ATOM     12  C   LIG d   1      -2.515  81.344 113.241  0.00  0.00     0.006 C 
ENDBRANCH   8  11
ENDBRANCH   7   8
ENDBRANCH   1   7
BRANCH   6  13
ATOM     13  N   LIG d   1      -0.433  76.314 116.579  0.00  0.00    -0.311 N 
ATOM     14  C   LIG d   1       0.098  76.902 117.649  0.00  0.00     0.210 C 
ATOM     15  C   LIG d   1       1.626  76.831 117.733  0.00  0.00     0.109 C 
ATOM     16  O   LIG d   1      -0.552  77.447 118.553  0.00  0.00    -0.276 OA
ATOM     17  H   LIG d   1       0.166  75.868 115.912  0.00  0.00     0.149 HD
ENDBRANCH   6  13
BRANCH   5  18
ATOM     18  N   LIG d   1      -2.375  74.211 117.646  0.00  0.00     0.381 N 
ATOM     19  H   LIG d   1      -2.694  74.842 118.353  0.00  0.00    -0.090 HD
ATOM     20  H   LIG d   1      -1.412  73.990 117.831  0.00  0.00    -0.090 HD
ATOM     21  H   LIG d   1      -2.923  73.379 117.662  0.00  0.00    -0.090 HD
ENDBRANCH   5  18
BRANCH   3  22
ATOM     22  C   LIG d   1      -5.277  75.241 113.978  0.00  0.00     0.382 C 
ATOM     23  O   LIG d   1      -6.110  74.414 114.422  0.00  0.00    -0.241 OA
ATOM     24  O   LIG d   1      -5.410  75.686 112.823  0.00  0.00    -0.241 OA
ENDBRANCH   3  22
TORSDOF 7
ENDMDL
MODEL 5
REMARK VINA RESULT:      -5.1      0.983      1.897
REMARK  7 active torsions:
REMARK  status: ('A' for Active; 'I' for Inactive)
REMARK    1  A    between atoms: C_2  and  C_3 
REMARK    2  A    between atoms: C_3  and  O_6 
REMARK    3  A    between atoms: C_3  and  C_4 
REMARK    4  A    between atoms: C_7  and  O_6 
REMARK    5  A    between atoms: C_9  and  C_10 
REMARK    6  A    between atoms: N_15  and  C_14 
REMARK    7  A    between atoms: N_20  and  C_19 
REMARK       I    between atoms: C_22  and  N_20 
ROOT
ATOM      1  C   LIG d   1      -1.145  80.153 113.227  0.00  0.00     0.161 C 
ATOM      2  C   LIG d   1      -1.819  79.094 113.858  0.00  0.00     0.016 C 
ATOM      3  C   LIG d   1      -2.227  77.920 113.185  0.00  0.00     0.038 C 
ATOM      4  C   LIG d   1      -1.851  77.657 111.859  0.00  0.00     0.028 C 
ATOM      5  C   LIG d   1      -1.605  78.918 111.038  0.00  0.00    -0.047 C 
ATOM      6  C   LIG d   1      -0.629  79.836 111.808  0.00  0.00     0.091 C 
ENDROOT
BRANCH   1   7
ATOM      7  O   LIG d   1      -0.064  80.610 114.063  0.00  0.00    -0.368 OA
BRANCH   7   8
ATOM      8  C   LIG d   1      -0.210  81.938 114.625  0.00  0.00     0.119 C 
BRANCH   8   9
ATOM      9  C   LIG d   1      -0.620  81.773 116.102  0.00  0.00     0.028 C 
ATOM     10  C   LIG d   1       0.053  80.560 116.765  0.00  0.00     0.006 C 
ENDBRANCH   8   9
BRANCH   8  11
ATOM     11  C   LIG d   1      -1.365  82.697 113.966  0.00  0.00     0.028 C 
ATOM     12  C   LIG d   1      -0.922  84.027 113.336  0.00  0.00     0.006 C 
ENDBRANCH   8  11
ENDBRANCH   7   8
ENDBRANCH   1   7
BRANCH   6  13
ATOM     13  N   LIG d   1      -0.400  81.130 111.114  0.00  0.00    -0.311 N 
ATOM     14  C   LIG d   1       0.811  81.590 110.802  0.00  0.00     0.210 C 
ATOM     15  C   LIG d   1       0.823  82.955 110.106  0.00  0.00     0.109 C 
ATOM     16  O   LIG d   1       1.873  80.984 111.007  0.00  0.00    -0.276 OA
ATOM     17  H   LIG d   1      -1.208  81.673 110.882  0.00  0.00     0.149 HD
ENDBRANCH   6  13
BRANCH   5  18
ATOM     18  N   LIG d   1      -1.088  78.499 109.722  0.00  0.00     0.381 N 
ATOM     19  H   LIG d   1      -0.531  79.231 109.328  0.00  0.00    -0.090 HD
ATOM     20  H   LIG d   1      -1.865  78.329 109.107  0.00  0.00    -0.090 HD
ATOM     21  H   LIG d   1      -0.543  77.671 109.817  0.00  0.00    -0.090 HD
ENDBRANCH   5  18
BRANCH   3  22
ATOM     22  C   LIG d   1      -3.053  77.011 113.828  0.00  0.00     0.382 C 
ATOM     23  O   LIG d   1      -2.852  76.723 115.032  0.00  0.00    -0.241 OA
ATOM     24  O   LIG d   1      -3.970  76.441 113.206  0.00  0.00    -0.241 OA
ENDBRANCH   3  22
TORSDOF 7
ENDMDL
MODEL 6
REMARK VINA RESULT:      -5.1      3.247      5.797
REMARK  7 active torsions:
REMARK  status: ('A' for Active; 'I' for Inactive)
REMARK    1  A    between atoms: C_2  and  C_3 
REMARK    2  A    between atoms: C_3  and  O_6 
REMARK    3  A    between atoms: C_3  and  C_4 
REMARK    4  A    between atoms: C_7  and  O_6 
REMARK    5  A    between atoms: C_9  and  C_10 
REMARK    6  A    between atoms: N_15  and  C_14 
REMARK    7  A    between atoms: N_20  and  C_19 
REMARK       I    between atoms: C_22  and  N_20 
ROOT
ATOM      1  C   LIG d   1      -1.194  78.728 114.996  0.00  0.00     0.161 C 
ATOM      2  C   LIG d   1      -1.497  80.084 114.787  0.00  0.00     0.016 C 
ATOM      3  C   LIG d   1      -2.023  80.586 113.574  0.00  0.00     0.038 C 
ATOM      4  C   LIG d   1      -2.426  79.737 112.533  0.00  0.00     0.028 C 
ATOM      5  C   LIG d   1      -1.671  78.412 112.505  0.00  0.00    -0.047 C 
ATOM      6  C   LIG d   1      -1.731  77.771 113.911  0.00  0.00     0.091 C 
ENDROOT
BRANCH   1   7
ATOM      7  O   LIG d   1      -1.656  78.319 116.298  0.00  0.00    -0.368 OA
BRANCH   7   8
ATOM      8  C   LIG d   1      -0.629  78.021 117.275  0.00  0.00     0.119 C 
BRANCH   8   9
ATOM      9  C   LIG d   1      -0.831  76.562 117.728  0.00  0.00     0.028 C 
ATOM     10  C   LIG d   1       0.487  75.771 117.769  0.00  0.00     0.006 C 
ENDBRANCH   8   9
BRANCH   8  11
ATOM     11  C   LIG d   1      -0.800  78.866 118.540  0.00  0.00     0.028 C 
ATOM     12  C   LIG d   1      -0.349  80.323 118.348  0.00  0.00     0.006 C 
ENDBRANCH   8  11
ENDBRANCH   7   8
ENDBRANCH   1   7
BRANCH   6  13
ATOM     13  N   LIG d   1      -0.946  76.512 113.993  0.00  0.00    -0.311 N 
ATOM     14  C   LIG d   1      -1.462  75.351 114.391  0.00  0.00     0.210 C 
ATOM     15  C   LIG d   1      -0.474  74.180 114.423  0.00  0.00     0.109 C 
ATOM     16  O   LIG d   1      -2.652  75.172 114.690  0.00  0.00    -0.276 OA
ATOM     17  H   LIG d   1       0.022  76.560 113.739  0.00  0.00     0.149 HD
ENDBRANCH   6  13
BRANCH   5  18
ATOM     18  N   LIG d   1      -2.285  77.571 111.460  0.00  0.00     0.381 N 
ATOM     19  H   LIG d   1      -3.192  77.925 111.231  0.00  0.00    -0.090 HD
ATOM     20  H   LIG d   1      -2.391  76.637 111.815  0.00  0.00    -0.090 HD
ATOM     21  H   LIG d   1      -1.709  77.563 110.647  0.00  0.00    -0.090 HD
ENDBRANCH   5  18
BRANCH   3  22
ATOM     22  C   LIG d   1      -2.113  81.956 113.379  0.00  0.00     0.382 C 
ATOM     23  O   LIG d   1      -2.378  82.711 114.346  0.00  0.00    -0.241 OA
ATOM     24  O   LIG d   1      -1.977  82.442 112.241  0.00  0.00    -0.241 OA
ENDBRANCH   3  22
TORSDOF 7
ENDMDL
MODEL 7
REMARK VINA RESULT:      -4.9      2.303      3.789
REMARK  7 active torsions:
REMARK  status: ('A' for Active; 'I' for Inactive)
REMARK    1  A    between atoms: C_2  and  C_3 
REMARK    2  A    between atoms: C_3  and  O_6 
REMARK    3  A    between atoms: C_3  and  C_4 
REMARK    4  A    between atoms: C_7  and  O_6 
REMARK    5  A    between atoms: C_9  and  C_10 
REMARK    6  A    between atoms: N_15  and  C_14 
REMARK    7  A    between atoms: N_20  and  C_19 
REMARK       I    between atoms: C_22  and  N_20 
ROOT
ATOM      1  C   LIG d   1      -0.571  80.296 112.664  0.00  0.00     0.161 C 
ATOM      2  C   LIG d   1      -1.521  79.430 112.096  0.00  0.00     0.016 C 
ATOM      3  C   LIG d   1      -2.250  78.477 112.844  0.00  0.00     0.038 C 
ATOM      4  C   LIG d   1      -2.187  78.428 114.245  0.00  0.00     0.028 C 
ATOM      5  C   LIG d   1      -0.867  78.942 114.810  0.00  0.00    -0.047 C 
ATOM      6  C   LIG d   1      -0.570  80.333 114.206  0.00  0.00     0.091 C 
ENDROOT
BRANCH   1   7
ATOM      7  O   LIG d   1      -0.740  81.624 112.130  0.00  0.00    -0.368 OA
BRANCH   7   8
ATOM      8  C   LIG d   1       0.017  81.931 110.934  0.00  0.00     0.119 C 
BRANCH   8   9
ATOM      9  C   LIG d   1       1.491  81.580 111.215  0.00  0.00     0.028 C 
ATOM     10  C   LIG d   1       2.095  80.673 110.130  0.00  0.00     0.006 C 
ENDBRANCH   8   9
BRANCH   8  11
ATOM     11  C   LIG d   1       0.007  83.434 110.639  0.00  0.00     0.028 C 
ATOM     12  C   LIG d   1      -0.582  84.263 111.791  0.00  0.00     0.006 C 
ENDBRANCH   8  11
ENDBRANCH   7   8
ENDBRANCH   1   7
BRANCH   6  13
ATOM     13  N   LIG d   1       0.745  80.871 114.642  0.00  0.00    -0.311 N 
ATOM     14  C   LIG d   1       0.914  82.108 115.107  0.00  0.00     0.210 C 
ATOM     15  C   LIG d   1       2.355  82.467 115.482  0.00  0.00     0.109 C 
ATOM     16  O   LIG d   1       0.001  82.931 115.274  0.00  0.00    -0.276 OA
ATOM     17  H   LIG d   1       1.535  80.260 114.570  0.00  0.00     0.149 HD
ENDBRANCH   6  13
BRANCH   5  18
ATOM     18  N   LIG d   1      -0.991  78.964 116.280  0.00  0.00     0.381 N 
ATOM     19  H   LIG d   1      -0.763  78.064 116.653  0.00  0.00    -0.090 HD
ATOM     20  H   LIG d   1      -1.943  79.174 116.523  0.00  0.00    -0.090 HD
ATOM     21  H   LIG d   1      -0.382  79.654 116.663  0.00  0.00    -0.090 HD
ENDBRANCH   5  18
BRANCH   3  22
ATOM     22  C   LIG d   1      -3.023  77.533 112.186  0.00  0.00     0.382 C 
ATOM     23  O   LIG d   1      -2.908  77.382 110.946  0.00  0.00    -0.241 OA
ATOM     24  O   LIG d   1      -3.866  76.861 112.810  0.00  0.00    -0.241 OA
ENDBRANCH   3  22
TORSDOF 7
ENDMDL
MODEL 8
REMARK VINA RESULT:      -4.9      2.094      4.970
REMARK  7 active torsions:
REMARK  status: ('A' for Active; 'I' for Inactive)
REMARK    1  A    between atoms: C_2  and  C_3 
REMARK    2  A    between atoms: C_3  and  O_6 
REMARK    3  A    between atoms: C_3  and  C_4 
REMARK    4  A    between atoms: C_7  and  O_6 
REMARK    5  A    between atoms: C_9  and  C_10 
REMARK    6  A    between atoms: N_15  and  C_14 
REMARK    7  A    between atoms: N_20  and  C_19 
REMARK       I    between atoms: C_22  and  N_20 
ROOT
ATOM      1  C   LIG d   1      -0.160  80.574 113.495  0.00  0.00     0.161 C 
ATOM      2  C   LIG d   1      -0.796  81.309 114.509  0.00  0.00     0.016 C 
ATOM      3  C   LIG d   1      -1.227  82.646 114.348  0.00  0.00     0.038 C 
ATOM      4  C   LIG d   1      -1.185  83.293 113.104  0.00  0.00     0.028 C 
ATOM      5  C   LIG d   1      -0.091  82.765 112.182  0.00  0.00    -0.047 C 
ATOM      6  C   LIG d   1      -0.206  81.226 112.097  0.00  0.00     0.091 C 
ENDROOT
BRANCH   1   7
ATOM      7  O   LIG d   1      -0.704  79.240 113.444  0.00  0.00    -0.368 OA
BRANCH   7   8
ATOM      8  C   LIG d   1      -2.121  79.118 113.719  0.00  0.00     0.119 C 
BRANCH   8   9
ATOM      9  C   LIG d   1      -2.348  77.746 114.381  0.00  0.00     0.028 C 
ATOM     10  C   LIG d   1      -1.044  77.129 114.916  0.00  0.00     0.006 C 
ENDBRANCH   8   9
BRANCH   8  11
ATOM     11  C   LIG d   1      -2.939  79.084 112.424  0.00  0.00     0.028 C 
ATOM     12  C   LIG d   1      -2.505  77.955 111.475  0.00  0.00     0.006 C 
ENDBRANCH   8  11
ENDBRANCH   7   8
ENDBRANCH   1   7
BRANCH   6  13
ATOM     13  N   LIG d   1       0.879  80.620 111.282  0.00  0.00    -0.311 N 
ATOM     14  C   LIG d   1       0.675  80.056 110.093  0.00  0.00     0.210 C 
ATOM     15  C   LIG d   1       1.927  79.474 109.430  0.00  0.00     0.109 C 
ATOM     16  O   LIG d   1      -0.419  80.010 109.510  0.00  0.00    -0.276 OA
ATOM     17  H   LIG d   1       1.803  80.641 111.666  0.00  0.00     0.149 HD
ENDBRANCH   6  13
BRANCH   5  18
ATOM     18  N   LIG d   1      -0.250  83.430 110.875  0.00  0.00     0.381 N 
ATOM     19  H   LIG d   1      -0.889  84.195 110.960  0.00  0.00    -0.090 HD
ATOM     20  H   LIG d   1      -0.632  82.771 110.219  0.00  0.00    -0.090 HD
ATOM     21  H   LIG d   1       0.632  83.759 110.550  0.00  0.00    -0.090 HD
ENDBRANCH   5  18
BRANCH   3  22
ATOM     22  C   LIG d   1      -1.669  83.363 115.449  0.00  0.00     0.382 C 
ATOM     23  O   LIG d   1      -1.109  83.212 116.561  0.00  0.00    -0.241 OA
ATOM     24  O   LIG d   1      -2.649  84.126 115.354  0.00  0.00    -0.241 OA
ENDBRANCH   3  22
TORSDOF 7
ENDMDL
MODEL 9
REMARK VINA RESULT:      -4.7      3.673      6.604
REMARK  7 active torsions:
REMARK  status: ('A' for Active; 'I' for Inactive)
REMARK    1  A    between atoms: C_2  and  C_3 
REMARK    2  A    between atoms: C_3  and  O_6 
REMARK    3  A    between atoms: C_3  and  C_4 
REMARK    4  A    between atoms: C_7  and  O_6 
REMARK    5  A    between atoms: C_9  and  C_10 
REMARK    6  A    between atoms: N_15  and  C_14 
REMARK    7  A    between atoms: N_20  and  C_19 
REMARK       I    between atoms: C_22  and  N_20 
ROOT
ATOM      1  C   LIG d   1      -1.167  77.870 115.659  0.00  0.00     0.161 C 
ATOM      2  C   LIG d   1      -0.664  78.234 116.919  0.00  0.00     0.016 C 
ATOM      3  C   LIG d   1      -0.124  79.509 117.204  0.00  0.00     0.038 C 
ATOM      4  C   LIG d   1      -0.189  80.564 116.281  0.00  0.00     0.028 C 
ATOM      5  C   LIG d   1      -0.230  80.098 114.830  0.00  0.00    -0.047 C 
ATOM      6  C   LIG d   1      -1.349  79.043 114.673  0.00  0.00     0.091 C 
ENDROOT
BRANCH   1   7
ATOM      7  O   LIG d   1      -2.407  77.152 115.816  0.00  0.00    -0.368 OA
BRANCH   7   8
ATOM      8  C   LIG d   1      -2.383  75.751 115.447  0.00  0.00     0.119 C 
BRANCH   8   9
ATOM      9  C   LIG d   1      -3.222  74.984 116.487  0.00  0.00     0.028 C 
ATOM     10  C   LIG d   1      -2.436  74.695 117.777  0.00  0.00     0.006 C 
ENDBRANCH   8   9
BRANCH   8  11
ATOM     11  C   LIG d   1      -0.971  75.170 115.556  0.00  0.00     0.028 C 
ATOM     12  C   LIG d   1      -0.644  74.181 114.425  0.00  0.00     0.006 C 
ENDBRANCH   8  11
ENDBRANCH   7   8
ENDBRANCH   1   7
BRANCH   6  13
ATOM     13  N   LIG d   1      -1.402  78.473 113.301  0.00  0.00    -0.311 N 
ATOM     14  C   LIG d   1      -2.446  78.617 112.487  0.00  0.00     0.210 C 
ATOM     15  C   LIG d   1      -2.302  77.932 111.124  0.00  0.00     0.109 C 
ATOM     16  O   LIG d   1      -3.464  79.273 112.753  0.00  0.00    -0.276 OA
ATOM     17  H   LIG d   1      -0.604  77.952 112.993  0.00  0.00     0.149 HD
ENDBRANCH   6  13
BRANCH   5  18
ATOM     18  N   LIG d   1      -0.436  81.289 113.985  0.00  0.00     0.381 N 
ATOM     19  H   LIG d   1      -1.119  81.888 114.404  0.00  0.00    -0.090 HD
ATOM     20  H   LIG d   1      -0.781  80.996 113.088  0.00  0.00    -0.090 HD
ATOM     21  H   LIG d   1       0.423  81.781 113.873  0.00  0.00    -0.090 HD
ENDBRANCH   5  18
BRANCH   3  22
ATOM     22  C   LIG d   1       0.526  79.727 118.409  0.00  0.00     0.382 C 
ATOM     23  O   LIG d   1       1.020  80.852 118.660  0.00  0.00    -0.241 OA
ATOM     24  O   LIG d   1       0.663  78.800 119.230  0.00  0.00    -0.241 OA
ENDBRANCH   3  22
TORSDOF 7
ENDMDL
