MODEL 1
REMARK VINA RESULT:      -5.5      0.000      0.000
REMARK  7 active torsions:
REMARK  status: ('A' for Active; 'I' for Inactive)
REMARK    1  A    between atoms: C_2  and  C_3 
REMARK    2  A    between atoms: C_3  and  O_6 
REMARK    3  A    between atoms: C_3  and  C_4 
REMARK    4  A    between atoms: C_7  and  O_6 
REMARK    5  A    between atoms: C_9  and  C_10 
REMARK    6  A    between atoms: N_15  and  C_14 
REMARK    7  A    between atoms: N_20  and  C_19 
REMARK       I    between atoms: C_22  and  N_20 
ROOT
ATOM      1  C   LIG d   1      -3.380  76.665 115.483  0.00  0.00     0.161 C 
ATOM      2  C   LIG d   1      -3.670  77.155 114.199  0.00  0.00     0.016 C 
ATOM      3  C   LIG d   1      -2.681  77.395 113.217  0.00  0.00     0.038 C 
ATOM      4  C   LIG d   1      -1.344  77.015 113.403  0.00  0.00     0.028 C 
ATOM      5  C   LIG d   1      -0.921  76.983 114.867  0.00  0.00    -0.047 C 
ATOM      6  C   LIG d   1      -1.941  76.140 115.666  0.00  0.00     0.091 C 
ENDROOT
BRANCH   1   7
ATOM      7  O   LIG d   1      -4.335  75.646 115.843  0.00  0.00    -0.368 OA
BRANCH   7   8
ATOM      8  C   LIG d   1      -5.703  75.878 115.426  0.00  0.00     0.119 C 
BRANCH   8   9
ATOM      9  C   LIG d   1      -6.487  76.363 116.660  0.00  0.00     0.028 C 
ATOM     10  C   LIG d   1      -6.152  77.817 117.035  0.00  0.00     0.006 C 
ENDBRANCH   8   9
BRANCH   8  11
ATOM     11  C   LIG d   1      -6.384  74.575 114.999  0.00  0.00     0.028 C 
ATOM     12  C   LIG d   1      -7.554  74.186 115.916  0.00  0.00     0.006 C 
ENDBRANCH   8  11
ENDBRANCH   7   8
ENDBRANCH   1   7
BRANCH   6  13
ATOM     13  N   LIG d   1      -1.649  76.127 117.123  0.00  0.00    -0.311 N 
ATOM     14  C   LIG d   1      -0.923  75.181 117.716  0.00  0.00     0.210 C 
ATOM     15  C   LIG d   1      -0.759  75.346 119.230  0.00  0.00     0.109 C 
ATOM     16  O   LIG d   1      -0.372  74.238 117.128  0.00  0.00    -0.276 OA
ATOM     17  H   LIG d   1      -2.031  76.872 117.671  0.00  0.00     0.149 HD
ENDBRANCH   6  13
BRANCH   5  18
ATOM     18  N   LIG d   1       0.449  76.440 114.924  0.00  0.00     0.381 N 
ATOM     19  H   LIG d   1       1.111  77.173 114.766  0.00  0.00    -0.090 HD
ATOM     20  H   LIG d   1       0.558  75.755 114.197  0.00  0.00    -0.090 HD
ATOM     21  H   LIG d   1       0.613  76.020 115.813  0.00  0.00    -0.090 HD
ENDBRANCH   5  18
BRANCH   3  22
ATOM     22  C   LIG d   1      -3.021  78.059 112.047  0.00  0.00     0.382 C 
ATOM     23  O   LIG d   1      -3.886  77.573 111.280  0.00  0.00    -0.241 OA
ATOM     24  O   LIG d   1      -2.442  79.114 111.729  0.00  0.00    -0.241 OA
ENDBRANCH   3  22
TORSDOF 7
ENDMDL
MODEL 2
REMARK VINA RESULT:      -5.4      1.731      4.960
REMARK  7 active torsions:
REMARK  status: ('A' for Active; 'I' for Inactive)
REMARK    1  A    between atoms: C_2  and  C_3 
REMARK    2  A    between atoms: C_3  and  O_6 
REMARK    3  A    between atoms: C_3  and  C_4 
REMARK    4  A    between atoms: C_7  and  O_6 
REMARK    5  A    between atoms: C_9  and  C_10 
REMARK    6  A    between atoms: N_15  and  C_14 
REMARK    7  A    between atoms: N_20  and  C_19 
REMARK       I    between atoms: C_22  and  N_20 
ROOT
ATOM      1  C   LIG d   1      -2.159  76.109 114.971  0.00  0.00     0.161 C 
ATOM      2  C   LIG d   1      -2.101  75.733 116.323  0.00  0.00     0.016 C 
ATOM      3  C   LIG d   1      -1.463  76.507 117.320  0.00  0.00     0.038 C 
ATOM      4  C   LIG d   1      -0.967  77.792 117.056  0.00  0.00     0.028 C 
ATOM      5  C   LIG d   1      -0.555  77.996 115.602  0.00  0.00    -0.047 C 
ATOM      6  C   LIG d   1      -1.721  77.561 114.684  0.00  0.00     0.091 C 
ENDROOT
BRANCH   1   7
ATOM      7  O   LIG d   1      -3.484  75.875 114.455  0.00  0.00    -0.368 OA
BRANCH   7   8
ATOM      8  C   LIG d   1      -4.491  75.502 115.428  0.00  0.00     0.119 C 
BRANCH   8   9
ATOM      9  C   LIG d   1      -5.313  74.347 114.824  0.00  0.00     0.028 C 
ATOM     10  C   LIG d   1      -6.681  74.181 115.508  0.00  0.00     0.006 C 
ENDBRANCH   8   9
BRANCH   8  11
ATOM     11  C   LIG d   1      -5.493  76.638 115.656  0.00  0.00     0.028 C 
ATOM     12  C   LIG d   1      -5.183  77.461 116.916  0.00  0.00     0.006 C 
ENDBRANCH   8  11
ENDBRANCH   7   8
ENDBRANCH   1   7
BRANCH   6  13
ATOM     13  N   LIG d   1      -1.370  77.648 113.243  0.00  0.00    -0.311 N 
ATOM     14  C   LIG d   1      -2.055  78.380 112.365  0.00  0.00     0.210 C 
ATOM     15  C   LIG d   1      -1.536  78.314 110.925  0.00  0.00     0.109 C 
ATOM     16  O   LIG d   1      -3.022  79.103 112.648  0.00  0.00    -0.276 OA
ATOM     17  H   LIG d   1      -0.580  77.118 112.932  0.00  0.00     0.149 HD
ENDBRANCH   6  13
BRANCH   5  18
ATOM     18  N   LIG d   1      -0.189  79.415 115.437  0.00  0.00     0.381 N 
ATOM     19  H   LIG d   1       0.210  79.763 116.286  0.00  0.00    -0.090 HD
ATOM     20  H   LIG d   1      -1.019  79.944 115.238  0.00  0.00    -0.090 HD
ATOM     21  H   LIG d   1       0.463  79.514 114.690  0.00  0.00    -0.090 HD
ENDBRANCH   5  18
BRANCH   3  22
ATOM     22  C   LIG d   1      -1.281  75.978 118.589  0.00  0.00     0.382 C 
ATOM     23  O   LIG d   1      -1.694  76.605 119.594  0.00  0.00    -0.241 OA
ATOM     24  O   LIG d   1      -0.670  74.904 118.744  0.00  0.00    -0.241 OA
ENDBRANCH   3  22
TORSDOF 7
ENDMDL
MODEL 3
REMARK VINA RESULT:      -5.3      1.869      2.519
REMARK  7 active torsions:
REMARK  status: ('A' for Active; 'I' for Inactive)
REMARK    1  A    between atoms: C_2  and  C_3 
REMARK    2  A    between atoms: C_3  and  O_6 
REMARK    3  A    between atoms: C_3  and  C_4 
REMARK    4  A    between atoms: C_7  and  O_6 
REMARK    5  A    between atoms: C_9  and  C_10 
REMARK    6  A    between atoms: N_15  and  C_14 
REMARK    7  A    between atoms: N_20  and  C_19 
REMARK       I    between atoms: C_22  and  N_20 
ROOT
ATOM      1  C   LIG d   1      -2.708  78.228 115.880  0.00  0.00     0.161 C 
ATOM      2  C   LIG d   1      -2.929  79.136 114.832  0.00  0.00     0.016 C 
ATOM      3  C   LIG d   1      -2.297  79.038 113.571  0.00  0.00     0.038 C 
ATOM      4  C   LIG d   1      -1.510  77.931 113.220  0.00  0.00     0.028 C 
ATOM      5  C   LIG d   1      -0.855  77.250 114.418  0.00  0.00    -0.047 C 
ATOM      6  C   LIG d   1      -1.938  76.952 115.480  0.00  0.00     0.091 C 
ENDROOT
BRANCH   1   7
ATOM      7  O   LIG d   1      -3.962  77.882 116.500  0.00  0.00    -0.368 OA
BRANCH   7   8
ATOM      8  C   LIG d   1      -4.644  78.952 117.200  0.00  0.00     0.119 C 
BRANCH   8   9
ATOM      9  C   LIG d   1      -4.101  78.982 118.642  0.00  0.00     0.028 C 
ATOM     10  C   LIG d   1      -3.433  80.323 118.990  0.00  0.00     0.006 C 
ENDBRANCH   8   9
BRANCH   8  11
ATOM     11  C   LIG d   1      -6.142  78.664 117.336  0.00  0.00     0.028 C 
ATOM     12  C   LIG d   1      -6.473  77.167 117.223  0.00  0.00     0.006 C 
ENDBRANCH   8  11
ENDBRANCH   7   8
ENDBRANCH   1   7
BRANCH   6  13
ATOM     13  N   LIG d   1      -1.369  76.362 116.719  0.00  0.00    -0.311 N 
ATOM     14  C   LIG d   1      -1.238  75.051 116.914  0.00  0.00     0.210 C 
ATOM     15  C   LIG d   1      -0.646  74.655 118.270  0.00  0.00     0.109 C 
ATOM     16  O   LIG d   1      -1.525  74.180 116.079  0.00  0.00    -0.276 OA
ATOM     17  H   LIG d   1      -1.081  76.998 117.437  0.00  0.00     0.149 HD
ENDBRANCH   6  13
BRANCH   5  18
ATOM     18  N   LIG d   1      -0.179  76.035 113.925  0.00  0.00     0.381 N 
ATOM     19  H   LIG d   1      -0.695  75.647 113.161  0.00  0.00    -0.090 HD
ATOM     20  H   LIG d   1      -0.151  75.356 114.664  0.00  0.00    -0.090 HD
ATOM     21  H   LIG d   1       0.747  76.256 113.631  0.00  0.00    -0.090 HD
ENDBRANCH   5  18
BRANCH   3  22
ATOM     22  C   LIG d   1      -2.418  80.075 112.659  0.00  0.00     0.382 C 
ATOM     23  O   LIG d   1      -3.328  80.928 112.797  0.00  0.00    -0.241 OA
ATOM     24  O   LIG d   1      -1.657  80.144 111.675  0.00  0.00    -0.241 OA
ENDBRANCH   3  22
TORSDOF 7
ENDMDL
MODEL 4
REMARK VINA RESULT:      -5.1      1.655      2.101
REMARK  7 active torsions:
REMARK  status: ('A' for Active; 'I' for Inactive)
REMARK    1  A    between atoms: C_2  and  C_3 
REMARK    2  A    between atoms: C_3  and  O_6 
REMARK    3  A    between atoms: C_3  and  C_4 
REMARK    4  A    between atoms: C_7  and  O_6 
REMARK    5  A    between atoms: C_9  and  C_10 
REMARK    6  A    between atoms: N_15  and  C_14 
REMARK    7  A    between atoms: N_20  and  C_19 
REMARK       I    between atoms: C_22  and  N_20 
ROOT
ATOM      1  C   LIG d   1      -3.353  77.187 114.836  0.00  0.00     0.161 C 
ATOM      2  C   LIG d   1      -3.330  77.231 113.432  0.00  0.00     0.016 C 
ATOM      3  C   LIG d   1      -2.339  77.915 112.691  0.00  0.00     0.038 C 
ATOM      4  C   LIG d   1      -1.211  78.478 113.305  0.00  0.00     0.028 C 
ATOM      5  C   LIG d   1      -1.452  78.893 114.752  0.00  0.00    -0.047 C 
ATOM      6  C   LIG d   1      -2.069  77.702 115.520  0.00  0.00     0.091 C 
ENDROOT
BRANCH   1   7
ATOM      7  O   LIG d   1      -3.654  75.849 115.278  0.00  0.00    -0.368 OA
BRANCH   7   8
ATOM      8  C   LIG d   1      -4.964  75.651 115.865  0.00  0.00     0.119 C 
BRANCH   8   9
ATOM      9  C   LIG d   1      -5.831  74.915 114.825  0.00  0.00     0.028 C 
ATOM     10  C   LIG d   1      -6.739  75.872 114.035  0.00  0.00     0.006 C 
ENDBRANCH   8   9
BRANCH   8  11
ATOM     11  C   LIG d   1      -5.672  76.987 116.110  0.00  0.00     0.028 C 
ATOM     12  C   LIG d   1      -6.415  77.029 117.455  0.00  0.00     0.006 C 
ENDBRANCH   8  11
ENDBRANCH   7   8
ENDBRANCH   1   7
BRANCH   6  13
ATOM     13  N   LIG d   1      -2.415  78.049 116.923  0.00  0.00    -0.311 N 
ATOM     14  C   LIG d   1      -2.210  77.231 117.953  0.00  0.00     0.210 C 
ATOM     15  C   LIG d   1      -2.657  77.777 119.312  0.00  0.00     0.109 C 
ATOM     16  O   LIG d   1      -1.670  76.117 117.874  0.00  0.00    -0.276 OA
ATOM     17  H   LIG d   1      -2.829  78.947 117.081  0.00  0.00     0.149 HD
ENDBRANCH   6  13
BRANCH   5  18
ATOM     18  N   LIG d   1      -0.161  79.335 115.311  0.00  0.00     0.381 N 
ATOM     19  H   LIG d   1       0.574  79.138 114.661  0.00  0.00    -0.090 HD
ATOM     20  H   LIG d   1       0.020  78.823 116.156  0.00  0.00    -0.090 HD
ATOM     21  H   LIG d   1      -0.189  80.312 115.505  0.00  0.00    -0.090 HD
ENDBRANCH   5  18
BRANCH   3  22
ATOM     22  C   LIG d   1      -2.493  78.074 111.322  0.00  0.00     0.382 C 
ATOM     23  O   LIG d   1      -3.486  77.576 110.740  0.00  0.00    -0.241 OA
ATOM     24  O   LIG d   1      -1.627  78.672 110.655  0.00  0.00    -0.241 OA
ENDBRANCH   3  22
TORSDOF 7
ENDMDL
MODEL 5
REMARK VINA RESULT:      -4.9      3.385      5.998
REMARK  7 active torsions:
REMARK  status: ('A' for Active; 'I' for Inactive)
REMARK    1  A    between atoms: C_2  and  C_3 
REMARK    2  A    between atoms: C_3  and  O_6 
REMARK    3  A    between atoms: C_3  and  C_4 
REMARK    4  A    between atoms: C_7  and  O_6 
REMARK    5  A    between atoms: C_9  and  C_10 
REMARK    6  A    between atoms: N_15  and  C_14 
REMARK    7  A    between atoms: N_20  and  C_19 
REMARK       I    between atoms: C_22  and  N_20 
ROOT
ATOM      1  C   LIG d   1      -1.484  79.522 114.162  0.00  0.00     0.161 C 
ATOM      2  C   LIG d   1      -2.269  78.415 114.524  0.00  0.00     0.016 C 
ATOM      3  C   LIG d   1      -2.735  77.455 113.597  0.00  0.00     0.038 C 
ATOM      4  C   LIG d   1      -2.318  77.454 112.257  0.00  0.00     0.028 C 
ATOM      5  C   LIG d   1      -1.934  78.837 111.742  0.00  0.00    -0.047 C 
ATOM      6  C   LIG d   1      -0.926  79.477 112.724  0.00  0.00     0.091 C 
ENDROOT
BRANCH   1   7
ATOM      7  O   LIG d   1      -0.411  79.691 115.110  0.00  0.00    -0.368 OA
BRANCH   7   8
ATOM      8  C   LIG d   1      -0.572  79.016 116.381  0.00  0.00     0.119 C 
BRANCH   8   9
ATOM      9  C   LIG d   1      -0.708  80.100 117.468  0.00  0.00     0.028 C 
ATOM     10  C   LIG d   1      -2.094  80.095 118.132  0.00  0.00     0.006 C 
ENDBRANCH   8   9
BRANCH   8  11
ATOM     11  C   LIG d   1       0.684  78.223 116.754  0.00  0.00     0.028 C 
ATOM     12  C   LIG d   1       0.475  76.703 116.673  0.00  0.00     0.006 C 
ENDBRANCH   8  11
ENDBRANCH   7   8
ENDBRANCH   1   7
BRANCH   6  13
ATOM     13  N   LIG d   1      -0.563  80.865 112.338  0.00  0.00    -0.311 N 
ATOM     14  C   LIG d   1       0.448  81.159 111.522  0.00  0.00     0.210 C 
ATOM     15  C   LIG d   1       0.664  82.654 111.272  0.00  0.00     0.109 C 
ATOM     16  O   LIG d   1       1.167  80.321 110.957  0.00  0.00    -0.276 OA
ATOM     17  H   LIG d   1      -1.114  81.606 112.727  0.00  0.00     0.149 HD
ENDBRANCH   6  13
BRANCH   5  18
ATOM     18  N   LIG d   1      -1.389  78.670 110.381  0.00  0.00     0.381 N 
ATOM     19  H   LIG d   1      -1.660  77.779 110.015  0.00  0.00    -0.090 HD
ATOM     20  H   LIG d   1      -0.386  78.700 110.427  0.00  0.00    -0.090 HD
ATOM     21  H   LIG d   1      -1.725  79.396 109.788  0.00  0.00    -0.090 HD
ENDBRANCH   5  18
BRANCH   3  22
ATOM     22  C   LIG d   1      -3.661  76.504 113.999  0.00  0.00     0.382 C 
ATOM     23  O   LIG d   1      -3.323  75.599 114.800  0.00  0.00    -0.241 OA
ATOM     24  O   LIG d   1      -4.818  76.514 113.537  0.00  0.00    -0.241 OA
ENDBRANCH   3  22
TORSDOF 7
ENDMDL
MODEL 6
REMARK VINA RESULT:      -4.8      1.760      4.830
REMARK  7 active torsions:
REMARK  status: ('A' for Active; 'I' for Inactive)
REMARK    1  A    between atoms: C_2  and  C_3 
REMARK    2  A    between atoms: C_3  and  O_6 
REMARK    3  A    between atoms: C_3  and  C_4 
REMARK    4  A    between atoms: C_7  and  O_6 
REMARK    5  A    between atoms: C_9  and  C_10 
REMARK    6  A    between atoms: N_15  and  C_14 
REMARK    7  A    between atoms: N_20  and  C_19 
REMARK       I    between atoms: C_22  and  N_20 
ROOT
ATOM      1  C   LIG d   1      -1.909  75.810 115.299  0.00  0.00     0.161 C 
ATOM      2  C   LIG d   1      -1.607  75.594 116.654  0.00  0.00     0.016 C 
ATOM      3  C   LIG d   1      -0.980  76.560 117.475  0.00  0.00     0.038 C 
ATOM      4  C   LIG d   1      -0.748  77.871 117.033  0.00  0.00     0.028 C 
ATOM      5  C   LIG d   1      -0.576  77.979 115.522  0.00  0.00    -0.047 C 
ATOM      6  C   LIG d   1      -1.764  77.272 114.829  0.00  0.00     0.091 C 
ENDROOT
BRANCH   1   7
ATOM      7  O   LIG d   1      -3.233  75.319 115.010  0.00  0.00    -0.368 OA
BRANCH   7   8
ATOM      8  C   LIG d   1      -4.285  76.314 114.963  0.00  0.00     0.119 C 
BRANCH   8   9
ATOM      9  C   LIG d   1      -4.821  76.488 116.397  0.00  0.00     0.028 C 
ATOM     10  C   LIG d   1      -4.707  77.939 116.894  0.00  0.00     0.006 C 
ENDBRANCH   8   9
BRANCH   8  11
ATOM     11  C   LIG d   1      -5.480  75.823 114.140  0.00  0.00     0.028 C 
ATOM     12  C   LIG d   1      -6.245  74.679 114.825  0.00  0.00     0.006 C 
ENDBRANCH   8  11
ENDBRANCH   7   8
ENDBRANCH   1   7
BRANCH   6  13
ATOM     13  N   LIG d   1      -1.631  77.258 113.349  0.00  0.00    -0.311 N 
ATOM     14  C   LIG d   1      -2.212  78.152 112.552  0.00  0.00     0.210 C 
ATOM     15  C   LIG d   1      -1.962  77.944 111.055  0.00  0.00     0.109 C 
ATOM     16  O   LIG d   1      -2.886  79.117 112.944  0.00  0.00    -0.276 OA
ATOM     17  H   LIG d   1      -1.076  76.527 112.948  0.00  0.00     0.149 HD
ENDBRANCH   6  13
BRANCH   5  18
ATOM     18  N   LIG d   1      -0.479  79.412 115.185  0.00  0.00     0.381 N 
ATOM     19  H   LIG d   1      -1.370  79.748 114.878  0.00  0.00    -0.090 HD
ATOM     20  H   LIG d   1       0.177  79.525 114.433  0.00  0.00    -0.090 HD
ATOM     21  H   LIG d   1      -0.177  79.929 115.981  0.00  0.00    -0.090 HD
ENDBRANCH   5  18
BRANCH   3  22
ATOM     22  C   LIG d   1      -0.543  76.205 118.742  0.00  0.00     0.382 C 
ATOM     23  O   LIG d   1       0.686  76.112 118.978  0.00  0.00    -0.241 OA
ATOM     24  O   LIG d   1      -1.362  75.934 119.641  0.00  0.00    -0.241 OA
ENDBRANCH   3  22
TORSDOF 7
ENDMDL
MODEL 7
REMARK VINA RESULT:      -4.7      2.800      4.590
REMARK  7 active torsions:
REMARK  status: ('A' for Active; 'I' for Inactive)
REMARK    1  A    between atoms: C_2  and  C_3 
REMARK    2  A    between atoms: C_3  and  O_6 
REMARK    3  A    between atoms: C_3  and  C_4 
REMARK    4  A    between atoms: C_7  and  O_6 
REMARK    5  A    between atoms: C_9  and  C_10 
REMARK    6  A    between atoms: N_15  and  C_14 
REMARK    7  A    between atoms: N_20  and  C_19 
REMARK       I    between atoms: C_22  and  N_20 
ROOT
ATOM      1  C   LIG d   1      -4.036  77.289 116.023  0.00  0.00     0.161 C 
ATOM      2  C   LIG d   1      -3.100  76.282 115.736  0.00  0.00     0.016 C 
ATOM      3  C   LIG d   1      -2.051  75.922 116.612  0.00  0.00     0.038 C 
ATOM      4  C   LIG d   1      -1.956  76.444 117.910  0.00  0.00     0.028 C 
ATOM      5  C   LIG d   1      -2.580  77.829 118.052  0.00  0.00    -0.047 C 
ATOM      6  C   LIG d   1      -4.016  77.793 117.482  0.00  0.00     0.091 C 
ENDROOT
BRANCH   1   7
ATOM      7  O   LIG d   1      -5.360  76.843 115.666  0.00  0.00    -0.368 OA
BRANCH   7   8
ATOM      8  C   LIG d   1      -5.566  75.409 115.649  0.00  0.00     0.119 C 
BRANCH   8   9
ATOM      9  C   LIG d   1      -5.817  74.994 114.187  0.00  0.00     0.028 C 
ATOM     10  C   LIG d   1      -6.506  76.102 113.373  0.00  0.00     0.006 C 
ENDBRANCH   8   9
BRANCH   8  11
ATOM     11  C   LIG d   1      -6.840  75.021 116.405  0.00  0.00     0.028 C 
ATOM     12  C   LIG d   1      -7.561  76.231 117.020  0.00  0.00     0.006 C 
ENDBRANCH   8  11
ENDBRANCH   7   8
ENDBRANCH   1   7
BRANCH   6  13
ATOM     13  N   LIG d   1      -4.668  79.128 117.505  0.00  0.00    -0.311 N 
ATOM     14  C   LIG d   1      -5.656  79.447 118.340  0.00  0.00     0.210 C 
ATOM     15  C   LIG d   1      -6.201  80.870 118.184  0.00  0.00     0.109 C 
ATOM     16  O   LIG d   1      -6.111  78.697 119.216  0.00  0.00    -0.276 OA
ATOM     17  H   LIG d   1      -4.339  79.808 116.848  0.00  0.00     0.149 HD
ENDBRANCH   6  13
BRANCH   5  18
ATOM     18  N   LIG d   1      -2.534  78.193 119.481  0.00  0.00     0.381 N 
ATOM     19  H   LIG d   1      -3.439  78.496 119.782  0.00  0.00    -0.090 HD
ATOM     20  H   LIG d   1      -1.890  78.955 119.601  0.00  0.00    -0.090 HD
ATOM     21  H   LIG d   1      -2.240  77.411 120.023  0.00  0.00    -0.090 HD
ENDBRANCH   5  18
BRANCH   3  22
ATOM     22  C   LIG d   1      -1.058  75.058 116.176  0.00  0.00     0.382 C 
ATOM     23  O   LIG d   1      -1.197  74.438 115.093  0.00  0.00    -0.241 OA
ATOM     24  O   LIG d   1      -0.045  74.856 116.872  0.00  0.00    -0.241 OA
ENDBRANCH   3  22
TORSDOF 7
ENDMDL
MODEL 8
REMARK VINA RESULT:      -4.6      2.970      4.646
REMARK  7 active torsions:
REMARK  status: ('A' for Active; 'I' for Inactive)
REMARK    1  A    between atoms: C_2  and  C_3 
REMARK    2  A    between atoms: C_3  and  O_6 
REMARK    3  A    between atoms: C_3  and  C_4 
REMARK    4  A    between atoms: C_7  and  O_6 
REMARK    5  A    between atoms: C_9  and  C_10 
REMARK    6  A    between atoms: N_15  and  C_14 
REMARK    7  A    between atoms: N_20  and  C_19 
REMARK       I    between atoms: C_22  and  N_20 
ROOT
ATOM      1  C   LIG d   1      -5.283  77.556 116.946  0.00  0.00     0.161 C 
ATOM      2  C   LIG d   1      -6.185  78.572 117.304  0.00  0.00     0.016 C 
ATOM      3  C   LIG d   1      -5.784  79.812 117.852  0.00  0.00     0.038 C 
ATOM      4  C   LIG d   1      -4.433  80.181 117.939  0.00  0.00     0.028 C 
ATOM      5  C   LIG d   1      -3.486  78.992 118.059  0.00  0.00    -0.047 C 
ATOM      6  C   LIG d   1      -3.801  77.984 116.930  0.00  0.00     0.091 C 
ENDROOT
BRANCH   1   7
ATOM      7  O   LIG d   1      -5.658  76.998 115.671  0.00  0.00    -0.368 OA
BRANCH   7   8
ATOM      8  C   LIG d   1      -6.096  75.617 115.684  0.00  0.00     0.119 C 
BRANCH   8   9
ATOM      9  C   LIG d   1      -5.780  75.018 114.299  0.00  0.00     0.028 C 
ATOM     10  C   LIG d   1      -6.176  75.959 113.149  0.00  0.00     0.006 C 
ENDBRANCH   8   9
BRANCH   8  11
ATOM     11  C   LIG d   1      -7.617  75.517 115.831  0.00  0.00     0.028 C 
ATOM     12  C   LIG d   1      -8.060  75.265 117.281  0.00  0.00     0.006 C 
ENDBRANCH   8  11
ENDBRANCH   7   8
ENDBRANCH   1   7
BRANCH   6  13
ATOM     13  N   LIG d   1      -2.976  76.752 117.024  0.00  0.00    -0.311 N 
ATOM     14  C   LIG d   1      -1.842  76.575 116.347  0.00  0.00     0.210 C 
ATOM     15  C   LIG d   1      -1.158  75.223 116.574  0.00  0.00     0.109 C 
ATOM     16  O   LIG d   1      -1.321  77.422 115.606  0.00  0.00    -0.276 OA
ATOM     17  H   LIG d   1      -3.309  76.025 117.627  0.00  0.00     0.149 HD
ENDBRANCH   6  13
BRANCH   5  18
ATOM     18  N   LIG d   1      -2.107  79.513 118.001  0.00  0.00     0.381 N 
ATOM     19  H   LIG d   1      -1.889  79.790 117.065  0.00  0.00    -0.090 HD
ATOM     20  H   LIG d   1      -1.472  78.782 118.270  0.00  0.00    -0.090 HD
ATOM     21  H   LIG d   1      -2.010  80.290 118.617  0.00  0.00    -0.090 HD
ENDBRANCH   5  18
BRANCH   3  22
ATOM     22  C   LIG d   1      -6.738  80.681 118.358  0.00  0.00     0.382 C 
ATOM     23  O   LIG d   1      -7.493  81.307 117.575  0.00  0.00    -0.241 OA
ATOM     24  O   LIG d   1      -6.824  80.881 119.584  0.00  0.00    -0.241 OA
ENDBRANCH   3  22
TORSDOF 7
ENDMDL
MODEL 9
REMARK VINA RESULT:      -4.6      2.449      5.146
REMARK  7 active torsions:
REMARK  status: ('A' for Active; 'I' for Inactive)
REMARK    1  A    between atoms: C_2  and  C_3 
REMARK    2  A    between atoms: C_3  and  O_6 
REMARK    3  A    between atoms: C_3  and  C_4 
REMARK    4  A    between atoms: C_7  and  O_6 
REMARK    5  A    between atoms: C_9  and  C_10 
REMARK    6  A    between atoms: N_15  and  C_14 
REMARK    7  A    between atoms: N_20  and  C_19 
REMARK       I    between atoms: C_22  and  N_20 
ROOT
ATOM      1  C   LIG d   1      -1.532  76.685 115.056  0.00  0.00     0.161 C 
ATOM      2  C   LIG d   1      -2.720  76.020 114.710  0.00  0.00     0.016 C 
ATOM      3  C   LIG d   1      -3.914  76.118 115.461  0.00  0.00     0.038 C 
ATOM      4  C   LIG d   1      -4.045  77.015 116.531  0.00  0.00     0.028 C 
ATOM      5  C   LIG d   1      -2.723  77.330 117.223  0.00  0.00    -0.047 C 
ATOM      6  C   LIG d   1      -1.687  77.755 116.157  0.00  0.00     0.091 C 
ENDROOT
BRANCH   1   7
ATOM      7  O   LIG d   1      -0.934  77.262 113.878  0.00  0.00    -0.368 OA
BRANCH   7   8
ATOM      8  C   LIG d   1      -1.685  78.322 113.236  0.00  0.00     0.119 C 
BRANCH   8   9
ATOM      9  C   LIG d   1      -1.990  77.866 111.795  0.00  0.00     0.028 C 
ATOM     10  C   LIG d   1      -3.496  77.881 111.482  0.00  0.00     0.006 C 
ENDBRANCH   8   9
BRANCH   8  11
ATOM     11  C   LIG d   1      -0.841  79.592 113.089  0.00  0.00     0.028 C 
ATOM     12  C   LIG d   1      -0.449  79.882 111.632  0.00  0.00     0.006 C 
ENDBRANCH   8  11
ENDBRANCH   7   8
ENDBRANCH   1   7
BRANCH   6  13
ATOM     13  N   LIG d   1      -0.342  78.000 116.739  0.00  0.00    -0.311 N 
ATOM     14  C   LIG d   1       0.213  79.208 116.820  0.00  0.00     0.210 C 
ATOM     15  C   LIG d   1       1.615  79.236 117.437  0.00  0.00     0.109 C 
ATOM     16  O   LIG d   1      -0.336  80.264 116.470  0.00  0.00    -0.276 OA
ATOM     17  H   LIG d   1       0.161  77.203 117.076  0.00  0.00     0.149 HD
ENDBRANCH   6  13
BRANCH   5  18
ATOM     18  N   LIG d   1      -2.983  78.379 118.226  0.00  0.00     0.381 N 
ATOM     19  H   LIG d   1      -2.234  79.043 118.225  0.00  0.00    -0.090 HD
ATOM     20  H   LIG d   1      -3.027  77.955 119.136  0.00  0.00    -0.090 HD
ATOM     21  H   LIG d   1      -3.844  78.839 118.024  0.00  0.00    -0.090 HD
ENDBRANCH   5  18
BRANCH   3  22
ATOM     22  C   LIG d   1      -4.981  75.284 115.166  0.00  0.00     0.382 C 
ATOM     23  O   LIG d   1      -5.948  75.198 115.962  0.00  0.00    -0.241 OA
ATOM     24  O   LIG d   1      -4.970  74.582 114.137  0.00  0.00    -0.241 OA
ENDBRANCH   3  22
TORSDOF 7
ENDMDL
