MODEL 1
REMARK VINA RESULT:      -5.4      0.000      0.000
REMARK  7 active torsions:
REMARK  status: ('A' for Active; 'I' for Inactive)
REMARK    1  A    between atoms: C_2  and  C_3 
REMARK    2  A    between atoms: C_3  and  O_6 
REMARK    3  A    between atoms: C_3  and  C_4 
REMARK    4  A    between atoms: C_7  and  O_6 
REMARK    5  A    between atoms: C_9  and  C_10 
REMARK    6  A    between atoms: N_15  and  C_14 
REMARK    7  A    between atoms: N_20  and  C_19 
REMARK       I    between atoms: C_22  and  N_20 
ROOT
ATOM      1  C   LIG d   1      -1.800  79.183 115.564  0.00  0.00     0.161 C 
ATOM      2  C   LIG d   1      -2.266  80.493 115.366  0.00  0.00     0.016 C 
ATOM      3  C   LIG d   1      -2.575  81.025 114.093  0.00  0.00     0.038 C 
ATOM      4  C   LIG d   1      -2.582  80.228 112.938  0.00  0.00     0.028 C 
ATOM      5  C   LIG d   1      -1.633  79.037 113.018  0.00  0.00    -0.047 C 
ATOM      6  C   LIG d   1      -1.907  78.264 114.329  0.00  0.00     0.091 C 
ENDROOT
BRANCH   1   7
ATOM      7  O   LIG d   1      -2.475  78.589 116.690  0.00  0.00    -0.368 OA
BRANCH   7   8
ATOM      8  C   LIG d   1      -3.916  78.483 116.586  0.00  0.00     0.119 C 
BRANCH   8   9
ATOM      9  C   LIG d   1      -4.523  79.198 117.808  0.00  0.00     0.028 C 
ATOM     10  C   LIG d   1      -5.376  80.415 117.412  0.00  0.00     0.006 C 
ENDBRANCH   8   9
BRANCH   8  11
ATOM     11  C   LIG d   1      -4.377  77.026 116.699  0.00  0.00     0.028 C 
ATOM     12  C   LIG d   1      -3.413  76.158 117.523  0.00  0.00     0.006 C 
ENDBRANCH   8  11
ENDBRANCH   7   8
ENDBRANCH   1   7
BRANCH   6  13
ATOM     13  N   LIG d   1      -0.965  77.132 114.527  0.00  0.00    -0.311 N 
ATOM     14  C   LIG d   1      -1.328  75.853 114.445  0.00  0.00     0.210 C 
ATOM     15  C   LIG d   1      -0.204  74.845 114.703  0.00  0.00     0.109 C 
ATOM     16  O   LIG d   1      -2.466  75.459 114.152  0.00  0.00    -0.276 OA
ATOM     17  H   LIG d   1      -0.013  77.362 114.738  0.00  0.00     0.149 HD
ENDBRANCH   6  13
BRANCH   5  18
ATOM     18  N   LIG d   1      -1.843  78.218 111.810  0.00  0.00     0.381 N 
ATOM     19  H   LIG d   1      -1.444  77.310 111.942  0.00  0.00    -0.090 HD
ATOM     20  H   LIG d   1      -1.376  78.657 111.035  0.00  0.00    -0.090 HD
ATOM     21  H   LIG d   1      -2.817  78.137 111.617  0.00  0.00    -0.090 HD
ENDBRANCH   5  18
BRANCH   3  22
ATOM     22  C   LIG d   1      -2.843  82.379 113.960  0.00  0.00     0.382 C 
ATOM     23  O   LIG d   1      -2.171  83.076 113.162  0.00  0.00    -0.241 OA
ATOM     24  O   LIG d   1      -3.719  82.921 114.661  0.00  0.00    -0.241 OA
ENDBRANCH   3  22
TORSDOF 7
ENDMDL
MODEL 2
REMARK VINA RESULT:      -5.3      1.251      1.818
REMARK  7 active torsions:
REMARK  status: ('A' for Active; 'I' for Inactive)
REMARK    1  A    between atoms: C_2  and  C_3 
REMARK    2  A    between atoms: C_3  and  O_6 
REMARK    3  A    between atoms: C_3  and  C_4 
REMARK    4  A    between atoms: C_7  and  O_6 
REMARK    5  A    between atoms: C_9  and  C_10 
REMARK    6  A    between atoms: N_15  and  C_14 
REMARK    7  A    between atoms: N_20  and  C_19 
REMARK       I    between atoms: C_22  and  N_20 
ROOT
ATOM      1  C   LIG d   1      -1.394  79.730 115.477  0.00  0.00     0.161 C 
ATOM      2  C   LIG d   1      -1.675  81.074 115.179  0.00  0.00     0.016 C 
ATOM      3  C   LIG d   1      -2.034  81.526 113.888  0.00  0.00     0.038 C 
ATOM      4  C   LIG d   1      -2.284  80.635 112.833  0.00  0.00     0.028 C 
ATOM      5  C   LIG d   1      -1.523  79.319 112.958  0.00  0.00    -0.047 C 
ATOM      6  C   LIG d   1      -1.770  78.729 114.365  0.00  0.00     0.091 C 
ENDROOT
BRANCH   1   7
ATOM      7  O   LIG d   1      -2.028  79.363 116.718  0.00  0.00    -0.368 OA
BRANCH   7   8
ATOM      8  C   LIG d   1      -3.074  80.249 117.187  0.00  0.00     0.119 C 
BRANCH   8   9
ATOM      9  C   LIG d   1      -2.822  80.512 118.684  0.00  0.00     0.028 C 
ATOM     10  C   LIG d   1      -1.454  81.164 118.943  0.00  0.00     0.006 C 
ENDBRANCH   8   9
BRANCH   8  11
ATOM     11  C   LIG d   1      -4.447  79.574 117.119  0.00  0.00     0.028 C 
ATOM     12  C   LIG d   1      -5.598  80.528 117.478  0.00  0.00     0.006 C 
ENDBRANCH   8  11
ENDBRANCH   7   8
ENDBRANCH   1   7
BRANCH   6  13
ATOM     13  N   LIG d   1      -0.995  77.483 114.601  0.00  0.00    -0.311 N 
ATOM     14  C   LIG d   1      -1.495  76.262 114.419  0.00  0.00     0.210 C 
ATOM     15  C   LIG d   1      -0.533  75.114 114.740  0.00  0.00     0.109 C 
ATOM     16  O   LIG d   1      -2.635  76.021 113.993  0.00  0.00    -0.276 OA
ATOM     17  H   LIG d   1      -0.051  77.586 114.919  0.00  0.00     0.149 HD
ENDBRANCH   6  13
BRANCH   5  18
ATOM     18  N   LIG d   1      -1.982  78.434 111.871  0.00  0.00     0.381 N 
ATOM     19  H   LIG d   1      -2.080  77.499 112.214  0.00  0.00    -0.090 HD
ATOM     20  H   LIG d   1      -1.291  78.431 111.141  0.00  0.00    -0.090 HD
ATOM     21  H   LIG d   1      -2.853  78.758 111.513  0.00  0.00    -0.090 HD
ENDBRANCH   5  18
BRANCH   3  22
ATOM     22  C   LIG d   1      -2.106  82.887 113.631  0.00  0.00     0.382 C 
ATOM     23  O   LIG d   1      -1.696  83.341 112.536  0.00  0.00    -0.241 OA
ATOM     24  O   LIG d   1      -2.535  83.671 114.499  0.00  0.00    -0.241 OA
ENDBRANCH   3  22
TORSDOF 7
ENDMDL
MODEL 3
REMARK VINA RESULT:      -5.1      1.518      2.352
REMARK  7 active torsions:
REMARK  status: ('A' for Active; 'I' for Inactive)
REMARK    1  A    between atoms: C_2  and  C_3 
REMARK    2  A    between atoms: C_3  and  O_6 
REMARK    3  A    between atoms: C_3  and  C_4 
REMARK    4  A    between atoms: C_7  and  O_6 
REMARK    5  A    between atoms: C_9  and  C_10 
REMARK    6  A    between atoms: N_15  and  C_14 
REMARK    7  A    between atoms: N_20  and  C_19 
REMARK       I    between atoms: C_22  and  N_20 
ROOT
ATOM      1  C   LIG d   1      -2.207  80.546 114.845  0.00  0.00     0.161 C 
ATOM      2  C   LIG d   1      -2.260  81.943 114.704  0.00  0.00     0.016 C 
ATOM      3  C   LIG d   1      -1.751  82.632 113.580  0.00  0.00     0.038 C 
ATOM      4  C   LIG d   1      -1.286  81.954 112.443  0.00  0.00     0.028 C 
ATOM      5  C   LIG d   1      -0.749  80.559 112.747  0.00  0.00    -0.047 C 
ATOM      6  C   LIG d   1      -1.804  79.782 113.566  0.00  0.00     0.091 C 
ENDROOT
BRANCH   1   7
ATOM      7  O   LIG d   1      -3.467  80.057 115.345  0.00  0.00    -0.368 OA
BRANCH   7   8
ATOM      8  C   LIG d   1      -3.451  79.506 116.685  0.00  0.00     0.119 C 
BRANCH   8   9
ATOM      9  C   LIG d   1      -4.319  78.233 116.673  0.00  0.00     0.028 C 
ATOM     10  C   LIG d   1      -3.573  77.008 117.227  0.00  0.00     0.006 C 
ENDBRANCH   8   9
BRANCH   8  11
ATOM     11  C   LIG d   1      -4.128  80.450 117.683  0.00  0.00     0.028 C 
ATOM     12  C   LIG d   1      -5.653  80.509 117.507  0.00  0.00     0.006 C 
ENDBRANCH   8  11
ENDBRANCH   7   8
ENDBRANCH   1   7
BRANCH   6  13
ATOM     13  N   LIG d   1      -1.324  78.437 113.978  0.00  0.00    -0.311 N 
ATOM     14  C   LIG d   1      -2.038  77.324 113.818  0.00  0.00     0.210 C 
ATOM     15  C   LIG d   1      -1.365  76.046 114.329  0.00  0.00     0.109 C 
ATOM     16  O   LIG d   1      -3.150  77.269 113.271  0.00  0.00    -0.276 OA
ATOM     17  H   LIG d   1      -0.419  78.386 114.401  0.00  0.00     0.149 HD
ENDBRANCH   6  13
BRANCH   5  18
ATOM     18  N   LIG d   1      -0.427  79.915 111.459  0.00  0.00     0.381 N 
ATOM     19  H   LIG d   1      -0.958  80.340 110.726  0.00  0.00    -0.090 HD
ATOM     20  H   LIG d   1      -0.680  78.944 111.509  0.00  0.00    -0.090 HD
ATOM     21  H   LIG d   1       0.547  80.003 111.268  0.00  0.00    -0.090 HD
ENDBRANCH   5  18
BRANCH   3  22
ATOM     22  C   LIG d   1      -1.666  84.015 113.602  0.00  0.00     0.382 C 
ATOM     23  O   LIG d   1      -0.831  84.604 112.873  0.00  0.00    -0.241 OA
ATOM     24  O   LIG d   1      -2.383  84.680 114.373  0.00  0.00    -0.241 OA
ENDBRANCH   3  22
TORSDOF 7
ENDMDL
MODEL 4
REMARK VINA RESULT:      -5.0      2.154      2.700
REMARK  7 active torsions:
REMARK  status: ('A' for Active; 'I' for Inactive)
REMARK    1  A    between atoms: C_2  and  C_3 
REMARK    2  A    between atoms: C_3  and  O_6 
REMARK    3  A    between atoms: C_3  and  C_4 
REMARK    4  A    between atoms: C_7  and  O_6 
REMARK    5  A    between atoms: C_9  and  C_10 
REMARK    6  A    between atoms: N_15  and  C_14 
REMARK    7  A    between atoms: N_20  and  C_19 
REMARK       I    between atoms: C_22  and  N_20 
ROOT
ATOM      1  C   LIG d   1      -1.292  80.579 114.897  0.00  0.00     0.161 C 
ATOM      2  C   LIG d   1      -1.186  81.946 114.593  0.00  0.00     0.016 C 
ATOM      3  C   LIG d   1      -1.136  82.449 113.273  0.00  0.00     0.038 C 
ATOM      4  C   LIG d   1      -1.342  81.624 112.157  0.00  0.00     0.028 C 
ATOM      5  C   LIG d   1      -0.948  80.170 112.398  0.00  0.00    -0.047 C 
ATOM      6  C   LIG d   1      -1.629  79.674 113.693  0.00  0.00     0.091 C 
ENDROOT
BRANCH   1   7
ATOM      7  O   LIG d   1      -2.252  80.385 115.954  0.00  0.00    -0.368 OA
BRANCH   7   8
ATOM      8  C   LIG d   1      -1.730  79.870 117.203  0.00  0.00     0.119 C 
BRANCH   8   9
ATOM      9  C   LIG d   1      -1.851  80.991 118.253  0.00  0.00     0.028 C 
ATOM     10  C   LIG d   1      -0.531  81.755 118.451  0.00  0.00     0.006 C 
ENDBRANCH   8   9
BRANCH   8  11
ATOM     11  C   LIG d   1      -0.231  79.571 117.100  0.00  0.00     0.028 C 
ATOM     12  C   LIG d   1       0.106  78.103 117.405  0.00  0.00     0.006 C 
ENDBRANCH   8  11
ENDBRANCH   7   8
ENDBRANCH   1   7
BRANCH   6  13
ATOM     13  N   LIG d   1      -1.230  78.287 114.048  0.00  0.00    -0.311 N 
ATOM     14  C   LIG d   1      -2.104  77.313 114.297  0.00  0.00     0.210 C 
ATOM     15  C   LIG d   1      -1.481  75.963 114.663  0.00  0.00     0.109 C 
ATOM     16  O   LIG d   1      -3.336  77.432 114.218  0.00  0.00    -0.276 OA
ATOM     17  H   LIG d   1      -0.249  78.094 114.103  0.00  0.00     0.149 HD
ENDBRANCH   6  13
BRANCH   5  18
ATOM     18  N   LIG d   1      -1.342  79.398 111.204  0.00  0.00     0.381 N 
ATOM     19  H   LIG d   1      -2.133  78.825 111.418  0.00  0.00    -0.090 HD
ATOM     20  H   LIG d   1      -0.581  78.799 110.939  0.00  0.00    -0.090 HD
ATOM     21  H   LIG d   1      -1.564  80.017 110.456  0.00  0.00    -0.090 HD
ENDBRANCH   5  18
BRANCH   3  22
ATOM     22  C   LIG d   1      -0.838  83.786 113.057  0.00  0.00     0.382 C 
ATOM     23  O   LIG d   1       0.358  84.159 112.992  0.00  0.00    -0.241 OA
ATOM     24  O   LIG d   1      -1.749  84.630 112.971  0.00  0.00    -0.241 OA
ENDBRANCH   3  22
TORSDOF 7
ENDMDL
MODEL 5
REMARK VINA RESULT:      -5.0      2.457      5.426
REMARK  7 active torsions:
REMARK  status: ('A' for Active; 'I' for Inactive)
REMARK    1  A    between atoms: C_2  and  C_3 
REMARK    2  A    between atoms: C_3  and  O_6 
REMARK    3  A    between atoms: C_3  and  C_4 
REMARK    4  A    between atoms: C_7  and  O_6 
REMARK    5  A    between atoms: C_9  and  C_10 
REMARK    6  A    between atoms: N_15  and  C_14 
REMARK    7  A    between atoms: N_20  and  C_19 
REMARK       I    between atoms: C_22  and  N_20 
ROOT
ATOM      1  C   LIG d   1      -2.285  80.735 114.125  0.00  0.00     0.161 C 
ATOM      2  C   LIG d   1      -2.725  79.527 114.691  0.00  0.00     0.016 C 
ATOM      3  C   LIG d   1      -2.621  78.278 114.036  0.00  0.00     0.038 C 
ATOM      4  C   LIG d   1      -1.929  78.131 112.825  0.00  0.00     0.028 C 
ATOM      5  C   LIG d   1      -1.912  79.399 111.979  0.00  0.00    -0.047 C 
ATOM      6  C   LIG d   1      -1.427  80.579 112.852  0.00  0.00     0.091 C 
ENDROOT
BRANCH   1   7
ATOM      7  O   LIG d   1      -1.578  81.509 115.114  0.00  0.00    -0.368 OA
BRANCH   7   8
ATOM      8  C   LIG d   1      -0.203  81.126 115.359  0.00  0.00     0.119 C 
BRANCH   8   9
ATOM      9  C   LIG d   1      -0.095  80.710 116.839  0.00  0.00     0.028 C 
ATOM     10  C   LIG d   1      -1.173  81.372 117.715  0.00  0.00     0.006 C 
ENDBRANCH   8   9
BRANCH   8  11
ATOM     11  C   LIG d   1       0.744  82.319 115.203  0.00  0.00     0.028 C 
ATOM     12  C   LIG d   1       0.000  83.646 114.984  0.00  0.00     0.006 C 
ENDBRANCH   8  11
ENDBRANCH   7   8
ENDBRANCH   1   7
BRANCH   6  13
ATOM     13  N   LIG d   1      -1.461  81.874 112.125  0.00  0.00    -0.311 N 
ATOM     14  C   LIG d   1      -0.402  82.399 111.511  0.00  0.00     0.210 C 
ATOM     15  C   LIG d   1      -0.648  83.752 110.838  0.00  0.00     0.109 C 
ATOM     16  O   LIG d   1       0.711  81.856 111.433  0.00  0.00    -0.276 OA
ATOM     17  H   LIG d   1      -2.332  82.367 112.111  0.00  0.00     0.149 HD
ENDBRANCH   6  13
BRANCH   5  18
ATOM     18  N   LIG d   1      -1.043  79.147 110.814  0.00  0.00     0.381 N 
ATOM     19  H   LIG d   1      -1.501  78.524 110.178  0.00  0.00    -0.090 HD
ATOM     20  H   LIG d   1      -0.196  78.709 111.129  0.00  0.00    -0.090 HD
ATOM     21  H   LIG d   1      -0.831  80.005 110.354  0.00  0.00    -0.090 HD
ENDBRANCH   5  18
BRANCH   3  22
ATOM     22  C   LIG d   1      -3.250  77.165 114.574  0.00  0.00     0.382 C 
ATOM     23  O   LIG d   1      -3.999  77.290 115.573  0.00  0.00    -0.241 OA
ATOM     24  O   LIG d   1      -3.042  76.032 114.102  0.00  0.00    -0.241 OA
ENDBRANCH   3  22
TORSDOF 7
ENDMDL
MODEL 6
REMARK VINA RESULT:      -4.9      2.518      5.878
REMARK  7 active torsions:
REMARK  status: ('A' for Active; 'I' for Inactive)
REMARK    1  A    between atoms: C_2  and  C_3 
REMARK    2  A    between atoms: C_3  and  O_6 
REMARK    3  A    between atoms: C_3  and  C_4 
REMARK    4  A    between atoms: C_7  and  O_6 
REMARK    5  A    between atoms: C_9  and  C_10 
REMARK    6  A    between atoms: N_15  and  C_14 
REMARK    7  A    between atoms: N_20  and  C_19 
REMARK       I    between atoms: C_22  and  N_20 
ROOT
ATOM      1  C   LIG d   1      -3.050  78.630 115.930  0.00  0.00     0.161 C 
ATOM      2  C   LIG d   1      -2.241  77.590 115.443  0.00  0.00     0.016 C 
ATOM      3  C   LIG d   1      -2.377  76.243 115.849  0.00  0.00     0.038 C 
ATOM      4  C   LIG d   1      -3.437  75.817 116.662  0.00  0.00     0.028 C 
ATOM      5  C   LIG d   1      -3.975  76.910 117.579  0.00  0.00    -0.047 C 
ATOM      6  C   LIG d   1      -4.284  78.167 116.733  0.00  0.00     0.091 C 
ENDROOT
BRANCH   1   7
ATOM      7  O   LIG d   1      -3.453  79.486 114.843  0.00  0.00    -0.368 OA
BRANCH   7   8
ATOM      8  C   LIG d   1      -2.397  79.929 113.955  0.00  0.00     0.119 C 
BRANCH   8   9
ATOM      9  C   LIG d   1      -2.164  81.428 114.224  0.00  0.00     0.028 C 
ATOM     10  C   LIG d   1      -3.334  82.077 114.983  0.00  0.00     0.006 C 
ENDBRANCH   8   9
BRANCH   8  11
ATOM     11  C   LIG d   1      -2.829  79.842 112.489  0.00  0.00     0.028 C 
ATOM     12  C   LIG d   1      -3.019  78.395 112.008  0.00  0.00     0.006 C 
ENDBRANCH   8  11
ENDBRANCH   7   8
ENDBRANCH   1   7
BRANCH   6  13
ATOM     13  N   LIG d   1      -4.735  79.313 117.565  0.00  0.00    -0.311 N 
ATOM     14  C   LIG d   1      -6.017  79.584 117.805  0.00  0.00     0.210 C 
ATOM     15  C   LIG d   1      -6.264  80.824 118.671  0.00  0.00     0.109 C 
ATOM     16  O   LIG d   1      -6.971  78.898 117.411  0.00  0.00    -0.276 OA
ATOM     17  H   LIG d   1      -4.025  79.904 117.950  0.00  0.00     0.149 HD
ENDBRANCH   6  13
BRANCH   5  18
ATOM     18  N   LIG d   1      -5.162  76.371 118.268  0.00  0.00     0.381 N 
ATOM     19  H   LIG d   1      -5.787  77.117 118.501  0.00  0.00    -0.090 HD
ATOM     20  H   LIG d   1      -4.869  75.927 119.121  0.00  0.00    -0.090 HD
ATOM     21  H   LIG d   1      -5.625  75.710 117.683  0.00  0.00    -0.090 HD
ENDBRANCH   5  18
BRANCH   3  22
ATOM     22  C   LIG d   1      -1.421  75.312 115.472  0.00  0.00     0.382 C 
ATOM     23  O   LIG d   1      -1.136  75.161 114.260  0.00  0.00    -0.241 OA
ATOM     24  O   LIG d   1      -0.871  74.590 116.325  0.00  0.00    -0.241 OA
ENDBRANCH   3  22
TORSDOF 7
ENDMDL
MODEL 7
REMARK VINA RESULT:      -4.9      2.384      5.934
REMARK  7 active torsions:
REMARK  status: ('A' for Active; 'I' for Inactive)
REMARK    1  A    between atoms: C_2  and  C_3 
REMARK    2  A    between atoms: C_3  and  O_6 
REMARK    3  A    between atoms: C_3  and  C_4 
REMARK    4  A    between atoms: C_7  and  O_6 
REMARK    5  A    between atoms: C_9  and  C_10 
REMARK    6  A    between atoms: N_15  and  C_14 
REMARK    7  A    between atoms: N_20  and  C_19 
REMARK       I    between atoms: C_22  and  N_20 
ROOT
ATOM      1  C   LIG d   1      -2.705  78.275 115.083  0.00  0.00     0.161 C 
ATOM      2  C   LIG d   1      -1.870  77.227 114.659  0.00  0.00     0.016 C 
ATOM      3  C   LIG d   1      -1.796  75.977 115.314  0.00  0.00     0.038 C 
ATOM      4  C   LIG d   1      -2.670  75.633 116.356  0.00  0.00     0.028 C 
ATOM      5  C   LIG d   1      -3.179  76.837 117.141  0.00  0.00    -0.047 C 
ATOM      6  C   LIG d   1      -3.746  77.879 116.150  0.00  0.00     0.091 C 
ENDROOT
BRANCH   1   7
ATOM      7  O   LIG d   1      -3.356  78.872 113.944  0.00  0.00    -0.368 OA
BRANCH   7   8
ATOM      8  C   LIG d   1      -2.804  80.128 113.480  0.00  0.00     0.119 C 
BRANCH   8   9
ATOM      9  C   LIG d   1      -1.736  79.801 112.418  0.00  0.00     0.028 C 
ATOM     10  C   LIG d   1      -0.475  80.668 112.567  0.00  0.00     0.006 C 
ENDBRANCH   8   9
BRANCH   8  11
ATOM     11  C   LIG d   1      -2.052  80.854 114.600  0.00  0.00     0.028 C 
ATOM     12  C   LIG d   1      -2.828  82.059 115.155  0.00  0.00     0.006 C 
ENDBRANCH   8  11
ENDBRANCH   7   8
ENDBRANCH   1   7
BRANCH   6  13
ATOM     13  N   LIG d   1      -4.189  79.125 116.829  0.00  0.00    -0.311 N 
ATOM     14  C   LIG d   1      -5.430  79.316 117.274  0.00  0.00     0.210 C 
ATOM     15  C   LIG d   1      -5.680  80.680 117.926  0.00  0.00     0.109 C 
ATOM     16  O   LIG d   1      -6.339  78.474 117.219  0.00  0.00    -0.276 OA
ATOM     17  H   LIG d   1      -3.507  79.849 116.944  0.00  0.00     0.149 HD
ENDBRANCH   6  13
BRANCH   5  18
ATOM     18  N   LIG d   1      -4.184  76.349 118.104  0.00  0.00     0.381 N 
ATOM     19  H   LIG d   1      -4.638  75.536 117.738  0.00  0.00    -0.090 HD
ATOM     20  H   LIG d   1      -4.878  77.063 118.240  0.00  0.00    -0.090 HD
ATOM     21  H   LIG d   1      -3.747  76.131 118.973  0.00  0.00    -0.090 HD
ENDBRANCH   5  18
BRANCH   3  22
ATOM     22  C   LIG d   1      -0.812  75.069 114.953  0.00  0.00     0.382 C 
ATOM     23  O   LIG d   1      -0.465  74.965 113.752  0.00  0.00    -0.241 OA
ATOM     24  O   LIG d   1      -0.299  74.321 115.807  0.00  0.00    -0.241 OA
ENDBRANCH   3  22
TORSDOF 7
ENDMDL
MODEL 8
REMARK VINA RESULT:      -4.8      2.405      4.990
REMARK  7 active torsions:
REMARK  status: ('A' for Active; 'I' for Inactive)
REMARK    1  A    between atoms: C_2  and  C_3 
REMARK    2  A    between atoms: C_3  and  O_6 
REMARK    3  A    between atoms: C_3  and  C_4 
REMARK    4  A    between atoms: C_7  and  O_6 
REMARK    5  A    between atoms: C_9  and  C_10 
REMARK    6  A    between atoms: N_15  and  C_14 
REMARK    7  A    between atoms: N_20  and  C_19 
REMARK       I    between atoms: C_22  and  N_20 
ROOT
ATOM      1  C   LIG d   1      -1.904  79.849 114.877  0.00  0.00     0.161 C 
ATOM      2  C   LIG d   1      -2.439  78.586 115.178  0.00  0.00     0.016 C 
ATOM      3  C   LIG d   1      -2.640  77.575 114.210  0.00  0.00     0.038 C 
ATOM      4  C   LIG d   1      -2.176  77.707 112.893  0.00  0.00     0.028 C 
ATOM      5  C   LIG d   1      -2.087  79.156 112.425  0.00  0.00    -0.047 C 
ATOM      6  C   LIG d   1      -1.289  79.972 113.467  0.00  0.00     0.091 C 
ENDROOT
BRANCH   1   7
ATOM      7  O   LIG d   1      -0.937  80.222 115.879  0.00  0.00    -0.368 OA
BRANCH   7   8
ATOM      8  C   LIG d   1      -1.328  81.292 116.775  0.00  0.00     0.119 C 
BRANCH   8   9
ATOM      9  C   LIG d   1      -0.060  82.099 117.113  0.00  0.00     0.028 C 
ATOM     10  C   LIG d   1       0.402  82.984 115.944  0.00  0.00     0.006 C 
ENDBRANCH   8   9
BRANCH   8  11
ATOM     11  C   LIG d   1      -1.829  80.742 118.114  0.00  0.00     0.028 C 
ATOM     12  C   LIG d   1      -3.361  80.645 118.183  0.00  0.00     0.006 C 
ENDBRANCH   8  11
ENDBRANCH   7   8
ENDBRANCH   1   7
BRANCH   6  13
ATOM     13  N   LIG d   1      -1.227  81.417 113.128  0.00  0.00    -0.311 N 
ATOM     14  C   LIG d   1      -0.222  81.968 112.449  0.00  0.00     0.210 C 
ATOM     15  C   LIG d   1      -0.345  83.479 112.224  0.00  0.00     0.109 C 
ATOM     16  O   LIG d   1       0.743  81.344 111.984  0.00  0.00    -0.276 OA
ATOM     17  H   LIG d   1      -1.985  81.992 113.440  0.00  0.00     0.149 HD
ENDBRANCH   6  13
BRANCH   5  18
ATOM     18  N   LIG d   1      -1.461  79.154 111.089  0.00  0.00     0.381 N 
ATOM     19  H   LIG d   1      -1.711  79.989 110.597  0.00  0.00    -0.090 HD
ATOM     20  H   LIG d   1      -1.806  78.367 110.569  0.00  0.00    -0.090 HD
ATOM     21  H   LIG d   1      -0.470  79.096 111.177  0.00  0.00    -0.090 HD
ENDBRANCH   5  18
BRANCH   3  22
ATOM     22  C   LIG d   1      -3.348  76.432 114.548  0.00  0.00     0.382 C 
ATOM     23  O   LIG d   1      -4.103  75.890 113.704  0.00  0.00    -0.241 OA
ATOM     24  O   LIG d   1      -3.276  75.960 115.699  0.00  0.00    -0.241 OA
ENDBRANCH   3  22
TORSDOF 7
ENDMDL
MODEL 9
REMARK VINA RESULT:      -4.8      1.581      1.899
REMARK  7 active torsions:
REMARK  status: ('A' for Active; 'I' for Inactive)
REMARK    1  A    between atoms: C_2  and  C_3 
REMARK    2  A    between atoms: C_3  and  O_6 
REMARK    3  A    between atoms: C_3  and  C_4 
REMARK    4  A    between atoms: C_7  and  O_6 
REMARK    5  A    between atoms: C_9  and  C_10 
REMARK    6  A    between atoms: N_15  and  C_14 
REMARK    7  A    between atoms: N_20  and  C_19 
REMARK       I    between atoms: C_22  and  N_20 
ROOT
ATOM      1  C   LIG d   1      -2.628  79.589 116.700  0.00  0.00     0.161 C 
ATOM      2  C   LIG d   1      -2.988  80.625 115.822  0.00  0.00     0.016 C 
ATOM      3  C   LIG d   1      -2.812  80.553 114.421  0.00  0.00     0.038 C 
ATOM      4  C   LIG d   1      -2.401  79.372 113.785  0.00  0.00     0.028 C 
ATOM      5  C   LIG d   1      -1.549  78.471 114.672  0.00  0.00    -0.047 C 
ATOM      6  C   LIG d   1      -2.282  78.251 116.015  0.00  0.00     0.091 C 
ENDROOT
BRANCH   1   7
ATOM      7  O   LIG d   1      -3.668  79.396 117.680  0.00  0.00    -0.368 OA
BRANCH   7   8
ATOM      8  C   LIG d   1      -4.912  78.840 117.188  0.00  0.00     0.119 C 
BRANCH   8   9
ATOM      9  C   LIG d   1      -6.049  79.772 117.647  0.00  0.00     0.028 C 
ATOM     10  C   LIG d   1      -5.598  80.754 118.742  0.00  0.00     0.006 C 
ENDBRANCH   8   9
BRANCH   8  11
ATOM     11  C   LIG d   1      -5.211  77.485 117.836  0.00  0.00     0.028 C 
ATOM     12  C   LIG d   1      -4.454  77.277 119.158  0.00  0.00     0.006 C 
ENDBRANCH   8  11
ENDBRANCH   7   8
ENDBRANCH   1   7
BRANCH   6  13
ATOM     13  N   LIG d   1      -1.479  77.449 116.974  0.00  0.00    -0.311 N 
ATOM     14  C   LIG d   1      -1.606  76.131 117.114  0.00  0.00     0.210 C 
ATOM     15  C   LIG d   1      -0.695  75.502 118.174  0.00  0.00     0.109 C 
ATOM     16  O   LIG d   1      -2.363  75.417 116.439  0.00  0.00    -0.276 OA
ATOM     17  H   LIG d   1      -0.817  77.943 117.540  0.00  0.00     0.149 HD
ENDBRANCH   6  13
BRANCH   5  18
ATOM     18  N   LIG d   1      -1.307  77.218 113.933  0.00  0.00     0.381 N 
ATOM     19  H   LIG d   1      -1.706  76.448 114.432  0.00  0.00    -0.090 HD
ATOM     20  H   LIG d   1      -0.316  77.068 113.862  0.00  0.00    -0.090 HD
ATOM     21  H   LIG d   1      -1.707  77.276 113.022  0.00  0.00    -0.090 HD
ENDBRANCH   5  18
BRANCH   3  22
ATOM     22  C   LIG d   1      -3.010  81.685 113.644  0.00  0.00     0.382 C 
ATOM     23  O   LIG d   1      -2.560  82.792 114.024  0.00  0.00    -0.241 OA
ATOM     24  O   LIG d   1      -3.672  81.620 112.591  0.00  0.00    -0.241 OA
ENDBRANCH   3  22
TORSDOF 7
ENDMDL
