MODEL 1
REMARK VINA RESULT:      -4.9      0.000      0.000
REMARK  7 active torsions:
REMARK  status: ('A' for Active; 'I' for Inactive)
REMARK    1  A    between atoms: C_2  and  C_3 
REMARK    2  A    between atoms: C_3  and  O_6 
REMARK    3  A    between atoms: C_3  and  C_4 
REMARK    4  A    between atoms: C_7  and  O_6 
REMARK    5  A    between atoms: C_9  and  C_10 
REMARK    6  A    between atoms: N_15  and  C_14 
REMARK    7  A    between atoms: N_20  and  C_19 
REMARK       I    between atoms: C_22  and  N_20 
ROOT
ATOM      1  C   LIG d   1      -1.319  75.134 115.328  0.00  0.00     0.161 C 
ATOM      2  C   LIG d   1      -0.892  74.658 116.579  0.00  0.00     0.016 C 
ATOM      3  C   LIG d   1      -0.286  75.478 117.558  0.00  0.00     0.038 C 
ATOM      4  C   LIG d   1      -0.203  76.871 117.411  0.00  0.00     0.028 C 
ATOM      5  C   LIG d   1      -0.162  77.324 115.955  0.00  0.00    -0.047 C 
ATOM      6  C   LIG d   1      -1.337  76.671 115.193  0.00  0.00     0.091 C 
ENDROOT
BRANCH   1   7
ATOM      7  O   LIG d   1      -2.615  74.588 115.014  0.00  0.00    -0.368 OA
BRANCH   7   8
ATOM      8  C   LIG d   1      -3.755  75.410 115.365  0.00  0.00     0.119 C 
BRANCH   8   9
ATOM      9  C   LIG d   1      -4.346  74.848 116.673  0.00  0.00     0.028 C 
ATOM     10  C   LIG d   1      -4.125  75.789 117.869  0.00  0.00     0.006 C 
ENDBRANCH   8   9
BRANCH   8  11
ATOM     11  C   LIG d   1      -4.875  75.284 114.327  0.00  0.00     0.028 C 
ATOM     12  C   LIG d   1      -6.272  75.221 114.963  0.00  0.00     0.006 C 
ENDBRANCH   8  11
ENDBRANCH   7   8
ENDBRANCH   1   7
BRANCH   6  13
ATOM     13  N   LIG d   1      -1.323  76.996 113.743  0.00  0.00    -0.311 N 
ATOM     14  C   LIG d   1      -2.079  77.946 113.197  0.00  0.00     0.210 C 
ATOM     15  C   LIG d   1      -1.925  78.103 111.681  0.00  0.00     0.109 C 
ATOM     16  O   LIG d   1      -2.839  78.695 113.828  0.00  0.00    -0.276 OA
ATOM     17  H   LIG d   1      -0.711  76.457 113.161  0.00  0.00     0.149 HD
ENDBRANCH   6  13
BRANCH   5  18
ATOM     18  N   LIG d   1      -0.215  78.799 115.946  0.00  0.00     0.381 N 
ATOM     19  H   LIG d   1       0.630  79.165 115.556  0.00  0.00    -0.090 HD
ATOM     20  H   LIG d   1      -0.294  79.127 116.893  0.00  0.00    -0.090 HD
ATOM     21  H   LIG d   1      -0.998  79.108 115.413  0.00  0.00    -0.090 HD
ENDBRANCH   5  18
BRANCH   3  22
ATOM     22  C   LIG d   1       0.281  74.900 118.684  0.00  0.00     0.382 C 
ATOM     23  O   LIG d   1      -0.417  74.180 119.438  0.00  0.00    -0.241 OA
ATOM     24  O   LIG d   1       1.470  75.125 118.979  0.00  0.00    -0.241 OA
ENDBRANCH   3  22
TORSDOF 7
ENDMDL
MODEL 2
REMARK VINA RESULT:      -4.6      1.761      5.007
REMARK  7 active torsions:
REMARK  status: ('A' for Active; 'I' for Inactive)
REMARK    1  A    between atoms: C_2  and  C_3 
REMARK    2  A    between atoms: C_3  and  O_6 
REMARK    3  A    between atoms: C_3  and  C_4 
REMARK    4  A    between atoms: C_7  and  O_6 
REMARK    5  A    between atoms: C_9  and  C_10 
REMARK    6  A    between atoms: N_15  and  C_14 
REMARK    7  A    between atoms: N_20  and  C_19 
REMARK       I    between atoms: C_22  and  N_20 
ROOT
ATOM      1  C   LIG d   1      -2.804  77.046 115.239  0.00  0.00     0.161 C 
ATOM      2  C   LIG d   1      -2.985  77.922 114.156  0.00  0.00     0.016 C 
ATOM      3  C   LIG d   1      -2.095  78.978 113.853  0.00  0.00     0.038 C 
ATOM      4  C   LIG d   1      -0.875  79.137 114.528  0.00  0.00     0.028 C 
ATOM      5  C   LIG d   1      -0.894  78.588 115.950  0.00  0.00    -0.047 C 
ATOM      6  C   LIG d   1      -1.422  77.135 115.920  0.00  0.00     0.091 C 
ENDROOT
BRANCH   1   7
ATOM      7  O   LIG d   1      -3.071  75.692 114.823  0.00  0.00    -0.368 OA
BRANCH   7   8
ATOM      8  C   LIG d   1      -4.196  75.040 115.461  0.00  0.00     0.119 C 
BRANCH   8   9
ATOM      9  C   LIG d   1      -5.119  74.512 114.346  0.00  0.00     0.028 C 
ATOM     10  C   LIG d   1      -6.129  75.570 113.870  0.00  0.00     0.006 C 
ENDBRANCH   8   9
BRANCH   8  11
ATOM     11  C   LIG d   1      -5.046  76.039 116.252  0.00  0.00     0.028 C 
ATOM     12  C   LIG d   1      -5.004  75.790 117.767  0.00  0.00     0.006 C 
ENDBRANCH   8  11
ENDBRANCH   7   8
ENDBRANCH   1   7
BRANCH   6  13
ATOM     13  N   LIG d   1      -1.552  76.551 117.280  0.00  0.00    -0.311 N 
ATOM     14  C   LIG d   1      -1.130  75.328 117.596  0.00  0.00     0.210 C 
ATOM     15  C   LIG d   1      -1.379  74.913 119.050  0.00  0.00     0.109 C 
ATOM     16  O   LIG d   1      -0.544  74.559 116.819  0.00  0.00    -0.276 OA
ATOM     17  H   LIG d   1      -1.988  77.118 117.981  0.00  0.00     0.149 HD
ENDBRANCH   6  13
BRANCH   5  18
ATOM     18  N   LIG d   1       0.475  78.694 116.487  0.00  0.00     0.381 N 
ATOM     19  H   LIG d   1       0.674  79.646 116.722  0.00  0.00    -0.090 HD
ATOM     20  H   LIG d   1       1.126  78.402 115.780  0.00  0.00    -0.090 HD
ATOM     21  H   LIG d   1       0.571  78.118 117.295  0.00  0.00    -0.090 HD
ENDBRANCH   5  18
BRANCH   3  22
ATOM     22  C   LIG d   1      -2.441  79.914 112.890  0.00  0.00     0.382 C 
ATOM     23  O   LIG d   1      -1.657  80.157 111.941  0.00  0.00    -0.241 OA
ATOM     24  O   LIG d   1      -3.509  80.549 112.981  0.00  0.00    -0.241 OA
ENDBRANCH   3  22
TORSDOF 7
ENDMDL
MODEL 3
REMARK VINA RESULT:      -4.5      1.990      5.073
REMARK  7 active torsions:
REMARK  status: ('A' for Active; 'I' for Inactive)
REMARK    1  A    between atoms: C_2  and  C_3 
REMARK    2  A    between atoms: C_3  and  O_6 
REMARK    3  A    between atoms: C_3  and  C_4 
REMARK    4  A    between atoms: C_7  and  O_6 
REMARK    5  A    between atoms: C_9  and  C_10 
REMARK    6  A    between atoms: N_15  and  C_14 
REMARK    7  A    between atoms: N_20  and  C_19 
REMARK       I    between atoms: C_22  and  N_20 
ROOT
ATOM      1  C   LIG d   1      -2.042  77.744 116.601  0.00  0.00     0.161 C 
ATOM      2  C   LIG d   1      -2.556  78.521 115.550  0.00  0.00     0.016 C 
ATOM      3  C   LIG d   1      -2.222  78.312 114.192  0.00  0.00     0.038 C 
ATOM      4  C   LIG d   1      -1.464  77.207 113.777  0.00  0.00     0.028 C 
ATOM      5  C   LIG d   1      -0.510  76.689 114.848  0.00  0.00    -0.047 C 
ATOM      6  C   LIG d   1      -1.301  76.465 116.157  0.00  0.00     0.091 C 
ENDROOT
BRANCH   1   7
ATOM      7  O   LIG d   1      -3.096  77.416 117.528  0.00  0.00    -0.368 OA
BRANCH   7   8
ATOM      8  C   LIG d   1      -4.399  77.162 116.946  0.00  0.00     0.119 C 
BRANCH   8   9
ATOM      9  C   LIG d   1      -5.449  77.832 117.854  0.00  0.00     0.028 C 
ATOM     10  C   LIG d   1      -5.206  79.341 118.019  0.00  0.00     0.006 C 
ENDBRANCH   8   9
BRANCH   8  11
ATOM     11  C   LIG d   1      -4.738  75.669 116.968  0.00  0.00     0.028 C 
ATOM     12  C   LIG d   1      -4.668  75.022 115.575  0.00  0.00     0.006 C 
ENDBRANCH   8  11
ENDBRANCH   7   8
ENDBRANCH   1   7
BRANCH   6  13
ATOM     13  N   LIG d   1      -0.427  76.038 117.281  0.00  0.00    -0.311 N 
ATOM     14  C   LIG d   1      -0.677  74.972 118.040  0.00  0.00     0.210 C 
ATOM     15  C   LIG d   1       0.341  74.721 119.157  0.00  0.00     0.109 C 
ATOM     16  O   LIG d   1      -1.626  74.191 117.873  0.00  0.00    -0.276 OA
ATOM     17  H   LIG d   1       0.382  76.597 117.467  0.00  0.00     0.149 HD
ENDBRANCH   6  13
BRANCH   5  18
ATOM     18  N   LIG d   1       0.114  75.457 114.331  0.00  0.00     0.381 N 
ATOM     19  H   LIG d   1       0.983  75.295 114.800  0.00  0.00    -0.090 HD
ATOM     20  H   LIG d   1       0.301  75.574 113.351  0.00  0.00    -0.090 HD
ATOM     21  H   LIG d   1      -0.496  74.681 114.470  0.00  0.00    -0.090 HD
ENDBRANCH   5  18
BRANCH   3  22
ATOM     22  C   LIG d   1      -2.615  79.237 113.238  0.00  0.00     0.382 C 
ATOM     23  O   LIG d   1      -2.218  79.124 112.053  0.00  0.00    -0.241 OA
ATOM     24  O   LIG d   1      -3.327  80.209 113.555  0.00  0.00    -0.241 OA
ENDBRANCH   3  22
TORSDOF 7
ENDMDL
MODEL 4
REMARK VINA RESULT:      -4.3      3.016      4.110
REMARK  7 active torsions:
REMARK  status: ('A' for Active; 'I' for Inactive)
REMARK    1  A    between atoms: C_2  and  C_3 
REMARK    2  A    between atoms: C_3  and  O_6 
REMARK    3  A    between atoms: C_3  and  C_4 
REMARK    4  A    between atoms: C_7  and  O_6 
REMARK    5  A    between atoms: C_9  and  C_10 
REMARK    6  A    between atoms: N_15  and  C_14 
REMARK    7  A    between atoms: N_20  and  C_19 
REMARK       I    between atoms: C_22  and  N_20 
ROOT
ATOM      1  C   LIG d   1      -3.229  77.962 117.036  0.00  0.00     0.161 C 
ATOM      2  C   LIG d   1      -2.294  78.856 117.584  0.00  0.00     0.016 C 
ATOM      3  C   LIG d   1      -0.957  78.956 117.136  0.00  0.00     0.038 C 
ATOM      4  C   LIG d   1      -0.503  78.270 116.000  0.00  0.00     0.028 C 
ATOM      5  C   LIG d   1      -1.267  76.979 115.726  0.00  0.00    -0.047 C 
ATOM      6  C   LIG d   1      -2.783  77.285 115.723  0.00  0.00     0.091 C 
ENDROOT
BRANCH   1   7
ATOM      7  O   LIG d   1      -4.493  78.629 116.851  0.00  0.00    -0.368 OA
BRANCH   7   8
ATOM      8  C   LIG d   1      -5.450  78.493 117.930  0.00  0.00     0.119 C 
BRANCH   8   9
ATOM      9  C   LIG d   1      -6.528  77.493 117.469  0.00  0.00     0.028 C 
ATOM     10  C   LIG d   1      -6.319  76.089 118.062  0.00  0.00     0.006 C 
ENDBRANCH   8   9
BRANCH   8  11
ATOM     11  C   LIG d   1      -6.196  79.806 118.183  0.00  0.00     0.028 C 
ATOM     12  C   LIG d   1      -7.719  79.665 118.031  0.00  0.00     0.006 C 
ENDBRANCH   8  11
ENDBRANCH   7   8
ENDBRANCH   1   7
BRANCH   6  13
ATOM     13  N   LIG d   1      -3.607  76.061 115.545  0.00  0.00    -0.311 N 
ATOM     14  C   LIG d   1      -4.344  75.825 114.461  0.00  0.00     0.210 C 
ATOM     15  C   LIG d   1      -5.134  74.513 114.490  0.00  0.00     0.109 C 
ATOM     16  O   LIG d   1      -4.394  76.563 113.465  0.00  0.00    -0.276 OA
ATOM     17  H   LIG d   1      -3.601  75.395 116.292  0.00  0.00     0.149 HD
ENDBRANCH   6  13
BRANCH   5  18
ATOM     18  N   LIG d   1      -0.784  76.439 114.441  0.00  0.00     0.381 N 
ATOM     19  H   LIG d   1      -1.034  75.474 114.364  0.00  0.00    -0.090 HD
ATOM     20  H   LIG d   1       0.218  76.509 114.416  0.00  0.00    -0.090 HD
ATOM     21  H   LIG d   1      -1.179  76.954 113.685  0.00  0.00    -0.090 HD
ENDBRANCH   5  18
BRANCH   3  22
ATOM     22  C   LIG d   1      -0.048  79.720 117.852  0.00  0.00     0.382 C 
ATOM     23  O   LIG d   1       0.150  79.483 119.068  0.00  0.00    -0.241 OA
ATOM     24  O   LIG d   1       0.545  80.671 117.308  0.00  0.00    -0.241 OA
ENDBRANCH   3  22
TORSDOF 7
ENDMDL
MODEL 5
REMARK VINA RESULT:      -4.2      2.542      5.722
REMARK  7 active torsions:
REMARK  status: ('A' for Active; 'I' for Inactive)
REMARK    1  A    between atoms: C_2  and  C_3 
REMARK    2  A    between atoms: C_3  and  O_6 
REMARK    3  A    between atoms: C_3  and  C_4 
REMARK    4  A    between atoms: C_7  and  O_6 
REMARK    5  A    between atoms: C_9  and  C_10 
REMARK    6  A    between atoms: N_15  and  C_14 
REMARK    7  A    between atoms: N_20  and  C_19 
REMARK       I    between atoms: C_22  and  N_20 
ROOT
ATOM      1  C   LIG d   1      -3.289  75.417 115.309  0.00  0.00     0.161 C 
ATOM      2  C   LIG d   1      -4.628  75.507 114.894  0.00  0.00     0.016 C 
ATOM      3  C   LIG d   1      -5.689  75.857 115.760  0.00  0.00     0.038 C 
ATOM      4  C   LIG d   1      -5.462  76.291 117.074  0.00  0.00     0.028 C 
ATOM      5  C   LIG d   1      -4.180  75.732 117.683  0.00  0.00    -0.047 C 
ATOM      6  C   LIG d   1      -3.007  75.995 116.712  0.00  0.00     0.091 C 
ENDROOT
BRANCH   1   7
ATOM      7  O   LIG d   1      -2.431  76.036 114.331  0.00  0.00    -0.368 OA
BRANCH   7   8
ATOM      8  C   LIG d   1      -2.442  77.485 114.299  0.00  0.00     0.119 C 
BRANCH   8   9
ATOM      9  C   LIG d   1      -2.900  77.913 112.891  0.00  0.00     0.028 C 
ATOM     10  C   LIG d   1      -1.741  77.939 111.880  0.00  0.00     0.006 C 
ENDBRANCH   8   9
BRANCH   8  11
ATOM     11  C   LIG d   1      -1.031  78.057 114.458  0.00  0.00     0.028 C 
ATOM     12  C   LIG d   1      -0.901  78.996 115.667  0.00  0.00     0.006 C 
ENDBRANCH   8  11
ENDBRANCH   7   8
ENDBRANCH   1   7
BRANCH   6  13
ATOM     13  N   LIG d   1      -1.730  75.405 117.193  0.00  0.00    -0.311 N 
ATOM     14  C   LIG d   1      -0.894  76.038 118.014  0.00  0.00     0.210 C 
ATOM     15  C   LIG d   1       0.376  75.258 118.370  0.00  0.00     0.109 C 
ATOM     16  O   LIG d   1      -1.098  77.158 118.506  0.00  0.00    -0.276 OA
ATOM     17  H   LIG d   1      -1.501  74.486 116.867  0.00  0.00     0.149 HD
ENDBRANCH   6  13
BRANCH   5  18
ATOM     18  N   LIG d   1      -3.996  76.372 118.999  0.00  0.00     0.381 N 
ATOM     19  H   LIG d   1      -3.455  75.776 119.593  0.00  0.00    -0.090 HD
ATOM     20  H   LIG d   1      -4.897  76.507 119.424  0.00  0.00    -0.090 HD
ATOM     21  H   LIG d   1      -3.538  77.250 118.890  0.00  0.00    -0.090 HD
ENDBRANCH   5  18
BRANCH   3  22
ATOM     22  C   LIG d   1      -7.000  75.736 115.324  0.00  0.00     0.382 C 
ATOM     23  O   LIG d   1      -7.318  76.130 114.176  0.00  0.00    -0.241 OA
ATOM     24  O   LIG d   1      -7.878  75.278 116.080  0.00  0.00    -0.241 OA
ENDBRANCH   3  22
TORSDOF 7
ENDMDL
MODEL 6
REMARK VINA RESULT:      -4.2      2.049      4.840
REMARK  7 active torsions:
REMARK  status: ('A' for Active; 'I' for Inactive)
REMARK    1  A    between atoms: C_2  and  C_3 
REMARK    2  A    between atoms: C_3  and  O_6 
REMARK    3  A    between atoms: C_3  and  C_4 
REMARK    4  A    between atoms: C_7  and  O_6 
REMARK    5  A    between atoms: C_9  and  C_10 
REMARK    6  A    between atoms: N_15  and  C_14 
REMARK    7  A    between atoms: N_20  and  C_19 
REMARK       I    between atoms: C_22  and  N_20 
ROOT
ATOM      1  C   LIG d   1      -3.246  76.128 115.633  0.00  0.00     0.161 C 
ATOM      2  C   LIG d   1      -3.461  76.828 114.435  0.00  0.00     0.016 C 
ATOM      3  C   LIG d   1      -2.414  77.352 113.641  0.00  0.00     0.038 C 
ATOM      4  C   LIG d   1      -1.066  77.078 113.918  0.00  0.00     0.028 C 
ATOM      5  C   LIG d   1      -0.794  76.804 115.393  0.00  0.00    -0.047 C 
ATOM      6  C   LIG d   1      -1.780  75.723 115.893  0.00  0.00     0.091 C 
ENDROOT
BRANCH   1   7
ATOM      7  O   LIG d   1      -4.102  74.969 115.682  0.00  0.00    -0.368 OA
BRANCH   7   8
ATOM      8  C   LIG d   1      -5.184  75.015 116.644  0.00  0.00     0.119 C 
BRANCH   8   9
ATOM      9  C   LIG d   1      -6.469  74.576 115.917  0.00  0.00     0.028 C 
ATOM     10  C   LIG d   1      -7.121  75.727 115.131  0.00  0.00     0.006 C 
ENDBRANCH   8   9
BRANCH   8  11
ATOM     11  C   LIG d   1      -5.452  76.449 117.113  0.00  0.00     0.028 C 
ATOM     12  C   LIG d   1      -5.563  76.565 118.641  0.00  0.00     0.006 C 
ENDBRANCH   8  11
ENDBRANCH   7   8
ENDBRANCH   1   7
BRANCH   6  13
ATOM     13  N   LIG d   1      -1.638  75.456 117.348  0.00  0.00    -0.311 N 
ATOM     14  C   LIG d   1      -1.815  76.386 118.285  0.00  0.00     0.210 C 
ATOM     15  C   LIG d   1      -1.600  75.903 119.723  0.00  0.00     0.109 C 
ATOM     16  O   LIG d   1      -2.161  77.556 118.064  0.00  0.00    -0.276 OA
ATOM     17  H   LIG d   1      -1.389  74.524 117.618  0.00  0.00     0.149 HD
ENDBRANCH   6  13
BRANCH   5  18
ATOM     18  N   LIG d   1       0.619  76.399 115.517  0.00  0.00     0.381 N 
ATOM     19  H   LIG d   1       0.983  76.156 114.617  0.00  0.00    -0.090 HD
ATOM     20  H   LIG d   1       0.674  75.589 116.109  0.00  0.00    -0.090 HD
ATOM     21  H   LIG d   1       1.154  77.143 115.910  0.00  0.00    -0.090 HD
ENDBRANCH   5  18
BRANCH   3  22
ATOM     22  C   LIG d   1      -2.711  78.193 112.580  0.00  0.00     0.382 C 
ATOM     23  O   LIG d   1      -3.336  79.262 112.783  0.00  0.00    -0.241 OA
ATOM     24  O   LIG d   1      -2.402  77.875 111.416  0.00  0.00    -0.241 OA
ENDBRANCH   3  22
TORSDOF 7
ENDMDL
MODEL 7
REMARK VINA RESULT:      -4.1      2.828      5.377
REMARK  7 active torsions:
REMARK  status: ('A' for Active; 'I' for Inactive)
REMARK    1  A    between atoms: C_2  and  C_3 
REMARK    2  A    between atoms: C_3  and  O_6 
REMARK    3  A    between atoms: C_3  and  C_4 
REMARK    4  A    between atoms: C_7  and  O_6 
REMARK    5  A    between atoms: C_9  and  C_10 
REMARK    6  A    between atoms: N_15  and  C_14 
REMARK    7  A    between atoms: N_20  and  C_19 
REMARK       I    between atoms: C_22  and  N_20 
ROOT
ATOM      1  C   LIG d   1      -1.408  79.448 114.579  0.00  0.00     0.161 C 
ATOM      2  C   LIG d   1      -2.173  78.319 114.918  0.00  0.00     0.016 C 
ATOM      3  C   LIG d   1      -2.623  77.371 113.970  0.00  0.00     0.038 C 
ATOM      4  C   LIG d   1      -2.209  77.408 112.630  0.00  0.00     0.028 C 
ATOM      5  C   LIG d   1      -1.852  78.809 112.145  0.00  0.00    -0.047 C 
ATOM      6  C   LIG d   1      -0.854  79.445 113.139  0.00  0.00     0.091 C 
ENDROOT
BRANCH   1   7
ATOM      7  O   LIG d   1      -0.337  79.616 115.528  0.00  0.00    -0.368 OA
BRANCH   7   8
ATOM      8  C   LIG d   1      -0.508  78.954 116.806  0.00  0.00     0.119 C 
BRANCH   8   9
ATOM      9  C   LIG d   1      -0.199  79.988 117.907  0.00  0.00     0.028 C 
ATOM     10  C   LIG d   1      -1.237  79.964 119.041  0.00  0.00     0.006 C 
ENDBRANCH   8   9
BRANCH   8  11
ATOM     11  C   LIG d   1       0.522  77.837 116.998  0.00  0.00     0.028 C 
ATOM     12  C   LIG d   1      -0.104  76.532 117.513  0.00  0.00     0.006 C 
ENDBRANCH   8  11
ENDBRANCH   7   8
ENDBRANCH   1   7
BRANCH   6  13
ATOM     13  N   LIG d   1      -0.517  80.848 112.784  0.00  0.00    -0.311 N 
ATOM     14  C   LIG d   1       0.425  81.175 111.901  0.00  0.00     0.210 C 
ATOM     15  C   LIG d   1       0.626  82.680 111.697  0.00  0.00     0.109 C 
ATOM     16  O   LIG d   1       1.091  80.362 111.243  0.00  0.00    -0.276 OA
ATOM     17  H   LIG d   1      -1.031  81.572 113.247  0.00  0.00     0.149 HD
ENDBRANCH   6  13
BRANCH   5  18
ATOM     18  N   LIG d   1      -1.308  78.683 110.780  0.00  0.00     0.381 N 
ATOM     19  H   LIG d   1      -0.776  79.498 110.550  0.00  0.00    -0.090 HD
ATOM     20  H   LIG d   1      -2.071  78.611 110.131  0.00  0.00    -0.090 HD
ATOM     21  H   LIG d   1      -0.731  77.873 110.716  0.00  0.00    -0.090 HD
ENDBRANCH   5  18
BRANCH   3  22
ATOM     22  C   LIG d   1      -3.530  76.395 114.353  0.00  0.00     0.382 C 
ATOM     23  O   LIG d   1      -3.301  75.688 115.364  0.00  0.00    -0.241 OA
ATOM     24  O   LIG d   1      -4.553  76.182 113.674  0.00  0.00    -0.241 OA
ENDBRANCH   3  22
TORSDOF 7
ENDMDL
MODEL 8
REMARK VINA RESULT:      -4.1      2.338      5.472
REMARK  7 active torsions:
REMARK  status: ('A' for Active; 'I' for Inactive)
REMARK    1  A    between atoms: C_2  and  C_3 
REMARK    2  A    between atoms: C_3  and  O_6 
REMARK    3  A    between atoms: C_3  and  C_4 
REMARK    4  A    between atoms: C_7  and  O_6 
REMARK    5  A    between atoms: C_9  and  C_10 
REMARK    6  A    between atoms: N_15  and  C_14 
REMARK    7  A    between atoms: N_20  and  C_19 
REMARK       I    between atoms: C_22  and  N_20 
ROOT
ATOM      1  C   LIG d   1      -0.961  75.567 115.850  0.00  0.00     0.161 C 
ATOM      2  C   LIG d   1      -2.219  75.377 115.255  0.00  0.00     0.016 C 
ATOM      3  C   LIG d   1      -3.350  74.905 115.960  0.00  0.00     0.038 C 
ATOM      4  C   LIG d   1      -3.338  74.734 117.352  0.00  0.00     0.028 C 
ATOM      5  C   LIG d   1      -1.952  74.430 117.912  0.00  0.00    -0.047 C 
ATOM      6  C   LIG d   1      -0.956  75.491 117.391  0.00  0.00     0.091 C 
ENDROOT
BRANCH   1   7
ATOM      7  O   LIG d   1      -0.395  76.817 115.408  0.00  0.00    -0.368 OA
BRANCH   7   8
ATOM      8  C   LIG d   1      -1.275  77.967 115.456  0.00  0.00     0.119 C 
BRANCH   8   9
ATOM      9  C   LIG d   1      -1.281  78.604 114.053  0.00  0.00     0.028 C 
ATOM     10  C   LIG d   1      -2.551  79.430 113.789  0.00  0.00     0.006 C 
ENDBRANCH   8   9
BRANCH   8  11
ATOM     11  C   LIG d   1      -0.726  79.050 116.390  0.00  0.00     0.028 C 
ATOM     12  C   LIG d   1      -1.329  78.980 117.802  0.00  0.00     0.006 C 
ENDBRANCH   8  11
ENDBRANCH   7   8
ENDBRANCH   1   7
BRANCH   6  13
ATOM     13  N   LIG d   1       0.439  75.219 117.824  0.00  0.00    -0.311 N 
ATOM     14  C   LIG d   1       0.981  75.741 118.923  0.00  0.00     0.210 C 
ATOM     15  C   LIG d   1       2.440  75.348 119.174  0.00  0.00     0.109 C 
ATOM     16  O   LIG d   1       0.381  76.467 119.731  0.00  0.00    -0.276 OA
ATOM     17  H   LIG d   1       0.988  74.616 117.243  0.00  0.00     0.149 HD
ENDBRANCH   6  13
BRANCH   5  18
ATOM     18  N   LIG d   1      -2.060  74.412 119.383  0.00  0.00     0.381 N 
ATOM     19  H   LIG d   1      -1.184  74.672 119.791  0.00  0.00    -0.090 HD
ATOM     20  H   LIG d   1      -2.281  73.478 119.682  0.00  0.00    -0.090 HD
ATOM     21  H   LIG d   1      -2.773  75.041 119.681  0.00  0.00    -0.090 HD
ENDBRANCH   5  18
BRANCH   3  22
ATOM     22  C   LIG d   1      -4.500  74.562 115.265  0.00  0.00     0.382 C 
ATOM     23  O   LIG d   1      -4.509  74.602 114.011  0.00  0.00    -0.241 OA
ATOM     24  O   LIG d   1      -5.540  74.255 115.876  0.00  0.00    -0.241 OA
ENDBRANCH   3  22
TORSDOF 7
ENDMDL
MODEL 9
REMARK VINA RESULT:      -4.0      2.082      5.269
REMARK  7 active torsions:
REMARK  status: ('A' for Active; 'I' for Inactive)
REMARK    1  A    between atoms: C_2  and  C_3 
REMARK    2  A    between atoms: C_3  and  O_6 
REMARK    3  A    between atoms: C_3  and  C_4 
REMARK    4  A    between atoms: C_7  and  O_6 
REMARK    5  A    between atoms: C_9  and  C_10 
REMARK    6  A    between atoms: N_15  and  C_14 
REMARK    7  A    between atoms: N_20  and  C_19 
REMARK       I    between atoms: C_22  and  N_20 
ROOT
ATOM      1  C   LIG d   1      -1.447  76.626 114.933  0.00  0.00     0.161 C 
ATOM      2  C   LIG d   1      -2.718  76.168 114.547  0.00  0.00     0.016 C 
ATOM      3  C   LIG d   1      -3.609  75.513 115.428  0.00  0.00     0.038 C 
ATOM      4  C   LIG d   1      -3.348  75.404 116.802  0.00  0.00     0.028 C 
ATOM      5  C   LIG d   1      -1.860  75.402 117.137  0.00  0.00    -0.047 C 
ATOM      6  C   LIG d   1      -1.190  76.615 116.454  0.00  0.00     0.091 C 
ENDROOT
BRANCH   1   7
ATOM      7  O   LIG d   1      -1.218  77.943 114.395  0.00  0.00    -0.368 OA
BRANCH   7   8
ATOM      8  C   LIG d   1      -2.121  78.368 113.344  0.00  0.00     0.119 C 
BRANCH   8   9
ATOM      9  C   LIG d   1      -1.265  78.707 112.108  0.00  0.00     0.028 C 
ATOM     10  C   LIG d   1      -1.651  77.867 110.878  0.00  0.00     0.006 C 
ENDBRANCH   8   9
BRANCH   8  11
ATOM     11  C   LIG d   1      -2.832  79.673 113.714  0.00  0.00     0.028 C 
ATOM     12  C   LIG d   1      -2.521  80.819 112.739  0.00  0.00     0.006 C 
ENDBRANCH   8  11
ENDBRANCH   7   8
ENDBRANCH   1   7
BRANCH   6  13
ATOM     13  N   LIG d   1       0.281  76.641 116.661  0.00  0.00    -0.311 N 
ATOM     14  C   LIG d   1       0.872  77.330 117.636  0.00  0.00     0.210 C 
ATOM     15  C   LIG d   1       2.401  77.236 117.659  0.00  0.00     0.109 C 
ATOM     16  O   LIG d   1       0.274  77.984 118.503  0.00  0.00    -0.276 OA
ATOM     17  H   LIG d   1       0.842  76.113 116.022  0.00  0.00     0.149 HD
ENDBRANCH   6  13
BRANCH   5  18
ATOM     18  N   LIG d   1      -1.735  75.423 118.607  0.00  0.00     0.381 N 
ATOM     19  H   LIG d   1      -1.021  76.070 118.876  0.00  0.00    -0.090 HD
ATOM     20  H   LIG d   1      -1.467  74.508 118.924  0.00  0.00    -0.090 HD
ATOM     21  H   LIG d   1      -2.603  75.685 119.019  0.00  0.00    -0.090 HD
ENDBRANCH   5  18
BRANCH   3  22
ATOM     22  C   LIG d   1      -4.760  74.922 114.927  0.00  0.00     0.382 C 
ATOM     23  O   LIG d   1      -5.454  74.180 115.663  0.00  0.00    -0.241 OA
ATOM     24  O   LIG d   1      -5.088  75.086 113.737  0.00  0.00    -0.241 OA
ENDBRANCH   3  22
TORSDOF 7
ENDMDL
