MODEL 1
REMARK VINA RESULT:      -5.1      0.000      0.000
REMARK  7 active torsions:
REMARK  status: ('A' for Active; 'I' for Inactive)
REMARK    1  A    between atoms: C_2  and  C_3 
REMARK    2  A    between atoms: C_3  and  O_6 
REMARK    3  A    between atoms: C_3  and  C_4 
REMARK    4  A    between atoms: C_7  and  O_6 
REMARK    5  A    between atoms: C_9  and  C_10 
REMARK    6  A    between atoms: N_15  and  C_14 
REMARK    7  A    between atoms: N_20  and  C_19 
REMARK       I    between atoms: C_22  and  N_20 
ROOT
ATOM      1  C   LIG d   1      -2.416  78.308 114.859  0.00  0.00     0.161 C 
ATOM      2  C   LIG d   1      -2.822  79.287 113.937  0.00  0.00     0.016 C 
ATOM      3  C   LIG d   1      -1.982  80.335 113.494  0.00  0.00     0.038 C 
ATOM      4  C   LIG d   1      -0.622  80.388 113.831  0.00  0.00     0.028 C 
ATOM      5  C   LIG d   1      -0.300  79.709 115.159  0.00  0.00    -0.047 C 
ATOM      6  C   LIG d   1      -0.901  78.285 115.152  0.00  0.00     0.091 C 
ENDROOT
BRANCH   1   7
ATOM      7  O   LIG d   1      -2.861  77.009 114.420  0.00  0.00    -0.368 OA
BRANCH   7   8
ATOM      8  C   LIG d   1      -3.972  76.435 115.153  0.00  0.00     0.119 C 
BRANCH   8   9
ATOM      9  C   LIG d   1      -3.472  75.134 115.808  0.00  0.00     0.028 C 
ATOM     10  C   LIG d   1      -3.790  75.073 117.311  0.00  0.00     0.006 C 
ENDBRANCH   8   9
BRANCH   8  11
ATOM     11  C   LIG d   1      -5.099  76.007 114.209  0.00  0.00     0.028 C 
ATOM     12  C   LIG d   1      -6.482  76.038 114.879  0.00  0.00     0.006 C 
ENDBRANCH   8  11
ENDBRANCH   7   8
ENDBRANCH   1   7
BRANCH   6  13
ATOM     13  N   LIG d   1      -0.704  77.581 116.447  0.00  0.00    -0.311 N 
ATOM     14  C   LIG d   1      -0.269  76.326 116.540  0.00  0.00     0.210 C 
ATOM     15  C   LIG d   1      -0.156  75.785 117.969  0.00  0.00     0.109 C 
ATOM     16  O   LIG d   1       0.065  75.620 115.576  0.00  0.00    -0.276 OA
ATOM     17  H   LIG d   1      -0.922  78.091 117.281  0.00  0.00     0.149 HD
ENDBRANCH   6  13
BRANCH   5  18
ATOM     18  N   LIG d   1       1.166  79.717 115.319  0.00  0.00     0.381 N 
ATOM     19  H   LIG d   1       1.557  80.493 114.823  0.00  0.00    -0.090 HD
ATOM     20  H   LIG d   1       1.541  78.871 114.927  0.00  0.00    -0.090 HD
ATOM     21  H   LIG d   1       1.403  79.777 116.285  0.00  0.00    -0.090 HD
ENDBRANCH   5  18
BRANCH   3  22
ATOM     22  C   LIG d   1      -2.514  81.368 112.736  0.00  0.00     0.382 C 
ATOM     23  O   LIG d   1      -3.750  81.424 112.534  0.00  0.00    -0.241 OA
ATOM     24  O   LIG d   1      -1.767  82.218 112.216  0.00  0.00    -0.241 OA
ENDBRANCH   3  22
TORSDOF 7
ENDMDL
MODEL 2
REMARK VINA RESULT:      -4.9      2.804      3.541
REMARK  7 active torsions:
REMARK  status: ('A' for Active; 'I' for Inactive)
REMARK    1  A    between atoms: C_2  and  C_3 
REMARK    2  A    between atoms: C_3  and  O_6 
REMARK    3  A    between atoms: C_3  and  C_4 
REMARK    4  A    between atoms: C_7  and  O_6 
REMARK    5  A    between atoms: C_9  and  C_10 
REMARK    6  A    between atoms: N_15  and  C_14 
REMARK    7  A    between atoms: N_20  and  C_19 
REMARK       I    between atoms: C_22  and  N_20 
ROOT
ATOM      1  C   LIG d   1      -2.921  79.444 115.927  0.00  0.00     0.161 C 
ATOM      2  C   LIG d   1      -2.829  80.651 115.214  0.00  0.00     0.016 C 
ATOM      3  C   LIG d   1      -2.338  80.737 113.891  0.00  0.00     0.038 C 
ATOM      4  C   LIG d   1      -2.045  79.594 113.133  0.00  0.00     0.028 C 
ATOM      5  C   LIG d   1      -1.645  78.391 113.981  0.00  0.00    -0.047 C 
ATOM      6  C   LIG d   1      -2.712  78.173 115.078  0.00  0.00     0.091 C 
ENDROOT
BRANCH   1   7
ATOM      7  O   LIG d   1      -4.184  79.381 116.619  0.00  0.00    -0.368 OA
BRANCH   7   8
ATOM      8  C   LIG d   1      -4.629  80.609 117.248  0.00  0.00     0.119 C 
BRANCH   8   9
ATOM      9  C   LIG d   1      -3.905  80.723 118.603  0.00  0.00     0.028 C 
ATOM     10  C   LIG d   1      -3.333  82.130 118.847  0.00  0.00     0.006 C 
ENDBRANCH   8   9
BRANCH   8  11
ATOM     11  C   LIG d   1      -6.121  80.552 117.588  0.00  0.00     0.028 C 
ATOM     12  C   LIG d   1      -6.677  79.120 117.591  0.00  0.00     0.006 C 
ENDBRANCH   8  11
ENDBRANCH   7   8
ENDBRANCH   1   7
BRANCH   6  13
ATOM     13  N   LIG d   1      -2.354  77.067 116.004  0.00  0.00    -0.311 N 
ATOM     14  C   LIG d   1      -2.760  75.810 115.836  0.00  0.00     0.210 C 
ATOM     15  C   LIG d   1      -2.295  74.830 116.917  0.00  0.00     0.109 C 
ATOM     16  O   LIG d   1      -3.434  75.407 114.876  0.00  0.00    -0.276 OA
ATOM     17  H   LIG d   1      -1.784  77.299 116.794  0.00  0.00     0.149 HD
ENDBRANCH   6  13
BRANCH   5  18
ATOM     18  N   LIG d   1      -1.503  77.235 113.075  0.00  0.00     0.381 N 
ATOM     19  H   LIG d   1      -1.754  76.395 113.556  0.00  0.00    -0.090 HD
ATOM     20  H   LIG d   1      -0.541  77.160 112.792  0.00  0.00    -0.090 HD
ATOM     21  H   LIG d   1      -2.084  77.355 112.275  0.00  0.00    -0.090 HD
ENDBRANCH   5  18
BRANCH   3  22
ATOM     22  C   LIG d   1      -2.097  81.981 113.327  0.00  0.00     0.382 C 
ATOM     23  O   LIG d   1      -1.998  82.993 114.061  0.00  0.00    -0.241 OA
ATOM     24  O   LIG d   1      -2.021  82.110 112.091  0.00  0.00    -0.241 OA
ENDBRANCH   3  22
TORSDOF 7
ENDMDL
MODEL 3
REMARK VINA RESULT:      -4.8      3.426      6.892
REMARK  7 active torsions:
REMARK  status: ('A' for Active; 'I' for Inactive)
REMARK    1  A    between atoms: C_2  and  C_3 
REMARK    2  A    between atoms: C_3  and  O_6 
REMARK    3  A    between atoms: C_3  and  C_4 
REMARK    4  A    between atoms: C_7  and  O_6 
REMARK    5  A    between atoms: C_9  and  C_10 
REMARK    6  A    between atoms: N_15  and  C_14 
REMARK    7  A    between atoms: N_20  and  C_19 
REMARK       I    between atoms: C_22  and  N_20 
ROOT
ATOM      1  C   LIG d   1      -0.636  80.946 112.439  0.00  0.00     0.161 C 
ATOM      2  C   LIG d   1      -1.373  79.785 112.154  0.00  0.00     0.016 C 
ATOM      3  C   LIG d   1      -2.368  79.265 113.013  0.00  0.00     0.038 C 
ATOM      4  C   LIG d   1      -2.801  79.960 114.153  0.00  0.00     0.028 C 
ATOM      5  C   LIG d   1      -1.736  80.877 114.744  0.00  0.00    -0.047 C 
ATOM      6  C   LIG d   1      -1.172  81.778 113.623  0.00  0.00     0.091 C 
ENDROOT
BRANCH   1   7
ATOM      7  O   LIG d   1      -0.536  81.764 111.257  0.00  0.00    -0.368 OA
BRANCH   7   8
ATOM      8  C   LIG d   1       0.725  81.704 110.545  0.00  0.00     0.119 C 
BRANCH   8   9
ATOM      9  C   LIG d   1       0.916  83.054 109.827  0.00  0.00     0.028 C 
ATOM     10  C   LIG d   1      -0.162  84.082 110.213  0.00  0.00     0.006 C 
ENDBRANCH   8   9
BRANCH   8  11
ATOM     11  C   LIG d   1       0.686  80.655 109.430  0.00  0.00     0.028 C 
ATOM     12  C   LIG d   1       1.646  79.481 109.683  0.00  0.00     0.006 C 
ENDBRANCH   8  11
ENDBRANCH   7   8
ENDBRANCH   1   7
BRANCH   6  13
ATOM     13  N   LIG d   1      -0.064  82.648 114.099  0.00  0.00    -0.311 N 
ATOM     14  C   LIG d   1      -0.078  83.976 113.993  0.00  0.00     0.210 C 
ATOM     15  C   LIG d   1       1.173  84.680 114.529  0.00  0.00     0.109 C 
ATOM     16  O   LIG d   1      -1.021  84.640 113.537  0.00  0.00    -0.276 OA
ATOM     17  H   LIG d   1       0.727  82.195 114.512  0.00  0.00     0.149 HD
ENDBRANCH   6  13
BRANCH   5  18
ATOM     18  N   LIG d   1      -2.364  81.640 115.839  0.00  0.00     0.381 N 
ATOM     19  H   LIG d   1      -3.068  82.247 115.469  0.00  0.00    -0.090 HD
ATOM     20  H   LIG d   1      -1.663  82.205 116.285  0.00  0.00    -0.090 HD
ATOM     21  H   LIG d   1      -2.768  81.016 116.502  0.00  0.00    -0.090 HD
ENDBRANCH   5  18
BRANCH   3  22
ATOM     22  C   LIG d   1      -2.913  78.016 112.757  0.00  0.00     0.382 C 
ATOM     23  O   LIG d   1      -2.345  76.984 113.188  0.00  0.00    -0.241 OA
ATOM     24  O   LIG d   1      -3.941  77.906 112.062  0.00  0.00    -0.241 OA
ENDBRANCH   3  22
TORSDOF 7
ENDMDL
MODEL 4
REMARK VINA RESULT:      -4.6      2.968      4.253
REMARK  7 active torsions:
REMARK  status: ('A' for Active; 'I' for Inactive)
REMARK    1  A    between atoms: C_2  and  C_3 
REMARK    2  A    between atoms: C_3  and  O_6 
REMARK    3  A    between atoms: C_3  and  C_4 
REMARK    4  A    between atoms: C_7  and  O_6 
REMARK    5  A    between atoms: C_9  and  C_10 
REMARK    6  A    between atoms: N_15  and  C_14 
REMARK    7  A    between atoms: N_20  and  C_19 
REMARK       I    between atoms: C_22  and  N_20 
ROOT
ATOM      1  C   LIG d   1      -2.592  80.551 115.241  0.00  0.00     0.161 C 
ATOM      2  C   LIG d   1      -2.263  81.616 114.386  0.00  0.00     0.016 C 
ATOM      3  C   LIG d   1      -1.728  81.436 113.089  0.00  0.00     0.038 C 
ATOM      4  C   LIG d   1      -1.626  80.168 112.499  0.00  0.00     0.028 C 
ATOM      5  C   LIG d   1      -1.474  79.038 113.512  0.00  0.00    -0.047 C 
ATOM      6  C   LIG d   1      -2.592  79.161 114.572  0.00  0.00     0.091 C 
ENDROOT
BRANCH   1   7
ATOM      7  O   LIG d   1      -3.864  80.805 115.870  0.00  0.00    -0.368 OA
BRANCH   7   8
ATOM      8  C   LIG d   1      -3.859  80.865 117.317  0.00  0.00     0.119 C 
BRANCH   8   9
ATOM      9  C   LIG d   1      -5.298  80.593 117.797  0.00  0.00     0.028 C 
ATOM     10  C   LIG d   1      -6.209  81.823 117.647  0.00  0.00     0.006 C 
ENDBRANCH   8   9
BRANCH   8  11
ATOM     11  C   LIG d   1      -3.525  82.275 117.815  0.00  0.00     0.028 C 
ATOM     12  C   LIG d   1      -2.780  82.271 119.159  0.00  0.00     0.006 C 
ENDBRANCH   8  11
ENDBRANCH   7   8
ENDBRANCH   1   7
BRANCH   6  13
ATOM     13  N   LIG d   1      -2.467  78.144 115.649  0.00  0.00    -0.311 N 
ATOM     14  C   LIG d   1      -3.413  77.248 115.925  0.00  0.00     0.210 C 
ATOM     15  C   LIG d   1      -3.090  76.304 117.087  0.00  0.00     0.109 C 
ATOM     16  O   LIG d   1      -4.476  77.126 115.298  0.00  0.00    -0.276 OA
ATOM     17  H   LIG d   1      -1.623  78.152 116.187  0.00  0.00     0.149 HD
ENDBRANCH   6  13
BRANCH   5  18
ATOM     18  N   LIG d   1      -1.518  77.764 112.769  0.00  0.00     0.381 N 
ATOM     19  H   LIG d   1      -0.621  77.323 112.800  0.00  0.00    -0.090 HD
ATOM     20  H   LIG d   1      -1.742  77.956 111.809  0.00  0.00    -0.090 HD
ATOM     21  H   LIG d   1      -2.206  77.163 113.165  0.00  0.00    -0.090 HD
ENDBRANCH   5  18
BRANCH   3  22
ATOM     22  C   LIG d   1      -1.251  82.531 112.385  0.00  0.00     0.382 C 
ATOM     23  O   LIG d   1      -1.022  82.434 111.155  0.00  0.00    -0.241 OA
ATOM     24  O   LIG d   1      -1.004  83.601 112.972  0.00  0.00    -0.241 OA
ENDBRANCH   3  22
TORSDOF 7
ENDMDL
MODEL 5
REMARK VINA RESULT:      -4.6      2.642      3.627
REMARK  7 active torsions:
REMARK  status: ('A' for Active; 'I' for Inactive)
REMARK    1  A    between atoms: C_2  and  C_3 
REMARK    2  A    between atoms: C_3  and  O_6 
REMARK    3  A    between atoms: C_3  and  C_4 
REMARK    4  A    between atoms: C_7  and  O_6 
REMARK    5  A    between atoms: C_9  and  C_10 
REMARK    6  A    between atoms: N_15  and  C_14 
REMARK    7  A    between atoms: N_20  and  C_19 
REMARK       I    between atoms: C_22  and  N_20 
ROOT
ATOM      1  C   LIG d   1      -2.921  79.359 115.940  0.00  0.00     0.161 C 
ATOM      2  C   LIG d   1      -2.852  80.575 115.241  0.00  0.00     0.016 C 
ATOM      3  C   LIG d   1      -2.374  80.684 113.915  0.00  0.00     0.038 C 
ATOM      4  C   LIG d   1      -2.071  79.554 113.140  0.00  0.00     0.028 C 
ATOM      5  C   LIG d   1      -1.646  78.347 113.970  0.00  0.00    -0.047 C 
ATOM      6  C   LIG d   1      -2.700  78.101 115.074  0.00  0.00     0.091 C 
ENDROOT
BRANCH   1   7
ATOM      7  O   LIG d   1      -4.177  79.269 116.642  0.00  0.00    -0.368 OA
BRANCH   7   8
ATOM      8  C   LIG d   1      -4.105  79.335 118.088  0.00  0.00     0.119 C 
BRANCH   8   9
ATOM      9  C   LIG d   1      -4.664  80.705 118.517  0.00  0.00     0.028 C 
ATOM     10  C   LIG d   1      -5.798  81.190 117.599  0.00  0.00     0.006 C 
ENDBRANCH   8   9
BRANCH   8  11
ATOM     11  C   LIG d   1      -2.653  79.318 118.575  0.00  0.00     0.028 C 
ATOM     12  C   LIG d   1      -2.336  78.103 119.460  0.00  0.00     0.006 C 
ENDBRANCH   8  11
ENDBRANCH   7   8
ENDBRANCH   1   7
BRANCH   6  13
ATOM     13  N   LIG d   1      -2.319  76.990 115.983  0.00  0.00    -0.311 N 
ATOM     14  C   LIG d   1      -2.733  75.734 115.821  0.00  0.00     0.210 C 
ATOM     15  C   LIG d   1      -2.239  74.747 116.883  0.00  0.00     0.109 C 
ATOM     16  O   LIG d   1      -3.436  75.338 114.879  0.00  0.00    -0.276 OA
ATOM     17  H   LIG d   1      -1.724  77.216 116.757  0.00  0.00     0.149 HD
ENDBRANCH   6  13
BRANCH   5  18
ATOM     18  N   LIG d   1      -1.495  77.205 113.049  0.00  0.00     0.381 N 
ATOM     19  H   LIG d   1      -2.246  77.200 112.389  0.00  0.00    -0.090 HD
ATOM     20  H   LIG d   1      -1.537  76.352 113.580  0.00  0.00    -0.090 HD
ATOM     21  H   LIG d   1      -0.623  77.265 112.571  0.00  0.00    -0.090 HD
ENDBRANCH   5  18
BRANCH   3  22
ATOM     22  C   LIG d   1      -2.156  81.938 113.364  0.00  0.00     0.382 C 
ATOM     23  O   LIG d   1      -2.095  82.947 114.106  0.00  0.00    -0.241 OA
ATOM     24  O   LIG d   1      -2.064  82.078 112.129  0.00  0.00    -0.241 OA
ENDBRANCH   3  22
TORSDOF 7
ENDMDL
MODEL 6
REMARK VINA RESULT:      -4.4      2.527      2.914
REMARK  7 active torsions:
REMARK  status: ('A' for Active; 'I' for Inactive)
REMARK    1  A    between atoms: C_2  and  C_3 
REMARK    2  A    between atoms: C_3  and  O_6 
REMARK    3  A    between atoms: C_3  and  C_4 
REMARK    4  A    between atoms: C_7  and  O_6 
REMARK    5  A    between atoms: C_9  and  C_10 
REMARK    6  A    between atoms: N_15  and  C_14 
REMARK    7  A    between atoms: N_20  and  C_19 
REMARK       I    between atoms: C_22  and  N_20 
ROOT
ATOM      1  C   LIG d   1      -2.951  79.486 116.154  0.00  0.00     0.161 C 
ATOM      2  C   LIG d   1      -3.305  80.845 116.168  0.00  0.00     0.016 C 
ATOM      3  C   LIG d   1      -2.779  81.795 115.262  0.00  0.00     0.038 C 
ATOM      4  C   LIG d   1      -1.974  81.419 114.176  0.00  0.00     0.028 C 
ATOM      5  C   LIG d   1      -1.188  80.136 114.422  0.00  0.00    -0.047 C 
ATOM      6  C   LIG d   1      -2.160  79.036 114.907  0.00  0.00     0.091 C 
ENDROOT
BRANCH   1   7
ATOM      7  O   LIG d   1      -4.130  78.673 116.319  0.00  0.00    -0.368 OA
BRANCH   7   8
ATOM      8  C   LIG d   1      -4.201  77.895 117.539  0.00  0.00     0.119 C 
BRANCH   8   9
ATOM      9  C   LIG d   1      -4.331  76.413 117.137  0.00  0.00     0.028 C 
ATOM     10  C   LIG d   1      -4.825  76.239 115.690  0.00  0.00     0.006 C 
ENDBRANCH   8   9
BRANCH   8  11
ATOM     11  C   LIG d   1      -5.474  78.214 118.329  0.00  0.00     0.028 C 
ATOM     12  C   LIG d   1      -6.435  79.138 117.565  0.00  0.00     0.006 C 
ENDBRANCH   8  11
ENDBRANCH   7   8
ENDBRANCH   1   7
BRANCH   6  13
ATOM     13  N   LIG d   1      -1.460  77.772 115.251  0.00  0.00    -0.311 N 
ATOM     14  C   LIG d   1      -1.331  76.751 114.405  0.00  0.00     0.210 C 
ATOM     15  C   LIG d   1      -0.591  75.534 114.968  0.00  0.00     0.109 C 
ATOM     16  O   LIG d   1      -1.732  76.751 113.232  0.00  0.00    -0.276 OA
ATOM     17  H   LIG d   1      -1.076  77.699 116.173  0.00  0.00     0.149 HD
ENDBRANCH   6  13
BRANCH   5  18
ATOM     18  N   LIG d   1      -0.501  79.786 113.164  0.00  0.00     0.381 N 
ATOM     19  H   LIG d   1      -0.534  78.796 113.024  0.00  0.00    -0.090 HD
ATOM     20  H   LIG d   1       0.462  80.064 113.232  0.00  0.00    -0.090 HD
ATOM     21  H   LIG d   1      -0.935  80.252 112.398  0.00  0.00    -0.090 HD
ENDBRANCH   5  18
BRANCH   3  22
ATOM     22  C   LIG d   1      -3.027  83.145 115.461  0.00  0.00     0.382 C 
ATOM     23  O   LIG d   1      -2.133  83.882 115.944  0.00  0.00    -0.241 OA
ATOM     24  O   LIG d   1      -4.147  83.627 115.206  0.00  0.00    -0.241 OA
ENDBRANCH   3  22
TORSDOF 7
ENDMDL
MODEL 7
REMARK VINA RESULT:      -4.3      2.841      4.332
REMARK  7 active torsions:
REMARK  status: ('A' for Active; 'I' for Inactive)
REMARK    1  A    between atoms: C_2  and  C_3 
REMARK    2  A    between atoms: C_3  and  O_6 
REMARK    3  A    between atoms: C_3  and  C_4 
REMARK    4  A    between atoms: C_7  and  O_6 
REMARK    5  A    between atoms: C_9  and  C_10 
REMARK    6  A    between atoms: N_15  and  C_14 
REMARK    7  A    between atoms: N_20  and  C_19 
REMARK       I    between atoms: C_22  and  N_20 
ROOT
ATOM      1  C   LIG d   1      -2.110  81.082 114.690  0.00  0.00     0.161 C 
ATOM      2  C   LIG d   1      -1.780  82.386 114.283  0.00  0.00     0.016 C 
ATOM      3  C   LIG d   1      -1.103  82.676 113.076  0.00  0.00     0.038 C 
ATOM      4  C   LIG d   1      -0.842  81.686 112.116  0.00  0.00     0.028 C 
ATOM      5  C   LIG d   1      -0.706  80.288 112.709  0.00  0.00    -0.047 C 
ATOM      6  C   LIG d   1      -1.932  80.001 113.604  0.00  0.00     0.091 C 
ENDROOT
BRANCH   1   7
ATOM      7  O   LIG d   1      -3.456  81.058 115.207  0.00  0.00    -0.368 OA
BRANCH   7   8
ATOM      8  C   LIG d   1      -3.589  80.807 116.627  0.00  0.00     0.119 C 
BRANCH   8   9
ATOM      9  C   LIG d   1      -4.074  82.114 117.284  0.00  0.00     0.028 C 
ATOM     10  C   LIG d   1      -4.978  81.858 118.502  0.00  0.00     0.006 C 
ENDBRANCH   8   9
BRANCH   8  11
ATOM     11  C   LIG d   1      -2.231  80.511 117.271  0.00  0.00     0.028 C 
ATOM     12  C   LIG d   1      -2.175  79.125 117.932  0.00  0.00     0.006 C 
ENDBRANCH   8  11
ENDBRANCH   7   8
ENDBRANCH   1   7
BRANCH   6  13
ATOM     13  N   LIG d   1      -1.838  78.686 114.290  0.00  0.00    -0.311 N 
ATOM     14  C   LIG d   1      -2.692  77.686 114.079  0.00  0.00     0.210 C 
ATOM     15  C   LIG d   1      -2.426  76.423 114.905  0.00  0.00     0.109 C 
ATOM     16  O   LIG d   1      -3.625  77.713 113.263  0.00  0.00    -0.276 OA
ATOM     17  H   LIG d   1      -1.091  78.566 114.946  0.00  0.00     0.149 HD
ENDBRANCH   6  13
BRANCH   5  18
ATOM     18  N   LIG d   1      -0.573  79.339 111.587  0.00  0.00     0.381 N 
ATOM     19  H   LIG d   1      -1.153  78.541 111.749  0.00  0.00    -0.090 HD
ATOM     20  H   LIG d   1       0.381  79.030 111.534  0.00  0.00    -0.090 HD
ATOM     21  H   LIG d   1      -0.835  79.782 110.734  0.00  0.00    -0.090 HD
ENDBRANCH   5  18
BRANCH   3  22
ATOM     22  C   LIG d   1      -0.644  83.962 112.838  0.00  0.00     0.382 C 
ATOM     23  O   LIG d   1       0.032  84.558 113.710  0.00  0.00    -0.241 OA
ATOM     24  O   LIG d   1      -0.935  84.551 111.779  0.00  0.00    -0.241 OA
ENDBRANCH   3  22
TORSDOF 7
ENDMDL
MODEL 8
REMARK VINA RESULT:      -4.3      3.363      5.926
REMARK  7 active torsions:
REMARK  status: ('A' for Active; 'I' for Inactive)
REMARK    1  A    between atoms: C_2  and  C_3 
REMARK    2  A    between atoms: C_3  and  O_6 
REMARK    3  A    between atoms: C_3  and  C_4 
REMARK    4  A    between atoms: C_7  and  O_6 
REMARK    5  A    between atoms: C_9  and  C_10 
REMARK    6  A    between atoms: N_15  and  C_14 
REMARK    7  A    between atoms: N_20  and  C_19 
REMARK       I    between atoms: C_22  and  N_20 
ROOT
ATOM      1  C   LIG d   1      -0.609  81.956 113.075  0.00  0.00     0.161 C 
ATOM      2  C   LIG d   1       0.111  83.061 112.591  0.00  0.00     0.016 C 
ATOM      3  C   LIG d   1       0.717  83.096 111.315  0.00  0.00     0.038 C 
ATOM      4  C   LIG d   1       0.515  82.079 110.370  0.00  0.00     0.028 C 
ATOM      5  C   LIG d   1       0.215  80.721 110.996  0.00  0.00    -0.047 C 
ATOM      6  C   LIG d   1      -0.935  80.882 112.016  0.00  0.00     0.091 C 
ENDROOT
BRANCH   1   7
ATOM      7  O   LIG d   1      -1.817  82.405 113.721  0.00  0.00    -0.368 OA
BRANCH   7   8
ATOM      8  C   LIG d   1      -1.923  82.128 115.139  0.00  0.00     0.119 C 
BRANCH   8   9
ATOM      9  C   LIG d   1      -2.359  83.432 115.834  0.00  0.00     0.028 C 
ATOM     10  C   LIG d   1      -1.243  84.491 115.847  0.00  0.00     0.006 C 
ENDBRANCH   8   9
BRANCH   8  11
ATOM     11  C   LIG d   1      -0.558  81.782 115.742  0.00  0.00     0.028 C 
ATOM     12  C   LIG d   1      -0.515  80.371 116.348  0.00  0.00     0.006 C 
ENDBRANCH   8  11
ENDBRANCH   7   8
ENDBRANCH   1   7
BRANCH   6  13
ATOM     13  N   LIG d   1      -1.235  79.617 112.736  0.00  0.00    -0.311 N 
ATOM     14  C   LIG d   1      -2.470  79.159 112.930  0.00  0.00     0.210 C 
ATOM     15  C   LIG d   1      -2.558  77.846 113.714  0.00  0.00     0.109 C 
ATOM     16  O   LIG d   1      -3.500  79.699 112.499  0.00  0.00    -0.276 OA
ATOM     17  H   LIG d   1      -0.455  79.099 113.092  0.00  0.00     0.149 HD
ENDBRANCH   6  13
BRANCH   5  18
ATOM     18  N   LIG d   1      -0.109  79.788 109.901  0.00  0.00     0.381 N 
ATOM     19  H   LIG d   1      -0.082  78.847 110.239  0.00  0.00    -0.090 HD
ATOM     20  H   LIG d   1       0.581  79.883 109.177  0.00  0.00    -0.090 HD
ATOM     21  H   LIG d   1      -1.014  79.991 109.536  0.00  0.00    -0.090 HD
ENDBRANCH   5  18
BRANCH   3  22
ATOM     22  C   LIG d   1       1.570  84.140 110.987  0.00  0.00     0.382 C 
ATOM     23  O   LIG d   1       2.270  84.680 111.877  0.00  0.00    -0.241 OA
ATOM     24  O   LIG d   1       1.614  84.577 109.822  0.00  0.00    -0.241 OA
ENDBRANCH   3  22
TORSDOF 7
ENDMDL
MODEL 9
REMARK VINA RESULT:      -4.2      2.930      6.027
REMARK  7 active torsions:
REMARK  status: ('A' for Active; 'I' for Inactive)
REMARK    1  A    between atoms: C_2  and  C_3 
REMARK    2  A    between atoms: C_3  and  O_6 
REMARK    3  A    between atoms: C_3  and  C_4 
REMARK    4  A    between atoms: C_7  and  O_6 
REMARK    5  A    between atoms: C_9  and  C_10 
REMARK    6  A    between atoms: N_15  and  C_14 
REMARK    7  A    between atoms: N_20  and  C_19 
REMARK       I    between atoms: C_22  and  N_20 
ROOT
ATOM      1  C   LIG d   1      -2.593  78.623 116.064  0.00  0.00     0.161 C 
ATOM      2  C   LIG d   1      -2.012  77.416 115.639  0.00  0.00     0.016 C 
ATOM      3  C   LIG d   1      -2.287  76.167 116.241  0.00  0.00     0.038 C 
ATOM      4  C   LIG d   1      -3.282  76.017 117.218  0.00  0.00     0.028 C 
ATOM      5  C   LIG d   1      -3.533  77.285 118.027  0.00  0.00    -0.047 C 
ATOM      6  C   LIG d   1      -3.765  78.464 117.054  0.00  0.00     0.091 C 
ENDROOT
BRANCH   1   7
ATOM      7  O   LIG d   1      -3.005  79.396 114.919  0.00  0.00    -0.368 OA
BRANCH   7   8
ATOM      8  C   LIG d   1      -2.095  80.439 114.493  0.00  0.00     0.119 C 
BRANCH   8   9
ATOM      9  C   LIG d   1      -2.785  81.792 114.759  0.00  0.00     0.028 C 
ATOM     10  C   LIG d   1      -2.124  82.571 115.908  0.00  0.00     0.006 C 
ENDBRANCH   8   9
BRANCH   8  11
ATOM     11  C   LIG d   1      -1.864  80.393 112.980  0.00  0.00     0.028 C 
ATOM     12  C   LIG d   1      -2.645  79.262 112.292  0.00  0.00     0.006 C 
ENDBRANCH   8  11
ENDBRANCH   7   8
ENDBRANCH   1   7
BRANCH   6  13
ATOM     13  N   LIG d   1      -3.934  79.759 117.763  0.00  0.00    -0.311 N 
ATOM     14  C   LIG d   1      -5.010  80.533 117.630  0.00  0.00     0.210 C 
ATOM     15  C   LIG d   1      -4.973  81.836 118.435  0.00  0.00     0.109 C 
ATOM     16  O   LIG d   1      -6.005  80.248 116.947  0.00  0.00    -0.276 OA
ATOM     17  H   LIG d   1      -3.187  80.052 118.363  0.00  0.00     0.149 HD
ENDBRANCH   6  13
BRANCH   5  18
ATOM     18  N   LIG d   1      -4.685  77.029 118.911  0.00  0.00     0.381 N 
ATOM     19  H   LIG d   1      -4.603  76.120 119.321  0.00  0.00    -0.090 HD
ATOM     20  H   LIG d   1      -5.527  77.053 118.363  0.00  0.00    -0.090 HD
ATOM     21  H   LIG d   1      -4.727  77.722 119.627  0.00  0.00    -0.090 HD
ENDBRANCH   5  18
BRANCH   3  22
ATOM     22  C   LIG d   1      -1.532  75.056 115.894  0.00  0.00     0.382 C 
ATOM     23  O   LIG d   1      -1.155  74.901 114.708  0.00  0.00    -0.241 OA
ATOM     24  O   LIG d   1      -1.262  74.186 116.743  0.00  0.00    -0.241 OA
ENDBRANCH   3  22
TORSDOF 7
ENDMDL
