MODEL 1
REMARK VINA RESULT:      -5.5      0.000      0.000
REMARK  7 active torsions:
REMARK  status: ('A' for Active; 'I' for Inactive)
REMARK    1  A    between atoms: C_2  and  C_3 
REMARK    2  A    between atoms: C_3  and  O_6 
REMARK    3  A    between atoms: C_3  and  C_4 
REMARK    4  A    between atoms: C_7  and  O_6 
REMARK    5  A    between atoms: C_9  and  C_10 
REMARK    6  A    between atoms: N_15  and  C_14 
REMARK    7  A    between atoms: N_20  and  C_19 
REMARK       I    between atoms: C_22  and  N_20 
ROOT
ATOM      1  C   LIG d   1      -3.308  77.658 114.354  0.00  0.00     0.161 C 
ATOM      2  C   LIG d   1      -3.299  77.806 112.957  0.00  0.00     0.016 C 
ATOM      3  C   LIG d   1      -2.217  77.407 112.139  0.00  0.00     0.038 C 
ATOM      4  C   LIG d   1      -1.126  76.690 112.651  0.00  0.00     0.028 C 
ATOM      5  C   LIG d   1      -0.859  76.964 114.127  0.00  0.00    -0.047 C 
ATOM      6  C   LIG d   1      -2.174  76.776 114.918  0.00  0.00     0.091 C 
ENDROOT
BRANCH   1   7
ATOM      7  O   LIG d   1      -4.591  77.161 114.784  0.00  0.00    -0.368 OA
BRANCH   7   8
ATOM      8  C   LIG d   1      -5.182  76.126 113.961  0.00  0.00     0.119 C 
BRANCH   8   9
ATOM      9  C   LIG d   1      -6.668  76.483 113.764  0.00  0.00     0.028 C 
ATOM     10  C   LIG d   1      -6.975  76.946 112.330  0.00  0.00     0.006 C 
ENDBRANCH   8   9
BRANCH   8  11
ATOM     11  C   LIG d   1      -5.182  74.773 114.680  0.00  0.00     0.028 C 
ATOM     12  C   LIG d   1      -5.224  74.912 116.210  0.00  0.00     0.006 C 
ENDBRANCH   8  11
ENDBRANCH   7   8
ENDBRANCH   1   7
BRANCH   6  13
ATOM     13  N   LIG d   1      -2.021  77.108 116.359  0.00  0.00    -0.311 N 
ATOM     14  C   LIG d   1      -1.823  76.191 117.305  0.00  0.00     0.210 C 
ATOM     15  C   LIG d   1      -1.713  76.745 118.729  0.00  0.00     0.109 C 
ATOM     16  O   LIG d   1      -1.697  74.975 117.096  0.00  0.00    -0.276 OA
ATOM     17  H   LIG d   1      -2.080  78.074 116.613  0.00  0.00     0.149 HD
ENDBRANCH   6  13
BRANCH   5  18
ATOM     18  N   LIG d   1       0.213  76.051 114.564  0.00  0.00     0.381 N 
ATOM     19  H   LIG d   1       0.756  76.485 115.283  0.00  0.00    -0.090 HD
ATOM     20  H   LIG d   1       0.817  75.862 113.783  0.00  0.00    -0.090 HD
ATOM     21  H   LIG d   1      -0.180  75.200 114.902  0.00  0.00    -0.090 HD
ENDBRANCH   5  18
BRANCH   3  22
ATOM     22  C   LIG d   1      -2.202  77.762 110.799  0.00  0.00     0.382 C 
ATOM     23  O   LIG d   1      -1.361  78.593 110.379  0.00  0.00    -0.241 OA
ATOM     24  O   LIG d   1      -3.047  77.294 110.012  0.00  0.00    -0.241 OA
ENDBRANCH   3  22
TORSDOF 7
ENDMDL
MODEL 2
REMARK VINA RESULT:      -5.2      1.772      5.111
REMARK  7 active torsions:
REMARK  status: ('A' for Active; 'I' for Inactive)
REMARK    1  A    between atoms: C_2  and  C_3 
REMARK    2  A    between atoms: C_3  and  O_6 
REMARK    3  A    between atoms: C_3  and  C_4 
REMARK    4  A    between atoms: C_7  and  O_6 
REMARK    5  A    between atoms: C_9  and  C_10 
REMARK    6  A    between atoms: N_15  and  C_14 
REMARK    7  A    between atoms: N_20  and  C_19 
REMARK       I    between atoms: C_22  and  N_20 
ROOT
ATOM      1  C   LIG d   1      -2.418  75.264 115.004  0.00  0.00     0.161 C 
ATOM      2  C   LIG d   1      -2.108  74.922 116.331  0.00  0.00     0.016 C 
ATOM      3  C   LIG d   1      -1.368  75.759 117.197  0.00  0.00     0.038 C 
ATOM      4  C   LIG d   1      -1.014  77.069 116.840  0.00  0.00     0.028 C 
ATOM      5  C   LIG d   1      -0.867  77.267 115.335  0.00  0.00    -0.047 C 
ATOM      6  C   LIG d   1      -2.136  76.735 114.632  0.00  0.00     0.091 C 
ENDROOT
BRANCH   1   7
ATOM      7  O   LIG d   1      -3.791  74.930 114.721  0.00  0.00    -0.368 OA
BRANCH   7   8
ATOM      8  C   LIG d   1      -4.762  75.323 115.723  0.00  0.00     0.119 C 
BRANCH   8   9
ATOM      9  C   LIG d   1      -5.788  74.180 115.847  0.00  0.00     0.028 C 
ATOM     10  C   LIG d   1      -6.853  74.462 116.920  0.00  0.00     0.006 C 
ENDBRANCH   8   9
BRANCH   8  11
ATOM     11  C   LIG d   1      -5.568  76.544 115.268  0.00  0.00     0.028 C 
ATOM     12  C   LIG d   1      -6.059  76.427 113.816  0.00  0.00     0.006 C 
ENDBRANCH   8  11
ENDBRANCH   7   8
ENDBRANCH   1   7
BRANCH   6  13
ATOM     13  N   LIG d   1      -2.040  76.814 113.151  0.00  0.00    -0.311 N 
ATOM     14  C   LIG d   1      -2.599  77.785 112.431  0.00  0.00     0.210 C 
ATOM     15  C   LIG d   1      -2.395  77.667 110.918  0.00  0.00     0.109 C 
ATOM     16  O   LIG d   1      -3.216  78.751 112.905  0.00  0.00    -0.276 OA
ATOM     17  H   LIG d   1      -1.530  76.088 112.688  0.00  0.00     0.149 HD
ENDBRANCH   6  13
BRANCH   5  18
ATOM     18  N   LIG d   1      -0.633  78.704 115.096  0.00  0.00     0.381 N 
ATOM     19  H   LIG d   1       0.073  79.041 115.721  0.00  0.00    -0.090 HD
ATOM     20  H   LIG d   1      -1.483  79.207 115.280  0.00  0.00    -0.090 HD
ATOM     21  H   LIG d   1      -0.349  78.851 114.153  0.00  0.00    -0.090 HD
ENDBRANCH   5  18
BRANCH   3  22
ATOM     22  C   LIG d   1      -0.939  75.272 118.422  0.00  0.00     0.382 C 
ATOM     23  O   LIG d   1      -1.167  75.922 119.471  0.00  0.00    -0.241 OA
ATOM     24  O   LIG d   1      -0.288  74.212 118.488  0.00  0.00    -0.241 OA
ENDBRANCH   3  22
TORSDOF 7
ENDMDL
MODEL 3
REMARK VINA RESULT:      -5.0      1.849      2.201
REMARK  7 active torsions:
REMARK  status: ('A' for Active; 'I' for Inactive)
REMARK    1  A    between atoms: C_2  and  C_3 
REMARK    2  A    between atoms: C_3  and  O_6 
REMARK    3  A    between atoms: C_3  and  C_4 
REMARK    4  A    between atoms: C_7  and  O_6 
REMARK    5  A    between atoms: C_9  and  C_10 
REMARK    6  A    between atoms: N_15  and  C_14 
REMARK    7  A    between atoms: N_20  and  C_19 
REMARK       I    between atoms: C_22  and  N_20 
ROOT
ATOM      1  C   LIG d   1      -3.261  77.461 114.231  0.00  0.00     0.161 C 
ATOM      2  C   LIG d   1      -3.179  77.266 112.842  0.00  0.00     0.016 C 
ATOM      3  C   LIG d   1      -2.143  77.799 112.041  0.00  0.00     0.038 C 
ATOM      4  C   LIG d   1      -1.029  78.441 112.602  0.00  0.00     0.028 C 
ATOM      5  C   LIG d   1      -1.321  79.100 113.945  0.00  0.00    -0.047 C 
ATOM      6  C   LIG d   1      -1.996  78.065 114.875  0.00  0.00     0.091 C 
ENDROOT
BRANCH   1   7
ATOM      7  O   LIG d   1      -3.611  76.222 114.879  0.00  0.00    -0.368 OA
BRANCH   7   8
ATOM      8  C   LIG d   1      -5.003  76.067 115.249  0.00  0.00     0.119 C 
BRANCH   8   9
ATOM      9  C   LIG d   1      -5.146  76.519 116.715  0.00  0.00     0.028 C 
ATOM     10  C   LIG d   1      -5.917  77.843 116.848  0.00  0.00     0.006 C 
ENDBRANCH   8   9
BRANCH   8  11
ATOM     11  C   LIG d   1      -5.422  74.594 115.236  0.00  0.00     0.028 C 
ATOM     12  C   LIG d   1      -6.370  74.234 116.392  0.00  0.00     0.006 C 
ENDBRANCH   8  11
ENDBRANCH   7   8
ENDBRANCH   1   7
BRANCH   6  13
ATOM     13  N   LIG d   1      -2.392  78.651 116.182  0.00  0.00    -0.311 N 
ATOM     14  C   LIG d   1      -1.643  78.569 117.280  0.00  0.00     0.210 C 
ATOM     15  C   LIG d   1      -2.247  79.224 118.526  0.00  0.00     0.109 C 
ATOM     16  O   LIG d   1      -0.521  78.043 117.333  0.00  0.00    -0.276 OA
ATOM     17  H   LIG d   1      -3.274  79.123 116.221  0.00  0.00     0.149 HD
ENDBRANCH   6  13
BRANCH   5  18
ATOM     18  N   LIG d   1      -0.044  79.611 114.479  0.00  0.00     0.381 N 
ATOM     19  H   LIG d   1      -0.067  80.610 114.512  0.00  0.00    -0.090 HD
ATOM     20  H   LIG d   1       0.700  79.332 113.864  0.00  0.00    -0.090 HD
ATOM     21  H   LIG d   1       0.115  79.245 115.392  0.00  0.00    -0.090 HD
ENDBRANCH   5  18
BRANCH   3  22
ATOM     22  C   LIG d   1      -2.235  77.726 110.660  0.00  0.00     0.382 C 
ATOM     23  O   LIG d   1      -3.251  77.219 110.126  0.00  0.00    -0.241 OA
ATOM     24  O   LIG d   1      -1.297  78.119 109.942  0.00  0.00    -0.241 OA
ENDBRANCH   3  22
TORSDOF 7
ENDMDL
MODEL 4
REMARK VINA RESULT:      -4.8      1.946      2.355
REMARK  7 active torsions:
REMARK  status: ('A' for Active; 'I' for Inactive)
REMARK    1  A    between atoms: C_2  and  C_3 
REMARK    2  A    between atoms: C_3  and  O_6 
REMARK    3  A    between atoms: C_3  and  C_4 
REMARK    4  A    between atoms: C_7  and  O_6 
REMARK    5  A    between atoms: C_9  and  C_10 
REMARK    6  A    between atoms: N_15  and  C_14 
REMARK    7  A    between atoms: N_20  and  C_19 
REMARK       I    between atoms: C_22  and  N_20 
ROOT
ATOM      1  C   LIG d   1      -2.613  77.066 115.789  0.00  0.00     0.161 C 
ATOM      2  C   LIG d   1      -2.859  78.177 114.965  0.00  0.00     0.016 C 
ATOM      3  C   LIG d   1      -2.193  78.399 113.738  0.00  0.00     0.038 C 
ATOM      4  C   LIG d   1      -1.338  77.440 113.174  0.00  0.00     0.028 C 
ATOM      5  C   LIG d   1      -0.675  76.536 114.209  0.00  0.00    -0.047 C 
ATOM      6  C   LIG d   1      -1.765  75.953 115.137  0.00  0.00     0.091 C 
ENDROOT
BRANCH   1   7
ATOM      7  O   LIG d   1      -3.860  76.529 116.270  0.00  0.00    -0.368 OA
BRANCH   7   8
ATOM      8  C   LIG d   1      -4.965  76.546 115.333  0.00  0.00     0.119 C 
BRANCH   8   9
ATOM      9  C   LIG d   1      -6.238  76.907 116.125  0.00  0.00     0.028 C 
ATOM     10  C   LIG d   1      -6.073  78.199 116.943  0.00  0.00     0.006 C 
ENDBRANCH   8   9
BRANCH   8  11
ATOM     11  C   LIG d   1      -5.229  75.152 114.756  0.00  0.00     0.028 C 
ATOM     12  C   LIG d   1      -5.818  74.181 115.791  0.00  0.00     0.006 C 
ENDBRANCH   8  11
ENDBRANCH   7   8
ENDBRANCH   1   7
BRANCH   6  13
ATOM     13  N   LIG d   1      -1.194  75.124 116.231  0.00  0.00    -0.311 N 
ATOM     14  C   LIG d   1      -0.271  75.569 117.082  0.00  0.00     0.210 C 
ATOM     15  C   LIG d   1       0.196  74.545 118.121  0.00  0.00     0.109 C 
ATOM     16  O   LIG d   1       0.182  76.723 117.095  0.00  0.00    -0.276 OA
ATOM     17  H   LIG d   1      -1.528  74.184 116.312  0.00  0.00     0.149 HD
ENDBRANCH   6  13
BRANCH   5  18
ATOM     18  N   LIG d   1       0.077  75.499 113.478  0.00  0.00     0.381 N 
ATOM     19  H   LIG d   1      -0.011  75.648 112.493  0.00  0.00    -0.090 HD
ATOM     20  H   LIG d   1      -0.313  74.599 113.698  0.00  0.00    -0.090 HD
ATOM     21  H   LIG d   1       1.038  75.526 113.741  0.00  0.00    -0.090 HD
ENDBRANCH   5  18
BRANCH   3  22
ATOM     22  C   LIG d   1      -2.348  79.610 113.080  0.00  0.00     0.382 C 
ATOM     23  O   LIG d   1      -3.186  80.446 113.496  0.00  0.00    -0.241 OA
ATOM     24  O   LIG d   1      -1.694  79.858 112.050  0.00  0.00    -0.241 OA
ENDBRANCH   3  22
TORSDOF 7
ENDMDL
MODEL 5
REMARK VINA RESULT:      -4.8      1.955      2.310
REMARK  7 active torsions:
REMARK  status: ('A' for Active; 'I' for Inactive)
REMARK    1  A    between atoms: C_2  and  C_3 
REMARK    2  A    between atoms: C_3  and  O_6 
REMARK    3  A    between atoms: C_3  and  C_4 
REMARK    4  A    between atoms: C_7  and  O_6 
REMARK    5  A    between atoms: C_9  and  C_10 
REMARK    6  A    between atoms: N_15  and  C_14 
REMARK    7  A    between atoms: N_20  and  C_19 
REMARK       I    between atoms: C_22  and  N_20 
ROOT
ATOM      1  C   LIG d   1      -3.035  78.558 114.825  0.00  0.00     0.161 C 
ATOM      2  C   LIG d   1      -2.931  78.033 113.526  0.00  0.00     0.016 C 
ATOM      3  C   LIG d   1      -1.831  77.265 113.083  0.00  0.00     0.038 C 
ATOM      4  C   LIG d   1      -0.823  76.838 113.961  0.00  0.00     0.028 C 
ATOM      5  C   LIG d   1      -0.629  77.765 115.156  0.00  0.00    -0.047 C 
ATOM      6  C   LIG d   1      -1.999  78.010 115.829  0.00  0.00     0.091 C 
ENDROOT
BRANCH   1   7
ATOM      7  O   LIG d   1      -4.372  78.360 115.327  0.00  0.00    -0.368 OA
BRANCH   7   8
ATOM      8  C   LIG d   1      -4.622  77.098 115.992  0.00  0.00     0.119 C 
BRANCH   8   9
ATOM      9  C   LIG d   1      -5.587  76.290 115.102  0.00  0.00     0.028 C 
ATOM     10  C   LIG d   1      -4.934  75.021 114.528  0.00  0.00     0.006 C 
ENDBRANCH   8   9
BRANCH   8  11
ATOM     11  C   LIG d   1      -5.366  77.302 117.315  0.00  0.00     0.028 C 
ATOM     12  C   LIG d   1      -5.593  78.786 117.648  0.00  0.00     0.006 C 
ENDBRANCH   8  11
ENDBRANCH   7   8
ENDBRANCH   1   7
BRANCH   6  13
ATOM     13  N   LIG d   1      -1.912  78.974 116.957  0.00  0.00    -0.311 N 
ATOM     14  C   LIG d   1      -1.826  78.603 118.233  0.00  0.00     0.210 C 
ATOM     15  C   LIG d   1      -1.767  79.756 119.239  0.00  0.00     0.109 C 
ATOM     16  O   LIG d   1      -1.760  77.428 118.625  0.00  0.00    -0.276 OA
ATOM     17  H   LIG d   1      -1.927  79.948 116.727  0.00  0.00     0.149 HD
ENDBRANCH   6  13
BRANCH   5  18
ATOM     18  N   LIG d   1       0.352  77.131 116.057  0.00  0.00     0.381 N 
ATOM     19  H   LIG d   1       1.280  77.323 115.737  0.00  0.00    -0.090 HD
ATOM     20  H   LIG d   1       0.213  76.136 116.041  0.00  0.00    -0.090 HD
ATOM     21  H   LIG d   1       0.235  77.475 116.985  0.00  0.00    -0.090 HD
ENDBRANCH   5  18
BRANCH   3  22
ATOM     22  C   LIG d   1      -1.711  76.948 111.739  0.00  0.00     0.382 C 
ATOM     23  O   LIG d   1      -2.552  77.381 110.915  0.00  0.00    -0.241 OA
ATOM     24  O   LIG d   1      -0.797  76.198 111.345  0.00  0.00    -0.241 OA
ENDBRANCH   3  22
TORSDOF 7
ENDMDL
MODEL 6
REMARK VINA RESULT:      -4.6      2.404      5.764
REMARK  7 active torsions:
REMARK  status: ('A' for Active; 'I' for Inactive)
REMARK    1  A    between atoms: C_2  and  C_3 
REMARK    2  A    between atoms: C_3  and  O_6 
REMARK    3  A    between atoms: C_3  and  C_4 
REMARK    4  A    between atoms: C_7  and  O_6 
REMARK    5  A    between atoms: C_9  and  C_10 
REMARK    6  A    between atoms: N_15  and  C_14 
REMARK    7  A    between atoms: N_20  and  C_19 
REMARK       I    between atoms: C_22  and  N_20 
ROOT
ATOM      1  C   LIG d   1      -3.102  76.718 115.896  0.00  0.00     0.161 C 
ATOM      2  C   LIG d   1      -4.097  76.095 116.667  0.00  0.00     0.016 C 
ATOM      3  C   LIG d   1      -5.339  75.670 116.141  0.00  0.00     0.038 C 
ATOM      4  C   LIG d   1      -5.611  75.703 114.765  0.00  0.00     0.028 C 
ATOM      5  C   LIG d   1      -4.837  76.786 114.020  0.00  0.00    -0.047 C 
ATOM      6  C   LIG d   1      -3.336  76.662 114.372  0.00  0.00     0.091 C 
ENDROOT
BRANCH   1   7
ATOM      7  O   LIG d   1      -1.812  76.166 116.225  0.00  0.00    -0.368 OA
BRANCH   7   8
ATOM      8  C   LIG d   1      -1.715  74.721 116.215  0.00  0.00     0.119 C 
BRANCH   8   9
ATOM      9  C   LIG d   1      -1.040  74.293 117.532  0.00  0.00     0.028 C 
ATOM     10  C   LIG d   1      -0.928  75.451 118.538  0.00  0.00     0.006 C 
ENDBRANCH   8   9
BRANCH   8  11
ATOM     11  C   LIG d   1      -0.780  74.233 115.104  0.00  0.00     0.028 C 
ATOM     12  C   LIG d   1       0.525  75.040 115.026  0.00  0.00     0.006 C 
ENDBRANCH   8  11
ENDBRANCH   7   8
ENDBRANCH   1   7
BRANCH   6  13
ATOM     13  N   LIG d   1      -2.518  77.736 113.751  0.00  0.00    -0.311 N 
ATOM     14  C   LIG d   1      -1.631  77.515 112.782  0.00  0.00     0.210 C 
ATOM     15  C   LIG d   1      -0.880  78.759 112.297  0.00  0.00     0.109 C 
ATOM     16  O   LIG d   1      -1.419  76.413 112.256  0.00  0.00    -0.276 OA
ATOM     17  H   LIG d   1      -2.649  78.666 114.097  0.00  0.00     0.149 HD
ENDBRANCH   6  13
BRANCH   5  18
ATOM     18  N   LIG d   1      -5.109  76.618 112.580  0.00  0.00     0.381 N 
ATOM     19  H   LIG d   1      -4.650  75.796 112.242  0.00  0.00    -0.090 HD
ATOM     20  H   LIG d   1      -4.741  77.412 112.085  0.00  0.00    -0.090 HD
ATOM     21  H   LIG d   1      -6.091  76.546 112.425  0.00  0.00    -0.090 HD
ENDBRANCH   5  18
BRANCH   3  22
ATOM     22  C   LIG d   1      -6.340  75.242 116.999  0.00  0.00     0.382 C 
ATOM     23  O   LIG d   1      -6.603  75.902 118.033  0.00  0.00    -0.241 OA
ATOM     24  O   LIG d   1      -6.952  74.180 116.777  0.00  0.00    -0.241 OA
ENDBRANCH   3  22
TORSDOF 7
ENDMDL
MODEL 7
REMARK VINA RESULT:      -4.6      2.095      2.565
REMARK  7 active torsions:
REMARK  status: ('A' for Active; 'I' for Inactive)
REMARK    1  A    between atoms: C_2  and  C_3 
REMARK    2  A    between atoms: C_3  and  O_6 
REMARK    3  A    between atoms: C_3  and  C_4 
REMARK    4  A    between atoms: C_7  and  O_6 
REMARK    5  A    between atoms: C_9  and  C_10 
REMARK    6  A    between atoms: N_15  and  C_14 
REMARK    7  A    between atoms: N_20  and  C_19 
REMARK       I    between atoms: C_22  and  N_20 
ROOT
ATOM      1  C   LIG d   1      -3.231  76.897 115.244  0.00  0.00     0.161 C 
ATOM      2  C   LIG d   1      -3.341  78.106 114.537  0.00  0.00     0.016 C 
ATOM      3  C   LIG d   1      -2.407  78.525 113.562  0.00  0.00     0.038 C 
ATOM      4  C   LIG d   1      -1.374  77.687 113.117  0.00  0.00     0.028 C 
ATOM      5  C   LIG d   1      -0.929  76.667 114.159  0.00  0.00    -0.047 C 
ATOM      6  C   LIG d   1      -2.172  75.919 114.692  0.00  0.00     0.091 C 
ENDROOT
BRANCH   1   7
ATOM      7  O   LIG d   1      -4.519  76.253 115.314  0.00  0.00    -0.368 OA
BRANCH   7   8
ATOM      8  C   LIG d   1      -4.992  75.917 116.641  0.00  0.00     0.119 C 
BRANCH   8   9
ATOM      9  C   LIG d   1      -6.212  74.990 116.477  0.00  0.00     0.028 C 
ATOM     10  C   LIG d   1      -7.540  75.765 116.458  0.00  0.00     0.006 C 
ENDBRANCH   8   9
BRANCH   8  11
ATOM     11  C   LIG d   1      -5.519  77.154 117.375  0.00  0.00     0.028 C 
ATOM     12  C   LIG d   1      -4.647  77.552 118.576  0.00  0.00     0.006 C 
ENDBRANCH   8  11
ENDBRANCH   7   8
ENDBRANCH   1   7
BRANCH   6  13
ATOM     13  N   LIG d   1      -1.836  74.962 115.777  0.00  0.00    -0.311 N 
ATOM     14  C   LIG d   1      -1.352  75.335 116.961  0.00  0.00     0.210 C 
ATOM     15  C   LIG d   1      -1.054  74.186 117.929  0.00  0.00     0.109 C 
ATOM     16  O   LIG d   1      -1.171  76.510 117.312  0.00  0.00    -0.276 OA
ATOM     17  H   LIG d   1      -1.981  73.989 115.589  0.00  0.00     0.149 HD
ENDBRANCH   6  13
BRANCH   5  18
ATOM     18  N   LIG d   1       0.053  75.773 113.517  0.00  0.00     0.381 N 
ATOM     19  H   LIG d   1      -0.328  75.405 112.668  0.00  0.00    -0.090 HD
ATOM     20  H   LIG d   1       0.245  75.004 114.135  0.00  0.00    -0.090 HD
ATOM     21  H   LIG d   1       0.893  76.272 113.324  0.00  0.00    -0.090 HD
ENDBRANCH   5  18
BRANCH   3  22
ATOM     22  C   LIG d   1      -2.478  79.812 113.051  0.00  0.00     0.382 C 
ATOM     23  O   LIG d   1      -3.385  80.590 113.434  0.00  0.00    -0.241 OA
ATOM     24  O   LIG d   1      -1.673  80.191 112.178  0.00  0.00    -0.241 OA
ENDBRANCH   3  22
TORSDOF 7
ENDMDL
MODEL 8
REMARK VINA RESULT:      -4.6      2.844      5.016
REMARK  7 active torsions:
REMARK  status: ('A' for Active; 'I' for Inactive)
REMARK    1  A    between atoms: C_2  and  C_3 
REMARK    2  A    between atoms: C_3  and  O_6 
REMARK    3  A    between atoms: C_3  and  C_4 
REMARK    4  A    between atoms: C_7  and  O_6 
REMARK    5  A    between atoms: C_9  and  C_10 
REMARK    6  A    between atoms: N_15  and  C_14 
REMARK    7  A    between atoms: N_20  and  C_19 
REMARK       I    between atoms: C_22  and  N_20 
ROOT
ATOM      1  C   LIG d   1      -1.555  78.590 114.110  0.00  0.00     0.161 C 
ATOM      2  C   LIG d   1      -2.714  77.798 114.059  0.00  0.00     0.016 C 
ATOM      3  C   LIG d   1      -3.280  77.324 112.853  0.00  0.00     0.038 C 
ATOM      4  C   LIG d   1      -2.636  77.486 111.617  0.00  0.00     0.028 C 
ATOM      5  C   LIG d   1      -1.728  78.711 111.563  0.00  0.00    -0.047 C 
ATOM      6  C   LIG d   1      -0.777  78.684 112.781  0.00  0.00     0.091 C 
ENDROOT
BRANCH   1   7
ATOM      7  O   LIG d   1      -0.691  78.124 115.165  0.00  0.00    -0.368 OA
BRANCH   7   8
ATOM      8  C   LIG d   1      -0.986  76.809 115.696  0.00  0.00     0.119 C 
BRANCH   8   9
ATOM      9  C   LIG d   1      -0.892  76.897 117.231  0.00  0.00     0.028 C 
ATOM     10  C   LIG d   1      -2.185  77.434 117.868  0.00  0.00     0.006 C 
ENDBRANCH   8   9
BRANCH   8  11
ATOM     11  C   LIG d   1       0.081  75.790 115.283  0.00  0.00     0.028 C 
ATOM     12  C   LIG d   1      -0.470  74.359 115.181  0.00  0.00     0.006 C 
ENDBRANCH   8  11
ENDBRANCH   7   8
ENDBRANCH   1   7
BRANCH   6  13
ATOM     13  N   LIG d   1       0.089  79.890 112.851  0.00  0.00    -0.311 N 
ATOM     14  C   LIG d   1      -0.379  81.134 112.760  0.00  0.00     0.210 C 
ATOM     15  C   LIG d   1       0.686  82.232 112.837  0.00  0.00     0.109 C 
ATOM     16  O   LIG d   1      -1.578  81.433 112.656  0.00  0.00    -0.276 OA
ATOM     17  H   LIG d   1       1.072  79.740 112.966  0.00  0.00     0.149 HD
ENDBRANCH   6  13
BRANCH   5  18
ATOM     18  N   LIG d   1      -1.016  78.681 110.272  0.00  0.00     0.381 N 
ATOM     19  H   LIG d   1      -0.056  78.443 110.420  0.00  0.00    -0.090 HD
ATOM     20  H   LIG d   1      -1.053  79.597 109.859  0.00  0.00    -0.090 HD
ATOM     21  H   LIG d   1      -1.441  78.017 109.663  0.00  0.00    -0.090 HD
ENDBRANCH   5  18
BRANCH   3  22
ATOM     22  C   LIG d   1      -4.525  76.714 112.871  0.00  0.00     0.382 C 
ATOM     23  O   LIG d   1      -4.692  75.649 113.512  0.00  0.00    -0.241 OA
ATOM     24  O   LIG d   1      -5.473  77.192 112.218  0.00  0.00    -0.241 OA
ENDBRANCH   3  22
TORSDOF 7
ENDMDL
MODEL 9
REMARK VINA RESULT:      -4.5      2.475      4.620
REMARK  7 active torsions:
REMARK  status: ('A' for Active; 'I' for Inactive)
REMARK    1  A    between atoms: C_2  and  C_3 
REMARK    2  A    between atoms: C_3  and  O_6 
REMARK    3  A    between atoms: C_3  and  C_4 
REMARK    4  A    between atoms: C_7  and  O_6 
REMARK    5  A    between atoms: C_9  and  C_10 
REMARK    6  A    between atoms: N_15  and  C_14 
REMARK    7  A    between atoms: N_20  and  C_19 
REMARK       I    between atoms: C_22  and  N_20 
ROOT
ATOM      1  C   LIG d   1      -3.276  75.131 115.712  0.00  0.00     0.161 C 
ATOM      2  C   LIG d   1      -4.513  75.378 115.094  0.00  0.00     0.016 C 
ATOM      3  C   LIG d   1      -5.419  76.370 115.536  0.00  0.00     0.038 C 
ATOM      4  C   LIG d   1      -5.080  77.289 116.540  0.00  0.00     0.028 C 
ATOM      5  C   LIG d   1      -4.048  76.756 117.527  0.00  0.00    -0.047 C 
ATOM      6  C   LIG d   1      -2.841  76.198 116.738  0.00  0.00     0.091 C 
ENDROOT
BRANCH   1   7
ATOM      7  O   LIG d   1      -2.256  74.956 114.708  0.00  0.00    -0.368 OA
BRANCH   7   8
ATOM      8  C   LIG d   1      -1.441  76.118 114.418  0.00  0.00     0.119 C 
BRANCH   8   9
ATOM      9  C   LIG d   1      -2.073  76.837 113.211  0.00  0.00     0.028 C 
ATOM     10  C   LIG d   1      -2.574  78.248 113.564  0.00  0.00     0.006 C 
ENDBRANCH   8   9
BRANCH   8  11
ATOM     11  C   LIG d   1      -0.037  75.714 113.959  0.00  0.00     0.028 C 
ATOM     12  C   LIG d   1       0.779  75.030 115.068  0.00  0.00     0.006 C 
ENDBRANCH   8  11
ENDBRANCH   7   8
ENDBRANCH   1   7
BRANCH   6  13
ATOM     13  N   LIG d   1      -1.821  75.580 117.625  0.00  0.00    -0.311 N 
ATOM     14  C   LIG d   1      -0.766  76.240 118.100  0.00  0.00     0.210 C 
ATOM     15  C   LIG d   1       0.173  75.409 118.980  0.00  0.00     0.109 C 
ATOM     16  O   LIG d   1      -0.537  77.442 117.904  0.00  0.00    -0.276 OA
ATOM     17  H   LIG d   1      -1.946  74.615 117.861  0.00  0.00     0.149 HD
ENDBRANCH   6  13
BRANCH   5  18
ATOM     18  N   LIG d   1      -3.685  77.861 118.434  0.00  0.00     0.381 N 
ATOM     19  H   LIG d   1      -4.464  78.479 118.543  0.00  0.00    -0.090 HD
ATOM     20  H   LIG d   1      -2.926  78.379 118.027  0.00  0.00    -0.090 HD
ATOM     21  H   LIG d   1      -3.412  77.499 119.321  0.00  0.00    -0.090 HD
ENDBRANCH   5  18
BRANCH   3  22
ATOM     22  C   LIG d   1      -6.696  76.422 114.998  0.00  0.00     0.382 C 
ATOM     23  O   LIG d   1      -6.854  76.675 113.780  0.00  0.00    -0.241 OA
ATOM     24  O   LIG d   1      -7.695  76.264 115.726  0.00  0.00    -0.241 OA
ENDBRANCH   3  22
TORSDOF 7
ENDMDL
