MODEL 1
REMARK VINA RESULT:      -5.1      0.000      0.000
REMARK  7 active torsions:
REMARK  status: ('A' for Active; 'I' for Inactive)
REMARK    1  A    between atoms: C_2  and  C_3 
REMARK    2  A    between atoms: C_3  and  O_6 
REMARK    3  A    between atoms: C_3  and  C_4 
REMARK    4  A    between atoms: C_7  and  O_6 
REMARK    5  A    between atoms: C_9  and  C_10 
REMARK    6  A    between atoms: N_15  and  C_14 
REMARK    7  A    between atoms: N_20  and  C_19 
REMARK       I    between atoms: C_22  and  N_20 
ROOT
ATOM      1  C   LIG d   1      -2.928  78.405 115.602  0.00  0.00     0.161 C 
ATOM      2  C   LIG d   1      -2.968  79.531 114.762  0.00  0.00     0.016 C 
ATOM      3  C   LIG d   1      -2.267  79.613 113.537  0.00  0.00     0.038 C 
ATOM      4  C   LIG d   1      -1.594  78.509 112.992  0.00  0.00     0.028 C 
ATOM      5  C   LIG d   1      -1.108  77.517 114.044  0.00  0.00    -0.047 C 
ATOM      6  C   LIG d   1      -2.288  77.150 114.972  0.00  0.00     0.091 C 
ENDROOT
BRANCH   1   7
ATOM      7  O   LIG d   1      -4.253  78.105 116.081  0.00  0.00    -0.368 OA
BRANCH   7   8
ATOM      8  C   LIG d   1      -4.839  79.075 116.985  0.00  0.00     0.119 C 
BRANCH   8   9
ATOM      9  C   LIG d   1      -4.053  79.008 118.308  0.00  0.00     0.028 C 
ATOM     10  C   LIG d   1      -3.531  80.385 118.751  0.00  0.00     0.006 C 
ENDBRANCH   8   9
BRANCH   8  11
ATOM     11  C   LIG d   1      -6.278  78.699 117.349  0.00  0.00     0.028 C 
ATOM     12  C   LIG d   1      -7.137  79.918 117.719  0.00  0.00     0.006 C 
ENDBRANCH   8  11
ENDBRANCH   7   8
ENDBRANCH   1   7
BRANCH   6  13
ATOM     13  N   LIG d   1      -1.879  76.249 116.080  0.00  0.00    -0.311 N 
ATOM     14  C   LIG d   1      -1.931  74.921 116.002  0.00  0.00     0.210 C 
ATOM     15  C   LIG d   1      -1.482  74.180 117.266  0.00  0.00     0.109 C 
ATOM     16  O   LIG d   1      -2.276  74.284 114.995  0.00  0.00    -0.276 OA
ATOM     17  H   LIG d   1      -1.557  76.681 116.924  0.00  0.00     0.149 HD
ENDBRANCH   6  13
BRANCH   5  18
ATOM     18  N   LIG d   1      -0.548  76.352 113.332  0.00  0.00     0.381 N 
ATOM     19  H   LIG d   1       0.403  76.535 113.079  0.00  0.00    -0.090 HD
ATOM     20  H   LIG d   1      -1.075  76.201 112.491  0.00  0.00    -0.090 HD
ATOM     21  H   LIG d   1      -0.595  75.544 113.912  0.00  0.00    -0.090 HD
ENDBRANCH   5  18
BRANCH   3  22
ATOM     22  C   LIG d   1      -2.202  80.822 112.862  0.00  0.00     0.382 C 
ATOM     23  O   LIG d   1      -3.198  81.586 112.846  0.00  0.00    -0.241 OA
ATOM     24  O   LIG d   1      -1.176  81.140 112.231  0.00  0.00    -0.241 OA
ENDBRANCH   3  22
TORSDOF 7
ENDMDL
MODEL 2
REMARK VINA RESULT:      -4.8      2.495      3.272
REMARK  7 active torsions:
REMARK  status: ('A' for Active; 'I' for Inactive)
REMARK    1  A    between atoms: C_2  and  C_3 
REMARK    2  A    between atoms: C_3  and  O_6 
REMARK    3  A    between atoms: C_3  and  C_4 
REMARK    4  A    between atoms: C_7  and  O_6 
REMARK    5  A    between atoms: C_9  and  C_10 
REMARK    6  A    between atoms: N_15  and  C_14 
REMARK    7  A    between atoms: N_20  and  C_19 
REMARK       I    between atoms: C_22  and  N_20 
ROOT
ATOM      1  C   LIG d   1      -2.589  76.909 115.212  0.00  0.00     0.161 C 
ATOM      2  C   LIG d   1      -2.785  77.747 114.101  0.00  0.00     0.016 C 
ATOM      3  C   LIG d   1      -1.882  78.768 113.728  0.00  0.00     0.038 C 
ATOM      4  C   LIG d   1      -0.637  78.924 114.356  0.00  0.00     0.028 C 
ATOM      5  C   LIG d   1      -0.622  78.431 115.799  0.00  0.00    -0.047 C 
ATOM      6  C   LIG d   1      -1.183  76.992 115.844  0.00  0.00     0.091 C 
ENDROOT
BRANCH   1   7
ATOM      7  O   LIG d   1      -2.900  75.547 114.859  0.00  0.00    -0.368 OA
BRANCH   7   8
ATOM      8  C   LIG d   1      -4.017  74.946 115.560  0.00  0.00     0.119 C 
BRANCH   8   9
ATOM      9  C   LIG d   1      -5.010  74.438 114.497  0.00  0.00     0.028 C 
ATOM     10  C   LIG d   1      -6.009  75.523 114.061  0.00  0.00     0.006 C 
ENDBRANCH   8   9
BRANCH   8  11
ATOM     11  C   LIG d   1      -4.790  75.989 116.373  0.00  0.00     0.028 C 
ATOM     12  C   LIG d   1      -4.782  75.693 117.881  0.00  0.00     0.006 C 
ENDBRANCH   8  11
ENDBRANCH   7   8
ENDBRANCH   1   7
BRANCH   6  13
ATOM     13  N   LIG d   1      -1.281  76.464 117.230  0.00  0.00    -0.311 N 
ATOM     14  C   LIG d   1      -0.811  75.273 117.595  0.00  0.00     0.210 C 
ATOM     15  C   LIG d   1      -1.033  74.914 119.068  0.00  0.00     0.109 C 
ATOM     16  O   LIG d   1      -0.202  74.493 116.848  0.00  0.00    -0.276 OA
ATOM     17  H   LIG d   1      -1.733  77.045 117.908  0.00  0.00     0.149 HD
ENDBRANCH   6  13
BRANCH   5  18
ATOM     18  N   LIG d   1       0.767  78.525 116.287  0.00  0.00     0.381 N 
ATOM     19  H   LIG d   1       1.185  79.374 115.960  0.00  0.00    -0.090 HD
ATOM     20  H   LIG d   1       1.294  77.753 115.920  0.00  0.00    -0.090 HD
ATOM     21  H   LIG d   1       0.781  78.503 117.283  0.00  0.00    -0.090 HD
ENDBRANCH   5  18
BRANCH   3  22
ATOM     22  C   LIG d   1      -2.239  79.674 112.740  0.00  0.00     0.382 C 
ATOM     23  O   LIG d   1      -1.576  79.735 111.677  0.00  0.00    -0.241 OA
ATOM     24  O   LIG d   1      -3.188  80.460 112.917  0.00  0.00    -0.241 OA
ENDBRANCH   3  22
TORSDOF 7
ENDMDL
MODEL 3
REMARK VINA RESULT:      -4.7      2.818      4.352
REMARK  7 active torsions:
REMARK  status: ('A' for Active; 'I' for Inactive)
REMARK    1  A    between atoms: C_2  and  C_3 
REMARK    2  A    between atoms: C_3  and  O_6 
REMARK    3  A    between atoms: C_3  and  C_4 
REMARK    4  A    between atoms: C_7  and  O_6 
REMARK    5  A    between atoms: C_9  and  C_10 
REMARK    6  A    between atoms: N_15  and  C_14 
REMARK    7  A    between atoms: N_20  and  C_19 
REMARK       I    between atoms: C_22  and  N_20 
ROOT
ATOM      1  C   LIG d   1      -4.484  76.709 117.297  0.00  0.00     0.161 C 
ATOM      2  C   LIG d   1      -5.289  77.838 117.526  0.00  0.00     0.016 C 
ATOM      3  C   LIG d   1      -4.929  79.145 117.124  0.00  0.00     0.038 C 
ATOM      4  C   LIG d   1      -3.802  79.391 116.327  0.00  0.00     0.028 C 
ATOM      5  C   LIG d   1      -2.698  78.354 116.502  0.00  0.00    -0.047 C 
ATOM      6  C   LIG d   1      -3.304  76.943 116.331  0.00  0.00     0.091 C 
ENDROOT
BRANCH   1   7
ATOM      7  O   LIG d   1      -5.299  75.613 116.837  0.00  0.00    -0.368 OA
BRANCH   7   8
ATOM      8  C   LIG d   1      -6.454  75.969 116.037  0.00  0.00     0.119 C 
BRANCH   8   9
ATOM      9  C   LIG d   1      -7.654  75.167 116.576  0.00  0.00     0.028 C 
ATOM     10  C   LIG d   1      -7.251  74.180 117.684  0.00  0.00     0.006 C 
ENDBRANCH   8   9
BRANCH   8  11
ATOM     11  C   LIG d   1      -6.285  75.519 114.583  0.00  0.00     0.028 C 
ATOM     12  C   LIG d   1      -5.184  74.460 114.411  0.00  0.00     0.006 C 
ENDBRANCH   8  11
ENDBRANCH   7   8
ENDBRANCH   1   7
BRANCH   6  13
ATOM     13  N   LIG d   1      -2.308  75.866 116.570  0.00  0.00    -0.311 N 
ATOM     14  C   LIG d   1      -1.610  75.283 115.596  0.00  0.00     0.210 C 
ATOM     15  C   LIG d   1      -0.651  74.181 116.058  0.00  0.00     0.109 C 
ATOM     16  O   LIG d   1      -1.671  75.596 114.398  0.00  0.00    -0.276 OA
ATOM     17  H   LIG d   1      -2.172  75.571 117.517  0.00  0.00     0.149 HD
ENDBRANCH   6  13
BRANCH   5  18
ATOM     18  N   LIG d   1      -1.644  78.655 115.515  0.00  0.00     0.381 N 
ATOM     19  H   LIG d   1      -1.814  78.144 114.671  0.00  0.00    -0.090 HD
ATOM     20  H   LIG d   1      -0.757  78.363 115.887  0.00  0.00    -0.090 HD
ATOM     21  H   LIG d   1      -1.626  79.632 115.321  0.00  0.00    -0.090 HD
ENDBRANCH   5  18
BRANCH   3  22
ATOM     22  C   LIG d   1      -5.681  80.227 117.555  0.00  0.00     0.382 C 
ATOM     23  O   LIG d   1      -6.770  80.497 116.994  0.00  0.00    -0.241 OA
ATOM     24  O   LIG d   1      -5.262  80.964 118.468  0.00  0.00    -0.241 OA
ENDBRANCH   3  22
TORSDOF 7
ENDMDL
MODEL 4
REMARK VINA RESULT:      -4.7      1.670      2.504
REMARK  7 active torsions:
REMARK  status: ('A' for Active; 'I' for Inactive)
REMARK    1  A    between atoms: C_2  and  C_3 
REMARK    2  A    between atoms: C_3  and  O_6 
REMARK    3  A    between atoms: C_3  and  C_4 
REMARK    4  A    between atoms: C_7  and  O_6 
REMARK    5  A    between atoms: C_9  and  C_10 
REMARK    6  A    between atoms: N_15  and  C_14 
REMARK    7  A    between atoms: N_20  and  C_19 
REMARK       I    between atoms: C_22  and  N_20 
ROOT
ATOM      1  C   LIG d   1      -2.483  77.945 116.223  0.00  0.00     0.161 C 
ATOM      2  C   LIG d   1      -2.811  78.750 115.119  0.00  0.00     0.016 C 
ATOM      3  C   LIG d   1      -2.226  78.595 113.841  0.00  0.00     0.038 C 
ATOM      4  C   LIG d   1      -1.378  77.520 113.539  0.00  0.00     0.028 C 
ATOM      5  C   LIG d   1      -0.628  76.981 114.753  0.00  0.00    -0.047 C 
ATOM      6  C   LIG d   1      -1.642  76.696 115.884  0.00  0.00     0.091 C 
ENDROOT
BRANCH   1   7
ATOM      7  O   LIG d   1      -3.683  77.565 116.925  0.00  0.00    -0.368 OA
BRANCH   7   8
ATOM      8  C   LIG d   1      -4.873  77.409 116.115  0.00  0.00     0.119 C 
BRANCH   8   9
ATOM      9  C   LIG d   1      -6.075  77.868 116.964  0.00  0.00     0.028 C 
ATOM     10  C   LIG d   1      -7.187  76.808 117.028  0.00  0.00     0.006 C 
ENDBRANCH   8   9
BRANCH   8  11
ATOM     11  C   LIG d   1      -5.141  75.935 115.797  0.00  0.00     0.028 C 
ATOM     12  C   LIG d   1      -4.884  75.587 114.322  0.00  0.00     0.006 C 
ENDBRANCH   8  11
ENDBRANCH   7   8
ENDBRANCH   1   7
BRANCH   6  13
ATOM     13  N   LIG d   1      -0.982  76.245 117.137  0.00  0.00    -0.311 N 
ATOM     14  C   LIG d   1      -1.206  75.057 117.697  0.00  0.00     0.210 C 
ATOM     15  C   LIG d   1      -0.437  74.801 118.997  0.00  0.00     0.109 C 
ATOM     16  O   LIG d   1      -1.944  74.180 117.224  0.00  0.00    -0.276 OA
ATOM     17  H   LIG d   1      -0.344  76.883 117.571  0.00  0.00     0.149 HD
ENDBRANCH   6  13
BRANCH   5  18
ATOM     18  N   LIG d   1       0.111  75.779 114.322  0.00  0.00     0.381 N 
ATOM     19  H   LIG d   1      -0.065  75.602 113.354  0.00  0.00    -0.090 HD
ATOM     20  H   LIG d   1      -0.214  74.990 114.852  0.00  0.00    -0.090 HD
ATOM     21  H   LIG d   1       1.088  75.908 114.471  0.00  0.00    -0.090 HD
ENDBRANCH   5  18
BRANCH   3  22
ATOM     22  C   LIG d   1      -2.458  79.547 112.860  0.00  0.00     0.382 C 
ATOM     23  O   LIG d   1      -1.893  79.448 111.745  0.00  0.00    -0.241 OA
ATOM     24  O   LIG d   1      -3.191  80.528 113.091  0.00  0.00    -0.241 OA
ENDBRANCH   3  22
TORSDOF 7
ENDMDL
MODEL 5
REMARK VINA RESULT:      -4.7      2.723      5.244
REMARK  7 active torsions:
REMARK  status: ('A' for Active; 'I' for Inactive)
REMARK    1  A    between atoms: C_2  and  C_3 
REMARK    2  A    between atoms: C_3  and  O_6 
REMARK    3  A    between atoms: C_3  and  C_4 
REMARK    4  A    between atoms: C_7  and  O_6 
REMARK    5  A    between atoms: C_9  and  C_10 
REMARK    6  A    between atoms: N_15  and  C_14 
REMARK    7  A    between atoms: N_20  and  C_19 
REMARK       I    between atoms: C_22  and  N_20 
ROOT
ATOM      1  C   LIG d   1      -1.874  76.021 114.878  0.00  0.00     0.161 C 
ATOM      2  C   LIG d   1      -1.734  75.738 116.247  0.00  0.00     0.016 C 
ATOM      3  C   LIG d   1      -1.120  76.619 117.166  0.00  0.00     0.038 C 
ATOM      4  C   LIG d   1      -0.735  77.919 116.803  0.00  0.00     0.028 C 
ATOM      5  C   LIG d   1      -0.397  78.059 115.322  0.00  0.00    -0.047 C 
ATOM      6  C   LIG d   1      -1.560  77.480 114.485  0.00  0.00     0.091 C 
ENDROOT
BRANCH   1   7
ATOM      7  O   LIG d   1      -3.196  75.656 114.436  0.00  0.00    -0.368 OA
BRANCH   7   8
ATOM      8  C   LIG d   1      -4.175  75.423 115.478  0.00  0.00     0.119 C 
BRANCH   8   9
ATOM      9  C   LIG d   1      -4.994  74.182 115.074  0.00  0.00     0.028 C 
ATOM     10  C   LIG d   1      -6.435  74.230 115.608  0.00  0.00     0.006 C 
ENDBRANCH   8   9
BRANCH   8  11
ATOM     11  C   LIG d   1      -5.188  76.569 115.557  0.00  0.00     0.028 C 
ATOM     12  C   LIG d   1      -4.854  77.583 116.663  0.00  0.00     0.006 C 
ENDBRANCH   8  11
ENDBRANCH   7   8
ENDBRANCH   1   7
BRANCH   6  13
ATOM     13  N   LIG d   1      -1.274  77.501 113.027  0.00  0.00    -0.311 N 
ATOM     14  C   LIG d   1      -2.043  78.128 112.138  0.00  0.00     0.210 C 
ATOM     15  C   LIG d   1      -1.578  78.008 110.683  0.00  0.00     0.109 C 
ATOM     16  O   LIG d   1      -3.047  78.799 112.420  0.00  0.00    -0.276 OA
ATOM     17  H   LIG d   1      -0.461  77.008 112.714  0.00  0.00     0.149 HD
ENDBRANCH   6  13
BRANCH   5  18
ATOM     18  N   LIG d   1      -0.148  79.488 115.056  0.00  0.00     0.381 N 
ATOM     19  H   LIG d   1       0.830  79.640 114.909  0.00  0.00    -0.090 HD
ATOM     20  H   LIG d   1      -0.434  80.023 115.857  0.00  0.00    -0.090 HD
ATOM     21  H   LIG d   1      -0.661  79.780 114.253  0.00  0.00    -0.090 HD
ENDBRANCH   5  18
BRANCH   3  22
ATOM     22  C   LIG d   1      -0.848  76.188 118.455  0.00  0.00     0.382 C 
ATOM     23  O   LIG d   1       0.281  76.397 118.961  0.00  0.00    -0.241 OA
ATOM     24  O   LIG d   1      -1.703  75.554 119.103  0.00  0.00    -0.241 OA
ENDBRANCH   3  22
TORSDOF 7
ENDMDL
MODEL 6
REMARK VINA RESULT:      -4.6      3.128      5.556
REMARK  7 active torsions:
REMARK  status: ('A' for Active; 'I' for Inactive)
REMARK    1  A    between atoms: C_2  and  C_3 
REMARK    2  A    between atoms: C_3  and  O_6 
REMARK    3  A    between atoms: C_3  and  C_4 
REMARK    4  A    between atoms: C_7  and  O_6 
REMARK    5  A    between atoms: C_9  and  C_10 
REMARK    6  A    between atoms: N_15  and  C_14 
REMARK    7  A    between atoms: N_20  and  C_19 
REMARK       I    between atoms: C_22  and  N_20 
ROOT
ATOM      1  C   LIG d   1      -1.169  79.610 114.229  0.00  0.00     0.161 C 
ATOM      2  C   LIG d   1      -1.922  78.464 114.535  0.00  0.00     0.016 C 
ATOM      3  C   LIG d   1      -2.325  77.516 113.566  0.00  0.00     0.038 C 
ATOM      4  C   LIG d   1      -1.870  77.573 112.240  0.00  0.00     0.028 C 
ATOM      5  C   LIG d   1      -1.525  78.984 111.777  0.00  0.00    -0.047 C 
ATOM      6  C   LIG d   1      -0.570  79.630 112.807  0.00  0.00     0.091 C 
ENDROOT
BRANCH   1   7
ATOM      7  O   LIG d   1      -0.131  79.789 115.213  0.00  0.00    -0.368 OA
BRANCH   7   8
ATOM      8  C   LIG d   1      -0.335  79.123 116.483  0.00  0.00     0.119 C 
BRANCH   8   9
ATOM      9  C   LIG d   1      -0.624  80.212 117.535  0.00  0.00     0.028 C 
ATOM     10  C   LIG d   1      -2.006  80.043 118.190  0.00  0.00     0.006 C 
ENDBRANCH   8   9
BRANCH   8  11
ATOM     11  C   LIG d   1       0.944  78.428 116.960  0.00  0.00     0.028 C 
ATOM     12  C   LIG d   1       0.823  76.896 116.967  0.00  0.00     0.006 C 
ENDBRANCH   8  11
ENDBRANCH   7   8
ENDBRANCH   1   7
BRANCH   6  13
ATOM     13  N   LIG d   1      -0.249  81.042 112.475  0.00  0.00    -0.311 N 
ATOM     14  C   LIG d   1       0.815  81.403 111.759  0.00  0.00     0.210 C 
ATOM     15  C   LIG d   1       0.971  82.912 111.548  0.00  0.00     0.109 C 
ATOM     16  O   LIG d   1       1.626  80.614 111.251  0.00  0.00    -0.276 OA
ATOM     17  H   LIG d   1      -0.872  81.745 112.820  0.00  0.00     0.149 HD
ENDBRANCH   6  13
BRANCH   5  18
ATOM     18  N   LIG d   1      -0.936  78.880 110.429  0.00  0.00     0.381 N 
ATOM     19  H   LIG d   1      -1.277  79.622 109.852  0.00  0.00    -0.090 HD
ATOM     20  H   LIG d   1      -1.217  78.006 110.019  0.00  0.00    -0.090 HD
ATOM     21  H   LIG d   1       0.058  78.924 110.487  0.00  0.00    -0.090 HD
ENDBRANCH   5  18
BRANCH   3  22
ATOM     22  C   LIG d   1      -3.225  76.520 113.912  0.00  0.00     0.382 C 
ATOM     23  O   LIG d   1      -2.893  75.633 114.734  0.00  0.00    -0.241 OA
ATOM     24  O   LIG d   1      -4.350  76.471 113.378  0.00  0.00    -0.241 OA
ENDBRANCH   3  22
TORSDOF 7
ENDMDL
MODEL 7
REMARK VINA RESULT:      -4.4      2.740      4.062
REMARK  7 active torsions:
REMARK  status: ('A' for Active; 'I' for Inactive)
REMARK    1  A    between atoms: C_2  and  C_3 
REMARK    2  A    between atoms: C_3  and  O_6 
REMARK    3  A    between atoms: C_3  and  C_4 
REMARK    4  A    between atoms: C_7  and  O_6 
REMARK    5  A    between atoms: C_9  and  C_10 
REMARK    6  A    between atoms: N_15  and  C_14 
REMARK    7  A    between atoms: N_20  and  C_19 
REMARK       I    between atoms: C_22  and  N_20 
ROOT
ATOM      1  C   LIG d   1      -2.261  76.914 114.469  0.00  0.00     0.161 C 
ATOM      2  C   LIG d   1      -2.195  77.157 113.087  0.00  0.00     0.016 C 
ATOM      3  C   LIG d   1      -1.455  78.219 112.518  0.00  0.00     0.038 C 
ATOM      4  C   LIG d   1      -0.603  79.025 113.288  0.00  0.00     0.028 C 
ATOM      5  C   LIG d   1      -1.029  79.135 114.748  0.00  0.00    -0.047 C 
ATOM      6  C   LIG d   1      -1.249  77.714 115.315  0.00  0.00     0.091 C 
ENDROOT
BRANCH   1   7
ATOM      7  O   LIG d   1      -2.122  75.502 114.723  0.00  0.00    -0.368 OA
BRANCH   7   8
ATOM      8  C   LIG d   1      -3.283  74.837 115.277  0.00  0.00     0.119 C 
BRANCH   8   9
ATOM      9  C   LIG d   1      -4.451  75.842 115.248  0.00  0.00     0.028 C 
ATOM     10  C   LIG d   1      -5.651  75.324 114.438  0.00  0.00     0.006 C 
ENDBRANCH   8   9
BRANCH   8  11
ATOM     11  C   LIG d   1      -3.078  74.497 116.757  0.00  0.00     0.028 C 
ATOM     12  C   LIG d   1      -1.613  74.180 117.097  0.00  0.00     0.006 C 
ENDBRANCH   8  11
ENDBRANCH   7   8
ENDBRANCH   1   7
BRANCH   6  13
ATOM     13  N   LIG d   1      -1.749  77.733 116.715  0.00  0.00    -0.311 N 
ATOM     14  C   LIG d   1      -0.951  77.666 117.779  0.00  0.00     0.210 C 
ATOM     15  C   LIG d   1      -1.673  77.680 119.130  0.00  0.00     0.109 C 
ATOM     16  O   LIG d   1       0.288  77.627 117.733  0.00  0.00    -0.276 OA
ATOM     17  H   LIG d   1      -2.740  77.794 116.844  0.00  0.00     0.149 HD
ENDBRANCH   6  13
BRANCH   5  18
ATOM     18  N   LIG d   1       0.020  79.887 115.463  0.00  0.00     0.381 N 
ATOM     19  H   LIG d   1      -0.358  80.743 115.815  0.00  0.00    -0.090 HD
ATOM     20  H   LIG d   1       0.757  80.109 114.818  0.00  0.00    -0.090 HD
ATOM     21  H   LIG d   1       0.379  79.340 116.214  0.00  0.00    -0.090 HD
ENDBRANCH   5  18
BRANCH   3  22
ATOM     22  C   LIG d   1      -1.596  78.510 111.170  0.00  0.00     0.382 C 
ATOM     23  O   LIG d   1      -1.017  79.510 110.680  0.00  0.00    -0.241 OA
ATOM     24  O   LIG d   1      -2.329  77.810 110.446  0.00  0.00    -0.241 OA
ENDBRANCH   3  22
TORSDOF 7
ENDMDL
MODEL 8
REMARK VINA RESULT:      -4.4      2.576      3.423
REMARK  7 active torsions:
REMARK  status: ('A' for Active; 'I' for Inactive)
REMARK    1  A    between atoms: C_2  and  C_3 
REMARK    2  A    between atoms: C_3  and  O_6 
REMARK    3  A    between atoms: C_3  and  C_4 
REMARK    4  A    between atoms: C_7  and  O_6 
REMARK    5  A    between atoms: C_9  and  C_10 
REMARK    6  A    between atoms: N_15  and  C_14 
REMARK    7  A    between atoms: N_20  and  C_19 
REMARK       I    between atoms: C_22  and  N_20 
ROOT
ATOM      1  C   LIG d   1      -4.292  78.222 116.919  0.00  0.00     0.161 C 
ATOM      2  C   LIG d   1      -3.387  79.217 117.324  0.00  0.00     0.016 C 
ATOM      3  C   LIG d   1      -2.054  79.293 116.858  0.00  0.00     0.038 C 
ATOM      4  C   LIG d   1      -1.578  78.461 115.833  0.00  0.00     0.028 C 
ATOM      5  C   LIG d   1      -2.300  77.120 115.757  0.00  0.00    -0.047 C 
ATOM      6  C   LIG d   1      -3.825  77.373 115.718  0.00  0.00     0.091 C 
ENDROOT
BRANCH   1   7
ATOM      7  O   LIG d   1      -5.577  78.813 116.645  0.00  0.00    -0.368 OA
BRANCH   7   8
ATOM      8  C   LIG d   1      -6.548  78.755 117.719  0.00  0.00     0.119 C 
BRANCH   8   9
ATOM      9  C   LIG d   1      -7.495  77.576 117.424  0.00  0.00     0.028 C 
ATOM     10  C   LIG d   1      -7.219  76.361 118.326  0.00  0.00     0.006 C 
ENDBRANCH   8   9
BRANCH   8  11
ATOM     11  C   LIG d   1      -7.441  79.999 117.731  0.00  0.00     0.028 C 
ATOM     12  C   LIG d   1      -6.654  81.300 117.506  0.00  0.00     0.006 C 
ENDBRANCH   8  11
ENDBRANCH   7   8
ENDBRANCH   1   7
BRANCH   6  13
ATOM     13  N   LIG d   1      -4.609  76.111 115.727  0.00  0.00    -0.311 N 
ATOM     14  C   LIG d   1      -5.046  75.511 114.621  0.00  0.00     0.210 C 
ATOM     15  C   LIG d   1      -5.853  74.230 114.856  0.00  0.00     0.109 C 
ATOM     16  O   LIG d   1      -4.815  75.900 113.467  0.00  0.00    -0.276 OA
ATOM     17  H   LIG d   1      -4.815  75.709 116.621  0.00  0.00     0.149 HD
ENDBRANCH   6  13
BRANCH   5  18
ATOM     18  N   LIG d   1      -1.801  76.413 114.563  0.00  0.00     0.381 N 
ATOM     19  H   LIG d   1      -2.560  75.957 114.097  0.00  0.00    -0.090 HD
ATOM     20  H   LIG d   1      -1.142  75.711 114.853  0.00  0.00    -0.090 HD
ATOM     21  H   LIG d   1      -1.360  77.057 113.944  0.00  0.00    -0.090 HD
ENDBRANCH   5  18
BRANCH   3  22
ATOM     22  C   LIG d   1      -1.169  80.183 117.448  0.00  0.00     0.382 C 
ATOM     23  O   LIG d   1      -1.438  80.686 118.566  0.00  0.00    -0.241 OA
ATOM     24  O   LIG d   1      -0.127  80.523 116.857  0.00  0.00    -0.241 OA
ENDBRANCH   3  22
TORSDOF 7
ENDMDL
MODEL 9
REMARK VINA RESULT:      -4.4      2.757      5.560
REMARK  7 active torsions:
REMARK  status: ('A' for Active; 'I' for Inactive)
REMARK    1  A    between atoms: C_2  and  C_3 
REMARK    2  A    between atoms: C_3  and  O_6 
REMARK    3  A    between atoms: C_3  and  C_4 
REMARK    4  A    between atoms: C_7  and  O_6 
REMARK    5  A    between atoms: C_9  and  C_10 
REMARK    6  A    between atoms: N_15  and  C_14 
REMARK    7  A    between atoms: N_20  and  C_19 
REMARK       I    between atoms: C_22  and  N_20 
ROOT
ATOM      1  C   LIG d   1      -1.624  76.824 114.685  0.00  0.00     0.161 C 
ATOM      2  C   LIG d   1      -2.790  76.214 114.194  0.00  0.00     0.016 C 
ATOM      3  C   LIG d   1      -4.040  76.283 114.850  0.00  0.00     0.038 C 
ATOM      4  C   LIG d   1      -4.245  77.100 115.972  0.00  0.00     0.028 C 
ATOM      5  C   LIG d   1      -2.979  77.331 116.791  0.00  0.00    -0.047 C 
ATOM      6  C   LIG d   1      -1.852  77.811 115.848  0.00  0.00     0.091 C 
ENDROOT
BRANCH   1   7
ATOM      7  O   LIG d   1      -0.921  77.473 113.607  0.00  0.00    -0.368 OA
BRANCH   7   8
ATOM      8  C   LIG d   1      -1.744  78.032 112.554  0.00  0.00     0.119 C 
BRANCH   8   9
ATOM      9  C   LIG d   1      -1.220  77.481 111.214  0.00  0.00     0.028 C 
ATOM     10  C   LIG d   1      -0.871  78.598 110.217  0.00  0.00     0.006 C 
ENDBRANCH   8   9
BRANCH   8  11
ATOM     11  C   LIG d   1      -1.575  79.552 112.462  0.00  0.00     0.028 C 
ATOM     12  C   LIG d   1      -2.669  80.320 113.221  0.00  0.00     0.006 C 
ENDBRANCH   8  11
ENDBRANCH   7   8
ENDBRANCH   1   7
BRANCH   6  13
ATOM     13  N   LIG d   1      -0.556  77.981 116.555  0.00  0.00    -0.311 N 
ATOM     14  C   LIG d   1       0.192  79.079 116.464  0.00  0.00     0.210 C 
ATOM     15  C   LIG d   1       1.501  79.039 117.257  0.00  0.00     0.109 C 
ATOM     16  O   LIG d   1      -0.121  80.096 115.826  0.00  0.00    -0.276 OA
ATOM     17  H   LIG d   1      -0.241  77.216 117.120  0.00  0.00     0.149 HD
ENDBRANCH   6  13
BRANCH   5  18
ATOM     18  N   LIG d   1      -3.305  78.308 117.847  0.00  0.00     0.381 N 
ATOM     19  H   LIG d   1      -2.578  78.318 118.535  0.00  0.00    -0.090 HD
ATOM     20  H   LIG d   1      -4.159  78.029 118.296  0.00  0.00    -0.090 HD
ATOM     21  H   LIG d   1      -3.410  79.216 117.452  0.00  0.00    -0.090 HD
ENDBRANCH   5  18
BRANCH   3  22
ATOM     22  C   LIG d   1      -5.094  75.498 114.406  0.00  0.00     0.382 C 
ATOM     23  O   LIG d   1      -6.250  75.981 114.338  0.00  0.00    -0.241 OA
ATOM     24  O   LIG d   1      -4.911  74.301 114.116  0.00  0.00    -0.241 OA
ENDBRANCH   3  22
TORSDOF 7
ENDMDL
