MODEL 1
REMARK VINA RESULT:      -5.4      0.000      0.000
REMARK  7 active torsions:
REMARK  status: ('A' for Active; 'I' for Inactive)
REMARK    1  A    between atoms: C_2  and  C_3 
REMARK    2  A    between atoms: C_3  and  O_6 
REMARK    3  A    between atoms: C_3  and  C_4 
REMARK    4  A    between atoms: C_7  and  O_6 
REMARK    5  A    between atoms: C_9  and  C_10 
REMARK    6  A    between atoms: N_15  and  C_14 
REMARK    7  A    between atoms: N_20  and  C_19 
REMARK       I    between atoms: C_22  and  N_20 
ROOT
ATOM      1  C   LIG d   1      -2.761  77.782 114.620  0.00  0.00     0.161 C 
ATOM      2  C   LIG d   1      -2.914  78.808 113.672  0.00  0.00     0.016 C 
ATOM      3  C   LIG d   1      -1.973  79.848 113.492  0.00  0.00     0.038 C 
ATOM      4  C   LIG d   1      -0.734  79.848 114.149  0.00  0.00     0.028 C 
ATOM      5  C   LIG d   1      -0.755  79.109 115.483  0.00  0.00    -0.047 C 
ATOM      6  C   LIG d   1      -1.363  77.704 115.268  0.00  0.00     0.091 C 
ENDROOT
BRANCH   1   7
ATOM      7  O   LIG d   1      -3.111  76.515 114.029  0.00  0.00    -0.368 OA
BRANCH   7   8
ATOM      8  C   LIG d   1      -4.087  75.723 114.751  0.00  0.00     0.119 C 
BRANCH   8   9
ATOM      9  C   LIG d   1      -5.091  75.174 113.719  0.00  0.00     0.028 C 
ATOM     10  C   LIG d   1      -6.100  76.238 113.257  0.00  0.00     0.006 C 
ENDBRANCH   8   9
BRANCH   8  11
ATOM     11  C   LIG d   1      -4.916  76.592 115.701  0.00  0.00     0.028 C 
ATOM     12  C   LIG d   1      -5.102  75.951 117.085  0.00  0.00     0.006 C 
ENDBRANCH   8  11
ENDBRANCH   7   8
ENDBRANCH   1   7
BRANCH   6  13
ATOM     13  N   LIG d   1      -1.498  76.945 116.538  0.00  0.00    -0.311 N 
ATOM     14  C   LIG d   1      -1.083  75.688 116.689  0.00  0.00     0.210 C 
ATOM     15  C   LIG d   1      -1.336  75.085 118.074  0.00  0.00     0.109 C 
ATOM     16  O   LIG d   1      -0.501  75.026 115.817  0.00  0.00    -0.276 OA
ATOM     17  H   LIG d   1      -1.931  77.416 117.308  0.00  0.00     0.149 HD
ENDBRANCH   6  13
BRANCH   5  18
ATOM     18  N   LIG d   1       0.629  79.068 115.992  0.00  0.00     0.381 N 
ATOM     19  H   LIG d   1       1.187  79.745 115.510  0.00  0.00    -0.090 HD
ATOM     20  H   LIG d   1       1.015  78.157 115.813  0.00  0.00    -0.090 HD
ATOM     21  H   LIG d   1       0.638  79.255 116.970  0.00  0.00    -0.090 HD
ENDBRANCH   5  18
BRANCH   3  22
ATOM     22  C   LIG d   1      -2.286  80.924 112.676  0.00  0.00     0.382 C 
ATOM     23  O   LIG d   1      -1.369  81.594 112.143  0.00  0.00    -0.241 OA
ATOM     24  O   LIG d   1      -3.473  81.261 112.503  0.00  0.00    -0.241 OA
ENDBRANCH   3  22
TORSDOF 7
ENDMDL
MODEL 2
REMARK VINA RESULT:      -5.4      1.684      2.254
REMARK  7 active torsions:
REMARK  status: ('A' for Active; 'I' for Inactive)
REMARK    1  A    between atoms: C_2  and  C_3 
REMARK    2  A    between atoms: C_3  and  O_6 
REMARK    3  A    between atoms: C_3  and  C_4 
REMARK    4  A    between atoms: C_7  and  O_6 
REMARK    5  A    between atoms: C_9  and  C_10 
REMARK    6  A    between atoms: N_15  and  C_14 
REMARK    7  A    between atoms: N_20  and  C_19 
REMARK       I    between atoms: C_22  and  N_20 
ROOT
ATOM      1  C   LIG d   1      -2.832  77.737 116.264  0.00  0.00     0.161 C 
ATOM      2  C   LIG d   1      -3.109  78.517 115.128  0.00  0.00     0.016 C 
ATOM      3  C   LIG d   1      -2.318  78.494 113.957  0.00  0.00     0.038 C 
ATOM      4  C   LIG d   1      -1.275  77.572 113.784  0.00  0.00     0.028 C 
ATOM      5  C   LIG d   1      -0.645  77.117 115.096  0.00  0.00    -0.047 C 
ATOM      6  C   LIG d   1      -1.764  76.644 116.052  0.00  0.00     0.091 C 
ENDROOT
BRANCH   1   7
ATOM      7  O   LIG d   1      -4.051  77.156 116.767  0.00  0.00    -0.368 OA
BRANCH   7   8
ATOM      8  C   LIG d   1      -5.135  77.025 115.815  0.00  0.00     0.119 C 
BRANCH   8   9
ATOM      9  C   LIG d   1      -6.442  77.386 116.548  0.00  0.00     0.028 C 
ATOM     10  C   LIG d   1      -7.545  76.337 116.332  0.00  0.00     0.006 C 
ENDBRANCH   8   9
BRANCH   8  11
ATOM     11  C   LIG d   1      -5.311  75.571 115.366  0.00  0.00     0.028 C 
ATOM     12  C   LIG d   1      -4.935  75.353 113.892  0.00  0.00     0.006 C 
ENDBRANCH   8  11
ENDBRANCH   7   8
ENDBRANCH   1   7
BRANCH   6  13
ATOM     13  N   LIG d   1      -1.241  76.261 117.390  0.00  0.00    -0.311 N 
ATOM     14  C   LIG d   1      -1.506  75.093 117.973  0.00  0.00     0.210 C 
ATOM     15  C   LIG d   1      -0.885  74.908 119.361  0.00  0.00     0.109 C 
ATOM     16  O   LIG d   1      -2.170  74.180 117.460  0.00  0.00    -0.276 OA
ATOM     17  H   LIG d   1      -0.668  76.931 117.865  0.00  0.00     0.149 HD
ENDBRANCH   6  13
BRANCH   5  18
ATOM     18  N   LIG d   1       0.331  76.058 114.778  0.00  0.00     0.381 N 
ATOM     19  H   LIG d   1       0.690  75.663 115.625  0.00  0.00    -0.090 HD
ATOM     20  H   LIG d   1       1.097  76.463 114.270  0.00  0.00    -0.090 HD
ATOM     21  H   LIG d   1      -0.103  75.348 114.230  0.00  0.00    -0.090 HD
ENDBRANCH   5  18
BRANCH   3  22
ATOM     22  C   LIG d   1      -2.543  79.429 112.958  0.00  0.00     0.382 C 
ATOM     23  O   LIG d   1      -2.089  79.236 111.804  0.00  0.00    -0.241 OA
ATOM     24  O   LIG d   1      -3.156  80.485 113.207  0.00  0.00    -0.241 OA
ENDBRANCH   3  22
TORSDOF 7
ENDMDL
MODEL 3
REMARK VINA RESULT:      -4.9      2.926      3.877
REMARK  7 active torsions:
REMARK  status: ('A' for Active; 'I' for Inactive)
REMARK    1  A    between atoms: C_2  and  C_3 
REMARK    2  A    between atoms: C_3  and  O_6 
REMARK    3  A    between atoms: C_3  and  C_4 
REMARK    4  A    between atoms: C_7  and  O_6 
REMARK    5  A    between atoms: C_9  and  C_10 
REMARK    6  A    between atoms: N_15  and  C_14 
REMARK    7  A    between atoms: N_20  and  C_19 
REMARK       I    between atoms: C_22  and  N_20 
ROOT
ATOM      1  C   LIG d   1      -4.264  76.977 117.017  0.00  0.00     0.161 C 
ATOM      2  C   LIG d   1      -5.090  78.012 117.486  0.00  0.00     0.016 C 
ATOM      3  C   LIG d   1      -4.782  79.383 117.332  0.00  0.00     0.038 C 
ATOM      4  C   LIG d   1      -3.694  79.816 116.560  0.00  0.00     0.028 C 
ATOM      5  C   LIG d   1      -2.556  78.803 116.495  0.00  0.00    -0.047 C 
ATOM      6  C   LIG d   1      -3.129  77.430 116.075  0.00  0.00     0.091 C 
ENDROOT
BRANCH   1   7
ATOM      7  O   LIG d   1      -5.067  75.962 116.382  0.00  0.00    -0.368 OA
BRANCH   7   8
ATOM      8  C   LIG d   1      -6.279  76.420 115.735  0.00  0.00     0.119 C 
BRANCH   8   9
ATOM      9  C   LIG d   1      -7.431  75.516 116.215  0.00  0.00     0.028 C 
ATOM     10  C   LIG d   1      -6.928  74.185 116.799  0.00  0.00     0.006 C 
ENDBRANCH   8   9
BRANCH   8  11
ATOM     11  C   LIG d   1      -6.212  76.219 114.218  0.00  0.00     0.028 C 
ATOM     12  C   LIG d   1      -5.104  75.240 113.795  0.00  0.00     0.006 C 
ENDBRANCH   8  11
ENDBRANCH   7   8
ENDBRANCH   1   7
BRANCH   6  13
ATOM     13  N   LIG d   1      -2.096  76.362 116.069  0.00  0.00    -0.311 N 
ATOM     14  C   LIG d   1      -1.440  75.983 114.973  0.00  0.00     0.210 C 
ATOM     15  C   LIG d   1      -0.431  74.850 115.183  0.00  0.00     0.109 C 
ATOM     16  O   LIG d   1      -1.576  76.500 113.854  0.00  0.00    -0.276 OA
ATOM     17  H   LIG d   1      -1.901  75.911 116.941  0.00  0.00     0.149 HD
ENDBRANCH   6  13
BRANCH   5  18
ATOM     18  N   LIG d   1      -1.550  79.323 115.549  0.00  0.00     0.381 N 
ATOM     19  H   LIG d   1      -0.750  78.723 115.542  0.00  0.00    -0.090 HD
ATOM     20  H   LIG d   1      -1.258  80.235 115.854  0.00  0.00    -0.090 HD
ATOM     21  H   LIG d   1      -1.940  79.379 114.634  0.00  0.00    -0.090 HD
ENDBRANCH   5  18
BRANCH   3  22
ATOM     22  C   LIG d   1      -5.545  80.337 117.988  0.00  0.00     0.382 C 
ATOM     23  O   LIG d   1      -6.297  81.097 117.332  0.00  0.00    -0.241 OA
ATOM     24  O   LIG d   1      -5.457  80.476 119.223  0.00  0.00    -0.241 OA
ENDBRANCH   3  22
TORSDOF 7
ENDMDL
MODEL 4
REMARK VINA RESULT:      -4.8      2.380      3.985
REMARK  7 active torsions:
REMARK  status: ('A' for Active; 'I' for Inactive)
REMARK    1  A    between atoms: C_2  and  C_3 
REMARK    2  A    between atoms: C_3  and  O_6 
REMARK    3  A    between atoms: C_3  and  C_4 
REMARK    4  A    between atoms: C_7  and  O_6 
REMARK    5  A    between atoms: C_9  and  C_10 
REMARK    6  A    between atoms: N_15  and  C_14 
REMARK    7  A    between atoms: N_20  and  C_19 
REMARK       I    between atoms: C_22  and  N_20 
ROOT
ATOM      1  C   LIG d   1      -2.548  76.903 114.466  0.00  0.00     0.161 C 
ATOM      2  C   LIG d   1      -1.475  77.791 114.285  0.00  0.00     0.016 C 
ATOM      3  C   LIG d   1      -1.319  78.985 115.025  0.00  0.00     0.038 C 
ATOM      4  C   LIG d   1      -2.152  79.299 116.110  0.00  0.00     0.028 C 
ATOM      5  C   LIG d   1      -3.544  78.686 116.001  0.00  0.00    -0.047 C 
ATOM      6  C   LIG d   1      -3.406  77.172 115.720  0.00  0.00     0.091 C 
ENDROOT
BRANCH   1   7
ATOM      7  O   LIG d   1      -2.063  75.546 114.472  0.00  0.00    -0.368 OA
BRANCH   7   8
ATOM      8  C   LIG d   1      -0.702  75.357 114.930  0.00  0.00     0.119 C 
BRANCH   8   9
ATOM      9  C   LIG d   1      -0.105  74.181 114.133  0.00  0.00     0.028 C 
ATOM     10  C   LIG d   1       0.893  74.645 113.059  0.00  0.00     0.006 C 
ENDBRANCH   8   9
BRANCH   8  11
ATOM     11  C   LIG d   1      -0.663  74.916 116.396  0.00  0.00     0.028 C 
ATOM     12  C   LIG d   1      -0.047  75.977 117.321  0.00  0.00     0.006 C 
ENDBRANCH   8  11
ENDBRANCH   7   8
ENDBRANCH   1   7
BRANCH   6  13
ATOM     13  N   LIG d   1      -4.721  76.511 115.516  0.00  0.00    -0.311 N 
ATOM     14  C   LIG d   1      -5.388  75.892 116.488  0.00  0.00     0.210 C 
ATOM     15  C   LIG d   1      -6.716  75.259 116.059  0.00  0.00     0.109 C 
ATOM     16  O   LIG d   1      -5.023  75.834 117.672  0.00  0.00    -0.276 OA
ATOM     17  H   LIG d   1      -5.106  76.537 114.592  0.00  0.00     0.149 HD
ENDBRANCH   6  13
BRANCH   5  18
ATOM     18  N   LIG d   1      -4.259  78.977 117.259  0.00  0.00     0.381 N 
ATOM     19  H   LIG d   1      -5.245  78.981 117.095  0.00  0.00    -0.090 HD
ATOM     20  H   LIG d   1      -3.989  79.890 117.582  0.00  0.00    -0.090 HD
ATOM     21  H   LIG d   1      -4.031  78.293 117.946  0.00  0.00    -0.090 HD
ENDBRANCH   5  18
BRANCH   3  22
ATOM     22  C   LIG d   1      -0.345  79.901 114.657  0.00  0.00     0.382 C 
ATOM     23  O   LIG d   1      -0.290  80.316 113.474  0.00  0.00    -0.241 OA
ATOM     24  O   LIG d   1       0.507  80.282 115.481  0.00  0.00    -0.241 OA
ENDBRANCH   3  22
TORSDOF 7
ENDMDL
MODEL 5
REMARK VINA RESULT:      -4.8      2.014      2.840
REMARK  7 active torsions:
REMARK  status: ('A' for Active; 'I' for Inactive)
REMARK    1  A    between atoms: C_2  and  C_3 
REMARK    2  A    between atoms: C_3  and  O_6 
REMARK    3  A    between atoms: C_3  and  C_4 
REMARK    4  A    between atoms: C_7  and  O_6 
REMARK    5  A    between atoms: C_9  and  C_10 
REMARK    6  A    between atoms: N_15  and  C_14 
REMARK    7  A    between atoms: N_20  and  C_19 
REMARK       I    between atoms: C_22  and  N_20 
ROOT
ATOM      1  C   LIG d   1      -2.665  76.111 116.465  0.00  0.00     0.161 C 
ATOM      2  C   LIG d   1      -3.134  77.203 115.715  0.00  0.00     0.016 C 
ATOM      3  C   LIG d   1      -2.451  77.729 114.595  0.00  0.00     0.038 C 
ATOM      4  C   LIG d   1      -1.320  77.100 114.054  0.00  0.00     0.028 C 
ATOM      5  C   LIG d   1      -0.527  76.294 115.077  0.00  0.00    -0.047 C 
ATOM      6  C   LIG d   1      -1.491  75.343 115.822  0.00  0.00     0.091 C 
ENDROOT
BRANCH   1   7
ATOM      7  O   LIG d   1      -3.754  75.212 116.753  0.00  0.00    -0.368 OA
BRANCH   7   8
ATOM      8  C   LIG d   1      -5.070  75.649 116.333  0.00  0.00     0.119 C 
BRANCH   8   9
ATOM      9  C   LIG d   1      -6.015  75.499 117.540  0.00  0.00     0.028 C 
ATOM     10  C   LIG d   1      -7.306  76.319 117.381  0.00  0.00     0.006 C 
ENDBRANCH   8   9
BRANCH   8  11
ATOM     11  C   LIG d   1      -5.643  74.728 115.251  0.00  0.00     0.028 C 
ATOM     12  C   LIG d   1      -5.140  75.079 113.842  0.00  0.00     0.006 C 
ENDBRANCH   8  11
ENDBRANCH   7   8
ENDBRANCH   1   7
BRANCH   6  13
ATOM     13  N   LIG d   1      -0.811  74.577 116.900  0.00  0.00    -0.311 N 
ATOM     14  C   LIG d   1      -0.183  75.153 117.924  0.00  0.00     0.210 C 
ATOM     15  C   LIG d   1       0.468  74.180 118.912  0.00  0.00     0.109 C 
ATOM     16  O   LIG d   1      -0.131  76.376 118.125  0.00  0.00    -0.276 OA
ATOM     17  H   LIG d   1      -0.832  73.579 116.832  0.00  0.00     0.149 HD
ENDBRANCH   6  13
BRANCH   5  18
ATOM     18  N   LIG d   1       0.542  75.582 114.352  0.00  0.00     0.381 N 
ATOM     19  H   LIG d   1       0.144  74.865 113.780  0.00  0.00    -0.090 HD
ATOM     20  H   LIG d   1       1.155  75.149 115.020  0.00  0.00    -0.090 HD
ATOM     21  H   LIG d   1       1.055  76.222 113.786  0.00  0.00    -0.090 HD
ENDBRANCH   5  18
BRANCH   3  22
ATOM     22  C   LIG d   1      -2.876  78.921 114.029  0.00  0.00     0.382 C 
ATOM     23  O   LIG d   1      -2.853  79.067 112.783  0.00  0.00    -0.241 OA
ATOM     24  O   LIG d   1      -3.240  79.869 114.750  0.00  0.00    -0.241 OA
ENDBRANCH   3  22
TORSDOF 7
ENDMDL
MODEL 6
REMARK VINA RESULT:      -4.7      2.144      2.776
REMARK  7 active torsions:
REMARK  status: ('A' for Active; 'I' for Inactive)
REMARK    1  A    between atoms: C_2  and  C_3 
REMARK    2  A    between atoms: C_3  and  O_6 
REMARK    3  A    between atoms: C_3  and  C_4 
REMARK    4  A    between atoms: C_7  and  O_6 
REMARK    5  A    between atoms: C_9  and  C_10 
REMARK    6  A    between atoms: N_15  and  C_14 
REMARK    7  A    between atoms: N_20  and  C_19 
REMARK       I    between atoms: C_22  and  N_20 
ROOT
ATOM      1  C   LIG d   1      -2.870  78.433 116.029  0.00  0.00     0.161 C 
ATOM      2  C   LIG d   1      -2.983  79.425 115.041  0.00  0.00     0.016 C 
ATOM      3  C   LIG d   1      -2.233  79.419 113.843  0.00  0.00     0.038 C 
ATOM      4  C   LIG d   1      -1.423  78.332 113.481  0.00  0.00     0.028 C 
ATOM      5  C   LIG d   1      -0.892  77.548 114.675  0.00  0.00    -0.047 C 
ATOM      6  C   LIG d   1      -2.074  77.182 115.601  0.00  0.00     0.091 C 
ENDROOT
BRANCH   1   7
ATOM      7  O   LIG d   1      -4.181  78.057 116.497  0.00  0.00    -0.368 OA
BRANCH   7   8
ATOM      8  C   LIG d   1      -4.566  78.572 117.795  0.00  0.00     0.119 C 
BRANCH   8   9
ATOM      9  C   LIG d   1      -4.957  77.367 118.673  0.00  0.00     0.028 C 
ATOM     10  C   LIG d   1      -5.742  76.301 117.891  0.00  0.00     0.006 C 
ENDBRANCH   8   9
BRANCH   8  11
ATOM     11  C   LIG d   1      -5.830  79.432 117.700  0.00  0.00     0.028 C 
ATOM     12  C   LIG d   1      -6.392  79.818 119.077  0.00  0.00     0.006 C 
ENDBRANCH   8  11
ENDBRANCH   7   8
ENDBRANCH   1   7
BRANCH   6  13
ATOM     13  N   LIG d   1      -1.631  76.486 116.838  0.00  0.00    -0.311 N 
ATOM     14  C   LIG d   1      -2.108  75.304 117.224  0.00  0.00     0.210 C 
ATOM     15  C   LIG d   1      -1.531  74.773 118.540  0.00  0.00     0.109 C 
ATOM     16  O   LIG d   1      -2.930  74.629 116.585  0.00  0.00    -0.276 OA
ATOM     17  H   LIG d   1      -0.943  76.947 117.400  0.00  0.00     0.149 HD
ENDBRANCH   6  13
BRANCH   5  18
ATOM     18  N   LIG d   1      -0.180  76.366 114.152  0.00  0.00     0.381 N 
ATOM     19  H   LIG d   1      -0.183  75.638 114.838  0.00  0.00    -0.090 HD
ATOM     20  H   LIG d   1       0.774  76.619 113.964  0.00  0.00    -0.090 HD
ATOM     21  H   LIG d   1      -0.617  76.048 113.316  0.00  0.00    -0.090 HD
ENDBRANCH   5  18
BRANCH   3  22
ATOM     22  C   LIG d   1      -2.258  80.528 113.011  0.00  0.00     0.382 C 
ATOM     23  O   LIG d   1      -3.340  80.903 112.499  0.00  0.00    -0.241 OA
ATOM     24  O   LIG d   1      -1.205  81.131 112.730  0.00  0.00    -0.241 OA
ENDBRANCH   3  22
TORSDOF 7
ENDMDL
MODEL 7
REMARK VINA RESULT:      -4.6      3.314      3.987
REMARK  7 active torsions:
REMARK  status: ('A' for Active; 'I' for Inactive)
REMARK    1  A    between atoms: C_2  and  C_3 
REMARK    2  A    between atoms: C_3  and  O_6 
REMARK    3  A    between atoms: C_3  and  C_4 
REMARK    4  A    between atoms: C_7  and  O_6 
REMARK    5  A    between atoms: C_9  and  C_10 
REMARK    6  A    between atoms: N_15  and  C_14 
REMARK    7  A    between atoms: N_20  and  C_19 
REMARK       I    between atoms: C_22  and  N_20 
ROOT
ATOM      1  C   LIG d   1      -4.909  77.660 117.083  0.00  0.00     0.161 C 
ATOM      2  C   LIG d   1      -5.823  78.693 117.350  0.00  0.00     0.016 C 
ATOM      3  C   LIG d   1      -5.433  80.015 117.665  0.00  0.00     0.038 C 
ATOM      4  C   LIG d   1      -4.096  80.433 117.586  0.00  0.00     0.028 C 
ATOM      5  C   LIG d   1      -3.095  79.305 117.813  0.00  0.00    -0.047 C 
ATOM      6  C   LIG d   1      -3.450  78.123 116.883  0.00  0.00     0.091 C 
ENDROOT
BRANCH   1   7
ATOM      7  O   LIG d   1      -5.353  76.897 115.944  0.00  0.00    -0.368 OA
BRANCH   7   8
ATOM      8  C   LIG d   1      -5.571  75.483 116.170  0.00  0.00     0.119 C 
BRANCH   8   9
ATOM      9  C   LIG d   1      -5.551  74.786 114.796  0.00  0.00     0.028 C 
ATOM     10  C   LIG d   1      -5.229  75.759 113.649  0.00  0.00     0.006 C 
ENDBRANCH   8   9
BRANCH   8  11
ATOM     11  C   LIG d   1      -6.968  75.217 116.739  0.00  0.00     0.028 C 
ATOM     12  C   LIG d   1      -8.059  76.052 116.051  0.00  0.00     0.006 C 
ENDBRANCH   8  11
ENDBRANCH   7   8
ENDBRANCH   1   7
BRANCH   6  13
ATOM     13  N   LIG d   1      -2.571  76.945 117.102  0.00  0.00    -0.311 N 
ATOM     14  C   LIG d   1      -1.974  76.282 116.113  0.00  0.00     0.210 C 
ATOM     15  C   LIG d   1      -1.127  75.085 116.555  0.00  0.00     0.109 C 
ATOM     16  O   LIG d   1      -2.041  76.590 114.913  0.00  0.00    -0.276 OA
ATOM     17  H   LIG d   1      -2.437  76.645 118.047  0.00  0.00     0.149 HD
ENDBRANCH   6  13
BRANCH   5  18
ATOM     18  N   LIG d   1      -1.746  79.849 117.566  0.00  0.00     0.381 N 
ATOM     19  H   LIG d   1      -1.207  79.814 118.409  0.00  0.00    -0.090 HD
ATOM     20  H   LIG d   1      -1.830  80.810 117.286  0.00  0.00    -0.090 HD
ATOM     21  H   LIG d   1      -1.292  79.325 116.851  0.00  0.00    -0.090 HD
ENDBRANCH   5  18
BRANCH   3  22
ATOM     22  C   LIG d   1      -6.382  80.926 118.103  0.00  0.00     0.382 C 
ATOM     23  O   LIG d   1      -6.698  80.967 119.317  0.00  0.00    -0.241 OA
ATOM     24  O   LIG d   1      -6.958  81.677 117.294  0.00  0.00    -0.241 OA
ENDBRANCH   3  22
TORSDOF 7
ENDMDL
MODEL 8
REMARK VINA RESULT:      -4.5      2.148      5.148
REMARK  7 active torsions:
REMARK  status: ('A' for Active; 'I' for Inactive)
REMARK    1  A    between atoms: C_2  and  C_3 
REMARK    2  A    between atoms: C_3  and  O_6 
REMARK    3  A    between atoms: C_3  and  C_4 
REMARK    4  A    between atoms: C_7  and  O_6 
REMARK    5  A    between atoms: C_9  and  C_10 
REMARK    6  A    between atoms: N_15  and  C_14 
REMARK    7  A    between atoms: N_20  and  C_19 
REMARK       I    between atoms: C_22  and  N_20 
ROOT
ATOM      1  C   LIG d   1      -1.844  77.089 115.276  0.00  0.00     0.161 C 
ATOM      2  C   LIG d   1      -3.069  76.775 114.665  0.00  0.00     0.016 C 
ATOM      3  C   LIG d   1      -3.925  75.746 115.121  0.00  0.00     0.038 C 
ATOM      4  C   LIG d   1      -3.683  75.056 116.318  0.00  0.00     0.028 C 
ATOM      5  C   LIG d   1      -2.207  74.994 116.694  0.00  0.00    -0.047 C 
ATOM      6  C   LIG d   1      -1.617  76.422 116.649  0.00  0.00     0.091 C 
ENDROOT
BRANCH   1   7
ATOM      7  O   LIG d   1      -1.705  78.519 115.385  0.00  0.00    -0.368 OA
BRANCH   7   8
ATOM      8  C   LIG d   1      -0.659  79.121 114.583  0.00  0.00     0.119 C 
BRANCH   8   9
ATOM      9  C   LIG d   1       0.193  80.001 115.517  0.00  0.00     0.028 C 
ATOM     10  C   LIG d   1      -0.435  80.154 116.913  0.00  0.00     0.006 C 
ENDBRANCH   8   9
BRANCH   8  11
ATOM     11  C   LIG d   1      -1.239  80.080 113.539  0.00  0.00     0.028 C 
ATOM     12  C   LIG d   1      -1.503  79.401 112.186  0.00  0.00     0.006 C 
ENDBRANCH   8  11
ENDBRANCH   7   8
ENDBRANCH   1   7
BRANCH   6  13
ATOM     13  N   LIG d   1      -0.156  76.440 116.921  0.00  0.00    -0.311 N 
ATOM     14  C   LIG d   1       0.364  76.710 118.118  0.00  0.00     0.210 C 
ATOM     15  C   LIG d   1       1.894  76.696 118.176  0.00  0.00     0.109 C 
ATOM     16  O   LIG d   1      -0.299  76.927 119.144  0.00  0.00    -0.276 OA
ATOM     17  H   LIG d   1       0.454  76.244 116.152  0.00  0.00     0.149 HD
ENDBRANCH   6  13
BRANCH   5  18
ATOM     18  N   LIG d   1      -2.112  74.371 118.027  0.00  0.00     0.381 N 
ATOM     19  H   LIG d   1      -1.158  74.360 118.329  0.00  0.00    -0.090 HD
ATOM     20  H   LIG d   1      -2.434  73.421 117.966  0.00  0.00    -0.090 HD
ATOM     21  H   LIG d   1      -2.668  74.876 118.680  0.00  0.00    -0.090 HD
ENDBRANCH   5  18
BRANCH   3  22
ATOM     22  C   LIG d   1      -5.018  75.370 114.354  0.00  0.00     0.382 C 
ATOM     23  O   LIG d   1      -5.096  75.731 113.155  0.00  0.00    -0.241 OA
ATOM     24  O   LIG d   1      -5.947  74.712 114.858  0.00  0.00    -0.241 OA
ENDBRANCH   3  22
TORSDOF 7
ENDMDL
MODEL 9
REMARK VINA RESULT:      -4.3      1.814      2.447
REMARK  7 active torsions:
REMARK  status: ('A' for Active; 'I' for Inactive)
REMARK    1  A    between atoms: C_2  and  C_3 
REMARK    2  A    between atoms: C_3  and  O_6 
REMARK    3  A    between atoms: C_3  and  C_4 
REMARK    4  A    between atoms: C_7  and  O_6 
REMARK    5  A    between atoms: C_9  and  C_10 
REMARK    6  A    between atoms: N_15  and  C_14 
REMARK    7  A    between atoms: N_20  and  C_19 
REMARK       I    between atoms: C_22  and  N_20 
ROOT
ATOM      1  C   LIG d   1      -2.727  78.325 115.475  0.00  0.00     0.161 C 
ATOM      2  C   LIG d   1      -2.935  79.066 114.300  0.00  0.00     0.016 C 
ATOM      3  C   LIG d   1      -1.954  79.909 113.727  0.00  0.00     0.038 C 
ATOM      4  C   LIG d   1      -0.638  79.950 114.211  0.00  0.00     0.028 C 
ATOM      5  C   LIG d   1      -0.527  79.606 115.693  0.00  0.00    -0.047 C 
ATOM      6  C   LIG d   1      -1.262  78.271 115.955  0.00  0.00     0.091 C 
ENDROOT
BRANCH   1   7
ATOM      7  O   LIG d   1      -3.249  76.991 115.310  0.00  0.00    -0.368 OA
BRANCH   7   8
ATOM      8  C   LIG d   1      -4.601  76.773 115.783  0.00  0.00     0.119 C 
BRANCH   8   9
ATOM      9  C   LIG d   1      -4.505  76.097 117.164  0.00  0.00     0.028 C 
ATOM     10  C   LIG d   1      -5.048  76.989 118.294  0.00  0.00     0.006 C 
ENDBRANCH   8   9
BRANCH   8  11
ATOM     11  C   LIG d   1      -5.349  75.775 114.894  0.00  0.00     0.028 C 
ATOM     12  C   LIG d   1      -5.829  74.535 115.664  0.00  0.00     0.006 C 
ENDBRANCH   8  11
ENDBRANCH   7   8
ENDBRANCH   1   7
BRANCH   6  13
ATOM     13  N   LIG d   1      -1.273  77.903 117.394  0.00  0.00    -0.311 N 
ATOM     14  C   LIG d   1      -1.818  78.665 118.341  0.00  0.00     0.210 C 
ATOM     15  C   LIG d   1      -1.703  78.109 119.764  0.00  0.00     0.109 C 
ATOM     16  O   LIG d   1      -2.414  79.733 118.134  0.00  0.00    -0.276 OA
ATOM     17  H   LIG d   1      -0.838  77.038 117.648  0.00  0.00     0.149 HD
ENDBRANCH   6  13
BRANCH   5  18
ATOM     18  N   LIG d   1       0.908  79.552 116.031  0.00  0.00     0.381 N 
ATOM     19  H   LIG d   1       1.114  80.226 116.741  0.00  0.00    -0.090 HD
ATOM     20  H   LIG d   1       1.444  79.783 115.213  0.00  0.00    -0.090 HD
ATOM     21  H   LIG d   1       1.149  78.640 116.349  0.00  0.00    -0.090 HD
ENDBRANCH   5  18
BRANCH   3  22
ATOM     22  C   LIG d   1      -2.298  80.752 112.682  0.00  0.00     0.382 C 
ATOM     23  O   LIG d   1      -3.419  81.316 112.674  0.00  0.00    -0.241 OA
ATOM     24  O   LIG d   1      -1.520  80.921 111.724  0.00  0.00    -0.241 OA
ENDBRANCH   3  22
TORSDOF 7
ENDMDL
