MODEL 1
REMARK VINA RESULT:      -4.9      0.000      0.000
REMARK  7 active torsions:
REMARK  status: ('A' for Active; 'I' for Inactive)
REMARK    1  A    between atoms: C_2  and  C_3 
REMARK    2  A    between atoms: C_3  and  O_6 
REMARK    3  A    between atoms: C_3  and  C_4 
REMARK    4  A    between atoms: C_7  and  O_6 
REMARK    5  A    between atoms: C_9  and  C_10 
REMARK    6  A    between atoms: N_15  and  C_14 
REMARK    7  A    between atoms: N_20  and  C_19 
REMARK       I    between atoms: C_22  and  N_20 
ROOT
ATOM      1  C   LIG d   1      -6.035  77.482 117.243  0.00  0.00     0.161 C 
ATOM      2  C   LIG d   1      -6.766  78.675 117.362  0.00  0.00     0.016 C 
ATOM      3  C   LIG d   1      -6.165  79.938 117.576  0.00  0.00     0.038 C 
ATOM      4  C   LIG d   1      -4.774  80.113 117.534  0.00  0.00     0.028 C 
ATOM      5  C   LIG d   1      -3.994  78.862 117.920  0.00  0.00    -0.047 C 
ATOM      6  C   LIG d   1      -4.512  77.669 117.084  0.00  0.00     0.091 C 
ENDROOT
BRANCH   1   7
ATOM      7  O   LIG d   1      -6.559  76.694 116.156  0.00  0.00    -0.368 OA
BRANCH   7   8
ATOM      8  C   LIG d   1      -7.278  75.493 116.528  0.00  0.00     0.119 C 
BRANCH   8   9
ATOM      9  C   LIG d   1      -7.293  75.420 118.067  0.00  0.00     0.028 C 
ATOM     10  C   LIG d   1      -6.557  74.180 118.603  0.00  0.00     0.006 C 
ENDBRANCH   8   9
BRANCH   8  11
ATOM     11  C   LIG d   1      -6.535  74.234 116.070  0.00  0.00     0.028 C 
ATOM     12  C   LIG d   1      -5.792  74.433 114.739  0.00  0.00     0.006 C 
ENDBRANCH   8  11
ENDBRANCH   7   8
ENDBRANCH   1   7
BRANCH   6  13
ATOM     13  N   LIG d   1      -3.859  76.388 117.458  0.00  0.00    -0.311 N 
ATOM     14  C   LIG d   1      -3.070  75.699 116.636  0.00  0.00     0.210 C 
ATOM     15  C   LIG d   1      -2.515  74.394 117.214  0.00  0.00     0.109 C 
ATOM     16  O   LIG d   1      -2.751  76.061 115.493  0.00  0.00    -0.276 OA
ATOM     17  H   LIG d   1      -4.039  76.036 118.379  0.00  0.00     0.149 HD
ENDBRANCH   6  13
BRANCH   5  18
ATOM     18  N   LIG d   1      -2.562  79.143 117.700  0.00  0.00     0.381 N 
ATOM     19  H   LIG d   1      -2.201  78.533 116.994  0.00  0.00    -0.090 HD
ATOM     20  H   LIG d   1      -2.062  78.969 118.554  0.00  0.00    -0.090 HD
ATOM     21  H   LIG d   1      -2.440  80.093 117.423  0.00  0.00    -0.090 HD
ENDBRANCH   5  18
BRANCH   3  22
ATOM     22  C   LIG d   1      -6.959  81.034 117.875  0.00  0.00     0.382 C 
ATOM     23  O   LIG d   1      -7.589  81.620 116.962  0.00  0.00    -0.241 OA
ATOM     24  O   LIG d   1      -7.018  81.473 119.040  0.00  0.00    -0.241 OA
ENDBRANCH   3  22
TORSDOF 7
ENDMDL
MODEL 2
REMARK VINA RESULT:      -4.9      2.792      6.019
REMARK  7 active torsions:
REMARK  status: ('A' for Active; 'I' for Inactive)
REMARK    1  A    between atoms: C_2  and  C_3 
REMARK    2  A    between atoms: C_3  and  O_6 
REMARK    3  A    between atoms: C_3  and  C_4 
REMARK    4  A    between atoms: C_7  and  O_6 
REMARK    5  A    between atoms: C_9  and  C_10 
REMARK    6  A    between atoms: N_15  and  C_14 
REMARK    7  A    between atoms: N_20  and  C_19 
REMARK       I    between atoms: C_22  and  N_20 
ROOT
ATOM      1  C   LIG d   1      -4.306  78.455 116.609  0.00  0.00     0.161 C 
ATOM      2  C   LIG d   1      -4.237  77.194 115.995  0.00  0.00     0.016 C 
ATOM      3  C   LIG d   1      -5.334  76.304 115.919  0.00  0.00     0.038 C 
ATOM      4  C   LIG d   1      -6.623  76.681 116.322  0.00  0.00     0.028 C 
ATOM      5  C   LIG d   1      -6.629  77.753 117.407  0.00  0.00    -0.047 C 
ATOM      6  C   LIG d   1      -5.733  78.929 116.956  0.00  0.00     0.091 C 
ENDROOT
BRANCH   1   7
ATOM      7  O   LIG d   1      -3.638  79.435 115.789  0.00  0.00    -0.368 OA
BRANCH   7   8
ATOM      8  C   LIG d   1      -2.591  78.933 114.922  0.00  0.00     0.119 C 
BRANCH   8   9
ATOM      9  C   LIG d   1      -1.243  79.215 115.614  0.00  0.00     0.028 C 
ATOM     10  C   LIG d   1      -0.573  77.933 116.138  0.00  0.00     0.006 C 
ENDBRANCH   8   9
BRANCH   8  11
ATOM     11  C   LIG d   1      -2.539  79.710 113.603  0.00  0.00     0.028 C 
ATOM     12  C   LIG d   1      -1.118  79.813 113.027  0.00  0.00     0.006 C 
ENDBRANCH   8  11
ENDBRANCH   7   8
ENDBRANCH   1   7
BRANCH   6  13
ATOM     13  N   LIG d   1      -5.616  79.984 117.995  0.00  0.00    -0.311 N 
ATOM     14  C   LIG d   1      -6.344  81.100 117.993  0.00  0.00     0.210 C 
ATOM     15  C   LIG d   1      -6.052  82.065 119.146  0.00  0.00     0.109 C 
ATOM     16  O   LIG d   1      -7.227  81.366 117.163  0.00  0.00    -0.276 OA
ATOM     17  H   LIG d   1      -4.946  79.835 118.724  0.00  0.00     0.149 HD
ENDBRANCH   6  13
BRANCH   5  18
ATOM     18  N   LIG d   1      -8.032  78.150 117.633  0.00  0.00     0.381 N 
ATOM     19  H   LIG d   1      -8.077  78.835 118.361  0.00  0.00    -0.090 HD
ATOM     20  H   LIG d   1      -8.555  77.343 117.927  0.00  0.00    -0.090 HD
ATOM     21  H   LIG d   1      -8.422  78.520 116.794  0.00  0.00    -0.090 HD
ENDBRANCH   5  18
BRANCH   3  22
ATOM     22  C   LIG d   1      -5.136  75.007 115.472  0.00  0.00     0.382 C 
ATOM     23  O   LIG d   1      -3.974  74.543 115.385  0.00  0.00    -0.241 OA
ATOM     24  O   LIG d   1      -6.103  74.309 115.112  0.00  0.00    -0.241 OA
ENDBRANCH   3  22
TORSDOF 7
ENDMDL
MODEL 3
REMARK VINA RESULT:      -4.6      3.184      5.516
REMARK  7 active torsions:
REMARK  status: ('A' for Active; 'I' for Inactive)
REMARK    1  A    between atoms: C_2  and  C_3 
REMARK    2  A    between atoms: C_3  and  O_6 
REMARK    3  A    between atoms: C_3  and  C_4 
REMARK    4  A    between atoms: C_7  and  O_6 
REMARK    5  A    between atoms: C_9  and  C_10 
REMARK    6  A    between atoms: N_15  and  C_14 
REMARK    7  A    between atoms: N_20  and  C_19 
REMARK       I    between atoms: C_22  and  N_20 
ROOT
ATOM      1  C   LIG d   1      -1.998  76.829 115.218  0.00  0.00     0.161 C 
ATOM      2  C   LIG d   1      -1.915  75.999 116.348  0.00  0.00     0.016 C 
ATOM      3  C   LIG d   1      -1.189  76.339 117.513  0.00  0.00     0.038 C 
ATOM      4  C   LIG d   1      -0.616  77.608 117.685  0.00  0.00     0.028 C 
ATOM      5  C   LIG d   1      -0.246  78.289 116.372  0.00  0.00    -0.047 C 
ATOM      6  C   LIG d   1      -1.472  78.264 115.431  0.00  0.00     0.091 C 
ENDROOT
BRANCH   1   7
ATOM      7  O   LIG d   1      -3.354  76.859 114.732  0.00  0.00    -0.368 OA
BRANCH   7   8
ATOM      8  C   LIG d   1      -4.366  76.345 115.633  0.00  0.00     0.119 C 
BRANCH   8   9
ATOM      9  C   LIG d   1      -5.474  75.710 114.770  0.00  0.00     0.028 C 
ATOM     10  C   LIG d   1      -5.970  74.372 115.343  0.00  0.00     0.006 C 
ENDBRANCH   8   9
BRANCH   8  11
ATOM     11  C   LIG d   1      -5.050  77.475 116.406  0.00  0.00     0.028 C 
ATOM     12  C   LIG d   1      -4.961  77.295 117.930  0.00  0.00     0.006 C 
ENDBRANCH   8  11
ENDBRANCH   7   8
ENDBRANCH   1   7
BRANCH   6  13
ATOM     13  N   LIG d   1      -1.171  78.836 114.092  0.00  0.00    -0.311 N 
ATOM     14  C   LIG d   1      -1.984  79.676 113.454  0.00  0.00     0.210 C 
ATOM     15  C   LIG d   1      -1.492  80.130 112.076  0.00  0.00     0.109 C 
ATOM     16  O   LIG d   1      -3.050  80.114 113.912  0.00  0.00    -0.276 OA
ATOM     17  H   LIG d   1      -0.311  78.558 113.661  0.00  0.00     0.149 HD
ENDBRANCH   6  13
BRANCH   5  18
ATOM     18  N   LIG d   1       0.210  79.655 116.691  0.00  0.00     0.381 N 
ATOM     19  H   LIG d   1       0.519  79.695 117.642  0.00  0.00    -0.090 HD
ATOM     20  H   LIG d   1      -0.562  80.289 116.583  0.00  0.00    -0.090 HD
ATOM     21  H   LIG d   1       0.953  79.918 116.082  0.00  0.00    -0.090 HD
ENDBRANCH   5  18
BRANCH   3  22
ATOM     22  C   LIG d   1      -0.996  75.389 118.504  0.00  0.00     0.382 C 
ATOM     23  O   LIG d   1      -0.082  75.543 119.351  0.00  0.00    -0.241 OA
ATOM     24  O   LIG d   1      -1.694  74.358 118.536  0.00  0.00    -0.241 OA
ENDBRANCH   3  22
TORSDOF 7
ENDMDL
MODEL 4
REMARK VINA RESULT:      -4.6      2.626      4.386
REMARK  7 active torsions:
REMARK  status: ('A' for Active; 'I' for Inactive)
REMARK    1  A    between atoms: C_2  and  C_3 
REMARK    2  A    between atoms: C_3  and  O_6 
REMARK    3  A    between atoms: C_3  and  C_4 
REMARK    4  A    between atoms: C_7  and  O_6 
REMARK    5  A    between atoms: C_9  and  C_10 
REMARK    6  A    between atoms: N_15  and  C_14 
REMARK    7  A    between atoms: N_20  and  C_19 
REMARK       I    between atoms: C_22  and  N_20 
ROOT
ATOM      1  C   LIG d   1      -3.987  78.344 117.127  0.00  0.00     0.161 C 
ATOM      2  C   LIG d   1      -3.120  79.347 117.590  0.00  0.00     0.016 C 
ATOM      3  C   LIG d   1      -1.742  79.391 117.275  0.00  0.00     0.038 C 
ATOM      4  C   LIG d   1      -1.166  78.512 116.346  0.00  0.00     0.028 C 
ATOM      5  C   LIG d   1      -1.893  77.175 116.245  0.00  0.00    -0.047 C 
ATOM      6  C   LIG d   1      -3.400  77.440 116.024  0.00  0.00     0.091 C 
ENDROOT
BRANCH   1   7
ATOM      7  O   LIG d   1      -5.226  78.934 116.685  0.00  0.00    -0.368 OA
BRANCH   7   8
ATOM      8  C   LIG d   1      -6.331  78.871 117.620  0.00  0.00     0.119 C 
BRANCH   8   9
ATOM      9  C   LIG d   1      -7.316  77.806 117.101  0.00  0.00     0.028 C 
ATOM     10  C   LIG d   1      -7.390  76.576 118.022  0.00  0.00     0.006 C 
ENDBRANCH   8   9
BRANCH   8  11
ATOM     11  C   LIG d   1      -7.123  80.182 117.636  0.00  0.00     0.028 C 
ATOM     12  C   LIG d   1      -6.297  81.371 118.153  0.00  0.00     0.006 C 
ENDBRANCH   8  11
ENDBRANCH   7   8
ENDBRANCH   1   7
BRANCH   6  13
ATOM     13  N   LIG d   1      -4.197  76.186 115.997  0.00  0.00    -0.311 N 
ATOM     14  C   LIG d   1      -5.026  75.864 115.005  0.00  0.00     0.210 C 
ATOM     15  C   LIG d   1      -5.766  74.536 115.186  0.00  0.00     0.109 C 
ATOM     16  O   LIG d   1      -5.193  76.538 113.978  0.00  0.00    -0.276 OA
ATOM     17  H   LIG d   1      -4.098  75.566 116.778  0.00  0.00     0.149 HD
ENDBRANCH   6  13
BRANCH   5  18
ATOM     18  N   LIG d   1      -1.272  76.412 115.146  0.00  0.00     0.381 N 
ATOM     19  H   LIG d   1      -0.297  76.286 115.330  0.00  0.00    -0.090 HD
ATOM     20  H   LIG d   1      -1.367  76.935 114.293  0.00  0.00    -0.090 HD
ATOM     21  H   LIG d   1      -1.717  75.526 115.052  0.00  0.00    -0.090 HD
ENDBRANCH   5  18
BRANCH   3  22
ATOM     22  C   LIG d   1      -0.917  80.298 117.923  0.00  0.00     0.382 C 
ATOM     23  O   LIG d   1      -1.262  80.779 119.029  0.00  0.00    -0.241 OA
ATOM     24  O   LIG d   1       0.146  80.675 117.395  0.00  0.00    -0.241 OA
ENDBRANCH   3  22
TORSDOF 7
ENDMDL
MODEL 5
REMARK VINA RESULT:      -4.5      2.908      4.997
REMARK  7 active torsions:
REMARK  status: ('A' for Active; 'I' for Inactive)
REMARK    1  A    between atoms: C_2  and  C_3 
REMARK    2  A    between atoms: C_3  and  O_6 
REMARK    3  A    between atoms: C_3  and  C_4 
REMARK    4  A    between atoms: C_7  and  O_6 
REMARK    5  A    between atoms: C_9  and  C_10 
REMARK    6  A    between atoms: N_15  and  C_14 
REMARK    7  A    between atoms: N_20  and  C_19 
REMARK       I    between atoms: C_22  and  N_20 
ROOT
ATOM      1  C   LIG d   1      -3.592  76.346 115.593  0.00  0.00     0.161 C 
ATOM      2  C   LIG d   1      -2.878  77.300 114.849  0.00  0.00     0.016 C 
ATOM      3  C   LIG d   1      -2.880  78.682 115.150  0.00  0.00     0.038 C 
ATOM      4  C   LIG d   1      -3.479  79.187 116.313  0.00  0.00     0.028 C 
ATOM      5  C   LIG d   1      -4.635  78.330 116.819  0.00  0.00    -0.047 C 
ATOM      6  C   LIG d   1      -4.162  76.863 116.931  0.00  0.00     0.091 C 
ENDROOT
BRANCH   1   7
ATOM      7  O   LIG d   1      -2.770  75.183 115.815  0.00  0.00    -0.368 OA
BRANCH   7   8
ATOM      8  C   LIG d   1      -1.385  75.438 116.157  0.00  0.00     0.119 C 
BRANCH   8   9
ATOM      9  C   LIG d   1      -0.528  74.384 115.430  0.00  0.00     0.028 C 
ATOM     10  C   LIG d   1       0.695  75.002 114.732  0.00  0.00     0.006 C 
ENDBRANCH   8   9
BRANCH   8  11
ATOM     11  C   LIG d   1      -1.129  75.211 117.649  0.00  0.00     0.028 C 
ATOM     12  C   LIG d   1      -0.691  76.490 118.380  0.00  0.00     0.006 C 
ENDBRANCH   8  11
ENDBRANCH   7   8
ENDBRANCH   1   7
BRANCH   6  13
ATOM     13  N   LIG d   1      -5.256  75.944 117.339  0.00  0.00    -0.311 N 
ATOM     14  C   LIG d   1      -5.246  75.252 118.477  0.00  0.00     0.210 C 
ATOM     15  C   LIG d   1      -6.463  74.347 118.694  0.00  0.00     0.109 C 
ATOM     16  O   LIG d   1      -4.360  75.325 119.341  0.00  0.00    -0.276 OA
ATOM     17  H   LIG d   1      -6.030  75.848 116.710  0.00  0.00     0.149 HD
ENDBRANCH   6  13
BRANCH   5  18
ATOM     18  N   LIG d   1      -5.077  78.895 118.108  0.00  0.00     0.381 N 
ATOM     19  H   LIG d   1      -5.939  78.471 118.386  0.00  0.00    -0.090 HD
ATOM     20  H   LIG d   1      -5.233  79.881 117.995  0.00  0.00    -0.090 HD
ATOM     21  H   LIG d   1      -4.382  78.739 118.805  0.00  0.00    -0.090 HD
ENDBRANCH   5  18
BRANCH   3  22
ATOM     22  C   LIG d   1      -2.310  79.579 114.259  0.00  0.00     0.382 C 
ATOM     23  O   LIG d   1      -1.071  79.774 114.273  0.00  0.00    -0.241 OA
ATOM     24  O   LIG d   1      -3.025  80.229 113.473  0.00  0.00    -0.241 OA
ENDBRANCH   3  22
TORSDOF 7
ENDMDL
MODEL 6
REMARK VINA RESULT:      -4.4      2.021      2.388
REMARK  7 active torsions:
REMARK  status: ('A' for Active; 'I' for Inactive)
REMARK    1  A    between atoms: C_2  and  C_3 
REMARK    2  A    between atoms: C_3  and  O_6 
REMARK    3  A    between atoms: C_3  and  C_4 
REMARK    4  A    between atoms: C_7  and  O_6 
REMARK    5  A    between atoms: C_9  and  C_10 
REMARK    6  A    between atoms: N_15  and  C_14 
REMARK    7  A    between atoms: N_20  and  C_19 
REMARK       I    between atoms: C_22  and  N_20 
ROOT
ATOM      1  C   LIG d   1      -3.424  76.578 117.297  0.00  0.00     0.161 C 
ATOM      2  C   LIG d   1      -4.471  77.421 117.708  0.00  0.00     0.016 C 
ATOM      3  C   LIG d   1      -4.576  78.776 117.320  0.00  0.00     0.038 C 
ATOM      4  C   LIG d   1      -3.718  79.343 116.365  0.00  0.00     0.028 C 
ATOM      5  C   LIG d   1      -2.349  78.675 116.309  0.00  0.00    -0.047 C 
ATOM      6  C   LIG d   1      -2.541  77.148 116.167  0.00  0.00     0.091 C 
ENDROOT
BRANCH   1   7
ATOM      7  O   LIG d   1      -3.953  75.292 116.919  0.00  0.00    -0.368 OA
BRANCH   7   8
ATOM      8  C   LIG d   1      -5.374  75.243 116.641  0.00  0.00     0.119 C 
BRANCH   8   9
ATOM      9  C   LIG d   1      -5.992  74.180 117.570  0.00  0.00     0.028 C 
ATOM     10  C   LIG d   1      -7.528  74.252 117.604  0.00  0.00     0.006 C 
ENDBRANCH   8   9
BRANCH   8  11
ATOM     11  C   LIG d   1      -5.647  74.746 115.218  0.00  0.00     0.028 C 
ATOM     12  C   LIG d   1      -6.121  75.865 114.276  0.00  0.00     0.006 C 
ENDBRANCH   8  11
ENDBRANCH   7   8
ENDBRANCH   1   7
BRANCH   6  13
ATOM     13  N   LIG d   1      -1.251  76.410 116.189  0.00  0.00    -0.311 N 
ATOM     14  C   LIG d   1      -0.550  76.126 115.093  0.00  0.00     0.210 C 
ATOM     15  C   LIG d   1       0.742  75.340 115.337  0.00  0.00     0.109 C 
ATOM     16  O   LIG d   1      -0.858  76.480 113.945  0.00  0.00    -0.276 OA
ATOM     17  H   LIG d   1      -0.911  76.112 117.083  0.00  0.00     0.149 HD
ENDBRANCH   6  13
BRANCH   5  18
ATOM     18  N   LIG d   1      -1.608  79.272 115.182  0.00  0.00     0.381 N 
ATOM     19  H   LIG d   1      -0.909  78.632 114.859  0.00  0.00    -0.090 HD
ATOM     20  H   LIG d   1      -1.148  80.106 115.501  0.00  0.00    -0.090 HD
ATOM     21  H   LIG d   1      -2.235  79.492 114.440  0.00  0.00    -0.090 HD
ENDBRANCH   5  18
BRANCH   3  22
ATOM     22  C   LIG d   1      -5.525  79.591 117.919  0.00  0.00     0.382 C 
ATOM     23  O   LIG d   1      -5.926  80.624 117.330  0.00  0.00    -0.241 OA
ATOM     24  O   LIG d   1      -5.952  79.330 119.059  0.00  0.00    -0.241 OA
ENDBRANCH   3  22
TORSDOF 7
ENDMDL
MODEL 7
REMARK VINA RESULT:      -4.4      2.683      4.426
REMARK  7 active torsions:
REMARK  status: ('A' for Active; 'I' for Inactive)
REMARK    1  A    between atoms: C_2  and  C_3 
REMARK    2  A    between atoms: C_3  and  O_6 
REMARK    3  A    between atoms: C_3  and  C_4 
REMARK    4  A    between atoms: C_7  and  O_6 
REMARK    5  A    between atoms: C_9  and  C_10 
REMARK    6  A    between atoms: N_15  and  C_14 
REMARK    7  A    between atoms: N_20  and  C_19 
REMARK       I    between atoms: C_22  and  N_20 
ROOT
ATOM      1  C   LIG d   1      -3.837  78.332 117.013  0.00  0.00     0.161 C 
ATOM      2  C   LIG d   1      -2.929  79.319 117.432  0.00  0.00     0.016 C 
ATOM      3  C   LIG d   1      -1.540  79.258 117.176  0.00  0.00     0.038 C 
ATOM      4  C   LIG d   1      -0.982  78.274 116.346  0.00  0.00     0.028 C 
ATOM      5  C   LIG d   1      -1.784  76.978 116.320  0.00  0.00    -0.047 C 
ATOM      6  C   LIG d   1      -3.262  77.309 116.011  0.00  0.00     0.091 C 
ENDROOT
BRANCH   1   7
ATOM      7  O   LIG d   1      -5.019  78.954 116.471  0.00  0.00    -0.368 OA
BRANCH   7   8
ATOM      8  C   LIG d   1      -6.229  78.814 117.254  0.00  0.00     0.119 C 
BRANCH   8   9
ATOM      9  C   LIG d   1      -6.557  80.196 117.853  0.00  0.00     0.028 C 
ATOM     10  C   LIG d   1      -8.059  80.518 117.797  0.00  0.00     0.006 C 
ENDBRANCH   8   9
BRANCH   8  11
ATOM     11  C   LIG d   1      -6.010  77.892 118.458  0.00  0.00     0.028 C 
ATOM     12  C   LIG d   1      -6.900  76.640 118.419  0.00  0.00     0.006 C 
ENDBRANCH   8  11
ENDBRANCH   7   8
ENDBRANCH   1   7
BRANCH   6  13
ATOM     13  N   LIG d   1      -4.133  76.105 116.050  0.00  0.00    -0.311 N 
ATOM     14  C   LIG d   1      -5.012  75.805 115.095  0.00  0.00     0.210 C 
ATOM     15  C   LIG d   1      -5.823  74.529 115.341  0.00  0.00     0.109 C 
ATOM     16  O   LIG d   1      -5.175  76.458 114.054  0.00  0.00    -0.276 OA
ATOM     17  H   LIG d   1      -4.044  75.503 116.845  0.00  0.00     0.149 HD
ENDBRANCH   6  13
BRANCH   5  18
ATOM     18  N   LIG d   1      -1.168  76.093 115.313  0.00  0.00     0.381 N 
ATOM     19  H   LIG d   1      -0.827  75.262 115.756  0.00  0.00    -0.090 HD
ATOM     20  H   LIG d   1      -0.388  76.569 114.895  0.00  0.00    -0.090 HD
ATOM     21  H   LIG d   1      -1.835  75.855 114.614  0.00  0.00    -0.090 HD
ENDBRANCH   5  18
BRANCH   3  22
ATOM     22  C   LIG d   1      -0.688  80.166 117.786  0.00  0.00     0.382 C 
ATOM     23  O   LIG d   1       0.373  80.514 117.213  0.00  0.00    -0.241 OA
ATOM     24  O   LIG d   1      -0.945  80.609 118.921  0.00  0.00    -0.241 OA
ENDBRANCH   3  22
TORSDOF 7
ENDMDL
MODEL 8
REMARK VINA RESULT:      -4.3      3.646      4.635
REMARK  7 active torsions:
REMARK  status: ('A' for Active; 'I' for Inactive)
REMARK    1  A    between atoms: C_2  and  C_3 
REMARK    2  A    between atoms: C_3  and  O_6 
REMARK    3  A    between atoms: C_3  and  C_4 
REMARK    4  A    between atoms: C_7  and  O_6 
REMARK    5  A    between atoms: C_9  and  C_10 
REMARK    6  A    between atoms: N_15  and  C_14 
REMARK    7  A    between atoms: N_20  and  C_19 
REMARK       I    between atoms: C_22  and  N_20 
ROOT
ATOM      1  C   LIG d   1      -2.608  75.838 116.166  0.00  0.00     0.161 C 
ATOM      2  C   LIG d   1      -2.871  76.915 115.304  0.00  0.00     0.016 C 
ATOM      3  C   LIG d   1      -1.859  77.657 114.654  0.00  0.00     0.038 C 
ATOM      4  C   LIG d   1      -0.510  77.274 114.705  0.00  0.00     0.028 C 
ATOM      5  C   LIG d   1      -0.148  76.499 115.967  0.00  0.00    -0.047 C 
ATOM      6  C   LIG d   1      -1.149  75.335 116.146  0.00  0.00     0.091 C 
ENDROOT
BRANCH   1   7
ATOM      7  O   LIG d   1      -3.515  74.754 115.885  0.00  0.00    -0.368 OA
BRANCH   7   8
ATOM      8  C   LIG d   1      -4.419  74.386 116.956  0.00  0.00     0.119 C 
BRANCH   8   9
ATOM      9  C   LIG d   1      -5.827  74.244 116.344  0.00  0.00     0.028 C 
ATOM     10  C   LIG d   1      -5.899  74.782 114.905  0.00  0.00     0.006 C 
ENDBRANCH   8   9
BRANCH   8  11
ATOM     11  C   LIG d   1      -4.540  75.506 117.993  0.00  0.00     0.028 C 
ATOM     12  C   LIG d   1      -5.953  75.619 118.587  0.00  0.00     0.006 C 
ENDBRANCH   8  11
ENDBRANCH   7   8
ENDBRANCH   1   7
BRANCH   6  13
ATOM     13  N   LIG d   1      -0.917  74.577 117.403  0.00  0.00    -0.311 N 
ATOM     14  C   LIG d   1      -0.922  75.139 118.610  0.00  0.00     0.210 C 
ATOM     15  C   LIG d   1      -0.642  74.180 119.772  0.00  0.00     0.109 C 
ATOM     16  O   LIG d   1      -1.163  76.335 118.832  0.00  0.00    -0.276 OA
ATOM     17  H   LIG d   1      -0.745  73.594 117.318  0.00  0.00     0.149 HD
ENDBRANCH   6  13
BRANCH   5  18
ATOM     18  N   LIG d   1       1.248  76.044 115.826  0.00  0.00     0.381 N 
ATOM     19  H   LIG d   1       1.520  75.528 116.638  0.00  0.00    -0.090 HD
ATOM     20  H   LIG d   1       1.846  76.848 115.748  0.00  0.00    -0.090 HD
ATOM     21  H   LIG d   1       1.340  75.474 115.014  0.00  0.00    -0.090 HD
ENDBRANCH   5  18
BRANCH   3  22
ATOM     22  C   LIG d   1      -2.188  78.821 113.975  0.00  0.00     0.382 C 
ATOM     23  O   LIG d   1      -3.110  78.811 113.125  0.00  0.00    -0.241 OA
ATOM     24  O   LIG d   1      -1.544  79.870 114.171  0.00  0.00    -0.241 OA
ENDBRANCH   3  22
TORSDOF 7
ENDMDL
MODEL 9
REMARK VINA RESULT:      -4.3      2.186      4.700
REMARK  7 active torsions:
REMARK  status: ('A' for Active; 'I' for Inactive)
REMARK    1  A    between atoms: C_2  and  C_3 
REMARK    2  A    between atoms: C_3  and  O_6 
REMARK    3  A    between atoms: C_3  and  C_4 
REMARK    4  A    between atoms: C_7  and  O_6 
REMARK    5  A    between atoms: C_9  and  C_10 
REMARK    6  A    between atoms: N_15  and  C_14 
REMARK    7  A    between atoms: N_20  and  C_19 
REMARK       I    between atoms: C_22  and  N_20 
ROOT
ATOM      1  C   LIG d   1      -4.341  78.127 117.115  0.00  0.00     0.161 C 
ATOM      2  C   LIG d   1      -3.358  78.927 116.508  0.00  0.00     0.016 C 
ATOM      3  C   LIG d   1      -2.248  78.399 115.809  0.00  0.00     0.038 C 
ATOM      4  C   LIG d   1      -2.126  77.028 115.538  0.00  0.00     0.028 C 
ATOM      5  C   LIG d   1      -2.827  76.143 116.562  0.00  0.00    -0.047 C 
ATOM      6  C   LIG d   1      -4.284  76.633 116.734  0.00  0.00     0.091 C 
ENDROOT
BRANCH   1   7
ATOM      7  O   LIG d   1      -5.649  78.665 116.837  0.00  0.00    -0.368 OA
BRANCH   7   8
ATOM      8  C   LIG d   1      -6.328  79.297 117.950  0.00  0.00     0.119 C 
BRANCH   8   9
ATOM      9  C   LIG d   1      -7.825  78.951 117.835  0.00  0.00     0.028 C 
ATOM     10  C   LIG d   1      -8.059  77.526 117.306  0.00  0.00     0.006 C 
ENDBRANCH   8   9
BRANCH   8  11
ATOM     11  C   LIG d   1      -6.256  80.824 117.852  0.00  0.00     0.028 C 
ATOM     12  C   LIG d   1      -7.607  81.462 117.494  0.00  0.00     0.006 C 
ENDBRANCH   8  11
ENDBRANCH   7   8
ENDBRANCH   1   7
BRANCH   6  13
ATOM     13  N   LIG d   1      -5.017  75.874 117.781  0.00  0.00    -0.311 N 
ATOM     14  C   LIG d   1      -5.764  74.802 117.522  0.00  0.00     0.210 C 
ATOM     15  C   LIG d   1      -6.450  74.181 118.743  0.00  0.00     0.109 C 
ATOM     16  O   LIG d   1      -5.898  74.288 116.402  0.00  0.00    -0.276 OA
ATOM     17  H   LIG d   1      -4.938  76.204 118.723  0.00  0.00     0.149 HD
ENDBRANCH   6  13
BRANCH   5  18
ATOM     18  N   LIG d   1      -2.738  74.751 116.084  0.00  0.00     0.381 N 
ATOM     19  H   LIG d   1      -2.593  74.741 115.094  0.00  0.00    -0.090 HD
ATOM     20  H   LIG d   1      -3.606  74.283 116.280  0.00  0.00    -0.090 HD
ATOM     21  H   LIG d   1      -1.988  74.281 116.542  0.00  0.00    -0.090 HD
ENDBRANCH   5  18
BRANCH   3  22
ATOM     22  C   LIG d   1      -1.224  79.244 115.407  0.00  0.00     0.382 C 
ATOM     23  O   LIG d   1      -1.251  79.762 114.265  0.00  0.00    -0.241 OA
ATOM     24  O   LIG d   1      -0.252  79.459 116.156  0.00  0.00    -0.241 OA
ENDBRANCH   3  22
TORSDOF 7
ENDMDL
