MODEL 1
REMARK VINA RESULT:      -6.5      0.000      0.000
REMARK  7 active torsions:
REMARK  status: ('A' for Active; 'I' for Inactive)
REMARK    1  A    between atoms: C_2  and  C_3 
REMARK    2  A    between atoms: C_3  and  O_6 
REMARK    3  A    between atoms: C_3  and  C_4 
REMARK    4  A    between atoms: C_7  and  O_6 
REMARK    5  A    between atoms: C_9  and  C_10 
REMARK    6  A    between atoms: N_15  and  C_14 
REMARK    7  A    between atoms: N_20  and  C_19 
REMARK       I    between atoms: C_22  and  N_20 
ROOT
ATOM      1  C   LIG d   1      -1.389  77.565 113.554  0.00  0.00     0.161 C 
ATOM      2  C   LIG d   1      -2.058  78.798 113.636  0.00  0.00     0.016 C 
ATOM      3  C   LIG d   1      -1.993  79.787 112.629  0.00  0.00     0.038 C 
ATOM      4  C   LIG d   1      -1.373  79.548 111.393  0.00  0.00     0.028 C 
ATOM      5  C   LIG d   1      -0.258  78.510 111.466  0.00  0.00    -0.047 C 
ATOM      6  C   LIG d   1      -0.798  77.242 112.165  0.00  0.00     0.091 C 
ENDROOT
BRANCH   1   7
ATOM      7  O   LIG d   1      -2.264  76.504 113.985  0.00  0.00    -0.368 OA
BRANCH   7   8
ATOM      8  C   LIG d   1      -2.316  76.261 115.413  0.00  0.00     0.119 C 
BRANCH   8   9
ATOM      9  C   LIG d   1      -1.373  75.080 115.715  0.00  0.00     0.028 C 
ATOM     10  C   LIG d   1      -1.363  74.705 117.207  0.00  0.00     0.006 C 
ENDBRANCH   8   9
BRANCH   8  11
ATOM     11  C   LIG d   1      -3.707  75.792 115.848  0.00  0.00     0.028 C 
ATOM     12  C   LIG d   1      -4.769  75.981 114.754  0.00  0.00     0.006 C 
ENDBRANCH   8  11
ENDBRANCH   7   8
ENDBRANCH   1   7
BRANCH   6  13
ATOM     13  N   LIG d   1       0.252  76.207 112.353  0.00  0.00    -0.311 N 
ATOM     14  C   LIG d   1       0.649  75.381 111.387  0.00  0.00     0.210 C 
ATOM     15  C   LIG d   1       1.730  74.377 111.798  0.00  0.00     0.109 C 
ATOM     16  O   LIG d   1       0.232  75.407 110.219  0.00  0.00    -0.276 OA
ATOM     17  H   LIG d   1       0.666  76.137 113.262  0.00  0.00     0.149 HD
ENDBRANCH   6  13
BRANCH   5  18
ATOM     18  N   LIG d   1       0.207  78.258 110.089  0.00  0.00     0.381 N 
ATOM     19  H   LIG d   1       1.205  78.317 110.053  0.00  0.00    -0.090 HD
ATOM     20  H   LIG d   1      -0.173  78.963 109.483  0.00  0.00    -0.090 HD
ATOM     21  H   LIG d   1      -0.091  77.356 109.789  0.00  0.00    -0.090 HD
ENDBRANCH   5  18
BRANCH   3  22
ATOM     22  C   LIG d   1      -2.519  81.047 112.868  0.00  0.00     0.382 C 
ATOM     23  O   LIG d   1      -2.226  82.004 112.111  0.00  0.00    -0.241 OA
ATOM     24  O   LIG d   1      -3.249  81.250 113.857  0.00  0.00    -0.241 OA
ENDBRANCH   3  22
TORSDOF 7
ENDMDL
MODEL 2
REMARK VINA RESULT:      -5.9      2.555      4.071
REMARK  7 active torsions:
REMARK  status: ('A' for Active; 'I' for Inactive)
REMARK    1  A    between atoms: C_2  and  C_3 
REMARK    2  A    between atoms: C_3  and  O_6 
REMARK    3  A    between atoms: C_3  and  C_4 
REMARK    4  A    between atoms: C_7  and  O_6 
REMARK    5  A    between atoms: C_9  and  C_10 
REMARK    6  A    between atoms: N_15  and  C_14 
REMARK    7  A    between atoms: N_20  and  C_19 
REMARK       I    between atoms: C_22  and  N_20 
ROOT
ATOM      1  C   LIG d   1      -2.537  77.893 116.163  0.00  0.00     0.161 C 
ATOM      2  C   LIG d   1      -2.868  78.828 115.168  0.00  0.00     0.016 C 
ATOM      3  C   LIG d   1      -2.107  79.015 113.991  0.00  0.00     0.038 C 
ATOM      4  C   LIG d   1      -1.039  78.170 113.657  0.00  0.00     0.028 C 
ATOM      5  C   LIG d   1      -0.361  77.541 114.870  0.00  0.00    -0.047 C 
ATOM      6  C   LIG d   1      -1.439  76.886 115.764  0.00  0.00     0.091 C 
ENDROOT
BRANCH   1   7
ATOM      7  O   LIG d   1      -3.723  77.197 116.594  0.00  0.00    -0.368 OA
BRANCH   7   8
ATOM      8  C   LIG d   1      -4.685  76.876 115.560  0.00  0.00     0.119 C 
BRANCH   8   9
ATOM      9  C   LIG d   1      -6.089  76.974 116.187  0.00  0.00     0.028 C 
ATOM     10  C   LIG d   1      -6.183  78.085 117.246  0.00  0.00     0.006 C 
ENDBRANCH   8   9
BRANCH   8  11
ATOM     11  C   LIG d   1      -4.546  75.422 115.101  0.00  0.00     0.028 C 
ATOM     12  C   LIG d   1      -5.897  74.774 114.756  0.00  0.00     0.006 C 
ENDBRANCH   8  11
ENDBRANCH   7   8
ENDBRANCH   1   7
BRANCH   6  13
ATOM     13  N   LIG d   1      -0.870  76.320 117.015  0.00  0.00    -0.311 N 
ATOM     14  C   LIG d   1      -1.246  75.150 117.527  0.00  0.00     0.210 C 
ATOM     15  C   LIG d   1      -0.549  74.763 118.835  0.00  0.00     0.109 C 
ATOM     16  O   LIG d   1      -2.067  74.380 117.006  0.00  0.00    -0.276 OA
ATOM     17  H   LIG d   1      -0.175  76.865 117.487  0.00  0.00     0.149 HD
ENDBRANCH   6  13
BRANCH   5  18
ATOM     18  N   LIG d   1       0.641  76.580 114.373  0.00  0.00     0.381 N 
ATOM     19  H   LIG d   1       0.860  76.782 113.418  0.00  0.00    -0.090 HD
ATOM     20  H   LIG d   1       0.253  75.654 114.418  0.00  0.00    -0.090 HD
ATOM     21  H   LIG d   1       1.467  76.630 114.928  0.00  0.00    -0.090 HD
ENDBRANCH   5  18
BRANCH   3  22
ATOM     22  C   LIG d   1      -2.387  80.084 113.154  0.00  0.00     0.382 C 
ATOM     23  O   LIG d   1      -3.106  81.028 113.562  0.00  0.00    -0.241 OA
ATOM     24  O   LIG d   1      -1.967  80.096 111.982  0.00  0.00    -0.241 OA
ENDBRANCH   3  22
TORSDOF 7
ENDMDL
MODEL 3
REMARK VINA RESULT:      -5.8      2.550      4.042
REMARK  7 active torsions:
REMARK  status: ('A' for Active; 'I' for Inactive)
REMARK    1  A    between atoms: C_2  and  C_3 
REMARK    2  A    between atoms: C_3  and  O_6 
REMARK    3  A    between atoms: C_3  and  C_4 
REMARK    4  A    between atoms: C_7  and  O_6 
REMARK    5  A    between atoms: C_9  and  C_10 
REMARK    6  A    between atoms: N_15  and  C_14 
REMARK    7  A    between atoms: N_20  and  C_19 
REMARK       I    between atoms: C_22  and  N_20 
ROOT
ATOM      1  C   LIG d   1      -2.747  78.465 115.462  0.00  0.00     0.161 C 
ATOM      2  C   LIG d   1      -2.895  79.552 114.584  0.00  0.00     0.016 C 
ATOM      3  C   LIG d   1      -2.152  79.694 113.390  0.00  0.00     0.038 C 
ATOM      4  C   LIG d   1      -1.314  78.675 112.912  0.00  0.00     0.028 C 
ATOM      5  C   LIG d   1      -0.753  77.785 114.016  0.00  0.00    -0.047 C 
ATOM      6  C   LIG d   1      -1.919  77.290 114.902  0.00  0.00     0.091 C 
ENDROOT
BRANCH   1   7
ATOM      7  O   LIG d   1      -4.043  78.005 115.892  0.00  0.00    -0.368 OA
BRANCH   7   8
ATOM      8  C   LIG d   1      -4.312  78.092 117.313  0.00  0.00     0.119 C 
BRANCH   8   9
ATOM      9  C   LIG d   1      -5.635  78.863 117.488  0.00  0.00     0.028 C 
ATOM     10  C   LIG d   1      -5.415  80.375 117.662  0.00  0.00     0.006 C 
ENDBRANCH   8   9
BRANCH   8  11
ATOM     11  C   LIG d   1      -3.253  78.936 118.029  0.00  0.00     0.028 C 
ATOM     12  C   LIG d   1      -2.551  78.173 119.164  0.00  0.00     0.006 C 
ENDBRANCH   8  11
ENDBRANCH   7   8
ENDBRANCH   1   7
BRANCH   6  13
ATOM     13  N   LIG d   1      -1.449  76.481 116.057  0.00  0.00    -0.311 N 
ATOM     14  C   LIG d   1      -1.874  75.244 116.307  0.00  0.00     0.210 C 
ATOM     15  C   LIG d   1      -1.277  74.596 117.561  0.00  0.00     0.109 C 
ATOM     16  O   LIG d   1      -2.665  74.610 115.593  0.00  0.00    -0.276 OA
ATOM     17  H   LIG d   1      -0.782  76.907 116.671  0.00  0.00     0.149 HD
ENDBRANCH   6  13
BRANCH   5  18
ATOM     18  N   LIG d   1      -0.012  76.686 113.369  0.00  0.00     0.381 N 
ATOM     19  H   LIG d   1       0.972  76.846 113.454  0.00  0.00    -0.090 HD
ATOM     20  H   LIG d   1      -0.244  76.668 112.392  0.00  0.00    -0.090 HD
ATOM     21  H   LIG d   1      -0.253  75.817 113.792  0.00  0.00    -0.090 HD
ENDBRANCH   5  18
BRANCH   3  22
ATOM     22  C   LIG d   1      -2.214  80.883 112.679  0.00  0.00     0.382 C 
ATOM     23  O   LIG d   1      -3.187  81.659 112.838  0.00  0.00    -0.241 OA
ATOM     24  O   LIG d   1      -1.332  81.169 111.847  0.00  0.00    -0.241 OA
ENDBRANCH   3  22
TORSDOF 7
ENDMDL
MODEL 4
REMARK VINA RESULT:      -5.3      2.732      4.983
REMARK  7 active torsions:
REMARK  status: ('A' for Active; 'I' for Inactive)
REMARK    1  A    between atoms: C_2  and  C_3 
REMARK    2  A    between atoms: C_3  and  O_6 
REMARK    3  A    between atoms: C_3  and  C_4 
REMARK    4  A    between atoms: C_7  and  O_6 
REMARK    5  A    between atoms: C_9  and  C_10 
REMARK    6  A    between atoms: N_15  and  C_14 
REMARK    7  A    between atoms: N_20  and  C_19 
REMARK       I    between atoms: C_22  and  N_20 
ROOT
ATOM      1  C   LIG d   1      -2.806  76.946 114.953  0.00  0.00     0.161 C 
ATOM      2  C   LIG d   1      -2.552  76.141 116.076  0.00  0.00     0.016 C 
ATOM      3  C   LIG d   1      -1.359  76.212 116.831  0.00  0.00     0.038 C 
ATOM      4  C   LIG d   1      -0.396  77.207 116.604  0.00  0.00     0.028 C 
ATOM      5  C   LIG d   1      -0.378  77.715 115.167  0.00  0.00    -0.047 C 
ATOM      6  C   LIG d   1      -1.815  78.113 114.757  0.00  0.00     0.091 C 
ENDROOT
BRANCH   1   7
ATOM      7  O   LIG d   1      -4.159  77.441 115.002  0.00  0.00    -0.368 OA
BRANCH   7   8
ATOM      8  C   LIG d   1      -5.012  76.863 116.021  0.00  0.00     0.119 C 
BRANCH   8   9
ATOM      9  C   LIG d   1      -6.196  76.186 115.304  0.00  0.00     0.028 C 
ATOM     10  C   LIG d   1      -5.816  74.823 114.701  0.00  0.00     0.006 C 
ENDBRANCH   8   9
BRANCH   8  11
ATOM     11  C   LIG d   1      -5.638  77.946 116.904  0.00  0.00     0.028 C 
ATOM     12  C   LIG d   1      -4.599  78.927 117.470  0.00  0.00     0.006 C 
ENDBRANCH   8  11
ENDBRANCH   7   8
ENDBRANCH   1   7
BRANCH   6  13
ATOM     13  N   LIG d   1      -1.901  78.542 113.337  0.00  0.00    -0.311 N 
ATOM     14  C   LIG d   1      -1.450  77.809 112.321  0.00  0.00     0.210 C 
ATOM     15  C   LIG d   1      -1.619  78.447 110.938  0.00  0.00     0.109 C 
ATOM     16  O   LIG d   1      -0.954  76.678 112.430  0.00  0.00    -0.276 OA
ATOM     17  H   LIG d   1      -2.318  79.434 113.155  0.00  0.00     0.149 HD
ENDBRANCH   6  13
BRANCH   5  18
ATOM     18  N   LIG d   1       0.573  78.841 115.104  0.00  0.00     0.381 N 
ATOM     19  H   LIG d   1       1.043  78.936 115.982  0.00  0.00    -0.090 HD
ATOM     20  H   LIG d   1       0.063  79.688 114.925  0.00  0.00    -0.090 HD
ATOM     21  H   LIG d   1       1.237  78.686 114.378  0.00  0.00    -0.090 HD
ENDBRANCH   5  18
BRANCH   3  22
ATOM     22  C   LIG d   1      -1.102  75.256 117.802  0.00  0.00     0.382 C 
ATOM     23  O   LIG d   1      -0.202  75.454 118.654  0.00  0.00    -0.241 OA
ATOM     24  O   LIG d   1      -1.729  74.180 117.811  0.00  0.00    -0.241 OA
ENDBRANCH   3  22
TORSDOF 7
ENDMDL
MODEL 5
REMARK VINA RESULT:      -5.2      2.985      5.723
REMARK  7 active torsions:
REMARK  status: ('A' for Active; 'I' for Inactive)
REMARK    1  A    between atoms: C_2  and  C_3 
REMARK    2  A    between atoms: C_3  and  O_6 
REMARK    3  A    between atoms: C_3  and  C_4 
REMARK    4  A    between atoms: C_7  and  O_6 
REMARK    5  A    between atoms: C_9  and  C_10 
REMARK    6  A    between atoms: N_15  and  C_14 
REMARK    7  A    between atoms: N_20  and  C_19 
REMARK       I    between atoms: C_22  and  N_20 
ROOT
ATOM      1  C   LIG d   1      -1.498  77.005 114.523  0.00  0.00     0.161 C 
ATOM      2  C   LIG d   1      -2.818  76.616 114.244  0.00  0.00     0.016 C 
ATOM      3  C   LIG d   1      -3.868  76.690 115.188  0.00  0.00     0.038 C 
ATOM      4  C   LIG d   1      -3.699  77.305 116.437  0.00  0.00     0.028 C 
ATOM      5  C   LIG d   1      -2.263  77.253 116.949  0.00  0.00    -0.047 C 
ATOM      6  C   LIG d   1      -1.318  77.781 115.845  0.00  0.00     0.091 C 
ENDROOT
BRANCH   1   7
ATOM      7  O   LIG d   1      -0.968  77.766 113.420  0.00  0.00    -0.368 OA
BRANCH   7   8
ATOM      8  C   LIG d   1      -1.914  78.604 112.712  0.00  0.00     0.119 C 
BRANCH   8   9
ATOM      9  C   LIG d   1      -1.835  78.231 111.218  0.00  0.00     0.028 C 
ATOM     10  C   LIG d   1      -0.669  78.930 110.500  0.00  0.00     0.006 C 
ENDBRANCH   8   9
BRANCH   8  11
ATOM     11  C   LIG d   1      -1.513  80.080 112.783  0.00  0.00     0.028 C 
ATOM     12  C   LIG d   1      -2.723  81.023 112.878  0.00  0.00     0.006 C 
ENDBRANCH   8  11
ENDBRANCH   7   8
ENDBRANCH   1   7
BRANCH   6  13
ATOM     13  N   LIG d   1       0.113  77.685 116.232  0.00  0.00    -0.311 N 
ATOM     14  C   LIG d   1       0.796  78.694 116.771  0.00  0.00     0.210 C 
ATOM     15  C   LIG d   1       2.266  78.390 117.076  0.00  0.00     0.109 C 
ATOM     16  O   LIG d   1       0.315  79.801 117.055  0.00  0.00    -0.276 OA
ATOM     17  H   LIG d   1       0.574  76.812 116.065  0.00  0.00     0.149 HD
ENDBRANCH   6  13
BRANCH   5  18
ATOM     18  N   LIG d   1      -2.203  78.047 118.190  0.00  0.00     0.381 N 
ATOM     19  H   LIG d   1      -1.294  78.453 118.289  0.00  0.00    -0.090 HD
ATOM     20  H   LIG d   1      -2.364  77.439 118.973  0.00  0.00    -0.090 HD
ATOM     21  H   LIG d   1      -2.895  78.764 118.170  0.00  0.00    -0.090 HD
ENDBRANCH   5  18
BRANCH   3  22
ATOM     22  C   LIG d   1      -5.094  76.110 114.899  0.00  0.00     0.382 C 
ATOM     23  O   LIG d   1      -5.146  75.063 114.210  0.00  0.00    -0.241 OA
ATOM     24  O   LIG d   1      -6.152  76.645 115.282  0.00  0.00    -0.241 OA
ENDBRANCH   3  22
TORSDOF 7
ENDMDL
MODEL 6
REMARK VINA RESULT:      -5.2      3.377      5.866
REMARK  7 active torsions:
REMARK  status: ('A' for Active; 'I' for Inactive)
REMARK    1  A    between atoms: C_2  and  C_3 
REMARK    2  A    between atoms: C_3  and  O_6 
REMARK    3  A    between atoms: C_3  and  C_4 
REMARK    4  A    between atoms: C_7  and  O_6 
REMARK    5  A    between atoms: C_9  and  C_10 
REMARK    6  A    between atoms: N_15  and  C_14 
REMARK    7  A    between atoms: N_20  and  C_19 
REMARK       I    between atoms: C_22  and  N_20 
ROOT
ATOM      1  C   LIG d   1      -2.700  78.624 115.559  0.00  0.00     0.161 C 
ATOM      2  C   LIG d   1      -1.395  79.087 115.793  0.00  0.00     0.016 C 
ATOM      3  C   LIG d   1      -0.398  78.316 116.435  0.00  0.00     0.038 C 
ATOM      4  C   LIG d   1      -0.598  76.964 116.753  0.00  0.00     0.028 C 
ATOM      5  C   LIG d   1      -2.061  76.608 116.993  0.00  0.00    -0.047 C 
ATOM      6  C   LIG d   1      -2.903  77.113 115.799  0.00  0.00     0.091 C 
ENDROOT
BRANCH   1   7
ATOM      7  O   LIG d   1      -3.112  78.979 114.224  0.00  0.00    -0.368 OA
BRANCH   7   8
ATOM      8  C   LIG d   1      -2.091  79.556 113.374  0.00  0.00     0.119 C 
BRANCH   8   9
ATOM      9  C   LIG d   1      -2.636  80.896 112.842  0.00  0.00     0.028 C 
ATOM     10  C   LIG d   1      -1.514  81.871 112.449  0.00  0.00     0.006 C 
ENDBRANCH   8   9
BRANCH   8  11
ATOM     11  C   LIG d   1      -1.848  78.695 112.131  0.00  0.00     0.028 C 
ATOM     12  C   LIG d   1      -3.070  77.845 111.747  0.00  0.00     0.006 C 
ENDBRANCH   8  11
ENDBRANCH   7   8
ENDBRANCH   1   7
BRANCH   6  13
ATOM     13  N   LIG d   1      -4.358  76.880 115.992  0.00  0.00    -0.311 N 
ATOM     14  C   LIG d   1      -5.102  76.159 115.156  0.00  0.00     0.210 C 
ATOM     15  C   LIG d   1      -6.584  76.060 115.530  0.00  0.00     0.109 C 
ATOM     16  O   LIG d   1      -4.669  75.565 114.156  0.00  0.00    -0.276 OA
ATOM     17  H   LIG d   1      -4.784  77.299 116.795  0.00  0.00     0.149 HD
ENDBRANCH   6  13
BRANCH   5  18
ATOM     18  N   LIG d   1      -2.139  75.146 117.178  0.00  0.00     0.381 N 
ATOM     19  H   LIG d   1      -2.820  74.762 116.554  0.00  0.00    -0.090 HD
ATOM     20  H   LIG d   1      -2.430  74.953 118.120  0.00  0.00    -0.090 HD
ATOM     21  H   LIG d   1      -1.249  74.733 117.006  0.00  0.00    -0.090 HD
ENDBRANCH   5  18
BRANCH   3  22
ATOM     22  C   LIG d   1       0.800  78.909 116.801  0.00  0.00     0.382 C 
ATOM     23  O   LIG d   1       0.902  80.159 116.817  0.00  0.00    -0.241 OA
ATOM     24  O   LIG d   1       1.794  78.209 117.073  0.00  0.00    -0.241 OA
ENDBRANCH   3  22
TORSDOF 7
ENDMDL
MODEL 7
REMARK VINA RESULT:      -5.1      2.029      2.403
REMARK  7 active torsions:
REMARK  status: ('A' for Active; 'I' for Inactive)
REMARK    1  A    between atoms: C_2  and  C_3 
REMARK    2  A    between atoms: C_3  and  O_6 
REMARK    3  A    between atoms: C_3  and  C_4 
REMARK    4  A    between atoms: C_7  and  O_6 
REMARK    5  A    between atoms: C_9  and  C_10 
REMARK    6  A    between atoms: N_15  and  C_14 
REMARK    7  A    between atoms: N_20  and  C_19 
REMARK       I    between atoms: C_22  and  N_20 
ROOT
ATOM      1  C   LIG d   1      -0.189  78.590 113.700  0.00  0.00     0.161 C 
ATOM      2  C   LIG d   1      -0.839  79.835 113.732  0.00  0.00     0.016 C 
ATOM      3  C   LIG d   1      -1.899  80.182 112.862  0.00  0.00     0.038 C 
ATOM      4  C   LIG d   1      -2.484  79.247 111.996  0.00  0.00     0.028 C 
ATOM      5  C   LIG d   1      -1.531  78.133 111.574  0.00  0.00    -0.047 C 
ATOM      6  C   LIG d   1      -0.887  77.518 112.837  0.00  0.00     0.091 C 
ENDROOT
BRANCH   1   7
ATOM      7  O   LIG d   1       0.004  78.105 115.043  0.00  0.00    -0.368 OA
BRANCH   7   8
ATOM      8  C   LIG d   1      -0.999  78.496 116.012  0.00  0.00     0.119 C 
BRANCH   8   9
ATOM      9  C   LIG d   1      -0.272  78.785 117.340  0.00  0.00     0.028 C 
ATOM     10  C   LIG d   1      -1.203  79.405 118.396  0.00  0.00     0.006 C 
ENDBRANCH   8   9
BRANCH   8  11
ATOM     11  C   LIG d   1      -1.958  77.342 116.318  0.00  0.00     0.028 C 
ATOM     12  C   LIG d   1      -3.353  77.548 115.707  0.00  0.00     0.006 C 
ENDBRANCH   8  11
ENDBRANCH   7   8
ENDBRANCH   1   7
BRANCH   6  13
ATOM     13  N   LIG d   1       0.123  76.478 112.509  0.00  0.00    -0.311 N 
ATOM     14  C   LIG d   1       0.240  75.333 113.179  0.00  0.00     0.210 C 
ATOM     15  C   LIG d   1       1.359  74.408 112.690  0.00  0.00     0.109 C 
ATOM     16  O   LIG d   1      -0.498  74.981 114.112  0.00  0.00    -0.276 OA
ATOM     17  H   LIG d   1       0.742  76.668 111.746  0.00  0.00     0.149 HD
ENDBRANCH   6  13
BRANCH   5  18
ATOM     18  N   LIG d   1      -2.307  77.157 110.786  0.00  0.00     0.381 N 
ATOM     19  H   LIG d   1      -2.932  76.658 111.387  0.00  0.00    -0.090 HD
ATOM     20  H   LIG d   1      -1.673  76.497 110.372  0.00  0.00    -0.090 HD
ATOM     21  H   LIG d   1      -2.822  77.626 110.074  0.00  0.00    -0.090 HD
ENDBRANCH   5  18
BRANCH   3  22
ATOM     22  C   LIG d   1      -2.357  81.490 112.826  0.00  0.00     0.382 C 
ATOM     23  O   LIG d   1      -3.407  81.804 113.437  0.00  0.00    -0.241 OA
ATOM     24  O   LIG d   1      -1.759  82.351 112.152  0.00  0.00    -0.241 OA
ENDBRANCH   3  22
TORSDOF 7
ENDMDL
MODEL 8
REMARK VINA RESULT:      -4.8      3.434      5.315
REMARK  7 active torsions:
REMARK  status: ('A' for Active; 'I' for Inactive)
REMARK    1  A    between atoms: C_2  and  C_3 
REMARK    2  A    between atoms: C_3  and  O_6 
REMARK    3  A    between atoms: C_3  and  C_4 
REMARK    4  A    between atoms: C_7  and  O_6 
REMARK    5  A    between atoms: C_9  and  C_10 
REMARK    6  A    between atoms: N_15  and  C_14 
REMARK    7  A    between atoms: N_20  and  C_19 
REMARK       I    between atoms: C_22  and  N_20 
ROOT
ATOM      1  C   LIG d   1      -1.354  78.363 116.217  0.00  0.00     0.161 C 
ATOM      2  C   LIG d   1      -2.062  78.564 115.020  0.00  0.00     0.016 C 
ATOM      3  C   LIG d   1      -2.448  77.512 114.158  0.00  0.00     0.038 C 
ATOM      4  C   LIG d   1      -2.283  76.165 114.512  0.00  0.00     0.028 C 
ATOM      5  C   LIG d   1      -1.122  75.929 115.473  0.00  0.00    -0.047 C 
ATOM      6  C   LIG d   1      -1.262  76.892 116.674  0.00  0.00     0.091 C 
ENDROOT
BRANCH   1   7
ATOM      7  O   LIG d   1      -1.919  79.178 117.262  0.00  0.00    -0.368 OA
BRANCH   7   8
ATOM      8  C   LIG d   1      -3.129  78.675 117.880  0.00  0.00     0.119 C 
BRANCH   8   9
ATOM      9  C   LIG d   1      -4.297  79.556 117.396  0.00  0.00     0.028 C 
ATOM     10  C   LIG d   1      -5.652  78.834 117.486  0.00  0.00     0.006 C 
ENDBRANCH   8   9
BRANCH   8  11
ATOM     11  C   LIG d   1      -3.092  78.849 119.401  0.00  0.00     0.028 C 
ATOM     12  C   LIG d   1      -1.685  79.170 119.930  0.00  0.00     0.006 C 
ENDBRANCH   8  11
ENDBRANCH   7   8
ENDBRANCH   1   7
BRANCH   6  13
ATOM     13  N   LIG d   1      -0.122  76.786 117.622  0.00  0.00    -0.311 N 
ATOM     14  C   LIG d   1      -0.139  76.014 118.707  0.00  0.00     0.210 C 
ATOM     15  C   LIG d   1       1.133  76.066 119.559  0.00  0.00     0.109 C 
ATOM     16  O   LIG d   1      -1.075  75.266 119.027  0.00  0.00    -0.276 OA
ATOM     17  H   LIG d   1       0.691  77.336 117.421  0.00  0.00     0.149 HD
ENDBRANCH   6  13
BRANCH   5  18
ATOM     18  N   LIG d   1      -1.150  74.507 115.866  0.00  0.00     0.381 N 
ATOM     19  H   LIG d   1      -2.078  74.146 115.764  0.00  0.00    -0.090 HD
ATOM     20  H   LIG d   1      -0.887  74.432 116.832  0.00  0.00    -0.090 HD
ATOM     21  H   LIG d   1      -0.518  73.985 115.300  0.00  0.00    -0.090 HD
ENDBRANCH   5  18
BRANCH   3  22
ATOM     22  C   LIG d   1      -2.971  77.805 112.908  0.00  0.00     0.382 C 
ATOM     23  O   LIG d   1      -2.437  78.690 112.196  0.00  0.00    -0.241 OA
ATOM     24  O   LIG d   1      -3.996  77.227 112.500  0.00  0.00    -0.241 OA
ENDBRANCH   3  22
TORSDOF 7
ENDMDL
MODEL 9
REMARK VINA RESULT:      -4.7      2.826      4.959
REMARK  7 active torsions:
REMARK  status: ('A' for Active; 'I' for Inactive)
REMARK    1  A    between atoms: C_2  and  C_3 
REMARK    2  A    between atoms: C_3  and  O_6 
REMARK    3  A    between atoms: C_3  and  C_4 
REMARK    4  A    between atoms: C_7  and  O_6 
REMARK    5  A    between atoms: C_9  and  C_10 
REMARK    6  A    between atoms: N_15  and  C_14 
REMARK    7  A    between atoms: N_20  and  C_19 
REMARK       I    between atoms: C_22  and  N_20 
ROOT
ATOM      1  C   LIG d   1      -2.004  76.061 115.548  0.00  0.00     0.161 C 
ATOM      2  C   LIG d   1      -1.472  75.974 116.845  0.00  0.00     0.016 C 
ATOM      3  C   LIG d   1      -0.628  76.959 117.408  0.00  0.00     0.038 C 
ATOM      4  C   LIG d   1      -0.380  78.179 116.761  0.00  0.00     0.028 C 
ATOM      5  C   LIG d   1      -0.485  78.093 115.242  0.00  0.00    -0.047 C 
ATOM      6  C   LIG d   1      -1.834  77.436 114.870  0.00  0.00     0.091 C 
ENDROOT
BRANCH   1   7
ATOM      7  O   LIG d   1      -3.393  75.678 115.563  0.00  0.00    -0.368 OA
BRANCH   7   8
ATOM      8  C   LIG d   1      -4.348  76.729 115.274  0.00  0.00     0.119 C 
BRANCH   8   9
ATOM      9  C   LIG d   1      -4.931  77.208 116.617  0.00  0.00     0.028 C 
ATOM     10  C   LIG d   1      -4.413  78.599 117.019  0.00  0.00     0.006 C 
ENDBRANCH   8   9
BRANCH   8  11
ATOM     11  C   LIG d   1      -5.543  76.193 114.481  0.00  0.00     0.028 C 
ATOM     12  C   LIG d   1      -5.819  74.705 114.750  0.00  0.00     0.006 C 
ENDBRANCH   8  11
ENDBRANCH   7   8
ENDBRANCH   1   7
BRANCH   6  13
ATOM     13  N   LIG d   1      -1.982  77.237 113.405  0.00  0.00    -0.311 N 
ATOM     14  C   LIG d   1      -2.598  78.106 112.605  0.00  0.00     0.210 C 
ATOM     15  C   LIG d   1      -2.657  77.697 111.130  0.00  0.00     0.109 C 
ATOM     16  O   LIG d   1      -3.073  79.191 112.972  0.00  0.00    -0.276 OA
ATOM     17  H   LIG d   1      -1.598  76.397 113.018  0.00  0.00     0.149 HD
ENDBRANCH   6  13
BRANCH   5  18
ATOM     18  N   LIG d   1      -0.340  79.459 114.707  0.00  0.00     0.381 N 
ATOM     19  H   LIG d   1      -0.214  80.106 115.460  0.00  0.00    -0.090 HD
ATOM     20  H   LIG d   1      -1.181  79.707 114.216  0.00  0.00    -0.090 HD
ATOM     21  H   LIG d   1       0.440  79.502 114.089  0.00  0.00    -0.090 HD
ENDBRANCH   5  18
BRANCH   3  22
ATOM     22  C   LIG d   1       0.010  76.711 118.613  0.00  0.00     0.382 C 
ATOM     23  O   LIG d   1       0.467  77.664 119.289  0.00  0.00    -0.241 OA
ATOM     24  O   LIG d   1       0.173  75.542 119.013  0.00  0.00    -0.241 OA
ENDBRANCH   3  22
TORSDOF 7
ENDMDL
