MODEL 1
REMARK VINA RESULT:      -5.3      0.000      0.000
REMARK  7 active torsions:
REMARK  status: ('A' for Active; 'I' for Inactive)
REMARK    1  A    between atoms: C_2  and  C_3 
REMARK    2  A    between atoms: C_3  and  O_6 
REMARK    3  A    between atoms: C_3  and  C_4 
REMARK    4  A    between atoms: C_7  and  O_6 
REMARK    5  A    between atoms: C_9  and  C_10 
REMARK    6  A    between atoms: N_15  and  C_14 
REMARK    7  A    between atoms: N_20  and  C_19 
REMARK       I    between atoms: C_22  and  N_20 
ROOT
ATOM      1  C   LIG d   1      -1.514  78.318 114.882  0.00  0.00     0.161 C 
ATOM      2  C   LIG d   1      -2.068  79.529 114.433  0.00  0.00     0.016 C 
ATOM      3  C   LIG d   1      -2.099  79.914 113.073  0.00  0.00     0.038 C 
ATOM      4  C   LIG d   1      -1.710  79.041 112.046  0.00  0.00     0.028 C 
ATOM      5  C   LIG d   1      -0.677  78.009 112.487  0.00  0.00    -0.047 C 
ATOM      6  C   LIG d   1      -1.186  77.304 113.766  0.00  0.00     0.091 C 
ENDROOT
BRANCH   1   7
ATOM      7  O   LIG d   1      -2.381  77.718 115.864  0.00  0.00    -0.368 OA
BRANCH   7   8
ATOM      8  C   LIG d   1      -3.801  77.789 115.589  0.00  0.00     0.119 C 
BRANCH   8   9
ATOM      9  C   LIG d   1      -4.489  78.354 116.847  0.00  0.00     0.028 C 
ATOM     10  C   LIG d   1      -4.999  77.247 117.785  0.00  0.00     0.006 C 
ENDBRANCH   8   9
BRANCH   8  11
ATOM     11  C   LIG d   1      -4.401  76.394 115.392  0.00  0.00     0.028 C 
ATOM     12  C   LIG d   1      -4.916  76.163 113.962  0.00  0.00     0.006 C 
ENDBRANCH   8  11
ENDBRANCH   7   8
ENDBRANCH   1   7
BRANCH   6  13
ATOM     13  N   LIG d   1      -0.197  76.338 114.312  0.00  0.00    -0.311 N 
ATOM     14  C   LIG d   1      -0.518  75.110 114.715  0.00  0.00     0.210 C 
ATOM     15  C   LIG d   1       0.650  74.284 115.263  0.00  0.00     0.109 C 
ATOM     16  O   LIG d   1      -1.652  74.615 114.639  0.00  0.00    -0.276 OA
ATOM     17  H   LIG d   1       0.753  76.647 114.379  0.00  0.00     0.149 HD
ENDBRANCH   6  13
BRANCH   5  18
ATOM     18  N   LIG d   1      -0.466  77.080 111.361  0.00  0.00     0.381 N 
ATOM     19  H   LIG d   1       0.310  76.480 111.557  0.00  0.00    -0.090 HD
ATOM     20  H   LIG d   1      -0.252  77.613 110.536  0.00  0.00    -0.090 HD
ATOM     21  H   LIG d   1      -1.286  76.536 111.209  0.00  0.00    -0.090 HD
ENDBRANCH   5  18
BRANCH   3  22
ATOM     22  C   LIG d   1      -2.485  81.201 112.732  0.00  0.00     0.382 C 
ATOM     23  O   LIG d   1      -3.690  81.540 112.826  0.00  0.00    -0.241 OA
ATOM     24  O   LIG d   1      -1.652  82.014 112.289  0.00  0.00    -0.241 OA
ENDBRANCH   3  22
TORSDOF 7
ENDMDL
MODEL 2
REMARK VINA RESULT:      -5.1      1.463      1.943
REMARK  7 active torsions:
REMARK  status: ('A' for Active; 'I' for Inactive)
REMARK    1  A    between atoms: C_2  and  C_3 
REMARK    2  A    between atoms: C_3  and  O_6 
REMARK    3  A    between atoms: C_3  and  C_4 
REMARK    4  A    between atoms: C_7  and  O_6 
REMARK    5  A    between atoms: C_9  and  C_10 
REMARK    6  A    between atoms: N_15  and  C_14 
REMARK    7  A    between atoms: N_20  and  C_19 
REMARK       I    between atoms: C_22  and  N_20 
ROOT
ATOM      1  C   LIG d   1      -1.932  79.010 116.066  0.00  0.00     0.161 C 
ATOM      2  C   LIG d   1      -2.373  79.989 115.161  0.00  0.00     0.016 C 
ATOM      3  C   LIG d   1      -2.197  79.891 113.762  0.00  0.00     0.038 C 
ATOM      4  C   LIG d   1      -1.698  78.728 113.157  0.00  0.00     0.028 C 
ATOM      5  C   LIG d   1      -0.776  77.921 114.064  0.00  0.00    -0.047 C 
ATOM      6  C   LIG d   1      -1.485  77.683 115.417  0.00  0.00     0.091 C 
ENDROOT
BRANCH   1   7
ATOM      7  O   LIG d   1      -2.950  78.765 117.056  0.00  0.00    -0.368 OA
BRANCH   7   8
ATOM      8  C   LIG d   1      -4.044  77.908 116.647  0.00  0.00     0.119 C 
BRANCH   8   9
ATOM      9  C   LIG d   1      -5.355  78.674 116.910  0.00  0.00     0.028 C 
ATOM     10  C   LIG d   1      -5.120  80.006 117.642  0.00  0.00     0.006 C 
ENDBRANCH   8   9
BRANCH   8  11
ATOM     11  C   LIG d   1      -4.126  76.653 117.520  0.00  0.00     0.028 C 
ATOM     12  C   LIG d   1      -3.359  76.797 118.844  0.00  0.00     0.006 C 
ENDBRANCH   8  11
ENDBRANCH   7   8
ENDBRANCH   1   7
BRANCH   6  13
ATOM     13  N   LIG d   1      -0.619  76.973 116.394  0.00  0.00    -0.311 N 
ATOM     14  C   LIG d   1      -0.645  75.653 116.573  0.00  0.00     0.210 C 
ATOM     15  C   LIG d   1       0.315  75.127 117.644  0.00  0.00     0.109 C 
ATOM     16  O   LIG d   1      -1.349  74.865 115.923  0.00  0.00    -0.276 OA
ATOM     17  H   LIG d   1       0.005  77.533 116.941  0.00  0.00     0.149 HD
ENDBRANCH   6  13
BRANCH   5  18
ATOM     18  N   LIG d   1      -0.441  76.669 113.359  0.00  0.00     0.381 N 
ATOM     19  H   LIG d   1       0.107  76.081 113.955  0.00  0.00    -0.090 HD
ATOM     20  H   LIG d   1       0.107  76.891 112.546  0.00  0.00    -0.090 HD
ATOM     21  H   LIG d   1      -1.275  76.196 113.088  0.00  0.00    -0.090 HD
ENDBRANCH   5  18
BRANCH   3  22
ATOM     22  C   LIG d   1      -2.485  80.982 112.955  0.00  0.00     0.382 C 
ATOM     23  O   LIG d   1      -3.669  81.377 112.835  0.00  0.00    -0.241 OA
ATOM     24  O   LIG d   1      -1.581  81.547 112.311  0.00  0.00    -0.241 OA
ENDBRANCH   3  22
TORSDOF 7
ENDMDL
MODEL 3
REMARK VINA RESULT:      -5.1      1.900      2.589
REMARK  7 active torsions:
REMARK  status: ('A' for Active; 'I' for Inactive)
REMARK    1  A    between atoms: C_2  and  C_3 
REMARK    2  A    between atoms: C_3  and  O_6 
REMARK    3  A    between atoms: C_3  and  C_4 
REMARK    4  A    between atoms: C_7  and  O_6 
REMARK    5  A    between atoms: C_9  and  C_10 
REMARK    6  A    between atoms: N_15  and  C_14 
REMARK    7  A    between atoms: N_20  and  C_19 
REMARK       I    between atoms: C_22  and  N_20 
ROOT
ATOM      1  C   LIG d   1      -2.944  77.686 114.642  0.00  0.00     0.161 C 
ATOM      2  C   LIG d   1      -3.073  78.793 113.787  0.00  0.00     0.016 C 
ATOM      3  C   LIG d   1      -2.056  79.758 113.606  0.00  0.00     0.038 C 
ATOM      4  C   LIG d   1      -0.775  79.599 114.156  0.00  0.00     0.028 C 
ATOM      5  C   LIG d   1      -0.764  78.761 115.430  0.00  0.00    -0.047 C 
ATOM      6  C   LIG d   1      -1.514  77.435 115.165  0.00  0.00     0.091 C 
ENDROOT
BRANCH   1   7
ATOM      7  O   LIG d   1      -3.454  76.504 113.993  0.00  0.00    -0.368 OA
BRANCH   7   8
ATOM      8  C   LIG d   1      -4.505  75.795 114.694  0.00  0.00     0.119 C 
BRANCH   8   9
ATOM      9  C   LIG d   1      -5.588  75.433 113.659  0.00  0.00     0.028 C 
ATOM     10  C   LIG d   1      -6.039  76.648 112.831  0.00  0.00     0.006 C 
ENDBRANCH   8   9
BRANCH   8  11
ATOM     11  C   LIG d   1      -5.204  76.700 115.713  0.00  0.00     0.028 C 
ATOM     12  C   LIG d   1      -6.396  76.014 116.399  0.00  0.00     0.006 C 
ENDBRANCH   8  11
ENDBRANCH   7   8
ENDBRANCH   1   7
BRANCH   6  13
ATOM     13  N   LIG d   1      -1.622  76.592 116.385  0.00  0.00    -0.311 N 
ATOM     14  C   LIG d   1      -1.332  75.292 116.405  0.00  0.00     0.210 C 
ATOM     15  C   LIG d   1      -1.531  74.607 117.761  0.00  0.00     0.109 C 
ATOM     16  O   LIG d   1      -0.897  74.649 115.438  0.00  0.00    -0.276 OA
ATOM     17  H   LIG d   1      -1.938  77.040 117.223  0.00  0.00     0.149 HD
ENDBRANCH   6  13
BRANCH   5  18
ATOM     18  N   LIG d   1       0.645  78.560 115.819  0.00  0.00     0.381 N 
ATOM     19  H   LIG d   1       1.056  77.848 115.248  0.00  0.00    -0.090 HD
ATOM     20  H   LIG d   1       0.678  78.255 116.775  0.00  0.00    -0.090 HD
ATOM     21  H   LIG d   1       1.152  79.412 115.716  0.00  0.00    -0.090 HD
ENDBRANCH   5  18
BRANCH   3  22
ATOM     22  C   LIG d   1      -2.329  80.919 112.898  0.00  0.00     0.382 C 
ATOM     23  O   LIG d   1      -3.502  81.361 112.847  0.00  0.00    -0.241 OA
ATOM     24  O   LIG d   1      -1.425  81.505 112.273  0.00  0.00    -0.241 OA
ENDBRANCH   3  22
TORSDOF 7
ENDMDL
MODEL 4
REMARK VINA RESULT:      -5.0      1.752      2.477
REMARK  7 active torsions:
REMARK  status: ('A' for Active; 'I' for Inactive)
REMARK    1  A    between atoms: C_2  and  C_3 
REMARK    2  A    between atoms: C_3  and  O_6 
REMARK    3  A    between atoms: C_3  and  C_4 
REMARK    4  A    between atoms: C_7  and  O_6 
REMARK    5  A    between atoms: C_9  and  C_10 
REMARK    6  A    between atoms: N_15  and  C_14 
REMARK    7  A    between atoms: N_20  and  C_19 
REMARK       I    between atoms: C_22  and  N_20 
ROOT
ATOM      1  C   LIG d   1      -2.769  78.478 115.924  0.00  0.00     0.161 C 
ATOM      2  C   LIG d   1      -2.938  79.532 115.010  0.00  0.00     0.016 C 
ATOM      3  C   LIG d   1      -2.261  79.603 113.770  0.00  0.00     0.038 C 
ATOM      4  C   LIG d   1      -1.479  78.541 113.291  0.00  0.00     0.028 C 
ATOM      5  C   LIG d   1      -0.879  77.682 114.399  0.00  0.00    -0.047 C 
ATOM      6  C   LIG d   1      -2.005  77.257 115.369  0.00  0.00     0.091 C 
ENDROOT
BRANCH   1   7
ATOM      7  O   LIG d   1      -4.050  78.073 116.444  0.00  0.00    -0.368 OA
BRANCH   7   8
ATOM      8  C   LIG d   1      -4.461  78.699 117.685  0.00  0.00     0.119 C 
BRANCH   8   9
ATOM      9  C   LIG d   1      -4.730  77.574 118.704  0.00  0.00     0.028 C 
ATOM     10  C   LIG d   1      -3.529  77.320 119.630  0.00  0.00     0.006 C 
ENDBRANCH   8   9
BRANCH   8  11
ATOM     11  C   LIG d   1      -5.797  79.430 117.525  0.00  0.00     0.028 C 
ATOM     12  C   LIG d   1      -5.684  80.941 117.784  0.00  0.00     0.006 C 
ENDBRANCH   8  11
ENDBRANCH   7   8
ENDBRANCH   1   7
BRANCH   6  13
ATOM     13  N   LIG d   1      -1.491  76.484 116.529  0.00  0.00    -0.311 N 
ATOM     14  C   LIG d   1      -1.971  75.294 116.887  0.00  0.00     0.210 C 
ATOM     15  C   LIG d   1      -1.313  74.677 118.126  0.00  0.00     0.109 C 
ATOM     16  O   LIG d   1      -2.857  74.676 116.278  0.00  0.00    -0.276 OA
ATOM     17  H   LIG d   1      -0.750  76.897 117.061  0.00  0.00     0.149 HD
ENDBRANCH   6  13
BRANCH   5  18
ATOM     18  N   LIG d   1      -0.205  76.537 113.759  0.00  0.00     0.381 N 
ATOM     19  H   LIG d   1      -0.446  75.692 114.237  0.00  0.00    -0.090 HD
ATOM     20  H   LIG d   1       0.789  76.665 113.827  0.00  0.00    -0.090 HD
ATOM     21  H   LIG d   1      -0.474  76.474 112.802  0.00  0.00    -0.090 HD
ENDBRANCH   5  18
BRANCH   3  22
ATOM     22  C   LIG d   1      -2.333  80.763 113.014  0.00  0.00     0.382 C 
ATOM     23  O   LIG d   1      -3.424  81.371 112.901  0.00  0.00    -0.241 OA
ATOM     24  O   LIG d   1      -1.330  81.184 112.407  0.00  0.00    -0.241 OA
ENDBRANCH   3  22
TORSDOF 7
ENDMDL
MODEL 5
REMARK VINA RESULT:      -5.0      1.507      2.151
REMARK  7 active torsions:
REMARK  status: ('A' for Active; 'I' for Inactive)
REMARK    1  A    between atoms: C_2  and  C_3 
REMARK    2  A    between atoms: C_3  and  O_6 
REMARK    3  A    between atoms: C_3  and  C_4 
REMARK    4  A    between atoms: C_7  and  O_6 
REMARK    5  A    between atoms: C_9  and  C_10 
REMARK    6  A    between atoms: N_15  and  C_14 
REMARK    7  A    between atoms: N_20  and  C_19 
REMARK       I    between atoms: C_22  and  N_20 
ROOT
ATOM      1  C   LIG d   1      -1.500  78.320 114.823  0.00  0.00     0.161 C 
ATOM      2  C   LIG d   1      -2.046  79.541 114.393  0.00  0.00     0.016 C 
ATOM      3  C   LIG d   1      -2.083  79.943 113.039  0.00  0.00     0.038 C 
ATOM      4  C   LIG d   1      -1.709  79.079 111.998  0.00  0.00     0.028 C 
ATOM      5  C   LIG d   1      -0.683  78.033 112.419  0.00  0.00    -0.047 C 
ATOM      6  C   LIG d   1      -1.189  77.317 113.692  0.00  0.00     0.091 C 
ENDROOT
BRANCH   1   7
ATOM      7  O   LIG d   1      -2.366  77.716 115.805  0.00  0.00    -0.368 OA
BRANCH   7   8
ATOM      8  C   LIG d   1      -1.923  77.797 117.182  0.00  0.00     0.119 C 
BRANCH   8   9
ATOM      9  C   LIG d   1      -0.425  78.160 117.165  0.00  0.00     0.028 C 
ATOM     10  C   LIG d   1       0.449  77.073 117.813  0.00  0.00     0.006 C 
ENDBRANCH   8   9
BRANCH   8  11
ATOM     11  C   LIG d   1      -2.002  76.433 117.874  0.00  0.00     0.028 C 
ATOM     12  C   LIG d   1      -3.106  76.370 118.941  0.00  0.00     0.006 C 
ENDBRANCH   8  11
ENDBRANCH   7   8
ENDBRANCH   1   7
BRANCH   6  13
ATOM     13  N   LIG d   1      -0.206  76.336 114.220  0.00  0.00    -0.311 N 
ATOM     14  C   LIG d   1      -0.547  75.136 114.689  0.00  0.00     0.210 C 
ATOM     15  C   LIG d   1       0.621  74.288 115.203  0.00  0.00     0.109 C 
ATOM     16  O   LIG d   1      -1.701  74.682 114.698  0.00  0.00    -0.276 OA
ATOM     17  H   LIG d   1       0.757  76.610 114.221  0.00  0.00     0.149 HD
ENDBRANCH   6  13
BRANCH   5  18
ATOM     18  N   LIG d   1      -0.488  77.116 111.280  0.00  0.00     0.381 N 
ATOM     19  H   LIG d   1       0.002  77.588 110.546  0.00  0.00    -0.090 HD
ATOM     20  H   LIG d   1      -1.388  76.837 110.929  0.00  0.00    -0.090 HD
ATOM     21  H   LIG d   1       0.026  76.315 111.571  0.00  0.00    -0.090 HD
ENDBRANCH   5  18
BRANCH   3  22
ATOM     22  C   LIG d   1      -2.460  81.238 112.716  0.00  0.00     0.382 C 
ATOM     23  O   LIG d   1      -3.657  81.592 112.840  0.00  0.00    -0.241 OA
ATOM     24  O   LIG d   1      -1.626  82.044 112.261  0.00  0.00    -0.241 OA
ENDBRANCH   3  22
TORSDOF 7
ENDMDL
MODEL 6
REMARK VINA RESULT:      -4.8      2.434      2.998
REMARK  7 active torsions:
REMARK  status: ('A' for Active; 'I' for Inactive)
REMARK    1  A    between atoms: C_2  and  C_3 
REMARK    2  A    between atoms: C_3  and  O_6 
REMARK    3  A    between atoms: C_3  and  C_4 
REMARK    4  A    between atoms: C_7  and  O_6 
REMARK    5  A    between atoms: C_9  and  C_10 
REMARK    6  A    between atoms: N_15  and  C_14 
REMARK    7  A    between atoms: N_20  and  C_19 
REMARK       I    between atoms: C_22  and  N_20 
ROOT
ATOM      1  C   LIG d   1      -2.909  77.342 116.062  0.00  0.00     0.161 C 
ATOM      2  C   LIG d   1      -3.293  77.681 114.754  0.00  0.00     0.016 C 
ATOM      3  C   LIG d   1      -2.411  77.646 113.650  0.00  0.00     0.038 C 
ATOM      4  C   LIG d   1      -1.114  77.121 113.753  0.00  0.00     0.028 C 
ATOM      5  C   LIG d   1      -0.523  77.240 115.154  0.00  0.00    -0.047 C 
ATOM      6  C   LIG d   1      -1.529  76.661 116.174  0.00  0.00     0.091 C 
ENDROOT
BRANCH   1   7
ATOM      7  O   LIG d   1      -3.924  76.521 116.672  0.00  0.00    -0.368 OA
BRANCH   7   8
ATOM      8  C   LIG d   1      -5.263  76.660 116.137  0.00  0.00     0.119 C 
BRANCH   8   9
ATOM      9  C   LIG d   1      -6.179  77.111 117.291  0.00  0.00     0.028 C 
ATOM     10  C   LIG d   1      -7.628  76.629 117.113  0.00  0.00     0.006 C 
ENDBRANCH   8   9
BRANCH   8  11
ATOM     11  C   LIG d   1      -5.823  75.309 115.679  0.00  0.00     0.028 C 
ATOM     12  C   LIG d   1      -5.592  75.045 114.183  0.00  0.00     0.006 C 
ENDBRANCH   8  11
ENDBRANCH   7   8
ENDBRANCH   1   7
BRANCH   6  13
ATOM     13  N   LIG d   1      -1.065  76.814 117.578  0.00  0.00    -0.311 N 
ATOM     14  C   LIG d   1      -0.376  75.878 118.228  0.00  0.00     0.210 C 
ATOM     15  C   LIG d   1      -0.013  76.230 119.674  0.00  0.00     0.109 C 
ATOM     16  O   LIG d   1      -0.004  74.803 117.735  0.00  0.00    -0.276 OA
ATOM     17  H   LIG d   1      -1.296  77.669 118.044  0.00  0.00     0.149 HD
ENDBRANCH   6  13
BRANCH   5  18
ATOM     18  N   LIG d   1       0.772  76.532 115.152  0.00  0.00     0.381 N 
ATOM     19  H   LIG d   1       0.992  76.228 116.079  0.00  0.00    -0.090 HD
ATOM     20  H   LIG d   1       1.489  77.167 114.849  0.00  0.00    -0.090 HD
ATOM     21  H   LIG d   1       0.731  75.748 114.539  0.00  0.00    -0.090 HD
ENDBRANCH   5  18
BRANCH   3  22
ATOM     22  C   LIG d   1      -2.811  78.178 112.433  0.00  0.00     0.382 C 
ATOM     23  O   LIG d   1      -2.133  79.084 111.891  0.00  0.00    -0.241 OA
ATOM     24  O   LIG d   1      -3.866  77.794 111.892  0.00  0.00    -0.241 OA
ENDBRANCH   3  22
TORSDOF 7
ENDMDL
MODEL 7
REMARK VINA RESULT:      -4.7      2.725      4.802
REMARK  7 active torsions:
REMARK  status: ('A' for Active; 'I' for Inactive)
REMARK    1  A    between atoms: C_2  and  C_3 
REMARK    2  A    between atoms: C_3  and  O_6 
REMARK    3  A    between atoms: C_3  and  C_4 
REMARK    4  A    between atoms: C_7  and  O_6 
REMARK    5  A    between atoms: C_9  and  C_10 
REMARK    6  A    between atoms: N_15  and  C_14 
REMARK    7  A    between atoms: N_20  and  C_19 
REMARK       I    between atoms: C_22  and  N_20 
ROOT
ATOM      1  C   LIG d   1      -1.738  76.812 115.176  0.00  0.00     0.161 C 
ATOM      2  C   LIG d   1      -2.947  76.729 114.466  0.00  0.00     0.016 C 
ATOM      3  C   LIG d   1      -4.016  75.885 114.844  0.00  0.00     0.038 C 
ATOM      4  C   LIG d   1      -4.007  75.174 116.053  0.00  0.00     0.028 C 
ATOM      5  C   LIG d   1      -2.604  74.837 116.547  0.00  0.00    -0.047 C 
ATOM      6  C   LIG d   1      -1.753  76.127 116.559  0.00  0.00     0.091 C 
ENDROOT
BRANCH   1   7
ATOM      7  O   LIG d   1      -1.340  78.191 115.305  0.00  0.00    -0.368 OA
BRANCH   7   8
ATOM      8  C   LIG d   1      -2.353  79.179 114.991  0.00  0.00     0.119 C 
BRANCH   8   9
ATOM      9  C   LIG d   1      -1.699  80.241 114.087  0.00  0.00     0.028 C 
ATOM     10  C   LIG d   1      -2.671  80.789 113.028  0.00  0.00     0.006 C 
ENDBRANCH   8   9
BRANCH   8  11
ATOM     11  C   LIG d   1      -2.801  79.935 116.246  0.00  0.00     0.028 C 
ATOM     12  C   LIG d   1      -4.170  79.467 116.766  0.00  0.00     0.006 C 
ENDBRANCH   8  11
ENDBRANCH   7   8
ENDBRANCH   1   7
BRANCH   6  13
ATOM     13  N   LIG d   1      -0.342  75.872 116.950  0.00  0.00    -0.311 N 
ATOM     14  C   LIG d   1       0.225  76.398 118.033  0.00  0.00     0.210 C 
ATOM     15  C   LIG d   1       1.696  76.022 118.241  0.00  0.00     0.109 C 
ATOM     16  O   LIG d   1      -0.358  77.115 118.860  0.00  0.00    -0.276 OA
ATOM     17  H   LIG d   1       0.196  75.276 116.351  0.00  0.00     0.149 HD
ENDBRANCH   6  13
BRANCH   5  18
ATOM     18  N   LIG d   1      -2.738  74.220 117.880  0.00  0.00     0.381 N 
ATOM     19  H   LIG d   1      -3.484  74.657 118.383  0.00  0.00    -0.090 HD
ATOM     20  H   LIG d   1      -1.885  74.364 118.392  0.00  0.00    -0.090 HD
ATOM     21  H   LIG d   1      -2.916  73.244 117.788  0.00  0.00    -0.090 HD
ENDBRANCH   5  18
BRANCH   3  22
ATOM     22  C   LIG d   1      -5.094  75.716 113.988  0.00  0.00     0.382 C 
ATOM     23  O   LIG d   1      -5.824  74.700 114.092  0.00  0.00    -0.241 OA
ATOM     24  O   LIG d   1      -5.320  76.544 113.085  0.00  0.00    -0.241 OA
ENDBRANCH   3  22
TORSDOF 7
ENDMDL
MODEL 8
REMARK VINA RESULT:      -4.5      3.006      4.033
REMARK  7 active torsions:
REMARK  status: ('A' for Active; 'I' for Inactive)
REMARK    1  A    between atoms: C_2  and  C_3 
REMARK    2  A    between atoms: C_3  and  O_6 
REMARK    3  A    between atoms: C_3  and  C_4 
REMARK    4  A    between atoms: C_7  and  O_6 
REMARK    5  A    between atoms: C_9  and  C_10 
REMARK    6  A    between atoms: N_15  and  C_14 
REMARK    7  A    between atoms: N_20  and  C_19 
REMARK       I    between atoms: C_22  and  N_20 
ROOT
ATOM      1  C   LIG d   1      -2.326  78.872 115.480  0.00  0.00     0.161 C 
ATOM      2  C   LIG d   1      -2.833  78.223 114.342  0.00  0.00     0.016 C 
ATOM      3  C   LIG d   1      -2.255  78.342 113.057  0.00  0.00     0.038 C 
ATOM      4  C   LIG d   1      -1.035  79.002 112.851  0.00  0.00     0.028 C 
ATOM      5  C   LIG d   1      -0.755  80.094 113.878  0.00  0.00    -0.047 C 
ATOM      6  C   LIG d   1      -0.931  79.506 115.296  0.00  0.00     0.091 C 
ENDROOT
BRANCH   1   7
ATOM      7  O   LIG d   1      -2.319  77.962 116.598  0.00  0.00    -0.368 OA
BRANCH   7   8
ATOM      8  C   LIG d   1      -2.280  76.551 116.272  0.00  0.00     0.119 C 
BRANCH   8   9
ATOM      9  C   LIG d   1      -3.154  75.813 117.304  0.00  0.00     0.028 C 
ATOM     10  C   LIG d   1      -2.412  74.643 117.973  0.00  0.00     0.006 C 
ENDBRANCH   8   9
BRANCH   8  11
ATOM     11  C   LIG d   1      -0.871  75.977 116.449  0.00  0.00     0.028 C 
ATOM     12  C   LIG d   1      -0.151  75.741 115.112  0.00  0.00     0.006 C 
ENDBRANCH   8  11
ENDBRANCH   7   8
ENDBRANCH   1   7
BRANCH   6  13
ATOM     13  N   LIG d   1      -0.759  80.529 116.360  0.00  0.00    -0.311 N 
ATOM     14  C   LIG d   1       0.401  80.762 116.972  0.00  0.00     0.210 C 
ATOM     15  C   LIG d   1       0.355  81.847 118.053  0.00  0.00     0.109 C 
ATOM     16  O   LIG d   1       1.470  80.196 116.701  0.00  0.00    -0.276 OA
ATOM     17  H   LIG d   1      -1.569  81.057 116.621  0.00  0.00     0.149 HD
ENDBRANCH   6  13
BRANCH   5  18
ATOM     18  N   LIG d   1       0.606  80.603 113.628  0.00  0.00     0.381 N 
ATOM     19  H   LIG d   1       0.847  80.467 112.666  0.00  0.00    -0.090 HD
ATOM     20  H   LIG d   1       1.256  80.085 114.192  0.00  0.00    -0.090 HD
ATOM     21  H   LIG d   1       0.655  81.572 113.856  0.00  0.00    -0.090 HD
ENDBRANCH   5  18
BRANCH   3  22
ATOM     22  C   LIG d   1      -2.922  77.831 111.954  0.00  0.00     0.382 C 
ATOM     23  O   LIG d   1      -4.168  77.688 111.985  0.00  0.00    -0.241 OA
ATOM     24  O   LIG d   1      -2.288  77.468 110.945  0.00  0.00    -0.241 OA
ENDBRANCH   3  22
TORSDOF 7
ENDMDL
MODEL 9
REMARK VINA RESULT:      -4.4      2.675      5.285
REMARK  7 active torsions:
REMARK  status: ('A' for Active; 'I' for Inactive)
REMARK    1  A    between atoms: C_2  and  C_3 
REMARK    2  A    between atoms: C_3  and  O_6 
REMARK    3  A    between atoms: C_3  and  C_4 
REMARK    4  A    between atoms: C_7  and  O_6 
REMARK    5  A    between atoms: C_9  and  C_10 
REMARK    6  A    between atoms: N_15  and  C_14 
REMARK    7  A    between atoms: N_20  and  C_19 
REMARK       I    between atoms: C_22  and  N_20 
ROOT
ATOM      1  C   LIG d   1      -3.066  76.280 116.389  0.00  0.00     0.161 C 
ATOM      2  C   LIG d   1      -2.727  75.708 117.627  0.00  0.00     0.016 C 
ATOM      3  C   LIG d   1      -1.398  75.425 118.016  0.00  0.00     0.038 C 
ATOM      4  C   LIG d   1      -0.298  75.837 117.249  0.00  0.00     0.028 C 
ATOM      5  C   LIG d   1      -0.609  75.965 115.762  0.00  0.00    -0.047 C 
ATOM      6  C   LIG d   1      -1.872  76.839 115.586  0.00  0.00     0.091 C 
ENDROOT
BRANCH   1   7
ATOM      7  O   LIG d   1      -4.063  77.303 116.580  0.00  0.00    -0.368 OA
BRANCH   7   8
ATOM      8  C   LIG d   1      -5.392  76.997 116.089  0.00  0.00     0.119 C 
BRANCH   8   9
ATOM      9  C   LIG d   1      -6.348  77.019 117.298  0.00  0.00     0.028 C 
ATOM     10  C   LIG d   1      -7.757  76.519 116.940  0.00  0.00     0.006 C 
ENDBRANCH   8   9
BRANCH   8  11
ATOM     11  C   LIG d   1      -5.467  75.571 115.538  0.00  0.00     0.028 C 
ATOM     12  C   LIG d   1      -5.615  75.530 114.009  0.00  0.00     0.006 C 
ENDBRANCH   8  11
ENDBRANCH   7   8
ENDBRANCH   1   7
BRANCH   6  13
ATOM     13  N   LIG d   1      -2.295  76.945 114.166  0.00  0.00    -0.311 N 
ATOM     14  C   LIG d   1      -2.708  78.081 113.607  0.00  0.00     0.210 C 
ATOM     15  C   LIG d   1      -3.117  77.966 112.135  0.00  0.00     0.109 C 
ATOM     16  O   LIG d   1      -2.743  79.180 114.181  0.00  0.00    -0.276 OA
ATOM     17  H   LIG d   1      -2.268  76.107 113.618  0.00  0.00     0.149 HD
ENDBRANCH   6  13
BRANCH   5  18
ATOM     18  N   LIG d   1       0.583  76.533 115.104  0.00  0.00     0.381 N 
ATOM     19  H   LIG d   1       0.939  75.885 114.429  0.00  0.00    -0.090 HD
ATOM     20  H   LIG d   1       1.294  76.688 115.797  0.00  0.00    -0.090 HD
ATOM     21  H   LIG d   1       0.350  77.393 114.659  0.00  0.00    -0.090 HD
ENDBRANCH   5  18
BRANCH   3  22
ATOM     22  C   LIG d   1      -1.161  74.687 119.165  0.00  0.00     0.382 C 
ATOM     23  O   LIG d   1      -2.121  74.180 119.794  0.00  0.00    -0.241 OA
ATOM     24  O   LIG d   1      -0.003  74.559 119.605  0.00  0.00    -0.241 OA
ENDBRANCH   3  22
TORSDOF 7
ENDMDL
