MODEL 1
REMARK VINA RESULT:      -5.3      0.000      0.000
REMARK  7 active torsions:
REMARK  status: ('A' for Active; 'I' for Inactive)
REMARK    1  A    between atoms: C_2  and  C_3 
REMARK    2  A    between atoms: C_3  and  O_6 
REMARK    3  A    between atoms: C_3  and  C_4 
REMARK    4  A    between atoms: C_7  and  O_6 
REMARK    5  A    between atoms: C_9  and  C_10 
REMARK    6  A    between atoms: N_15  and  C_14 
REMARK    7  A    between atoms: N_20  and  C_19 
REMARK       I    between atoms: C_22  and  N_20 
ROOT
ATOM      1  C   LIG d   1      -3.590  76.226 114.971  0.00  0.00     0.161 C 
ATOM      2  C   LIG d   1      -3.388  76.009 116.344  0.00  0.00     0.016 C 
ATOM      3  C   LIG d   1      -2.307  76.562 117.069  0.00  0.00     0.038 C 
ATOM      4  C   LIG d   1      -1.433  77.498 116.496  0.00  0.00     0.028 C 
ATOM      5  C   LIG d   1      -1.299  77.357 114.984  0.00  0.00    -0.047 C 
ATOM      6  C   LIG d   1      -2.711  77.334 114.355  0.00  0.00     0.091 C 
ENDROOT
BRANCH   1   7
ATOM      7  O   LIG d   1      -4.984  76.494 114.719  0.00  0.00    -0.368 OA
BRANCH   7   8
ATOM      8  C   LIG d   1      -5.716  75.458 114.020  0.00  0.00     0.119 C 
BRANCH   8   9
ATOM      9  C   LIG d   1      -6.778  76.152 113.144  0.00  0.00     0.028 C 
ATOM     10  C   LIG d   1      -6.265  76.450 111.726  0.00  0.00     0.006 C 
ENDBRANCH   8   9
BRANCH   8  11
ATOM     11  C   LIG d   1      -6.505  74.579 114.994  0.00  0.00     0.028 C 
ATOM     12  C   LIG d   1      -7.842  75.209 115.417  0.00  0.00     0.006 C 
ENDBRANCH   8  11
ENDBRANCH   7   8
ENDBRANCH   1   7
BRANCH   6  13
ATOM     13  N   LIG d   1      -2.674  77.114 112.886  0.00  0.00    -0.311 N 
ATOM     14  C   LIG d   1      -2.690  78.105 111.996  0.00  0.00     0.210 C 
ATOM     15  C   LIG d   1      -2.665  77.658 110.531  0.00  0.00     0.109 C 
ATOM     16  O   LIG d   1      -2.689  79.312 112.280  0.00  0.00    -0.276 OA
ATOM     17  H   LIG d   1      -2.642  76.165 112.568  0.00  0.00     0.149 HD
ENDBRANCH   6  13
BRANCH   5  18
ATOM     18  N   LIG d   1      -0.470  78.478 114.503  0.00  0.00     0.381 N 
ATOM     19  H   LIG d   1      -0.975  79.003 113.817  0.00  0.00    -0.090 HD
ATOM     20  H   LIG d   1       0.358  78.108 114.071  0.00  0.00    -0.090 HD
ATOM     21  H   LIG d   1      -0.221  79.069 115.266  0.00  0.00    -0.090 HD
ENDBRANCH   5  18
BRANCH   3  22
ATOM     22  C   LIG d   1      -2.067  76.147 118.370  0.00  0.00     0.382 C 
ATOM     23  O   LIG d   1      -2.568  76.778 119.331  0.00  0.00    -0.241 OA
ATOM     24  O   LIG d   1      -1.321  75.176 118.596  0.00  0.00    -0.241 OA
ENDBRANCH   3  22
TORSDOF 7
ENDMDL
MODEL 2
REMARK VINA RESULT:      -5.2      1.734      4.768
REMARK  7 active torsions:
REMARK  status: ('A' for Active; 'I' for Inactive)
REMARK    1  A    between atoms: C_2  and  C_3 
REMARK    2  A    between atoms: C_3  and  O_6 
REMARK    3  A    between atoms: C_3  and  C_4 
REMARK    4  A    between atoms: C_7  and  O_6 
REMARK    5  A    between atoms: C_9  and  C_10 
REMARK    6  A    between atoms: N_15  and  C_14 
REMARK    7  A    between atoms: N_20  and  C_19 
REMARK       I    between atoms: C_22  and  N_20 
ROOT
ATOM      1  C   LIG d   1      -3.366  77.200 114.474  0.00  0.00     0.161 C 
ATOM      2  C   LIG d   1      -3.351  77.435 113.089  0.00  0.00     0.016 C 
ATOM      3  C   LIG d   1      -2.249  77.126 112.260  0.00  0.00     0.038 C 
ATOM      4  C   LIG d   1      -1.137  76.417 112.738  0.00  0.00     0.028 C 
ATOM      5  C   LIG d   1      -0.892  76.609 114.231  0.00  0.00    -0.047 C 
ATOM      6  C   LIG d   1      -2.206  76.326 114.995  0.00  0.00     0.091 C 
ENDROOT
BRANCH   1   7
ATOM      7  O   LIG d   1      -4.633  76.632 114.860  0.00  0.00    -0.368 OA
BRANCH   7   8
ATOM      8  C   LIG d   1      -5.117  75.538 114.041  0.00  0.00     0.119 C 
BRANCH   8   9
ATOM      9  C   LIG d   1      -6.504  75.941 113.504  0.00  0.00     0.028 C 
ATOM     10  C   LIG d   1      -6.477  76.277 112.004  0.00  0.00     0.006 C 
ENDBRANCH   8   9
BRANCH   8  11
ATOM     11  C   LIG d   1      -5.356  74.279 114.879  0.00  0.00     0.028 C 
ATOM     12  C   LIG d   1      -6.790  74.189 115.424  0.00  0.00     0.006 C 
ENDBRANCH   8  11
ENDBRANCH   7   8
ENDBRANCH   1   7
BRANCH   6  13
ATOM     13  N   LIG d   1      -2.077  76.572 116.455  0.00  0.00    -0.311 N 
ATOM     14  C   LIG d   1      -1.787  75.617 117.336  0.00  0.00     0.210 C 
ATOM     15  C   LIG d   1      -1.721  76.081 118.795  0.00  0.00     0.109 C 
ATOM     16  O   LIG d   1      -1.546  74.435 117.046  0.00  0.00    -0.276 OA
ATOM     17  H   LIG d   1      -2.225  77.509 116.774  0.00  0.00     0.149 HD
ENDBRANCH   6  13
BRANCH   5  18
ATOM     18  N   LIG d   1       0.209  75.709 114.621  0.00  0.00     0.381 N 
ATOM     19  H   LIG d   1       0.118  75.460 115.586  0.00  0.00    -0.090 HD
ATOM     20  H   LIG d   1       1.082  76.192 114.501  0.00  0.00    -0.090 HD
ATOM     21  H   LIG d   1       0.195  74.888 114.057  0.00  0.00    -0.090 HD
ENDBRANCH   5  18
BRANCH   3  22
ATOM     22  C   LIG d   1      -2.235  77.563 110.944  0.00  0.00     0.382 C 
ATOM     23  O   LIG d   1      -1.222  78.145 110.487  0.00  0.00    -0.241 OA
ATOM     24  O   LIG d   1      -3.240  77.422 110.221  0.00  0.00    -0.241 OA
ENDBRANCH   3  22
TORSDOF 7
ENDMDL
MODEL 3
REMARK VINA RESULT:      -5.2      2.050      4.880
REMARK  7 active torsions:
REMARK  status: ('A' for Active; 'I' for Inactive)
REMARK    1  A    between atoms: C_2  and  C_3 
REMARK    2  A    between atoms: C_3  and  O_6 
REMARK    3  A    between atoms: C_3  and  C_4 
REMARK    4  A    between atoms: C_7  and  O_6 
REMARK    5  A    between atoms: C_9  and  C_10 
REMARK    6  A    between atoms: N_15  and  C_14 
REMARK    7  A    between atoms: N_20  and  C_19 
REMARK       I    between atoms: C_22  and  N_20 
ROOT
ATOM      1  C   LIG d   1      -3.440  75.937 115.020  0.00  0.00     0.161 C 
ATOM      2  C   LIG d   1      -3.666  76.445 113.730  0.00  0.00     0.016 C 
ATOM      3  C   LIG d   1      -2.633  76.911 112.885  0.00  0.00     0.038 C 
ATOM      4  C   LIG d   1      -1.278  76.759 113.216  0.00  0.00     0.028 C 
ATOM      5  C   LIG d   1      -1.024  76.714 114.719  0.00  0.00    -0.047 C 
ATOM      6  C   LIG d   1      -1.959  75.660 115.355  0.00  0.00     0.091 C 
ENDROOT
BRANCH   1   7
ATOM      7  O   LIG d   1      -4.230  74.749 115.222  0.00  0.00    -0.368 OA
BRANCH   7   8
ATOM      8  C   LIG d   1      -5.349  74.875 116.134  0.00  0.00     0.119 C 
BRANCH   8   9
ATOM      9  C   LIG d   1      -6.622  74.476 115.362  0.00  0.00     0.028 C 
ATOM     10  C   LIG d   1      -7.305  75.681 114.693  0.00  0.00     0.006 C 
ENDBRANCH   8   9
BRANCH   8  11
ATOM     11  C   LIG d   1      -5.567  76.333 116.549  0.00  0.00     0.028 C 
ATOM     12  C   LIG d   1      -5.474  76.540 118.069  0.00  0.00     0.006 C 
ENDBRANCH   8  11
ENDBRANCH   7   8
ENDBRANCH   1   7
BRANCH   6  13
ATOM     13  N   LIG d   1      -1.835  75.612 116.835  0.00  0.00    -0.311 N 
ATOM     14  C   LIG d   1      -0.929  74.871 117.471  0.00  0.00     0.210 C 
ATOM     15  C   LIG d   1      -0.985  74.950 119.000  0.00  0.00     0.109 C 
ATOM     16  O   LIG d   1      -0.062  74.181 116.913  0.00  0.00    -0.276 OA
ATOM     17  H   LIG d   1      -2.478  76.166 117.366  0.00  0.00     0.149 HD
ENDBRANCH   6  13
BRANCH   5  18
ATOM     18  N   LIG d   1       0.406  76.415 114.921  0.00  0.00     0.381 N 
ATOM     19  H   LIG d   1       0.766  75.929 114.123  0.00  0.00    -0.090 HD
ATOM     20  H   LIG d   1       0.504  75.818 115.723  0.00  0.00    -0.090 HD
ATOM     21  H   LIG d   1       0.915  77.260 115.061  0.00  0.00    -0.090 HD
ENDBRANCH   5  18
BRANCH   3  22
ATOM     22  C   LIG d   1      -2.953  77.574 111.709  0.00  0.00     0.382 C 
ATOM     23  O   LIG d   1      -3.930  77.192 111.021  0.00  0.00    -0.241 OA
ATOM     24  O   LIG d   1      -2.250  78.520 111.306  0.00  0.00    -0.241 OA
ENDBRANCH   3  22
TORSDOF 7
ENDMDL
MODEL 4
REMARK VINA RESULT:      -5.2      1.237      1.968
REMARK  7 active torsions:
REMARK  status: ('A' for Active; 'I' for Inactive)
REMARK    1  A    between atoms: C_2  and  C_3 
REMARK    2  A    between atoms: C_3  and  O_6 
REMARK    3  A    between atoms: C_3  and  C_4 
REMARK    4  A    between atoms: C_7  and  O_6 
REMARK    5  A    between atoms: C_9  and  C_10 
REMARK    6  A    between atoms: N_15  and  C_14 
REMARK    7  A    between atoms: N_20  and  C_19 
REMARK       I    between atoms: C_22  and  N_20 
ROOT
ATOM      1  C   LIG d   1      -2.140  75.919 114.082  0.00  0.00     0.161 C 
ATOM      2  C   LIG d   1      -2.290  75.584 115.438  0.00  0.00     0.016 C 
ATOM      3  C   LIG d   1      -1.938  76.451 116.497  0.00  0.00     0.038 C 
ATOM      4  C   LIG d   1      -1.552  77.781 116.270  0.00  0.00     0.028 C 
ATOM      5  C   LIG d   1      -0.905  77.999 114.906  0.00  0.00    -0.047 C 
ATOM      6  C   LIG d   1      -1.825  77.406 113.814  0.00  0.00     0.091 C 
ENDROOT
BRANCH   1   7
ATOM      7  O   LIG d   1      -3.312  75.516 113.347  0.00  0.00    -0.368 OA
BRANCH   7   8
ATOM      8  C   LIG d   1      -4.462  76.392 113.448  0.00  0.00     0.119 C 
BRANCH   8   9
ATOM      9  C   LIG d   1      -5.646  75.545 113.954  0.00  0.00     0.028 C 
ATOM     10  C   LIG d   1      -6.002  75.850 115.419  0.00  0.00     0.006 C 
ENDBRANCH   8   9
BRANCH   8  11
ATOM     11  C   LIG d   1      -4.891  76.910 112.073  0.00  0.00     0.028 C 
ATOM     12  C   LIG d   1      -6.324  76.496 111.701  0.00  0.00     0.006 C 
ENDBRANCH   8  11
ENDBRANCH   7   8
ENDBRANCH   1   7
BRANCH   6  13
ATOM     13  N   LIG d   1      -1.227  77.502 112.457  0.00  0.00    -0.311 N 
ATOM     14  C   LIG d   1      -1.490  78.495 111.609  0.00  0.00     0.210 C 
ATOM     15  C   LIG d   1      -0.784  78.391 110.253  0.00  0.00     0.109 C 
ATOM     16  O   LIG d   1      -2.215  79.468 111.863  0.00  0.00    -0.276 OA
ATOM     17  H   LIG d   1      -0.603  76.770 112.181  0.00  0.00     0.149 HD
ENDBRANCH   6  13
BRANCH   5  18
ATOM     18  N   LIG d   1      -0.678  79.447 114.747  0.00  0.00     0.381 N 
ATOM     19  H   LIG d   1      -1.555  79.928 114.735  0.00  0.00    -0.090 HD
ATOM     20  H   LIG d   1      -0.217  79.610 113.870  0.00  0.00    -0.090 HD
ATOM     21  H   LIG d   1      -0.115  79.789 115.495  0.00  0.00    -0.090 HD
ENDBRANCH   5  18
BRANCH   3  22
ATOM     22  C   LIG d   1      -1.934  75.978 117.801  0.00  0.00     0.382 C 
ATOM     23  O   LIG d   1      -2.554  76.600 118.696  0.00  0.00    -0.241 OA
ATOM     24  O   LIG d   1      -1.281  74.961 118.101  0.00  0.00    -0.241 OA
ENDBRANCH   3  22
TORSDOF 7
ENDMDL
MODEL 5
REMARK VINA RESULT:      -5.1      3.537      5.851
REMARK  7 active torsions:
REMARK  status: ('A' for Active; 'I' for Inactive)
REMARK    1  A    between atoms: C_2  and  C_3 
REMARK    2  A    between atoms: C_3  and  O_6 
REMARK    3  A    between atoms: C_3  and  C_4 
REMARK    4  A    between atoms: C_7  and  O_6 
REMARK    5  A    between atoms: C_9  and  C_10 
REMARK    6  A    between atoms: N_15  and  C_14 
REMARK    7  A    between atoms: N_20  and  C_19 
REMARK       I    between atoms: C_22  and  N_20 
ROOT
ATOM      1  C   LIG d   1      -1.780  80.038 113.430  0.00  0.00     0.161 C 
ATOM      2  C   LIG d   1      -2.702  79.046 113.056  0.00  0.00     0.016 C 
ATOM      3  C   LIG d   1      -2.555  78.244 111.901  0.00  0.00     0.038 C 
ATOM      4  C   LIG d   1      -1.392  78.277 111.118  0.00  0.00     0.028 C 
ATOM      5  C   LIG d   1      -0.664  79.616 111.171  0.00  0.00    -0.047 C 
ATOM      6  C   LIG d   1      -0.450  80.013 112.650  0.00  0.00     0.091 C 
ENDROOT
BRANCH   1   7
ATOM      7  O   LIG d   1      -1.531  79.964 114.848  0.00  0.00    -0.368 OA
BRANCH   7   8
ATOM      8  C   LIG d   1      -1.927  78.733 115.501  0.00  0.00     0.119 C 
BRANCH   8   9
ATOM      9  C   LIG d   1      -2.593  79.112 116.838  0.00  0.00     0.028 C 
ATOM     10  C   LIG d   1      -4.046  78.616 116.931  0.00  0.00     0.006 C 
ENDBRANCH   8   9
BRANCH   8  11
ATOM     11  C   LIG d   1      -0.709  77.886 115.880  0.00  0.00     0.028 C 
ATOM     12  C   LIG d   1      -0.464  76.723 114.906  0.00  0.00     0.006 C 
ENDBRANCH   8  11
ENDBRANCH   7   8
ENDBRANCH   1   7
BRANCH   6  13
ATOM     13  N   LIG d   1       0.181  81.351 112.792  0.00  0.00    -0.311 N 
ATOM     14  C   LIG d   1      -0.328  82.462 112.263  0.00  0.00     0.210 C 
ATOM     15  C   LIG d   1       0.491  83.731 112.512  0.00  0.00     0.109 C 
ATOM     16  O   LIG d   1      -1.398  82.521 111.638  0.00  0.00    -0.276 OA
ATOM     17  H   LIG d   1       1.037  81.399 113.310  0.00  0.00     0.149 HD
ENDBRANCH   6  13
BRANCH   5  18
ATOM     18  N   LIG d   1       0.599  79.466 110.424  0.00  0.00     0.381 N 
ATOM     19  H   LIG d   1       0.743  78.504 110.191  0.00  0.00    -0.090 HD
ATOM     20  H   LIG d   1       1.360  79.766 111.007  0.00  0.00    -0.090 HD
ATOM     21  H   LIG d   1       0.571  80.016 109.593  0.00  0.00    -0.090 HD
ENDBRANCH   5  18
BRANCH   3  22
ATOM     22  C   LIG d   1      -3.599  77.425 111.497  0.00  0.00     0.382 C 
ATOM     23  O   LIG d   1      -3.769  77.183 110.277  0.00  0.00    -0.241 OA
ATOM     24  O   LIG d   1      -4.398  76.962 112.332  0.00  0.00    -0.241 OA
ENDBRANCH   3  22
TORSDOF 7
ENDMDL
MODEL 6
REMARK VINA RESULT:      -5.1      4.032      6.499
REMARK  7 active torsions:
REMARK  status: ('A' for Active; 'I' for Inactive)
REMARK    1  A    between atoms: C_2  and  C_3 
REMARK    2  A    between atoms: C_3  and  O_6 
REMARK    3  A    between atoms: C_3  and  C_4 
REMARK    4  A    between atoms: C_7  and  O_6 
REMARK    5  A    between atoms: C_9  and  C_10 
REMARK    6  A    between atoms: N_15  and  C_14 
REMARK    7  A    between atoms: N_20  and  C_19 
REMARK       I    between atoms: C_22  and  N_20 
ROOT
ATOM      1  C   LIG d   1      -1.032  80.076 113.234  0.00  0.00     0.161 C 
ATOM      2  C   LIG d   1      -1.542  78.885 112.690  0.00  0.00     0.016 C 
ATOM      3  C   LIG d   1      -1.251  78.440 111.380  0.00  0.00     0.038 C 
ATOM      4  C   LIG d   1      -0.302  79.085 110.572  0.00  0.00     0.028 C 
ATOM      5  C   LIG d   1      -0.144  80.568 110.889  0.00  0.00    -0.047 C 
ATOM      6  C   LIG d   1       0.092  80.734 112.407  0.00  0.00     0.091 C 
ENDROOT
BRANCH   1   7
ATOM      7  O   LIG d   1      -0.591  79.845 114.586  0.00  0.00    -0.368 OA
BRANCH   7   8
ATOM      8  C   LIG d   1      -1.172  78.703 115.261  0.00  0.00     0.119 C 
BRANCH   8   9
ATOM      9  C   LIG d   1      -2.044  79.240 116.413  0.00  0.00     0.028 C 
ATOM     10  C   LIG d   1      -3.421  78.558 116.474  0.00  0.00     0.006 C 
ENDBRANCH   8   9
BRANCH   8  11
ATOM     11  C   LIG d   1      -0.096  77.845 115.933  0.00  0.00     0.028 C 
ATOM     12  C   LIG d   1      -0.088  76.394 115.425  0.00  0.00     0.006 C 
ENDBRANCH   8  11
ENDBRANCH   7   8
ENDBRANCH   1   7
BRANCH   6  13
ATOM     13  N   LIG d   1       0.174  82.161 112.815  0.00  0.00    -0.311 N 
ATOM     14  C   LIG d   1       1.322  82.827 112.928  0.00  0.00     0.210 C 
ATOM     15  C   LIG d   1       1.182  84.283 113.382  0.00  0.00     0.109 C 
ATOM     16  O   LIG d   1       2.440  82.359 112.666  0.00  0.00    -0.276 OA
ATOM     17  H   LIG d   1      -0.689  82.627 113.018  0.00  0.00     0.149 HD
ENDBRANCH   6  13
BRANCH   5  18
ATOM     18  N   LIG d   1       0.970  81.082 110.070  0.00  0.00     0.381 N 
ATOM     19  H   LIG d   1       1.302  81.945 110.454  0.00  0.00    -0.090 HD
ATOM     20  H   LIG d   1       0.635  81.259 109.139  0.00  0.00    -0.090 HD
ATOM     21  H   LIG d   1       1.710  80.415 110.044  0.00  0.00    -0.090 HD
ENDBRANCH   5  18
BRANCH   3  22
ATOM     22  C   LIG d   1      -1.943  77.361 110.851  0.00  0.00     0.382 C 
ATOM     23  O   LIG d   1      -1.346  76.279 110.635  0.00  0.00    -0.241 OA
ATOM     24  O   LIG d   1      -3.145  77.470 110.546  0.00  0.00    -0.241 OA
ENDBRANCH   3  22
TORSDOF 7
ENDMDL
MODEL 7
REMARK VINA RESULT:      -4.9      1.495      2.073
REMARK  7 active torsions:
REMARK  status: ('A' for Active; 'I' for Inactive)
REMARK    1  A    between atoms: C_2  and  C_3 
REMARK    2  A    between atoms: C_3  and  O_6 
REMARK    3  A    between atoms: C_3  and  C_4 
REMARK    4  A    between atoms: C_7  and  O_6 
REMARK    5  A    between atoms: C_9  and  C_10 
REMARK    6  A    between atoms: N_15  and  C_14 
REMARK    7  A    between atoms: N_20  and  C_19 
REMARK       I    between atoms: C_22  and  N_20 
ROOT
ATOM      1  C   LIG d   1      -2.729  75.247 114.817  0.00  0.00     0.161 C 
ATOM      2  C   LIG d   1      -2.267  74.843 116.081  0.00  0.00     0.016 C 
ATOM      3  C   LIG d   1      -1.287  75.551 116.814  0.00  0.00     0.038 C 
ATOM      4  C   LIG d   1      -0.810  76.803 116.397  0.00  0.00     0.028 C 
ATOM      5  C   LIG d   1      -0.873  77.003 114.886  0.00  0.00    -0.047 C 
ATOM      6  C   LIG d   1      -2.301  76.668 114.396  0.00  0.00     0.091 C 
ENDROOT
BRANCH   1   7
ATOM      7  O   LIG d   1      -4.163  75.117 114.757  0.00  0.00    -0.368 OA
BRANCH   7   8
ATOM      8  C   LIG d   1      -4.857  75.113 116.029  0.00  0.00     0.119 C 
BRANCH   8   9
ATOM      9  C   LIG d   1      -6.075  74.181 115.889  0.00  0.00     0.028 C 
ATOM     10  C   LIG d   1      -7.254  74.859 115.171  0.00  0.00     0.006 C 
ENDBRANCH   8   9
BRANCH   8  11
ATOM     11  C   LIG d   1      -5.437  76.494 116.351  0.00  0.00     0.028 C 
ATOM     12  C   LIG d   1      -5.335  76.849 117.843  0.00  0.00     0.006 C 
ENDBRANCH   8  11
ENDBRANCH   7   8
ENDBRANCH   1   7
BRANCH   6  13
ATOM     13  N   LIG d   1      -2.428  76.757 112.918  0.00  0.00    -0.311 N 
ATOM     14  C   LIG d   1      -2.870  77.841 112.284  0.00  0.00     0.210 C 
ATOM     15  C   LIG d   1      -2.942  77.715 110.759  0.00  0.00     0.109 C 
ATOM     16  O   LIG d   1      -3.179  78.907 112.837  0.00  0.00    -0.276 OA
ATOM     17  H   LIG d   1      -2.168  75.948 112.389  0.00  0.00     0.149 HD
ENDBRANCH   6  13
BRANCH   5  18
ATOM     18  N   LIG d   1      -0.476  78.395 114.604  0.00  0.00     0.381 N 
ATOM     19  H   LIG d   1       0.440  78.566 114.967  0.00  0.00    -0.090 HD
ATOM     20  H   LIG d   1      -1.119  79.016 115.063  0.00  0.00    -0.090 HD
ATOM     21  H   LIG d   1      -0.488  78.560 113.622  0.00  0.00    -0.090 HD
ENDBRANCH   5  18
BRANCH   3  22
ATOM     22  C   LIG d   1      -0.745  74.988 117.959  0.00  0.00     0.382 C 
ATOM     23  O   LIG d   1       0.210  74.180 117.869  0.00  0.00    -0.241 OA
ATOM     24  O   LIG d   1      -1.229  75.244 119.078  0.00  0.00    -0.241 OA
ENDBRANCH   3  22
TORSDOF 7
ENDMDL
MODEL 8
REMARK VINA RESULT:      -4.9      2.263      4.953
REMARK  7 active torsions:
REMARK  status: ('A' for Active; 'I' for Inactive)
REMARK    1  A    between atoms: C_2  and  C_3 
REMARK    2  A    between atoms: C_3  and  O_6 
REMARK    3  A    between atoms: C_3  and  C_4 
REMARK    4  A    between atoms: C_7  and  O_6 
REMARK    5  A    between atoms: C_9  and  C_10 
REMARK    6  A    between atoms: N_15  and  C_14 
REMARK    7  A    between atoms: N_20  and  C_19 
REMARK       I    between atoms: C_22  and  N_20 
ROOT
ATOM      1  C   LIG d   1      -2.759  75.807 114.205  0.00  0.00     0.161 C 
ATOM      2  C   LIG d   1      -4.117  75.648 113.884  0.00  0.00     0.016 C 
ATOM      3  C   LIG d   1      -5.166  75.881 114.803  0.00  0.00     0.038 C 
ATOM      4  C   LIG d   1      -4.933  76.437 116.070  0.00  0.00     0.028 C 
ATOM      5  C   LIG d   1      -3.541  76.138 116.615  0.00  0.00    -0.047 C 
ATOM      6  C   LIG d   1      -2.490  76.519 115.547  0.00  0.00     0.091 C 
ENDROOT
BRANCH   1   7
ATOM      7  O   LIG d   1      -2.079  76.487 113.132  0.00  0.00    -0.368 OA
BRANCH   7   8
ATOM      8  C   LIG d   1      -2.705  77.702 112.650  0.00  0.00     0.119 C 
BRANCH   8   9
ATOM      9  C   LIG d   1      -2.753  77.620 111.112  0.00  0.00     0.028 C 
ATOM     10  C   LIG d   1      -1.476  78.171 110.455  0.00  0.00     0.006 C 
ENDBRANCH   8   9
BRANCH   8  11
ATOM     11  C   LIG d   1      -1.848  78.932 112.964  0.00  0.00     0.028 C 
ATOM     12  C   LIG d   1      -2.677  80.120 113.478  0.00  0.00     0.006 C 
ENDBRANCH   8  11
ENDBRANCH   7   8
ENDBRANCH   1   7
BRANCH   6  13
ATOM     13  N   LIG d   1      -1.106  76.180 115.967  0.00  0.00    -0.311 N 
ATOM     14  C   LIG d   1      -0.156  77.092 116.165  0.00  0.00     0.210 C 
ATOM     15  C   LIG d   1       1.208  76.527 116.576  0.00  0.00     0.109 C 
ATOM     16  O   LIG d   1      -0.321  78.318 116.071  0.00  0.00    -0.276 OA
ATOM     17  H   LIG d   1      -0.893  75.211 116.097  0.00  0.00     0.149 HD
ENDBRANCH   6  13
BRANCH   5  18
ATOM     18  N   LIG d   1      -3.384  76.890 117.875  0.00  0.00     0.381 N 
ATOM     19  H   LIG d   1      -2.696  76.448 118.450  0.00  0.00    -0.090 HD
ATOM     20  H   LIG d   1      -4.260  76.883 118.368  0.00  0.00    -0.090 HD
ATOM     21  H   LIG d   1      -3.112  77.828 117.680  0.00  0.00    -0.090 HD
ENDBRANCH   5  18
BRANCH   3  22
ATOM     22  C   LIG d   1      -6.463  75.518 114.472  0.00  0.00     0.382 C 
ATOM     23  O   LIG d   1      -7.117  76.207 113.653  0.00  0.00    -0.241 OA
ATOM     24  O   LIG d   1      -7.003  74.536 115.016  0.00  0.00    -0.241 OA
ENDBRANCH   3  22
TORSDOF 7
ENDMDL
MODEL 9
REMARK VINA RESULT:      -4.8      3.424      6.997
REMARK  7 active torsions:
REMARK  status: ('A' for Active; 'I' for Inactive)
REMARK    1  A    between atoms: C_2  and  C_3 
REMARK    2  A    between atoms: C_3  and  O_6 
REMARK    3  A    between atoms: C_3  and  C_4 
REMARK    4  A    between atoms: C_7  and  O_6 
REMARK    5  A    between atoms: C_9  and  C_10 
REMARK    6  A    between atoms: N_15  and  C_14 
REMARK    7  A    between atoms: N_20  and  C_19 
REMARK       I    between atoms: C_22  and  N_20 
ROOT
ATOM      1  C   LIG d   1      -0.923  79.629 113.329  0.00  0.00     0.161 C 
ATOM      2  C   LIG d   1      -1.864  79.104 112.428  0.00  0.00     0.016 C 
ATOM      3  C   LIG d   1      -2.789  78.091 112.771  0.00  0.00     0.038 C 
ATOM      4  C   LIG d   1      -2.937  77.637 114.090  0.00  0.00     0.028 C 
ATOM      5  C   LIG d   1      -1.668  77.776 114.923  0.00  0.00    -0.047 C 
ATOM      6  C   LIG d   1      -1.143  79.225 114.802  0.00  0.00     0.091 C 
ENDROOT
BRANCH   1   7
ATOM      7  O   LIG d   1      -0.874  81.064 113.205  0.00  0.00    -0.368 OA
BRANCH   7   8
ATOM      8  C   LIG d   1      -0.355  81.578 111.954  0.00  0.00     0.119 C 
BRANCH   8   9
ATOM      9  C   LIG d   1       1.183  81.568 112.052  0.00  0.00     0.028 C 
ATOM     10  C   LIG d   1       1.844  80.886 110.843  0.00  0.00     0.006 C 
ENDBRANCH   8   9
BRANCH   8  11
ATOM     11  C   LIG d   1      -0.739  83.047 111.753  0.00  0.00     0.028 C 
ATOM     12  C   LIG d   1       0.132  84.009 112.576  0.00  0.00     0.006 C 
ENDBRANCH   8  11
ENDBRANCH   7   8
ENDBRANCH   1   7
BRANCH   6  13
ATOM     13  N   LIG d   1       0.143  79.424 115.520  0.00  0.00    -0.311 N 
ATOM     14  C   LIG d   1       0.224  79.903 116.760  0.00  0.00     0.210 C 
ATOM     15  C   LIG d   1       1.648  80.048 117.305  0.00  0.00     0.109 C 
ATOM     16  O   LIG d   1      -0.750  80.191 117.472  0.00  0.00    -0.276 OA
ATOM     17  H   LIG d   1       0.982  79.186 115.027  0.00  0.00     0.149 HD
ENDBRANCH   6  13
BRANCH   5  18
ATOM     18  N   LIG d   1      -2.001  77.396 116.309  0.00  0.00     0.381 N 
ATOM     19  H   LIG d   1      -2.703  76.683 116.305  0.00  0.00    -0.090 HD
ATOM     20  H   LIG d   1      -2.369  78.199 116.787  0.00  0.00    -0.090 HD
ATOM     21  H   LIG d   1      -1.186  77.066 116.778  0.00  0.00    -0.090 HD
ENDBRANCH   5  18
BRANCH   3  22
ATOM     22  C   LIG d   1      -3.552  77.493 111.779  0.00  0.00     0.382 C 
ATOM     23  O   LIG d   1      -4.673  77.004 112.059  0.00  0.00    -0.241 OA
ATOM     24  O   LIG d   1      -3.114  77.397 110.617  0.00  0.00    -0.241 OA
ENDBRANCH   3  22
TORSDOF 7
ENDMDL
