MODEL 1
REMARK VINA RESULT:      -5.1      0.000      0.000
REMARK  7 active torsions:
REMARK  status: ('A' for Active; 'I' for Inactive)
REMARK    1  A    between atoms: C_2  and  C_3 
REMARK    2  A    between atoms: C_3  and  O_6 
REMARK    3  A    between atoms: C_3  and  C_4 
REMARK    4  A    between atoms: C_7  and  O_6 
REMARK    5  A    between atoms: C_9  and  C_10 
REMARK    6  A    between atoms: N_15  and  C_14 
REMARK    7  A    between atoms: N_20  and  C_19 
REMARK       I    between atoms: C_22  and  N_20 
ROOT
ATOM      1  C   LIG d   1      -1.485  82.047 112.036  0.00  0.00     0.161 C 
ATOM      2  C   LIG d   1      -2.202  80.988 112.616  0.00  0.00     0.016 C 
ATOM      3  C   LIG d   1      -1.867  79.627 112.429  0.00  0.00     0.038 C 
ATOM      4  C   LIG d   1      -0.692  79.237 111.769  0.00  0.00     0.028 C 
ATOM      5  C   LIG d   1      -0.211  80.252 110.738  0.00  0.00    -0.047 C 
ATOM      6  C   LIG d   1      -0.136  81.646 111.403  0.00  0.00     0.091 C 
ENDROOT
BRANCH   1   7
ATOM      7  O   LIG d   1      -1.291  83.095 113.007  0.00  0.00    -0.368 OA
BRANCH   7   8
ATOM      8  C   LIG d   1      -0.896  82.669 114.334  0.00  0.00     0.119 C 
BRANCH   8   9
ATOM      9  C   LIG d   1      -1.828  83.369 115.342  0.00  0.00     0.028 C 
ATOM     10  C   LIG d   1      -2.922  82.431 115.878  0.00  0.00     0.006 C 
ENDBRANCH   8   9
BRANCH   8  11
ATOM     11  C   LIG d   1       0.514  83.156 114.679  0.00  0.00     0.028 C 
ATOM     12  C   LIG d   1       1.566  82.038 114.608  0.00  0.00     0.006 C 
ENDBRANCH   8  11
ENDBRANCH   7   8
ENDBRANCH   1   7
BRANCH   6  13
ATOM     13  N   LIG d   1       0.245  82.713 110.442  0.00  0.00    -0.311 N 
ATOM     14  C   LIG d   1       1.397  83.380 110.507  0.00  0.00     0.210 C 
ATOM     15  C   LIG d   1       1.583  84.454 109.430  0.00  0.00     0.109 C 
ATOM     16  O   LIG d   1       2.295  83.162 111.333  0.00  0.00    -0.276 OA
ATOM     17  H   LIG d   1      -0.412  82.933 109.720  0.00  0.00     0.149 HD
ENDBRANCH   6  13
BRANCH   5  18
ATOM     18  N   LIG d   1       1.091  79.785 110.226  0.00  0.00     0.381 N 
ATOM     19  H   LIG d   1       1.818  80.047 110.861  0.00  0.00    -0.090 HD
ATOM     20  H   LIG d   1       1.270  80.228 109.342  0.00  0.00    -0.090 HD
ATOM     21  H   LIG d   1       1.078  78.796 110.114  0.00  0.00    -0.090 HD
ENDBRANCH   5  18
BRANCH   3  22
ATOM     22  C   LIG d   1      -2.732  78.638 112.873  0.00  0.00     0.382 C 
ATOM     23  O   LIG d   1      -3.291  77.877 112.047  0.00  0.00    -0.241 OA
ATOM     24  O   LIG d   1      -2.996  78.527 114.085  0.00  0.00    -0.241 OA
ENDBRANCH   3  22
TORSDOF 7
ENDMDL
MODEL 2
REMARK VINA RESULT:      -4.9      2.782      5.685
REMARK  7 active torsions:
REMARK  status: ('A' for Active; 'I' for Inactive)
REMARK    1  A    between atoms: C_2  and  C_3 
REMARK    2  A    between atoms: C_3  and  O_6 
REMARK    3  A    between atoms: C_3  and  C_4 
REMARK    4  A    between atoms: C_7  and  O_6 
REMARK    5  A    between atoms: C_9  and  C_10 
REMARK    6  A    between atoms: N_15  and  C_14 
REMARK    7  A    between atoms: N_20  and  C_19 
REMARK       I    between atoms: C_22  and  N_20 
ROOT
ATOM      1  C   LIG d   1      -2.525  80.692 114.923  0.00  0.00     0.161 C 
ATOM      2  C   LIG d   1      -2.162  81.805 114.148  0.00  0.00     0.016 C 
ATOM      3  C   LIG d   1      -1.551  81.703 112.877  0.00  0.00     0.038 C 
ATOM      4  C   LIG d   1      -1.398  80.470 112.225  0.00  0.00     0.028 C 
ATOM      5  C   LIG d   1      -1.288  79.288 113.182  0.00  0.00    -0.047 C 
ATOM      6  C   LIG d   1      -2.467  79.340 114.181  0.00  0.00     0.091 C 
ENDROOT
BRANCH   1   7
ATOM      7  O   LIG d   1      -3.834  80.897 115.490  0.00  0.00    -0.368 OA
BRANCH   7   8
ATOM      8  C   LIG d   1      -3.926  80.801 116.933  0.00  0.00     0.119 C 
BRANCH   8   9
ATOM      9  C   LIG d   1      -5.358  80.346 117.276  0.00  0.00     0.028 C 
ATOM     10  C   LIG d   1      -5.532  78.822 117.163  0.00  0.00     0.006 C 
ENDBRANCH   8   9
BRANCH   8  11
ATOM     11  C   LIG d   1      -3.768  82.174 117.593  0.00  0.00     0.028 C 
ATOM     12  C   LIG d   1      -2.372  82.385 118.201  0.00  0.00     0.006 C 
ENDBRANCH   8  11
ENDBRANCH   7   8
ENDBRANCH   1   7
BRANCH   6  13
ATOM     13  N   LIG d   1      -2.389  78.267 115.206  0.00  0.00    -0.311 N 
ATOM     14  C   LIG d   1      -3.014  77.096 115.091  0.00  0.00     0.210 C 
ATOM     15  C   LIG d   1      -2.818  76.139 116.271  0.00  0.00     0.109 C 
ATOM     16  O   LIG d   1      -3.687  76.747 114.109  0.00  0.00    -0.276 OA
ATOM     17  H   LIG d   1      -1.839  78.454 116.022  0.00  0.00     0.149 HD
ENDBRANCH   6  13
BRANCH   5  18
ATOM     18  N   LIG d   1      -1.272  78.057 112.371  0.00  0.00     0.381 N 
ATOM     19  H   LIG d   1      -0.479  78.063 111.761  0.00  0.00    -0.090 HD
ATOM     20  H   LIG d   1      -2.103  78.028 111.806  0.00  0.00    -0.090 HD
ATOM     21  H   LIG d   1      -1.238  77.257 112.964  0.00  0.00    -0.090 HD
ENDBRANCH   5  18
BRANCH   3  22
ATOM     22  C   LIG d   1      -1.050  82.840 112.262  0.00  0.00     0.382 C 
ATOM     23  O   LIG d   1      -0.921  83.902 112.917  0.00  0.00    -0.241 OA
ATOM     24  O   LIG d   1      -0.766  82.829 111.049  0.00  0.00    -0.241 OA
ENDBRANCH   3  22
TORSDOF 7
ENDMDL
MODEL 3
REMARK VINA RESULT:      -4.8      2.670      5.695
REMARK  7 active torsions:
REMARK  status: ('A' for Active; 'I' for Inactive)
REMARK    1  A    between atoms: C_2  and  C_3 
REMARK    2  A    between atoms: C_3  and  O_6 
REMARK    3  A    between atoms: C_3  and  C_4 
REMARK    4  A    between atoms: C_7  and  O_6 
REMARK    5  A    between atoms: C_9  and  C_10 
REMARK    6  A    between atoms: N_15  and  C_14 
REMARK    7  A    between atoms: N_20  and  C_19 
REMARK       I    between atoms: C_22  and  N_20 
ROOT
ATOM      1  C   LIG d   1      -2.515  80.863 114.824  0.00  0.00     0.161 C 
ATOM      2  C   LIG d   1      -2.133  81.930 113.995  0.00  0.00     0.016 C 
ATOM      3  C   LIG d   1      -1.495  81.756 112.745  0.00  0.00     0.038 C 
ATOM      4  C   LIG d   1      -1.331  80.488 112.168  0.00  0.00     0.028 C 
ATOM      5  C   LIG d   1      -1.244  79.362 113.193  0.00  0.00    -0.047 C 
ATOM      6  C   LIG d   1      -2.444  79.471 114.161  0.00  0.00     0.091 C 
ENDROOT
BRANCH   1   7
ATOM      7  O   LIG d   1      -3.835  81.101 115.350  0.00  0.00    -0.368 OA
BRANCH   7   8
ATOM      8  C   LIG d   1      -3.898  81.736 116.651  0.00  0.00     0.119 C 
BRANCH   8   9
ATOM      9  C   LIG d   1      -2.616  81.353 117.416  0.00  0.00     0.028 C 
ATOM     10  C   LIG d   1      -1.973  82.558 118.122  0.00  0.00     0.006 C 
ENDBRANCH   8   9
BRANCH   8  11
ATOM     11  C   LIG d   1      -5.052  81.176 117.489  0.00  0.00     0.028 C 
ATOM     12  C   LIG d   1      -5.355  79.702 117.177  0.00  0.00     0.006 C 
ENDBRANCH   8  11
ENDBRANCH   7   8
ENDBRANCH   1   7
BRANCH   6  13
ATOM     13  N   LIG d   1      -2.391  78.458 115.247  0.00  0.00    -0.311 N 
ATOM     14  C   LIG d   1      -2.991  77.271 115.172  0.00  0.00     0.210 C 
ATOM     15  C   LIG d   1      -2.827  76.384 116.410  0.00  0.00     0.109 C 
ATOM     16  O   LIG d   1      -3.617  76.856 114.185  0.00  0.00    -0.276 OA
ATOM     17  H   LIG d   1      -1.877  78.700 116.072  0.00  0.00     0.149 HD
ENDBRANCH   6  13
BRANCH   5  18
ATOM     18  N   LIG d   1      -1.213  78.087 112.452  0.00  0.00     0.381 N 
ATOM     19  H   LIG d   1      -2.117  77.896 112.067  0.00  0.00    -0.090 HD
ATOM     20  H   LIG d   1      -0.980  77.346 113.090  0.00  0.00    -0.090 HD
ATOM     21  H   LIG d   1      -0.536  78.132 111.723  0.00  0.00    -0.090 HD
ENDBRANCH   5  18
BRANCH   3  22
ATOM     22  C   LIG d   1      -0.978  82.855 112.078  0.00  0.00     0.382 C 
ATOM     23  O   LIG d   1      -0.832  83.945 112.683  0.00  0.00    -0.241 OA
ATOM     24  O   LIG d   1      -0.696  82.784 110.867  0.00  0.00    -0.241 OA
ENDBRANCH   3  22
TORSDOF 7
ENDMDL
MODEL 4
REMARK VINA RESULT:      -4.8      1.652      2.221
REMARK  7 active torsions:
REMARK  status: ('A' for Active; 'I' for Inactive)
REMARK    1  A    between atoms: C_2  and  C_3 
REMARK    2  A    between atoms: C_3  and  O_6 
REMARK    3  A    between atoms: C_3  and  C_4 
REMARK    4  A    between atoms: C_7  and  O_6 
REMARK    5  A    between atoms: C_9  and  C_10 
REMARK    6  A    between atoms: N_15  and  C_14 
REMARK    7  A    between atoms: N_20  and  C_19 
REMARK       I    between atoms: C_22  and  N_20 
ROOT
ATOM      1  C   LIG d   1      -1.550  81.447 113.833  0.00  0.00     0.161 C 
ATOM      2  C   LIG d   1      -2.054  80.334 114.527  0.00  0.00     0.016 C 
ATOM      3  C   LIG d   1      -2.107  79.033 113.977  0.00  0.00     0.038 C 
ATOM      4  C   LIG d   1      -1.516  78.725 112.742  0.00  0.00     0.028 C 
ATOM      5  C   LIG d   1      -1.446  79.915 111.791  0.00  0.00    -0.047 C 
ATOM      6  C   LIG d   1      -0.799  81.109 112.528  0.00  0.00     0.091 C 
ENDROOT
BRANCH   1   7
ATOM      7  O   LIG d   1      -0.710  82.228 114.707  0.00  0.00    -0.368 OA
BRANCH   7   8
ATOM      8  C   LIG d   1      -1.355  83.325 115.398  0.00  0.00     0.119 C 
BRANCH   8   9
ATOM      9  C   LIG d   1      -1.042  84.614 114.614  0.00  0.00     0.028 C 
ATOM     10  C   LIG d   1       0.424  84.679 114.152  0.00  0.00     0.006 C 
ENDBRANCH   8   9
BRANCH   8  11
ATOM     11  C   LIG d   1      -0.752  83.540 116.789  0.00  0.00     0.028 C 
ATOM     12  C   LIG d   1      -1.545  82.832 117.898  0.00  0.00     0.006 C 
ENDBRANCH   8  11
ENDBRANCH   7   8
ENDBRANCH   1   7
BRANCH   6  13
ATOM     13  N   LIG d   1      -0.768  82.340 111.695  0.00  0.00    -0.311 N 
ATOM     14  C   LIG d   1       0.284  82.704 110.964  0.00  0.00     0.210 C 
ATOM     15  C   LIG d   1       0.113  84.019 110.196  0.00  0.00     0.109 C 
ATOM     16  O   LIG d   1       1.330  82.047 110.853  0.00  0.00    -0.276 OA
ATOM     17  H   LIG d   1      -1.587  82.916 111.702  0.00  0.00     0.149 HD
ENDBRANCH   6  13
BRANCH   5  18
ATOM     18  N   LIG d   1      -0.686  79.489 110.601  0.00  0.00     0.381 N 
ATOM     19  H   LIG d   1      -0.075  80.225 110.308  0.00  0.00    -0.090 HD
ATOM     20  H   LIG d   1      -1.331  79.299 109.854  0.00  0.00    -0.090 HD
ATOM     21  H   LIG d   1      -0.157  78.671 110.808  0.00  0.00    -0.090 HD
ENDBRANCH   5  18
BRANCH   3  22
ATOM     22  C   LIG d   1      -2.793  78.031 114.647  0.00  0.00     0.382 C 
ATOM     23  O   LIG d   1      -2.538  76.827 114.405  0.00  0.00    -0.241 OA
ATOM     24  O   LIG d   1      -3.694  78.316 115.459  0.00  0.00    -0.241 OA
ENDBRANCH   3  22
TORSDOF 7
ENDMDL
MODEL 5
REMARK VINA RESULT:      -4.7      2.106      4.160
REMARK  7 active torsions:
REMARK  status: ('A' for Active; 'I' for Inactive)
REMARK    1  A    between atoms: C_2  and  C_3 
REMARK    2  A    between atoms: C_3  and  O_6 
REMARK    3  A    between atoms: C_3  and  C_4 
REMARK    4  A    between atoms: C_7  and  O_6 
REMARK    5  A    between atoms: C_9  and  C_10 
REMARK    6  A    between atoms: N_15  and  C_14 
REMARK    7  A    between atoms: N_20  and  C_19 
REMARK       I    between atoms: C_22  and  N_20 
ROOT
ATOM      1  C   LIG d   1      -0.495  81.441 112.183  0.00  0.00     0.161 C 
ATOM      2  C   LIG d   1      -1.008  80.146 112.003  0.00  0.00     0.016 C 
ATOM      3  C   LIG d   1      -2.028  79.594 112.812  0.00  0.00     0.038 C 
ATOM      4  C   LIG d   1      -2.714  80.360 113.767  0.00  0.00     0.028 C 
ATOM      5  C   LIG d   1      -1.887  81.514 114.324  0.00  0.00    -0.047 C 
ATOM      6  C   LIG d   1      -1.307  82.331 113.147  0.00  0.00     0.091 C 
ENDROOT
BRANCH   1   7
ATOM      7  O   LIG d   1      -0.349  82.091 110.905  0.00  0.00    -0.368 OA
BRANCH   7   8
ATOM      8  C   LIG d   1       1.009  82.369 110.483  0.00  0.00     0.119 C 
BRANCH   8   9
ATOM      9  C   LIG d   1       1.000  83.731 109.762  0.00  0.00     0.028 C 
ATOM     10  C   LIG d   1       2.408  84.334 109.628  0.00  0.00     0.006 C 
ENDBRANCH   8   9
BRANCH   8  11
ATOM     11  C   LIG d   1       1.485  81.358 109.435  0.00  0.00     0.028 C 
ATOM     12  C   LIG d   1       2.387  80.264 110.028  0.00  0.00     0.006 C 
ENDBRANCH   8  11
ENDBRANCH   7   8
ENDBRANCH   1   7
BRANCH   6  13
ATOM     13  N   LIG d   1      -0.416  83.429 113.604  0.00  0.00    -0.311 N 
ATOM     14  C   LIG d   1       0.761  83.222 114.193  0.00  0.00     0.210 C 
ATOM     15  C   LIG d   1       1.511  84.492 114.604  0.00  0.00     0.109 C 
ATOM     16  O   LIG d   1       1.269  82.107 114.385  0.00  0.00    -0.276 OA
ATOM     17  H   LIG d   1      -0.736  84.367 113.459  0.00  0.00     0.149 HD
ENDBRANCH   6  13
BRANCH   5  18
ATOM     18  N   LIG d   1      -2.767  82.309 115.202  0.00  0.00     0.381 N 
ATOM     19  H   LIG d   1      -3.723  82.068 115.031  0.00  0.00    -0.090 HD
ATOM     20  H   LIG d   1      -2.644  83.283 114.989  0.00  0.00    -0.090 HD
ATOM     21  H   LIG d   1      -2.540  82.139 116.157  0.00  0.00    -0.090 HD
ENDBRANCH   5  18
BRANCH   3  22
ATOM     22  C   LIG d   1      -2.344  78.249 112.697  0.00  0.00     0.382 C 
ATOM     23  O   LIG d   1      -1.618  77.385 113.244  0.00  0.00    -0.241 OA
ATOM     24  O   LIG d   1      -3.322  77.886 112.016  0.00  0.00    -0.241 OA
ENDBRANCH   3  22
TORSDOF 7
ENDMDL
MODEL 6
REMARK VINA RESULT:      -4.6      2.555      5.090
REMARK  7 active torsions:
REMARK  status: ('A' for Active; 'I' for Inactive)
REMARK    1  A    between atoms: C_2  and  C_3 
REMARK    2  A    between atoms: C_3  and  O_6 
REMARK    3  A    between atoms: C_3  and  C_4 
REMARK    4  A    between atoms: C_7  and  O_6 
REMARK    5  A    between atoms: C_9  and  C_10 
REMARK    6  A    between atoms: N_15  and  C_14 
REMARK    7  A    between atoms: N_20  and  C_19 
REMARK       I    between atoms: C_22  and  N_20 
ROOT
ATOM      1  C   LIG d   1       0.018  81.023 114.659  0.00  0.00     0.161 C 
ATOM      2  C   LIG d   1      -0.119  82.165 113.853  0.00  0.00     0.016 C 
ATOM      3  C   LIG d   1      -0.801  82.165 112.614  0.00  0.00     0.038 C 
ATOM      4  C   LIG d   1      -1.526  81.050 112.166  0.00  0.00     0.028 C 
ATOM      5  C   LIG d   1      -0.994  79.726 112.704  0.00  0.00    -0.047 C 
ATOM      6  C   LIG d   1      -0.861  79.826 114.241  0.00  0.00     0.091 C 
ENDROOT
BRANCH   1   7
ATOM      7  O   LIG d   1      -0.226  81.366 116.038  0.00  0.00    -0.368 OA
BRANCH   7   8
ATOM      8  C   LIG d   1      -0.979  82.582 116.268  0.00  0.00     0.119 C 
BRANCH   8   9
ATOM      9  C   LIG d   1      -0.310  83.327 117.439  0.00  0.00     0.028 C 
ATOM     10  C   LIG d   1      -1.108  83.200 118.748  0.00  0.00     0.006 C 
ENDBRANCH   8   9
BRANCH   8  11
ATOM     11  C   LIG d   1      -2.402  82.274 116.743  0.00  0.00     0.028 C 
ATOM     12  C   LIG d   1      -3.425  82.264 115.596  0.00  0.00     0.006 C 
ENDBRANCH   8  11
ENDBRANCH   7   8
ENDBRANCH   1   7
BRANCH   6  13
ATOM     13  N   LIG d   1      -0.267  78.602 114.839  0.00  0.00    -0.311 N 
ATOM     14  C   LIG d   1      -0.993  77.577 115.283  0.00  0.00     0.210 C 
ATOM     15  C   LIG d   1      -0.183  76.422 115.881  0.00  0.00     0.109 C 
ATOM     16  O   LIG d   1      -2.229  77.500 115.208  0.00  0.00    -0.276 OA
ATOM     17  H   LIG d   1       0.731  78.566 114.910  0.00  0.00     0.149 HD
ENDBRANCH   6  13
BRANCH   5  18
ATOM     18  N   LIG d   1      -1.922  78.664 112.272  0.00  0.00     0.381 N 
ATOM     19  H   LIG d   1      -1.517  78.147 111.518  0.00  0.00    -0.090 HD
ATOM     20  H   LIG d   1      -2.771  79.089 111.943  0.00  0.00    -0.090 HD
ATOM     21  H   LIG d   1      -2.121  78.054 113.034  0.00  0.00    -0.090 HD
ENDBRANCH   5  18
BRANCH   3  22
ATOM     22  C   LIG d   1      -0.728  83.277 111.789  0.00  0.00     0.382 C 
ATOM     23  O   LIG d   1      -0.622  83.131 110.548  0.00  0.00    -0.241 OA
ATOM     24  O   LIG d   1      -0.722  84.424 112.275  0.00  0.00    -0.241 OA
ENDBRANCH   3  22
TORSDOF 7
ENDMDL
MODEL 7
REMARK VINA RESULT:      -4.5      3.806      6.772
REMARK  7 active torsions:
REMARK  status: ('A' for Active; 'I' for Inactive)
REMARK    1  A    between atoms: C_2  and  C_3 
REMARK    2  A    between atoms: C_3  and  O_6 
REMARK    3  A    between atoms: C_3  and  C_4 
REMARK    4  A    between atoms: C_7  and  O_6 
REMARK    5  A    between atoms: C_9  and  C_10 
REMARK    6  A    between atoms: N_15  and  C_14 
REMARK    7  A    between atoms: N_20  and  C_19 
REMARK       I    between atoms: C_22  and  N_20 
ROOT
ATOM      1  C   LIG d   1      -3.118  78.902 115.680  0.00  0.00     0.161 C 
ATOM      2  C   LIG d   1      -3.158  80.212 115.173  0.00  0.00     0.016 C 
ATOM      3  C   LIG d   1      -2.494  80.609 113.989  0.00  0.00     0.038 C 
ATOM      4  C   LIG d   1      -1.866  79.681 113.145  0.00  0.00     0.028 C 
ATOM      5  C   LIG d   1      -1.371  78.437 113.874  0.00  0.00    -0.047 C 
ATOM      6  C   LIG d   1      -2.530  77.853 114.714  0.00  0.00     0.091 C 
ENDROOT
BRANCH   1   7
ATOM      7  O   LIG d   1      -4.435  78.505 116.110  0.00  0.00    -0.368 OA
BRANCH   7   8
ATOM      8  C   LIG d   1      -4.772  78.802 117.488  0.00  0.00     0.119 C 
BRANCH   8   9
ATOM      9  C   LIG d   1      -4.867  77.462 118.241  0.00  0.00     0.028 C 
ATOM     10  C   LIG d   1      -3.538  77.068 118.908  0.00  0.00     0.006 C 
ENDBRANCH   8   9
BRANCH   8  11
ATOM     11  C   LIG d   1      -6.166  79.428 117.597  0.00  0.00     0.028 C 
ATOM     12  C   LIG d   1      -6.145  80.958 117.453  0.00  0.00     0.006 C 
ENDBRANCH   8  11
ENDBRANCH   7   8
ENDBRANCH   1   7
BRANCH   6  13
ATOM     13  N   LIG d   1      -2.108  76.681 115.525  0.00  0.00    -0.311 N 
ATOM     14  C   LIG d   1      -2.772  75.527 115.547  0.00  0.00     0.210 C 
ATOM     15  C   LIG d   1      -2.177  74.456 116.466  0.00  0.00     0.109 C 
ATOM     16  O   LIG d   1      -3.779  75.278 114.868  0.00  0.00    -0.276 OA
ATOM     17  H   LIG d   1      -1.283  76.786 116.083  0.00  0.00     0.149 HD
ENDBRANCH   6  13
BRANCH   5  18
ATOM     18  N   LIG d   1      -0.862  77.497 112.858  0.00  0.00     0.381 N 
ATOM     19  H   LIG d   1       0.036  77.153 113.133  0.00  0.00    -0.090 HD
ATOM     20  H   LIG d   1      -0.759  77.986 111.986  0.00  0.00    -0.090 HD
ATOM     21  H   LIG d   1      -1.498  76.737 112.747  0.00  0.00    -0.090 HD
ENDBRANCH   5  18
BRANCH   3  22
ATOM     22  C   LIG d   1      -2.421  81.954 113.661  0.00  0.00     0.382 C 
ATOM     23  O   LIG d   1      -2.812  82.821 114.478  0.00  0.00    -0.241 OA
ATOM     24  O   LIG d   1      -2.011  82.309 112.539  0.00  0.00    -0.241 OA
ENDBRANCH   3  22
TORSDOF 7
ENDMDL
MODEL 8
REMARK VINA RESULT:      -4.5      4.237      7.043
REMARK  7 active torsions:
REMARK  status: ('A' for Active; 'I' for Inactive)
REMARK    1  A    between atoms: C_2  and  C_3 
REMARK    2  A    between atoms: C_3  and  O_6 
REMARK    3  A    between atoms: C_3  and  C_4 
REMARK    4  A    between atoms: C_7  and  O_6 
REMARK    5  A    between atoms: C_9  and  C_10 
REMARK    6  A    between atoms: N_15  and  C_14 
REMARK    7  A    between atoms: N_20  and  C_19 
REMARK       I    between atoms: C_22  and  N_20 
ROOT
ATOM      1  C   LIG d   1      -2.566  78.135 114.895  0.00  0.00     0.161 C 
ATOM      2  C   LIG d   1      -2.737  78.995 113.798  0.00  0.00     0.016 C 
ATOM      3  C   LIG d   1      -1.842  80.043 113.484  0.00  0.00     0.038 C 
ATOM      4  C   LIG d   1      -0.625  80.207 114.162  0.00  0.00     0.028 C 
ATOM      5  C   LIG d   1      -0.653  79.679 115.593  0.00  0.00    -0.047 C 
ATOM      6  C   LIG d   1      -1.187  78.228 115.581  0.00  0.00     0.091 C 
ENDROOT
BRANCH   1   7
ATOM      7  O   LIG d   1      -2.837  76.776 114.498  0.00  0.00    -0.368 OA
BRANCH   7   8
ATOM      8  C   LIG d   1      -3.803  76.057 115.303  0.00  0.00     0.119 C 
BRANCH   8   9
ATOM      9  C   LIG d   1      -3.098  74.805 115.862  0.00  0.00     0.028 C 
ATOM     10  C   LIG d   1      -3.494  74.510 117.319  0.00  0.00     0.006 C 
ENDBRANCH   8   9
BRANCH   8  11
ATOM     11  C   LIG d   1      -4.956  75.525 114.447  0.00  0.00     0.028 C 
ATOM     12  C   LIG d   1      -6.312  75.592 115.167  0.00  0.00     0.006 C 
ENDBRANCH   8  11
ENDBRANCH   7   8
ENDBRANCH   1   7
BRANCH   6  13
ATOM     13  N   LIG d   1      -1.326  77.665 116.949  0.00  0.00    -0.311 N 
ATOM     14  C   LIG d   1      -0.386  76.927 117.537  0.00  0.00     0.210 C 
ATOM     15  C   LIG d   1      -0.740  76.428 118.942  0.00  0.00     0.109 C 
ATOM     16  O   LIG d   1       0.721  76.665 117.042  0.00  0.00    -0.276 OA
ATOM     17  H   LIG d   1      -2.180  77.854 117.436  0.00  0.00     0.149 HD
ENDBRANCH   6  13
BRANCH   5  18
ATOM     18  N   LIG d   1       0.714  79.787 116.135  0.00  0.00     0.381 N 
ATOM     19  H   LIG d   1       1.313  80.221 115.460  0.00  0.00    -0.090 HD
ATOM     20  H   LIG d   1       1.065  78.864 116.320  0.00  0.00    -0.090 HD
ATOM     21  H   LIG d   1       0.706  80.323 116.975  0.00  0.00    -0.090 HD
ENDBRANCH   5  18
BRANCH   3  22
ATOM     22  C   LIG d   1      -2.180  80.965 112.505  0.00  0.00     0.382 C 
ATOM     23  O   LIG d   1      -1.427  81.133 111.515  0.00  0.00    -0.241 OA
ATOM     24  O   LIG d   1      -3.205  81.663 112.622  0.00  0.00    -0.241 OA
ENDBRANCH   3  22
TORSDOF 7
ENDMDL
MODEL 9
REMARK VINA RESULT:      -4.5      6.068      8.631
REMARK  7 active torsions:
REMARK  status: ('A' for Active; 'I' for Inactive)
REMARK    1  A    between atoms: C_2  and  C_3 
REMARK    2  A    between atoms: C_3  and  O_6 
REMARK    3  A    between atoms: C_3  and  C_4 
REMARK    4  A    between atoms: C_7  and  O_6 
REMARK    5  A    between atoms: C_9  and  C_10 
REMARK    6  A    between atoms: N_15  and  C_14 
REMARK    7  A    between atoms: N_20  and  C_19 
REMARK       I    between atoms: C_22  and  N_20 
ROOT
ATOM      1  C   LIG d   1      -5.430  77.610 116.962  0.00  0.00     0.161 C 
ATOM      2  C   LIG d   1      -6.219  78.717 117.320  0.00  0.00     0.016 C 
ATOM      3  C   LIG d   1      -5.741  80.047 117.313  0.00  0.00     0.038 C 
ATOM      4  C   LIG d   1      -4.479  80.379 116.799  0.00  0.00     0.028 C 
ATOM      5  C   LIG d   1      -3.466  79.243 116.900  0.00  0.00    -0.047 C 
ATOM      6  C   LIG d   1      -4.086  77.964 116.293  0.00  0.00     0.091 C 
ENDROOT
BRANCH   1   7
ATOM      7  O   LIG d   1      -6.190  76.721 116.121  0.00  0.00    -0.368 OA
BRANCH   7   8
ATOM      8  C   LIG d   1      -6.477  75.412 116.672  0.00  0.00     0.119 C 
BRANCH   8   9
ATOM      9  C   LIG d   1      -6.359  74.390 115.524  0.00  0.00     0.028 C 
ATOM     10  C   LIG d   1      -5.833  75.024 114.225  0.00  0.00     0.006 C 
ENDBRANCH   8   9
BRANCH   8  11
ATOM     11  C   LIG d   1      -7.928  75.315 117.152  0.00  0.00     0.028 C 
ATOM     12  C   LIG d   1      -8.060  75.441 118.678  0.00  0.00     0.006 C 
ENDBRANCH   8  11
ENDBRANCH   7   8
ENDBRANCH   1   7
BRANCH   6  13
ATOM     13  N   LIG d   1      -3.193  76.783 116.427  0.00  0.00    -0.311 N 
ATOM     14  C   LIG d   1      -2.441  76.316 115.432  0.00  0.00     0.210 C 
ATOM     15  C   LIG d   1      -1.608  75.077 115.777  0.00  0.00     0.109 C 
ATOM     16  O   LIG d   1      -2.359  76.830 114.306  0.00  0.00    -0.276 OA
ATOM     17  H   LIG d   1      -3.174  76.324 117.317  0.00  0.00     0.149 HD
ENDBRANCH   6  13
BRANCH   5  18
ATOM     18  N   LIG d   1      -2.239  79.677 116.206  0.00  0.00     0.381 N 
ATOM     19  H   LIG d   1      -2.318  80.641 115.949  0.00  0.00    -0.090 HD
ATOM     20  H   LIG d   1      -2.132  79.135 115.366  0.00  0.00    -0.090 HD
ATOM     21  H   LIG d   1      -1.448  79.547 116.797  0.00  0.00    -0.090 HD
ENDBRANCH   5  18
BRANCH   3  22
ATOM     22  C   LIG d   1      -6.516  81.059 117.861  0.00  0.00     0.382 C 
ATOM     23  O   LIG d   1      -6.245  81.508 119.000  0.00  0.00    -0.241 OA
ATOM     24  O   LIG d   1      -7.509  81.496 117.249  0.00  0.00    -0.241 OA
ENDBRANCH   3  22
TORSDOF 7
ENDMDL
