MODEL 1
REMARK VINA RESULT:      -5.7      0.000      0.000
REMARK  7 active torsions:
REMARK  status: ('A' for Active; 'I' for Inactive)
REMARK    1  A    between atoms: C_2  and  C_3 
REMARK    2  A    between atoms: C_3  and  O_6 
REMARK    3  A    between atoms: C_3  and  C_4 
REMARK    4  A    between atoms: C_7  and  O_6 
REMARK    5  A    between atoms: C_9  and  C_10 
REMARK    6  A    between atoms: N_15  and  C_14 
REMARK    7  A    between atoms: N_20  and  C_19 
REMARK       I    between atoms: C_22  and  N_20 
ROOT
ATOM      1  C   LIG d   1      -2.398  77.588 115.826  0.00  0.00     0.161 C 
ATOM      2  C   LIG d   1      -2.808  78.267 114.666  0.00  0.00     0.016 C 
ATOM      3  C   LIG d   1      -2.037  78.319 113.482  0.00  0.00     0.038 C 
ATOM      4  C   LIG d   1      -0.866  77.563 113.325  0.00  0.00     0.028 C 
ATOM      5  C   LIG d   1      -0.156  77.266 114.642  0.00  0.00    -0.047 C 
ATOM      6  C   LIG d   1      -1.176  76.665 115.637  0.00  0.00     0.091 C 
ENDROOT
BRANCH   1   7
ATOM      7  O   LIG d   1      -3.506  76.846 116.374  0.00  0.00    -0.368 OA
BRANCH   7   8
ATOM      8  C   LIG d   1      -4.792  77.061 115.743  0.00  0.00     0.119 C 
BRANCH   8   9
ATOM      9  C   LIG d   1      -5.761  77.570 116.828  0.00  0.00     0.028 C 
ATOM     10  C   LIG d   1      -5.489  79.032 117.219  0.00  0.00     0.006 C 
ENDBRANCH   8   9
BRANCH   8  11
ATOM     11  C   LIG d   1      -5.395  75.745 115.245  0.00  0.00     0.028 C 
ATOM     12  C   LIG d   1      -6.928  75.714 115.352  0.00  0.00     0.006 C 
ENDBRANCH   8  11
ENDBRANCH   7   8
ENDBRANCH   1   7
BRANCH   6  13
ATOM     13  N   LIG d   1      -0.584  76.423 116.978  0.00  0.00    -0.311 N 
ATOM     14  C   LIG d   1      -0.573  75.230 117.571  0.00  0.00     0.210 C 
ATOM     15  C   LIG d   1       0.070  75.205 118.961  0.00  0.00     0.109 C 
ATOM     16  O   LIG d   1      -1.005  74.185 117.063  0.00  0.00    -0.276 OA
ATOM     17  H   LIG d   1      -0.183  77.211 117.449  0.00  0.00     0.149 HD
ENDBRANCH   6  13
BRANCH   5  18
ATOM     18  N   LIG d   1       0.968  76.358 114.348  0.00  0.00     0.381 N 
ATOM     19  H   LIG d   1       1.592  76.326 115.129  0.00  0.00    -0.090 HD
ATOM     20  H   LIG d   1       1.474  76.713 113.555  0.00  0.00    -0.090 HD
ATOM     21  H   LIG d   1       0.625  75.444 114.150  0.00  0.00    -0.090 HD
ENDBRANCH   5  18
BRANCH   3  22
ATOM     22  C   LIG d   1      -2.417  79.166 112.451  0.00  0.00     0.382 C 
ATOM     23  O   LIG d   1      -2.056  78.922 111.275  0.00  0.00    -0.241 OA
ATOM     24  O   LIG d   1      -3.078  80.194 112.690  0.00  0.00    -0.241 OA
ENDBRANCH   3  22
TORSDOF 7
ENDMDL
MODEL 2
REMARK VINA RESULT:      -5.5      1.585      4.927
REMARK  7 active torsions:
REMARK  status: ('A' for Active; 'I' for Inactive)
REMARK    1  A    between atoms: C_2  and  C_3 
REMARK    2  A    between atoms: C_3  and  O_6 
REMARK    3  A    between atoms: C_3  and  C_4 
REMARK    4  A    between atoms: C_7  and  O_6 
REMARK    5  A    between atoms: C_9  and  C_10 
REMARK    6  A    between atoms: N_15  and  C_14 
REMARK    7  A    between atoms: N_20  and  C_19 
REMARK       I    between atoms: C_22  and  N_20 
ROOT
ATOM      1  C   LIG d   1      -1.865  76.172 114.988  0.00  0.00     0.161 C 
ATOM      2  C   LIG d   1      -1.763  75.545 116.241  0.00  0.00     0.016 C 
ATOM      3  C   LIG d   1      -0.923  76.010 117.279  0.00  0.00     0.038 C 
ATOM      4  C   LIG d   1      -0.236  77.229 117.186  0.00  0.00     0.028 C 
ATOM      5  C   LIG d   1       0.086  77.635 115.751  0.00  0.00    -0.047 C 
ATOM      6  C   LIG d   1      -1.207  77.566 114.908  0.00  0.00     0.091 C 
ENDROOT
BRANCH   1   7
ATOM      7  O   LIG d   1      -3.248  76.247 114.589  0.00  0.00    -0.368 OA
BRANCH   7   8
ATOM      8  C   LIG d   1      -4.224  75.922 115.610  0.00  0.00     0.119 C 
BRANCH   8   9
ATOM      9  C   LIG d   1      -5.304  75.041 114.953  0.00  0.00     0.028 C 
ATOM     10  C   LIG d   1      -6.700  75.683 115.012  0.00  0.00     0.006 C 
ENDBRANCH   8   9
BRANCH   8  11
ATOM     11  C   LIG d   1      -4.961  77.174 116.094  0.00  0.00     0.028 C 
ATOM     12  C   LIG d   1      -4.297  77.818 117.322  0.00  0.00     0.006 C 
ENDBRANCH   8  11
ENDBRANCH   7   8
ENDBRANCH   1   7
BRANCH   6  13
ATOM     13  N   LIG d   1      -0.965  77.866 113.473  0.00  0.00    -0.311 N 
ATOM     14  C   LIG d   1      -1.729  78.689 112.757  0.00  0.00     0.210 C 
ATOM     15  C   LIG d   1      -1.315  78.844 111.290  0.00  0.00     0.109 C 
ATOM     16  O   LIG d   1      -2.691  79.330 113.205  0.00  0.00    -0.276 OA
ATOM     17  H   LIG d   1      -0.186  77.413 113.037  0.00  0.00     0.149 HD
ENDBRANCH   6  13
BRANCH   5  18
ATOM     18  N   LIG d   1       0.678  78.986 115.793  0.00  0.00     0.381 N 
ATOM     19  H   LIG d   1       0.010  79.637 116.154  0.00  0.00    -0.090 HD
ATOM     20  H   LIG d   1       0.916  79.265 114.857  0.00  0.00    -0.090 HD
ATOM     21  H   LIG d   1       1.494  78.984 116.364  0.00  0.00    -0.090 HD
ENDBRANCH   5  18
BRANCH   3  22
ATOM     22  C   LIG d   1      -0.733  75.231 118.410  0.00  0.00     0.382 C 
ATOM     23  O   LIG d   1       0.406  74.776 118.673  0.00  0.00    -0.241 OA
ATOM     24  O   LIG d   1      -1.695  74.942 119.147  0.00  0.00    -0.241 OA
ENDBRANCH   3  22
TORSDOF 7
ENDMDL
MODEL 3
REMARK VINA RESULT:      -5.4      1.108      1.610
REMARK  7 active torsions:
REMARK  status: ('A' for Active; 'I' for Inactive)
REMARK    1  A    between atoms: C_2  and  C_3 
REMARK    2  A    between atoms: C_3  and  O_6 
REMARK    3  A    between atoms: C_3  and  C_4 
REMARK    4  A    between atoms: C_7  and  O_6 
REMARK    5  A    between atoms: C_9  and  C_10 
REMARK    6  A    between atoms: N_15  and  C_14 
REMARK    7  A    between atoms: N_20  and  C_19 
REMARK       I    between atoms: C_22  and  N_20 
ROOT
ATOM      1  C   LIG d   1      -1.938  77.704 115.805  0.00  0.00     0.161 C 
ATOM      2  C   LIG d   1      -2.441  78.440 114.719  0.00  0.00     0.016 C 
ATOM      3  C   LIG d   1      -1.955  78.310 113.398  0.00  0.00     0.038 C 
ATOM      4  C   LIG d   1      -1.028  77.318 113.043  0.00  0.00     0.028 C 
ATOM      5  C   LIG d   1      -0.125  76.893 114.196  0.00  0.00    -0.047 C 
ATOM      6  C   LIG d   1      -1.003  76.538 115.417  0.00  0.00     0.091 C 
ENDROOT
BRANCH   1   7
ATOM      7  O   LIG d   1      -3.027  77.224 116.617  0.00  0.00    -0.368 OA
BRANCH   7   8
ATOM      8  C   LIG d   1      -3.922  78.234 117.145  0.00  0.00     0.119 C 
BRANCH   8   9
ATOM      9  C   LIG d   1      -3.715  78.284 118.671  0.00  0.00     0.028 C 
ATOM     10  C   LIG d   1      -2.862  77.113 119.186  0.00  0.00     0.006 C 
ENDBRANCH   8   9
BRANCH   8  11
ATOM     11  C   LIG d   1      -5.388  77.838 116.947  0.00  0.00     0.028 C 
ATOM     12  C   LIG d   1      -6.361  78.993 117.235  0.00  0.00     0.006 C 
ENDBRANCH   8  11
ENDBRANCH   7   8
ENDBRANCH   1   7
BRANCH   6  13
ATOM     13  N   LIG d   1      -0.195  76.192 116.616  0.00  0.00    -0.311 N 
ATOM     14  C   LIG d   1      -0.369  75.075 117.320  0.00  0.00     0.210 C 
ATOM     15  C   LIG d   1       0.557  74.923 118.531  0.00  0.00     0.109 C 
ATOM     16  O   LIG d   1      -1.180  74.180 117.038  0.00  0.00    -0.276 OA
ATOM     17  H   LIG d   1       0.507  76.848 116.897  0.00  0.00     0.149 HD
ENDBRANCH   6  13
BRANCH   5  18
ATOM     18  N   LIG d   1       0.696  75.762 113.726  0.00  0.00     0.381 N 
ATOM     19  H   LIG d   1       0.780  75.079 114.452  0.00  0.00    -0.090 HD
ATOM     20  H   LIG d   1       1.616  76.098 113.501  0.00  0.00    -0.090 HD
ATOM     21  H   LIG d   1       0.279  75.350 112.920  0.00  0.00    -0.090 HD
ENDBRANCH   5  18
BRANCH   3  22
ATOM     22  C   LIG d   1      -2.367  79.205 112.423  0.00  0.00     0.382 C 
ATOM     23  O   LIG d   1      -2.016  79.039 111.230  0.00  0.00    -0.241 OA
ATOM     24  O   LIG d   1      -3.050  80.201 112.728  0.00  0.00    -0.241 OA
ENDBRANCH   3  22
TORSDOF 7
ENDMDL
MODEL 4
REMARK VINA RESULT:      -5.1      2.503      3.320
REMARK  7 active torsions:
REMARK  status: ('A' for Active; 'I' for Inactive)
REMARK    1  A    between atoms: C_2  and  C_3 
REMARK    2  A    between atoms: C_3  and  O_6 
REMARK    3  A    between atoms: C_3  and  C_4 
REMARK    4  A    between atoms: C_7  and  O_6 
REMARK    5  A    between atoms: C_9  and  C_10 
REMARK    6  A    between atoms: N_15  and  C_14 
REMARK    7  A    between atoms: N_20  and  C_19 
REMARK       I    between atoms: C_22  and  N_20 
ROOT
ATOM      1  C   LIG d   1      -0.680  77.903 117.004  0.00  0.00     0.161 C 
ATOM      2  C   LIG d   1      -1.584  78.290 116.001  0.00  0.00     0.016 C 
ATOM      3  C   LIG d   1      -2.110  77.396 115.040  0.00  0.00     0.038 C 
ATOM      4  C   LIG d   1      -1.881  76.013 115.110  0.00  0.00     0.028 C 
ATOM      5  C   LIG d   1      -0.572  75.650 115.803  0.00  0.00    -0.047 C 
ATOM      6  C   LIG d   1      -0.506  76.378 117.165  0.00  0.00     0.091 C 
ENDROOT
BRANCH   1   7
ATOM      7  O   LIG d   1      -1.060  78.499 118.260  0.00  0.00    -0.368 OA
BRANCH   7   8
ATOM      8  C   LIG d   1      -2.334  79.188 118.280  0.00  0.00     0.119 C 
BRANCH   8   9
ATOM      9  C   LIG d   1      -2.119  80.540 118.987  0.00  0.00     0.028 C 
ATOM     10  C   LIG d   1      -0.690  81.079 118.800  0.00  0.00     0.006 C 
ENDBRANCH   8   9
BRANCH   8  11
ATOM     11  C   LIG d   1      -3.359  78.440 119.138  0.00  0.00     0.028 C 
ATOM     12  C   LIG d   1      -2.754  77.232 119.870  0.00  0.00     0.006 C 
ENDBRANCH   8  11
ENDBRANCH   7   8
ENDBRANCH   1   7
BRANCH   6  13
ATOM     13  N   LIG d   1       0.780  76.144 117.871  0.00  0.00    -0.311 N 
ATOM     14  C   LIG d   1       0.950  75.196 118.791  0.00  0.00     0.210 C 
ATOM     15  C   LIG d   1       2.350  75.139 119.410  0.00  0.00     0.109 C 
ATOM     16  O   LIG d   1       0.083  74.377 119.130  0.00  0.00    -0.276 OA
ATOM     17  H   LIG d   1       1.546  76.744 117.634  0.00  0.00     0.149 HD
ENDBRANCH   6  13
BRANCH   5  18
ATOM     18  N   LIG d   1      -0.528  74.181 115.929  0.00  0.00     0.381 N 
ATOM     19  H   LIG d   1      -0.054  73.928 116.773  0.00  0.00    -0.090 HD
ATOM     20  H   LIG d   1      -0.013  73.804 115.153  0.00  0.00    -0.090 HD
ATOM     21  H   LIG d   1      -1.452  73.811 115.935  0.00  0.00    -0.090 HD
ENDBRANCH   5  18
BRANCH   3  22
ATOM     22  C   LIG d   1      -2.841  77.889 113.970  0.00  0.00     0.382 C 
ATOM     23  O   LIG d   1      -3.647  77.142 113.364  0.00  0.00    -0.241 OA
ATOM     24  O   LIG d   1      -2.672  79.058 113.574  0.00  0.00    -0.241 OA
ENDBRANCH   3  22
TORSDOF 7
ENDMDL
MODEL 5
REMARK VINA RESULT:      -5.0      2.783      3.879
REMARK  7 active torsions:
REMARK  status: ('A' for Active; 'I' for Inactive)
REMARK    1  A    between atoms: C_2  and  C_3 
REMARK    2  A    between atoms: C_3  and  O_6 
REMARK    3  A    between atoms: C_3  and  C_4 
REMARK    4  A    between atoms: C_7  and  O_6 
REMARK    5  A    between atoms: C_9  and  C_10 
REMARK    6  A    between atoms: N_15  and  C_14 
REMARK    7  A    between atoms: N_20  and  C_19 
REMARK       I    between atoms: C_22  and  N_20 
ROOT
ATOM      1  C   LIG d   1      -3.425  77.644 117.045  0.00  0.00     0.161 C 
ATOM      2  C   LIG d   1      -4.523  77.193 116.294  0.00  0.00     0.016 C 
ATOM      3  C   LIG d   1      -4.518  75.987 115.555  0.00  0.00     0.038 C 
ATOM      4  C   LIG d   1      -3.460  75.070 115.641  0.00  0.00     0.028 C 
ATOM      5  C   LIG d   1      -2.123  75.717 115.986  0.00  0.00    -0.047 C 
ATOM      6  C   LIG d   1      -2.303  76.603 117.240  0.00  0.00     0.091 C 
ENDROOT
BRANCH   1   7
ATOM      7  O   LIG d   1      -3.876  78.139 118.321  0.00  0.00    -0.368 OA
BRANCH   7   8
ATOM      8  C   LIG d   1      -4.090  79.569 118.411  0.00  0.00     0.119 C 
BRANCH   8   9
ATOM      9  C   LIG d   1      -3.209  80.098 119.559  0.00  0.00     0.028 C 
ATOM     10  C   LIG d   1      -1.933  80.790 119.049  0.00  0.00     0.006 C 
ENDBRANCH   8   9
BRANCH   8  11
ATOM     11  C   LIG d   1      -5.529  79.893 118.822  0.00  0.00     0.028 C 
ATOM     12  C   LIG d   1      -6.438  80.200 117.621  0.00  0.00     0.006 C 
ENDBRANCH   8  11
ENDBRANCH   7   8
ENDBRANCH   1   7
BRANCH   6  13
ATOM     13  N   LIG d   1      -1.062  77.339 117.596  0.00  0.00    -0.311 N 
ATOM     14  C   LIG d   1      -0.181  76.900 118.493  0.00  0.00     0.210 C 
ATOM     15  C   LIG d   1       1.020  77.823 118.725  0.00  0.00     0.109 C 
ATOM     16  O   LIG d   1      -0.262  75.818 119.094  0.00  0.00    -0.276 OA
ATOM     17  H   LIG d   1      -0.901  78.212 117.133  0.00  0.00     0.149 HD
ENDBRANCH   6  13
BRANCH   5  18
ATOM     18  N   LIG d   1      -1.140  74.634 116.178  0.00  0.00     0.381 N 
ATOM     19  H   LIG d   1      -0.991  74.482 117.156  0.00  0.00    -0.090 HD
ATOM     20  H   LIG d   1      -0.267  74.911 115.765  0.00  0.00    -0.090 HD
ATOM     21  H   LIG d   1      -1.468  73.796 115.751  0.00  0.00    -0.090 HD
ENDBRANCH   5  18
BRANCH   3  22
ATOM     22  C   LIG d   1      -5.564  75.708 114.689  0.00  0.00     0.382 C 
ATOM     23  O   LIG d   1      -6.505  74.966 115.060  0.00  0.00    -0.241 OA
ATOM     24  O   LIG d   1      -5.555  76.152 113.525  0.00  0.00    -0.241 OA
ENDBRANCH   3  22
TORSDOF 7
ENDMDL
MODEL 6
REMARK VINA RESULT:      -4.9      1.742      4.870
REMARK  7 active torsions:
REMARK  status: ('A' for Active; 'I' for Inactive)
REMARK    1  A    between atoms: C_2  and  C_3 
REMARK    2  A    between atoms: C_3  and  O_6 
REMARK    3  A    between atoms: C_3  and  C_4 
REMARK    4  A    between atoms: C_7  and  O_6 
REMARK    5  A    between atoms: C_9  and  C_10 
REMARK    6  A    between atoms: N_15  and  C_14 
REMARK    7  A    between atoms: N_20  and  C_19 
REMARK       I    between atoms: C_22  and  N_20 
ROOT
ATOM      1  C   LIG d   1      -1.352  75.574 115.349  0.00  0.00     0.161 C 
ATOM      2  C   LIG d   1      -0.971  75.140 116.630  0.00  0.00     0.016 C 
ATOM      3  C   LIG d   1      -0.192  75.920 117.515  0.00  0.00     0.038 C 
ATOM      4  C   LIG d   1       0.134  77.255 117.237  0.00  0.00     0.028 C 
ATOM      5  C   LIG d   1       0.201  77.564 115.745  0.00  0.00    -0.047 C 
ATOM      6  C   LIG d   1      -1.100  77.071 115.072  0.00  0.00     0.091 C 
ENDROOT
BRANCH   1   7
ATOM      7  O   LIG d   1      -2.737  75.247 115.115  0.00  0.00    -0.368 OA
BRANCH   7   8
ATOM      8  C   LIG d   1      -3.672  76.352 115.180  0.00  0.00     0.119 C 
BRANCH   8   9
ATOM      9  C   LIG d   1      -4.083  76.525 116.655  0.00  0.00     0.028 C 
ATOM     10  C   LIG d   1      -4.084  77.998 117.095  0.00  0.00     0.006 C 
ENDBRANCH   8   9
BRANCH   8  11
ATOM     11  C   LIG d   1      -4.969  76.028 114.433  0.00  0.00     0.028 C 
ATOM     12  C   LIG d   1      -5.812  74.955 115.141  0.00  0.00     0.006 C 
ENDBRANCH   8  11
ENDBRANCH   7   8
ENDBRANCH   1   7
BRANCH   6  13
ATOM     13  N   LIG d   1      -1.082  77.259 113.598  0.00  0.00    -0.311 N 
ATOM     14  C   LIG d   1      -1.785  78.200 112.970  0.00  0.00     0.210 C 
ATOM     15  C   LIG d   1      -1.638  78.207 111.445  0.00  0.00     0.109 C 
ATOM     16  O   LIG d   1      -2.491  79.050 113.533  0.00  0.00    -0.276 OA
ATOM     17  H   LIG d   1      -0.511  76.632 113.065  0.00  0.00     0.149 HD
ENDBRANCH   6  13
BRANCH   5  18
ATOM     18  N   LIG d   1       0.412  79.017 115.600  0.00  0.00     0.381 N 
ATOM     19  H   LIG d   1       0.381  79.455 116.498  0.00  0.00    -0.090 HD
ATOM     20  H   LIG d   1      -0.327  79.398 115.037  0.00  0.00    -0.090 HD
ATOM     21  H   LIG d   1       1.293  79.192 115.168  0.00  0.00    -0.090 HD
ENDBRANCH   5  18
BRANCH   3  22
ATOM     22  C   LIG d   1       0.304  75.349 118.678  0.00  0.00     0.382 C 
ATOM     23  O   LIG d   1      -0.462  75.139 119.649  0.00  0.00    -0.241 OA
ATOM     24  O   LIG d   1       1.516  75.083 118.784  0.00  0.00    -0.241 OA
ENDBRANCH   3  22
TORSDOF 7
ENDMDL
MODEL 7
REMARK VINA RESULT:      -4.8      1.469      1.726
REMARK  7 active torsions:
REMARK  status: ('A' for Active; 'I' for Inactive)
REMARK    1  A    between atoms: C_2  and  C_3 
REMARK    2  A    between atoms: C_3  and  O_6 
REMARK    3  A    between atoms: C_3  and  C_4 
REMARK    4  A    between atoms: C_7  and  O_6 
REMARK    5  A    between atoms: C_9  and  C_10 
REMARK    6  A    between atoms: N_15  and  C_14 
REMARK    7  A    between atoms: N_20  and  C_19 
REMARK       I    between atoms: C_22  and  N_20 
ROOT
ATOM      1  C   LIG d   1      -2.618  77.778 115.821  0.00  0.00     0.161 C 
ATOM      2  C   LIG d   1      -2.965  78.066 114.491  0.00  0.00     0.016 C 
ATOM      3  C   LIG d   1      -2.061  77.958 113.410  0.00  0.00     0.038 C 
ATOM      4  C   LIG d   1      -0.781  77.406 113.565  0.00  0.00     0.028 C 
ATOM      5  C   LIG d   1      -0.216  77.573 114.972  0.00  0.00    -0.047 C 
ATOM      6  C   LIG d   1      -1.259  77.067 115.995  0.00  0.00     0.091 C 
ENDROOT
BRANCH   1   7
ATOM      7  O   LIG d   1      -3.667  77.012 116.446  0.00  0.00    -0.368 OA
BRANCH   7   8
ATOM      8  C   LIG d   1      -4.972  77.093 115.823  0.00  0.00     0.119 C 
BRANCH   8   9
ATOM      9  C   LIG d   1      -5.957  77.630 116.879  0.00  0.00     0.028 C 
ATOM     10  C   LIG d   1      -5.704  79.109 117.218  0.00  0.00     0.006 C 
ENDBRANCH   8   9
BRANCH   8  11
ATOM     11  C   LIG d   1      -5.498  75.704 115.448  0.00  0.00     0.028 C 
ATOM     12  C   LIG d   1      -7.031  75.614 115.498  0.00  0.00     0.006 C 
ENDBRANCH   8  11
ENDBRANCH   7   8
ENDBRANCH   1   7
BRANCH   6  13
ATOM     13  N   LIG d   1      -0.820  77.273 117.400  0.00  0.00    -0.311 N 
ATOM     14  C   LIG d   1      -0.462  78.458 117.890  0.00  0.00     0.210 C 
ATOM     15  C   LIG d   1      -0.024  78.445 119.358  0.00  0.00     0.109 C 
ATOM     16  O   LIG d   1      -0.497  79.525 117.258  0.00  0.00    -0.276 OA
ATOM     17  H   LIG d   1      -0.792  76.466 117.992  0.00  0.00     0.149 HD
ENDBRANCH   6  13
BRANCH   5  18
ATOM     18  N   LIG d   1       1.058  76.833 115.031  0.00  0.00     0.381 N 
ATOM     19  H   LIG d   1       1.004  76.018 114.453  0.00  0.00    -0.090 HD
ATOM     20  H   LIG d   1       1.219  76.538 115.978  0.00  0.00    -0.090 HD
ATOM     21  H   LIG d   1       1.806  77.417 114.726  0.00  0.00    -0.090 HD
ENDBRANCH   5  18
BRANCH   3  22
ATOM     22  C   LIG d   1      -2.422  78.444 112.162  0.00  0.00     0.382 C 
ATOM     23  O   LIG d   1      -1.693  79.284 111.581  0.00  0.00    -0.241 OA
ATOM     24  O   LIG d   1      -3.489  78.086 111.629  0.00  0.00    -0.241 OA
ENDBRANCH   3  22
TORSDOF 7
ENDMDL
MODEL 8
REMARK VINA RESULT:      -4.8      1.452      2.264
REMARK  7 active torsions:
REMARK  status: ('A' for Active; 'I' for Inactive)
REMARK    1  A    between atoms: C_2  and  C_3 
REMARK    2  A    between atoms: C_3  and  O_6 
REMARK    3  A    between atoms: C_3  and  C_4 
REMARK    4  A    between atoms: C_7  and  O_6 
REMARK    5  A    between atoms: C_9  and  C_10 
REMARK    6  A    between atoms: N_15  and  C_14 
REMARK    7  A    between atoms: N_20  and  C_19 
REMARK       I    between atoms: C_22  and  N_20 
ROOT
ATOM      1  C   LIG d   1      -2.824  77.813 115.081  0.00  0.00     0.161 C 
ATOM      2  C   LIG d   1      -2.868  78.513 113.863  0.00  0.00     0.016 C 
ATOM      3  C   LIG d   1      -1.786  78.562 112.954  0.00  0.00     0.038 C 
ATOM      4  C   LIG d   1      -0.632  77.785 113.132  0.00  0.00     0.028 C 
ATOM      5  C   LIG d   1      -0.340  77.460 114.594  0.00  0.00    -0.047 C 
ATOM      6  C   LIG d   1      -1.614  76.869 115.240  0.00  0.00     0.091 C 
ENDROOT
BRANCH   1   7
ATOM      7  O   LIG d   1      -4.054  77.088 115.272  0.00  0.00    -0.368 OA
BRANCH   7   8
ATOM      8  C   LIG d   1      -4.739  77.315 116.528  0.00  0.00     0.119 C 
BRANCH   8   9
ATOM      9  C   LIG d   1      -6.240  77.055 116.291  0.00  0.00     0.028 C 
ATOM     10  C   LIG d   1      -6.488  76.041 115.162  0.00  0.00     0.006 C 
ENDBRANCH   8   9
BRANCH   8  11
ATOM     11  C   LIG d   1      -4.646  78.783 116.956  0.00  0.00     0.028 C 
ATOM     12  C   LIG d   1      -4.432  78.950 118.469  0.00  0.00     0.006 C 
ENDBRANCH   8  11
ENDBRANCH   7   8
ENDBRANCH   1   7
BRANCH   6  13
ATOM     13  N   LIG d   1      -1.441  76.601 116.692  0.00  0.00    -0.311 N 
ATOM     14  C   LIG d   1      -1.110  77.540 117.576  0.00  0.00     0.210 C 
ATOM     15  C   LIG d   1      -0.963  77.047 119.019  0.00  0.00     0.109 C 
ATOM     16  O   LIG d   1      -0.955  78.741 117.308  0.00  0.00    -0.276 OA
ATOM     17  H   LIG d   1      -1.578  75.659 117.001  0.00  0.00     0.149 HD
ENDBRANCH   6  13
BRANCH   5  18
ATOM     18  N   LIG d   1       0.807  76.533 114.623  0.00  0.00     0.381 N 
ATOM     19  H   LIG d   1       1.034  76.306 115.571  0.00  0.00    -0.090 HD
ATOM     20  H   LIG d   1       1.602  76.987 114.209  0.00  0.00    -0.090 HD
ATOM     21  H   LIG d   1       0.588  75.703 114.118  0.00  0.00    -0.090 HD
ENDBRANCH   5  18
BRANCH   3  22
ATOM     22  C   LIG d   1      -1.837  79.428 111.872  0.00  0.00     0.382 C 
ATOM     23  O   LIG d   1      -2.197  80.618 112.037  0.00  0.00    -0.241 OA
ATOM     24  O   LIG d   1      -1.570  79.021 110.725  0.00  0.00    -0.241 OA
ENDBRANCH   3  22
TORSDOF 7
ENDMDL
MODEL 9
REMARK VINA RESULT:      -4.8      2.211      4.685
REMARK  7 active torsions:
REMARK  status: ('A' for Active; 'I' for Inactive)
REMARK    1  A    between atoms: C_2  and  C_3 
REMARK    2  A    between atoms: C_3  and  O_6 
REMARK    3  A    between atoms: C_3  and  C_4 
REMARK    4  A    between atoms: C_7  and  O_6 
REMARK    5  A    between atoms: C_9  and  C_10 
REMARK    6  A    between atoms: N_15  and  C_14 
REMARK    7  A    between atoms: N_20  and  C_19 
REMARK       I    between atoms: C_22  and  N_20 
ROOT
ATOM      1  C   LIG d   1      -3.233  76.444 116.297  0.00  0.00     0.161 C 
ATOM      2  C   LIG d   1      -4.523  76.985 116.170  0.00  0.00     0.016 C 
ATOM      3  C   LIG d   1      -5.077  77.902 117.093  0.00  0.00     0.038 C 
ATOM      4  C   LIG d   1      -4.316  78.460 118.131  0.00  0.00     0.028 C 
ATOM      5  C   LIG d   1      -3.173  77.563 118.594  0.00  0.00    -0.047 C 
ATOM      6  C   LIG d   1      -2.348  77.126 117.362  0.00  0.00     0.091 C 
ENDROOT
BRANCH   1   7
ATOM      7  O   LIG d   1      -2.572  76.451 115.017  0.00  0.00    -0.368 OA
BRANCH   7   8
ATOM      8  C   LIG d   1      -2.161  77.748 114.519  0.00  0.00     0.119 C 
BRANCH   8   9
ATOM      9  C   LIG d   1      -2.737  77.902 113.098  0.00  0.00     0.028 C 
ATOM     10  C   LIG d   1      -2.078  79.053 112.319  0.00  0.00     0.006 C 
ENDBRANCH   8   9
BRANCH   8  11
ATOM     11  C   LIG d   1      -0.641  77.825 114.351  0.00  0.00     0.028 C 
ATOM     12  C   LIG d   1       0.022  76.439 114.290  0.00  0.00     0.006 C 
ENDBRANCH   8  11
ENDBRANCH   7   8
ENDBRANCH   1   7
BRANCH   6  13
ATOM     13  N   LIG d   1      -1.259  76.178 117.716  0.00  0.00    -0.311 N 
ATOM     14  C   LIG d   1      -0.017  76.562 118.002  0.00  0.00     0.210 C 
ATOM     15  C   LIG d   1       0.956  75.422 118.320  0.00  0.00     0.109 C 
ATOM     16  O   LIG d   1       0.365  77.741 118.053  0.00  0.00    -0.276 OA
ATOM     17  H   LIG d   1      -1.490  75.203 117.729  0.00  0.00     0.149 HD
ENDBRANCH   6  13
BRANCH   5  18
ATOM     18  N   LIG d   1      -2.381  78.323 119.579  0.00  0.00     0.381 N 
ATOM     19  H   LIG d   1      -2.932  78.494 120.397  0.00  0.00    -0.090 HD
ATOM     20  H   LIG d   1      -2.127  79.209 119.179  0.00  0.00    -0.090 HD
ATOM     21  H   LIG d   1      -1.560  77.813 119.824  0.00  0.00    -0.090 HD
ENDBRANCH   5  18
BRANCH   3  22
ATOM     22  C   LIG d   1      -6.419  78.240 117.005  0.00  0.00     0.382 C 
ATOM     23  O   LIG d   1      -7.279  77.346 116.814  0.00  0.00    -0.241 OA
ATOM     24  O   LIG d   1      -6.776  79.431 117.071  0.00  0.00    -0.241 OA
ENDBRANCH   3  22
TORSDOF 7
ENDMDL
