MODEL 1
REMARK VINA RESULT:      -5.5      0.000      0.000
REMARK  7 active torsions:
REMARK  status: ('A' for Active; 'I' for Inactive)
REMARK    1  A    between atoms: C_2  and  C_3 
REMARK    2  A    between atoms: C_3  and  O_6 
REMARK    3  A    between atoms: C_3  and  C_4 
REMARK    4  A    between atoms: C_7  and  O_6 
REMARK    5  A    between atoms: C_9  and  C_10 
REMARK    6  A    between atoms: N_15  and  C_14 
REMARK    7  A    between atoms: N_20  and  C_19 
REMARK       I    between atoms: C_22  and  N_20 
ROOT
ATOM      1  C   LIG d   1      -2.692  80.015 114.791  0.00  0.00     0.161 C 
ATOM      2  C   LIG d   1      -2.224  81.151 114.109  0.00  0.00     0.016 C 
ATOM      3  C   LIG d   1      -1.590  81.094 112.846  0.00  0.00     0.038 C 
ATOM      4  C   LIG d   1      -1.517  79.905 112.106  0.00  0.00     0.028 C 
ATOM      5  C   LIG d   1      -1.523  78.650 112.974  0.00  0.00    -0.047 C 
ATOM      6  C   LIG d   1      -2.720  78.722 113.949  0.00  0.00     0.091 C 
ENDROOT
BRANCH   1   7
ATOM      7  O   LIG d   1      -3.996  80.280 115.345  0.00  0.00    -0.368 OA
BRANCH   7   8
ATOM      8  C   LIG d   1      -4.050  80.482 116.779  0.00  0.00     0.119 C 
BRANCH   8   9
ATOM      9  C   LIG d   1      -5.359  79.847 117.286  0.00  0.00     0.028 C 
ATOM     10  C   LIG d   1      -6.526  80.849 117.311  0.00  0.00     0.006 C 
ENDBRANCH   8   9
BRANCH   8  11
ATOM     11  C   LIG d   1      -4.158  81.969 117.128  0.00  0.00     0.028 C 
ATOM     12  C   LIG d   1      -3.048  82.439 118.082  0.00  0.00     0.006 C 
ENDBRANCH   8  11
ENDBRANCH   7   8
ENDBRANCH   1   7
BRANCH   6  13
ATOM     13  N   LIG d   1      -2.752  77.573 114.892  0.00  0.00    -0.311 N 
ATOM     14  C   LIG d   1      -3.450  76.460 114.668  0.00  0.00     0.210 C 
ATOM     15  C   LIG d   1      -3.361  75.407 115.777  0.00  0.00     0.109 C 
ATOM     16  O   LIG d   1      -4.107  76.232 113.641  0.00  0.00    -0.276 OA
ATOM     17  H   LIG d   1      -2.221  77.660 115.736  0.00  0.00     0.149 HD
ENDBRANCH   6  13
BRANCH   5  18
ATOM     18  N   LIG d   1      -1.582  77.485 112.071  0.00  0.00     0.381 N 
ATOM     19  H   LIG d   1      -2.524  77.337 111.770  0.00  0.00    -0.090 HD
ATOM     20  H   LIG d   1      -1.280  76.669 112.574  0.00  0.00    -0.090 HD
ATOM     21  H   LIG d   1      -0.992  77.635 111.282  0.00  0.00    -0.090 HD
ENDBRANCH   5  18
BRANCH   3  22
ATOM     22  C   LIG d   1      -0.986  82.230 112.329  0.00  0.00     0.382 C 
ATOM     23  O   LIG d   1      -1.469  82.791 111.316  0.00  0.00    -0.241 OA
ATOM     24  O   LIG d   1       0.060  82.676 112.837  0.00  0.00    -0.241 OA
ENDBRANCH   3  22
TORSDOF 7
ENDMDL
MODEL 2
REMARK VINA RESULT:      -5.0      1.679      4.718
REMARK  7 active torsions:
REMARK  status: ('A' for Active; 'I' for Inactive)
REMARK    1  A    between atoms: C_2  and  C_3 
REMARK    2  A    between atoms: C_3  and  O_6 
REMARK    3  A    between atoms: C_3  and  C_4 
REMARK    4  A    between atoms: C_7  and  O_6 
REMARK    5  A    between atoms: C_9  and  C_10 
REMARK    6  A    between atoms: N_15  and  C_14 
REMARK    7  A    between atoms: N_20  and  C_19 
REMARK       I    between atoms: C_22  and  N_20 
ROOT
ATOM      1  C   LIG d   1      -2.511  80.472 113.987  0.00  0.00     0.161 C 
ATOM      2  C   LIG d   1      -2.906  79.202 114.439  0.00  0.00     0.016 C 
ATOM      3  C   LIG d   1      -2.601  78.002 113.757  0.00  0.00     0.038 C 
ATOM      4  C   LIG d   1      -1.743  77.978 112.647  0.00  0.00     0.028 C 
ATOM      5  C   LIG d   1      -1.733  79.285 111.861  0.00  0.00    -0.047 C 
ATOM      6  C   LIG d   1      -1.480  80.456 112.838  0.00  0.00     0.091 C 
ENDROOT
BRANCH   1   7
ATOM      7  O   LIG d   1      -2.017  81.253 115.093  0.00  0.00    -0.368 OA
BRANCH   7   8
ATOM      8  C   LIG d   1      -2.561  80.928 116.396  0.00  0.00     0.119 C 
BRANCH   8   9
ATOM      9  C   LIG d   1      -3.763  81.860 116.640  0.00  0.00     0.028 C 
ATOM     10  C   LIG d   1      -5.048  81.084 116.976  0.00  0.00     0.006 C 
ENDBRANCH   8   9
BRANCH   8  11
ATOM     11  C   LIG d   1      -1.564  81.251 117.512  0.00  0.00     0.028 C 
ATOM     12  C   LIG d   1      -1.816  82.622 118.158  0.00  0.00     0.006 C 
ENDBRANCH   8  11
ENDBRANCH   7   8
ENDBRANCH   1   7
BRANCH   6  13
ATOM     13  N   LIG d   1      -1.538  81.780 112.164  0.00  0.00    -0.311 N 
ATOM     14  C   LIG d   1      -0.563  82.684 112.238  0.00  0.00     0.210 C 
ATOM     15  C   LIG d   1      -0.834  83.990 111.486  0.00  0.00     0.109 C 
ATOM     16  O   LIG d   1       0.514  82.515 112.829  0.00  0.00    -0.276 OA
ATOM     17  H   LIG d   1      -2.364  81.987 111.637  0.00  0.00     0.149 HD
ENDBRANCH   6  13
BRANCH   5  18
ATOM     18  N   LIG d   1      -0.697  79.170 110.817  0.00  0.00     0.381 N 
ATOM     19  H   LIG d   1       0.138  79.632 111.116  0.00  0.00    -0.090 HD
ATOM     20  H   LIG d   1      -1.026  79.622 109.982  0.00  0.00    -0.090 HD
ATOM     21  H   LIG d   1      -0.506  78.210 110.631  0.00  0.00    -0.090 HD
ENDBRANCH   5  18
BRANCH   3  22
ATOM     22  C   LIG d   1      -3.188  76.813 114.160  0.00  0.00     0.382 C 
ATOM     23  O   LIG d   1      -4.125  76.317 113.489  0.00  0.00    -0.241 OA
ATOM     24  O   LIG d   1      -2.823  76.253 115.212  0.00  0.00    -0.241 OA
ENDBRANCH   3  22
TORSDOF 7
ENDMDL
MODEL 3
REMARK VINA RESULT:      -4.9      2.726      4.326
REMARK  7 active torsions:
REMARK  status: ('A' for Active; 'I' for Inactive)
REMARK    1  A    between atoms: C_2  and  C_3 
REMARK    2  A    between atoms: C_3  and  O_6 
REMARK    3  A    between atoms: C_3  and  C_4 
REMARK    4  A    between atoms: C_7  and  O_6 
REMARK    5  A    between atoms: C_9  and  C_10 
REMARK    6  A    between atoms: N_15  and  C_14 
REMARK    7  A    between atoms: N_20  and  C_19 
REMARK       I    between atoms: C_22  and  N_20 
ROOT
ATOM      1  C   LIG d   1      -2.230  80.440 114.381  0.00  0.00     0.161 C 
ATOM      2  C   LIG d   1      -2.036  81.285 113.276  0.00  0.00     0.016 C 
ATOM      3  C   LIG d   1      -0.785  81.849 112.937  0.00  0.00     0.038 C 
ATOM      4  C   LIG d   1       0.397  81.483 113.598  0.00  0.00     0.028 C 
ATOM      5  C   LIG d   1       0.170  81.025 115.035  0.00  0.00    -0.047 C 
ATOM      6  C   LIG d   1      -0.931  79.940 115.048  0.00  0.00     0.091 C 
ENDROOT
BRANCH   1   7
ATOM      7  O   LIG d   1      -3.060  79.324 114.004  0.00  0.00    -0.368 OA
BRANCH   7   8
ATOM      8  C   LIG d   1      -2.382  78.209 113.375  0.00  0.00     0.119 C 
BRANCH   8   9
ATOM      9  C   LIG d   1      -3.057  77.965 112.011  0.00  0.00     0.028 C 
ATOM     10  C   LIG d   1      -2.038  77.711 110.889  0.00  0.00     0.006 C 
ENDBRANCH   8   9
BRANCH   8  11
ATOM     11  C   LIG d   1      -2.588  76.913 114.166  0.00  0.00     0.028 C 
ATOM     12  C   LIG d   1      -1.311  76.064 114.262  0.00  0.00     0.006 C 
ENDBRANCH   8  11
ENDBRANCH   7   8
ENDBRANCH   1   7
BRANCH   6  13
ATOM     13  N   LIG d   1      -1.274  79.498 116.425  0.00  0.00    -0.311 N 
ATOM     14  C   LIG d   1      -0.632  78.520 117.062  0.00  0.00     0.210 C 
ATOM     15  C   LIG d   1      -1.159  78.208 118.466  0.00  0.00     0.109 C 
ATOM     16  O   LIG d   1       0.344  77.903 116.610  0.00  0.00    -0.276 OA
ATOM     17  H   LIG d   1      -2.034  79.966 116.879  0.00  0.00     0.149 HD
ENDBRANCH   6  13
BRANCH   5  18
ATOM     18  N   LIG d   1       1.462  80.543 115.559  0.00  0.00     0.381 N 
ATOM     19  H   LIG d   1       1.565  79.568 115.362  0.00  0.00    -0.090 HD
ATOM     20  H   LIG d   1       1.476  80.668 116.556  0.00  0.00    -0.090 HD
ATOM     21  H   LIG d   1       2.210  81.054 115.143  0.00  0.00    -0.090 HD
ENDBRANCH   5  18
BRANCH   3  22
ATOM     22  C   LIG d   1      -0.714  82.822 111.952  0.00  0.00     0.382 C 
ATOM     23  O   LIG d   1       0.100  83.770 112.064  0.00  0.00    -0.241 OA
ATOM     24  O   LIG d   1      -1.484  82.787 110.973  0.00  0.00    -0.241 OA
ENDBRANCH   3  22
TORSDOF 7
ENDMDL
MODEL 4
REMARK VINA RESULT:      -4.8      0.976      1.006
REMARK  7 active torsions:
REMARK  status: ('A' for Active; 'I' for Inactive)
REMARK    1  A    between atoms: C_2  and  C_3 
REMARK    2  A    between atoms: C_3  and  O_6 
REMARK    3  A    between atoms: C_3  and  C_4 
REMARK    4  A    between atoms: C_7  and  O_6 
REMARK    5  A    between atoms: C_9  and  C_10 
REMARK    6  A    between atoms: N_15  and  C_14 
REMARK    7  A    between atoms: N_20  and  C_19 
REMARK       I    between atoms: C_22  and  N_20 
ROOT
ATOM      1  C   LIG d   1      -2.895  79.738 115.057  0.00  0.00     0.161 C 
ATOM      2  C   LIG d   1      -2.557  80.735 114.127  0.00  0.00     0.016 C 
ATOM      3  C   LIG d   1      -1.911  80.466 112.898  0.00  0.00     0.038 C 
ATOM      4  C   LIG d   1      -1.694  79.157 112.445  0.00  0.00     0.028 C 
ATOM      5  C   LIG d   1      -1.562  78.140 113.574  0.00  0.00    -0.047 C 
ATOM      6  C   LIG d   1      -2.767  78.293 114.530  0.00  0.00     0.091 C 
ENDROOT
BRANCH   1   7
ATOM      7  O   LIG d   1      -4.225  79.971 115.561  0.00  0.00    -0.368 OA
BRANCH   7   8
ATOM      8  C   LIG d   1      -4.319  80.376 116.949  0.00  0.00     0.119 C 
BRANCH   8   9
ATOM      9  C   LIG d   1      -5.228  79.360 117.667  0.00  0.00     0.028 C 
ATOM     10  C   LIG d   1      -6.705  79.786 117.659  0.00  0.00     0.006 C 
ENDBRANCH   8   9
BRANCH   8  11
ATOM     11  C   LIG d   1      -5.029  81.725 117.088  0.00  0.00     0.028 C 
ATOM     12  C   LIG d   1      -4.275  82.704 118.003  0.00  0.00     0.006 C 
ENDBRANCH   8  11
ENDBRANCH   7   8
ENDBRANCH   1   7
BRANCH   6  13
ATOM     13  N   LIG d   1      -2.673  77.392 115.709  0.00  0.00    -0.311 N 
ATOM     14  C   LIG d   1      -3.147  76.147 115.720  0.00  0.00     0.210 C 
ATOM     15  C   LIG d   1      -2.965  75.397 117.043  0.00  0.00     0.109 C 
ATOM     16  O   LIG d   1      -3.673  75.582 114.749  0.00  0.00    -0.276 OA
ATOM     17  H   LIG d   1      -2.233  77.759 116.530  0.00  0.00     0.149 HD
ENDBRANCH   6  13
BRANCH   5  18
ATOM     18  N   LIG d   1      -1.478  76.801 112.960  0.00  0.00     0.381 N 
ATOM     19  H   LIG d   1      -2.112  76.742 112.188  0.00  0.00    -0.090 HD
ATOM     20  H   LIG d   1      -1.746  76.113 113.642  0.00  0.00    -0.090 HD
ATOM     21  H   LIG d   1      -0.548  76.626 112.649  0.00  0.00    -0.090 HD
ENDBRANCH   5  18
BRANCH   3  22
ATOM     22  C   LIG d   1      -1.439  81.517 112.126  0.00  0.00     0.382 C 
ATOM     23  O   LIG d   1      -1.990  82.642 112.193  0.00  0.00    -0.241 OA
ATOM     24  O   LIG d   1      -0.496  81.342 111.331  0.00  0.00    -0.241 OA
ENDBRANCH   3  22
TORSDOF 7
ENDMDL
MODEL 5
REMARK VINA RESULT:      -4.8      1.826      4.458
REMARK  7 active torsions:
REMARK  status: ('A' for Active; 'I' for Inactive)
REMARK    1  A    between atoms: C_2  and  C_3 
REMARK    2  A    between atoms: C_3  and  O_6 
REMARK    3  A    between atoms: C_3  and  C_4 
REMARK    4  A    between atoms: C_7  and  O_6 
REMARK    5  A    between atoms: C_9  and  C_10 
REMARK    6  A    between atoms: N_15  and  C_14 
REMARK    7  A    between atoms: N_20  and  C_19 
REMARK       I    between atoms: C_22  and  N_20 
ROOT
ATOM      1  C   LIG d   1      -2.930  80.133 113.816  0.00  0.00     0.161 C 
ATOM      2  C   LIG d   1      -2.314  80.937 112.842  0.00  0.00     0.016 C 
ATOM      3  C   LIG d   1      -1.153  81.705 113.087  0.00  0.00     0.038 C 
ATOM      4  C   LIG d   1      -0.436  81.602 114.289  0.00  0.00     0.028 C 
ATOM      5  C   LIG d   1      -1.299  81.190 115.476  0.00  0.00    -0.047 C 
ATOM      6  C   LIG d   1      -2.099  79.922 115.099  0.00  0.00     0.091 C 
ENDROOT
BRANCH   1   7
ATOM      7  O   LIG d   1      -3.296  78.863 113.242  0.00  0.00    -0.368 OA
BRANCH   7   8
ATOM      8  C   LIG d   1      -2.201  78.023 112.801  0.00  0.00     0.119 C 
BRANCH   8   9
ATOM      9  C   LIG d   1      -2.489  77.613 111.344  0.00  0.00     0.028 C 
ATOM     10  C   LIG d   1      -1.428  78.141 110.364  0.00  0.00     0.006 C 
ENDBRANCH   8   9
BRANCH   8  11
ATOM     11  C   LIG d   1      -2.152  76.712 113.590  0.00  0.00     0.028 C 
ATOM     12  C   LIG d   1      -3.455  76.426 114.352  0.00  0.00     0.006 C 
ENDBRANCH   8  11
ENDBRANCH   7   8
ENDBRANCH   1   7
BRANCH   6  13
ATOM     13  N   LIG d   1      -3.033  79.500 116.176  0.00  0.00    -0.311 N 
ATOM     14  C   LIG d   1      -4.120  80.190 116.515  0.00  0.00     0.210 C 
ATOM     15  C   LIG d   1      -4.935  79.589 117.664  0.00  0.00     0.109 C 
ATOM     16  O   LIG d   1      -4.505  81.226 115.951  0.00  0.00    -0.276 OA
ATOM     17  H   LIG d   1      -2.813  78.654 116.664  0.00  0.00     0.149 HD
ENDBRANCH   6  13
BRANCH   5  18
ATOM     18  N   LIG d   1      -0.403  80.987 116.630  0.00  0.00     0.381 N 
ATOM     19  H   LIG d   1      -0.116  80.030 116.672  0.00  0.00    -0.090 HD
ATOM     20  H   LIG d   1      -0.905  81.203 117.473  0.00  0.00    -0.090 HD
ATOM     21  H   LIG d   1       0.395  81.577 116.550  0.00  0.00    -0.090 HD
ENDBRANCH   5  18
BRANCH   3  22
ATOM     22  C   LIG d   1      -0.719  82.618 112.138  0.00  0.00     0.382 C 
ATOM     23  O   LIG d   1      -1.358  82.760 111.067  0.00  0.00    -0.241 OA
ATOM     24  O   LIG d   1       0.327  83.269 112.319  0.00  0.00    -0.241 OA
ENDBRANCH   3  22
TORSDOF 7
ENDMDL
MODEL 6
REMARK VINA RESULT:      -4.7      1.491      2.260
REMARK  7 active torsions:
REMARK  status: ('A' for Active; 'I' for Inactive)
REMARK    1  A    between atoms: C_2  and  C_3 
REMARK    2  A    between atoms: C_3  and  O_6 
REMARK    3  A    between atoms: C_3  and  C_4 
REMARK    4  A    between atoms: C_7  and  O_6 
REMARK    5  A    between atoms: C_9  and  C_10 
REMARK    6  A    between atoms: N_15  and  C_14 
REMARK    7  A    between atoms: N_20  and  C_19 
REMARK       I    between atoms: C_22  and  N_20 
ROOT
ATOM      1  C   LIG d   1      -0.983  79.792 115.145  0.00  0.00     0.161 C 
ATOM      2  C   LIG d   1      -0.794  80.997 114.448  0.00  0.00     0.016 C 
ATOM      3  C   LIG d   1      -1.336  81.247 113.166  0.00  0.00     0.038 C 
ATOM      4  C   LIG d   1      -2.235  80.360 112.555  0.00  0.00     0.028 C 
ATOM      5  C   LIG d   1      -2.053  78.912 112.998  0.00  0.00    -0.047 C 
ATOM      6  C   LIG d   1      -2.052  78.856 114.543  0.00  0.00     0.091 C 
ENDROOT
BRANCH   1   7
ATOM      7  O   LIG d   1      -1.282  80.069 116.528  0.00  0.00    -0.368 OA
BRANCH   7   8
ATOM      8  C   LIG d   1      -1.611  81.443 116.846  0.00  0.00     0.119 C 
BRANCH   8   9
ATOM      9  C   LIG d   1      -0.785  81.843 118.083  0.00  0.00     0.028 C 
ATOM     10  C   LIG d   1      -1.025  83.303 118.502  0.00  0.00     0.006 C 
ENDBRANCH   8   9
BRANCH   8  11
ATOM     11  C   LIG d   1      -3.075  81.581 117.274  0.00  0.00     0.028 C 
ATOM     12  C   LIG d   1      -4.020  81.845 116.091  0.00  0.00     0.006 C 
ENDBRANCH   8  11
ENDBRANCH   7   8
ENDBRANCH   1   7
BRANCH   6  13
ATOM     13  N   LIG d   1      -1.795  77.487 115.060  0.00  0.00    -0.311 N 
ATOM     14  C   LIG d   1      -2.763  76.618 115.348  0.00  0.00     0.210 C 
ATOM     15  C   LIG d   1      -2.280  75.268 115.888  0.00  0.00     0.109 C 
ATOM     16  O   LIG d   1      -3.973  76.826 115.176  0.00  0.00    -0.276 OA
ATOM     17  H   LIG d   1      -0.839  77.224 115.200  0.00  0.00     0.149 HD
ENDBRANCH   6  13
BRANCH   5  18
ATOM     18  N   LIG d   1      -3.140  78.120 112.391  0.00  0.00     0.381 N 
ATOM     19  H   LIG d   1      -3.012  78.074 111.400  0.00  0.00    -0.090 HD
ATOM     20  H   LIG d   1      -4.016  78.577 112.575  0.00  0.00    -0.090 HD
ATOM     21  H   LIG d   1      -3.148  77.202 112.776  0.00  0.00    -0.090 HD
ENDBRANCH   5  18
BRANCH   3  22
ATOM     22  C   LIG d   1      -0.947  82.378 112.465  0.00  0.00     0.382 C 
ATOM     23  O   LIG d   1      -1.713  82.877 111.606  0.00  0.00    -0.241 OA
ATOM     24  O   LIG d   1       0.178  82.879 112.648  0.00  0.00    -0.241 OA
ENDBRANCH   3  22
TORSDOF 7
ENDMDL
MODEL 7
REMARK VINA RESULT:      -4.4      2.189      2.788
REMARK  7 active torsions:
REMARK  status: ('A' for Active; 'I' for Inactive)
REMARK    1  A    between atoms: C_2  and  C_3 
REMARK    2  A    between atoms: C_3  and  O_6 
REMARK    3  A    between atoms: C_3  and  C_4 
REMARK    4  A    between atoms: C_7  and  O_6 
REMARK    5  A    between atoms: C_9  and  C_10 
REMARK    6  A    between atoms: N_15  and  C_14 
REMARK    7  A    between atoms: N_20  and  C_19 
REMARK       I    between atoms: C_22  and  N_20 
ROOT
ATOM      1  C   LIG d   1      -1.930  79.935 116.364  0.00  0.00     0.161 C 
ATOM      2  C   LIG d   1      -2.443  80.779 115.365  0.00  0.00     0.016 C 
ATOM      3  C   LIG d   1      -2.479  80.431 113.995  0.00  0.00     0.038 C 
ATOM      4  C   LIG d   1      -2.140  79.145 113.548  0.00  0.00     0.028 C 
ATOM      5  C   LIG d   1      -1.143  78.432 114.454  0.00  0.00    -0.047 C 
ATOM      6  C   LIG d   1      -1.659  78.485 115.910  0.00  0.00     0.091 C 
ENDROOT
BRANCH   1   7
ATOM      7  O   LIG d   1      -2.806  79.946 117.510  0.00  0.00    -0.368 OA
BRANCH   7   8
ATOM      8  C   LIG d   1      -4.176  80.346 117.261  0.00  0.00     0.119 C 
BRANCH   8   9
ATOM      9  C   LIG d   1      -4.584  81.321 118.382  0.00  0.00     0.028 C 
ATOM     10  C   LIG d   1      -4.006  82.731 118.172  0.00  0.00     0.006 C 
ENDBRANCH   8   9
BRANCH   8  11
ATOM     11  C   LIG d   1      -5.135  79.158 117.388  0.00  0.00     0.028 C 
ATOM     12  C   LIG d   1      -6.594  79.591 117.599  0.00  0.00     0.006 C 
ENDBRANCH   8  11
ENDBRANCH   7   8
ENDBRANCH   1   7
BRANCH   6  13
ATOM     13  N   LIG d   1      -0.702  77.883 116.874  0.00  0.00    -0.311 N 
ATOM     14  C   LIG d   1      -0.754  76.610 117.261  0.00  0.00     0.210 C 
ATOM     15  C   LIG d   1       0.316  76.199 118.278  0.00  0.00     0.109 C 
ATOM     16  O   LIG d   1      -1.565  75.774 116.836  0.00  0.00    -0.276 OA
ATOM     17  H   LIG d   1       0.009  78.483 117.246  0.00  0.00     0.149 HD
ENDBRANCH   6  13
BRANCH   5  18
ATOM     18  N   LIG d   1      -0.985  77.055 113.947  0.00  0.00     0.381 N 
ATOM     19  H   LIG d   1      -1.876  76.689 113.678  0.00  0.00    -0.090 HD
ATOM     20  H   LIG d   1      -0.616  76.478 114.682  0.00  0.00    -0.090 HD
ATOM     21  H   LIG d   1      -0.366  77.048 113.167  0.00  0.00    -0.090 HD
ENDBRANCH   5  18
BRANCH   3  22
ATOM     22  C   LIG d   1      -2.819  81.388 113.052  0.00  0.00     0.382 C 
ATOM     23  O   LIG d   1      -2.011  81.683 112.139  0.00  0.00    -0.241 OA
ATOM     24  O   LIG d   1      -3.906  81.992 113.128  0.00  0.00    -0.241 OA
ENDBRANCH   3  22
TORSDOF 7
ENDMDL
MODEL 8
REMARK VINA RESULT:      -4.3      2.975      4.830
REMARK  7 active torsions:
REMARK  status: ('A' for Active; 'I' for Inactive)
REMARK    1  A    between atoms: C_2  and  C_3 
REMARK    2  A    between atoms: C_3  and  O_6 
REMARK    3  A    between atoms: C_3  and  C_4 
REMARK    4  A    between atoms: C_7  and  O_6 
REMARK    5  A    between atoms: C_9  and  C_10 
REMARK    6  A    between atoms: N_15  and  C_14 
REMARK    7  A    between atoms: N_20  and  C_19 
REMARK       I    between atoms: C_22  and  N_20 
ROOT
ATOM      1  C   LIG d   1      -1.619  80.095 113.402  0.00  0.00     0.161 C 
ATOM      2  C   LIG d   1      -1.287  79.780 112.074  0.00  0.00     0.016 C 
ATOM      3  C   LIG d   1      -0.091  80.201 111.450  0.00  0.00     0.038 C 
ATOM      4  C   LIG d   1       0.932  80.843 112.164  0.00  0.00     0.028 C 
ATOM      5  C   LIG d   1       0.428  81.624 113.373  0.00  0.00    -0.047 C 
ATOM      6  C   LIG d   1      -0.466  80.700 114.231  0.00  0.00     0.091 C 
ENDROOT
BRANCH   1   7
ATOM      7  O   LIG d   1      -2.152  78.930 114.062  0.00  0.00    -0.368 OA
BRANCH   7   8
ATOM      8  C   LIG d   1      -1.180  77.980 114.563  0.00  0.00     0.119 C 
BRANCH   8   9
ATOM      9  C   LIG d   1      -1.485  76.618 113.911  0.00  0.00     0.028 C 
ATOM     10  C   LIG d   1      -0.625  75.483 114.493  0.00  0.00     0.006 C 
ENDBRANCH   8   9
BRANCH   8  11
ATOM     11  C   LIG d   1      -1.345  77.755 116.069  0.00  0.00     0.028 C 
ATOM     12  C   LIG d   1      -2.670  78.314 116.613  0.00  0.00     0.006 C 
ENDBRANCH   8  11
ENDBRANCH   7   8
ENDBRANCH   1   7
BRANCH   6  13
ATOM     13  N   LIG d   1      -1.068  81.409 115.389  0.00  0.00    -0.311 N 
ATOM     14  C   LIG d   1      -0.533  81.407 116.609  0.00  0.00     0.210 C 
ATOM     15  C   LIG d   1      -1.326  82.185 117.664  0.00  0.00     0.109 C 
ATOM     16  O   LIG d   1       0.539  80.863 116.910  0.00  0.00    -0.276 OA
ATOM     17  H   LIG d   1      -1.924  81.903 115.227  0.00  0.00     0.149 HD
ENDBRANCH   6  13
BRANCH   5  18
ATOM     18  N   LIG d   1       1.608  82.127 114.102  0.00  0.00     0.381 N 
ATOM     19  H   LIG d   1       1.511  81.932 115.079  0.00  0.00    -0.090 HD
ATOM     20  H   LIG d   1       1.664  83.123 113.983  0.00  0.00    -0.090 HD
ATOM     21  H   LIG d   1       2.435  81.696 113.751  0.00  0.00    -0.090 HD
ENDBRANCH   5  18
BRANCH   3  22
ATOM     22  C   LIG d   1       0.075  80.016 110.086  0.00  0.00     0.382 C 
ATOM     23  O   LIG d   1      -0.666  79.214 109.467  0.00  0.00    -0.241 OA
ATOM     24  O   LIG d   1       0.984  80.607 109.474  0.00  0.00    -0.241 OA
ENDBRANCH   3  22
TORSDOF 7
ENDMDL
MODEL 9
REMARK VINA RESULT:      -4.3      3.302      4.839
REMARK  7 active torsions:
REMARK  status: ('A' for Active; 'I' for Inactive)
REMARK    1  A    between atoms: C_2  and  C_3 
REMARK    2  A    between atoms: C_3  and  O_6 
REMARK    3  A    between atoms: C_3  and  C_4 
REMARK    4  A    between atoms: C_7  and  O_6 
REMARK    5  A    between atoms: C_9  and  C_10 
REMARK    6  A    between atoms: N_15  and  C_14 
REMARK    7  A    between atoms: N_20  and  C_19 
REMARK       I    between atoms: C_22  and  N_20 
ROOT
ATOM      1  C   LIG d   1      -1.694  79.681 115.780  0.00  0.00     0.161 C 
ATOM      2  C   LIG d   1      -2.278  80.211 114.617  0.00  0.00     0.016 C 
ATOM      3  C   LIG d   1      -1.624  81.135 113.769  0.00  0.00     0.038 C 
ATOM      4  C   LIG d   1      -0.276  81.479 113.948  0.00  0.00     0.028 C 
ATOM      5  C   LIG d   1       0.194  81.359 115.394  0.00  0.00    -0.047 C 
ATOM      6  C   LIG d   1      -0.184  79.959 115.930  0.00  0.00     0.091 C 
ENDROOT
BRANCH   1   7
ATOM      7  O   LIG d   1      -1.953  78.265 115.855  0.00  0.00    -0.368 OA
BRANCH   7   8
ATOM      8  C   LIG d   1      -1.158  77.425 114.983  0.00  0.00     0.119 C 
BRANCH   8   9
ATOM      9  C   LIG d   1      -2.132  76.635 114.087  0.00  0.00     0.028 C 
ATOM     10  C   LIG d   1      -2.141  77.146 112.637  0.00  0.00     0.006 C 
ENDBRANCH   8   9
BRANCH   8  11
ATOM     11  C   LIG d   1      -0.389  76.366 115.778  0.00  0.00     0.028 C 
ATOM     12  C   LIG d   1      -0.889  76.228 117.225  0.00  0.00     0.006 C 
ENDBRANCH   8  11
ENDBRANCH   7   8
ENDBRANCH   1   7
BRANCH   6  13
ATOM     13  N   LIG d   1       0.164  79.789 117.364  0.00  0.00    -0.311 N 
ATOM     14  C   LIG d   1       1.293  79.219 117.782  0.00  0.00     0.210 C 
ATOM     15  C   LIG d   1       1.446  79.125 119.303  0.00  0.00     0.109 C 
ATOM     16  O   LIG d   1       2.197  78.811 117.037  0.00  0.00    -0.276 OA
ATOM     17  H   LIG d   1      -0.499  80.121 118.037  0.00  0.00     0.149 HD
ENDBRANCH   6  13
BRANCH   5  18
ATOM     18  N   LIG d   1       1.647  81.613 115.413  0.00  0.00     0.381 N 
ATOM     19  H   LIG d   1       2.049  81.214 116.237  0.00  0.00    -0.090 HD
ATOM     20  H   LIG d   1       1.803  82.605 115.434  0.00  0.00    -0.090 HD
ATOM     21  H   LIG d   1       2.072  81.220 114.602  0.00  0.00    -0.090 HD
ENDBRANCH   5  18
BRANCH   3  22
ATOM     22  C   LIG d   1      -2.333  81.756 112.753  0.00  0.00     0.382 C 
ATOM     23  O   LIG d   1      -1.732  82.467 111.912  0.00  0.00    -0.241 OA
ATOM     24  O   LIG d   1      -3.573  81.649 112.691  0.00  0.00    -0.241 OA
ENDBRANCH   3  22
TORSDOF 7
ENDMDL
