MODEL 1
REMARK VINA RESULT:      -5.8      0.000      0.000
REMARK  7 active torsions:
REMARK  status: ('A' for Active; 'I' for Inactive)
REMARK    1  A    between atoms: C_2  and  C_3 
REMARK    2  A    between atoms: C_3  and  O_6 
REMARK    3  A    between atoms: C_3  and  C_4 
REMARK    4  A    between atoms: C_7  and  O_6 
REMARK    5  A    between atoms: C_9  and  C_10 
REMARK    6  A    between atoms: N_15  and  C_14 
REMARK    7  A    between atoms: N_20  and  C_19 
REMARK       I    between atoms: C_22  and  N_20 
ROOT
ATOM      1  C   LIG d   1      -2.629  77.559 116.085  0.00  0.00     0.161 C 
ATOM      2  C   LIG d   1      -2.973  78.463 115.066  0.00  0.00     0.016 C 
ATOM      3  C   LIG d   1      -2.284  78.547 113.834  0.00  0.00     0.038 C 
ATOM      4  C   LIG d   1      -1.292  77.621 113.475  0.00  0.00     0.028 C 
ATOM      5  C   LIG d   1      -0.571  77.011 114.673  0.00  0.00    -0.047 C 
ATOM      6  C   LIG d   1      -1.622  76.467 115.667  0.00  0.00     0.091 C 
ENDROOT
BRANCH   1   7
ATOM      7  O   LIG d   1      -3.822  76.959 116.628  0.00  0.00    -0.368 OA
BRANCH   7   8
ATOM      8  C   LIG d   1      -4.959  76.878 115.734  0.00  0.00     0.119 C 
BRANCH   8   9
ATOM      9  C   LIG d   1      -6.223  77.176 116.563  0.00  0.00     0.028 C 
ATOM     10  C   LIG d   1      -6.097  78.475 117.377  0.00  0.00     0.006 C 
ENDBRANCH   8   9
BRANCH   8  11
ATOM     11  C   LIG d   1      -5.149  75.454 115.203  0.00  0.00     0.028 C 
ATOM     12  C   LIG d   1      -6.168  75.378 114.055  0.00  0.00     0.006 C 
ENDBRANCH   8  11
ENDBRANCH   7   8
ENDBRANCH   1   7
BRANCH   6  13
ATOM     13  N   LIG d   1      -1.004  75.928 116.907  0.00  0.00    -0.311 N 
ATOM     14  C   LIG d   1      -1.474  74.866 117.558  0.00  0.00     0.210 C 
ATOM     15  C   LIG d   1      -0.699  74.489 118.825  0.00  0.00     0.109 C 
ATOM     16  O   LIG d   1      -2.439  74.180 117.190  0.00  0.00    -0.276 OA
ATOM     17  H   LIG d   1      -0.197  76.405 117.258  0.00  0.00     0.149 HD
ENDBRANCH   6  13
BRANCH   5  18
ATOM     18  N   LIG d   1       0.336  75.967 114.161  0.00  0.00     0.381 N 
ATOM     19  H   LIG d   1       0.914  75.626 114.904  0.00  0.00    -0.090 HD
ATOM     20  H   LIG d   1       0.931  76.368 113.458  0.00  0.00    -0.090 HD
ATOM     21  H   LIG d   1      -0.192  75.217 113.772  0.00  0.00    -0.090 HD
ENDBRANCH   5  18
BRANCH   3  22
ATOM     22  C   LIG d   1      -2.558  79.590 112.963  0.00  0.00     0.382 C 
ATOM     23  O   LIG d   1      -3.168  80.606 113.374  0.00  0.00    -0.241 OA
ATOM     24  O   LIG d   1      -2.241  79.508 111.761  0.00  0.00    -0.241 OA
ENDBRANCH   3  22
TORSDOF 7
ENDMDL
MODEL 2
REMARK VINA RESULT:      -5.5      1.654      4.912
REMARK  7 active torsions:
REMARK  status: ('A' for Active; 'I' for Inactive)
REMARK    1  A    between atoms: C_2  and  C_3 
REMARK    2  A    between atoms: C_3  and  O_6 
REMARK    3  A    between atoms: C_3  and  C_4 
REMARK    4  A    between atoms: C_7  and  O_6 
REMARK    5  A    between atoms: C_9  and  C_10 
REMARK    6  A    between atoms: N_15  and  C_14 
REMARK    7  A    between atoms: N_20  and  C_19 
REMARK       I    between atoms: C_22  and  N_20 
ROOT
ATOM      1  C   LIG d   1      -2.886  76.382 115.293  0.00  0.00     0.161 C 
ATOM      2  C   LIG d   1      -2.786  75.761 116.549  0.00  0.00     0.016 C 
ATOM      3  C   LIG d   1      -1.788  76.080 117.498  0.00  0.00     0.038 C 
ATOM      4  C   LIG d   1      -0.907  77.156 117.313  0.00  0.00     0.028 C 
ATOM      5  C   LIG d   1      -0.647  77.482 115.846  0.00  0.00    -0.047 C 
ATOM      6  C   LIG d   1      -2.002  77.635 115.119  0.00  0.00     0.091 C 
ENDROOT
BRANCH   1   7
ATOM      7  O   LIG d   1      -4.264  76.698 115.013  0.00  0.00    -0.368 OA
BRANCH   7   8
ATOM      8  C   LIG d   1      -5.255  75.905 115.711  0.00  0.00     0.119 C 
BRANCH   8   9
ATOM      9  C   LIG d   1      -5.877  74.936 114.688  0.00  0.00     0.028 C 
ATOM     10  C   LIG d   1      -6.575  75.671 113.531  0.00  0.00     0.006 C 
ENDBRANCH   8   9
BRANCH   8  11
ATOM     11  C   LIG d   1      -6.416  76.773 116.206  0.00  0.00     0.028 C 
ATOM     12  C   LIG d   1      -5.963  77.881 117.170  0.00  0.00     0.006 C 
ENDBRANCH   8  11
ENDBRANCH   7   8
ENDBRANCH   1   7
BRANCH   6  13
ATOM     13  N   LIG d   1      -1.839  77.871 113.661  0.00  0.00    -0.311 N 
ATOM     14  C   LIG d   1      -2.355  78.923 113.026  0.00  0.00     0.210 C 
ATOM     15  C   LIG d   1      -2.086  78.964 111.519  0.00  0.00     0.109 C 
ATOM     16  O   LIG d   1      -2.983  79.841 113.574  0.00  0.00    -0.276 OA
ATOM     17  H   LIG d   1      -1.317  77.191 113.144  0.00  0.00     0.149 HD
ENDBRANCH   6  13
BRANCH   5  18
ATOM     18  N   LIG d   1       0.176  78.705 115.800  0.00  0.00     0.381 N 
ATOM     19  H   LIG d   1       0.135  79.174 116.683  0.00  0.00    -0.090 HD
ATOM     20  H   LIG d   1      -0.196  79.321 115.099  0.00  0.00    -0.090 HD
ATOM     21  H   LIG d   1       1.120  78.473 115.583  0.00  0.00    -0.090 HD
ENDBRANCH   5  18
BRANCH   3  22
ATOM     22  C   LIG d   1      -1.638  75.293 118.629  0.00  0.00     0.382 C 
ATOM     23  O   LIG d   1      -2.023  75.719 119.745  0.00  0.00    -0.241 OA
ATOM     24  O   LIG d   1      -1.083  74.180 118.556  0.00  0.00    -0.241 OA
ENDBRANCH   3  22
TORSDOF 7
ENDMDL
MODEL 3
REMARK VINA RESULT:      -5.3      1.298      1.889
REMARK  7 active torsions:
REMARK  status: ('A' for Active; 'I' for Inactive)
REMARK    1  A    between atoms: C_2  and  C_3 
REMARK    2  A    between atoms: C_3  and  O_6 
REMARK    3  A    between atoms: C_3  and  C_4 
REMARK    4  A    between atoms: C_7  and  O_6 
REMARK    5  A    between atoms: C_9  and  C_10 
REMARK    6  A    between atoms: N_15  and  C_14 
REMARK    7  A    between atoms: N_20  and  C_19 
REMARK       I    between atoms: C_22  and  N_20 
ROOT
ATOM      1  C   LIG d   1      -3.022  77.721 115.798  0.00  0.00     0.161 C 
ATOM      2  C   LIG d   1      -3.213  78.639 114.752  0.00  0.00     0.016 C 
ATOM      3  C   LIG d   1      -2.331  78.761 113.653  0.00  0.00     0.038 C 
ATOM      4  C   LIG d   1      -1.273  77.864 113.449  0.00  0.00     0.028 C 
ATOM      5  C   LIG d   1      -0.746  77.244 114.739  0.00  0.00    -0.047 C 
ATOM      6  C   LIG d   1      -1.934  76.659 115.536  0.00  0.00     0.091 C 
ENDROOT
BRANCH   1   7
ATOM      7  O   LIG d   1      -4.274  77.086 116.125  0.00  0.00    -0.368 OA
BRANCH   7   8
ATOM      8  C   LIG d   1      -4.808  77.371 117.442  0.00  0.00     0.119 C 
BRANCH   8   9
ATOM      9  C   LIG d   1      -6.204  77.994 117.251  0.00  0.00     0.028 C 
ATOM     10  C   LIG d   1      -6.249  79.473 117.671  0.00  0.00     0.006 C 
ENDBRANCH   8   9
BRANCH   8  11
ATOM     11  C   LIG d   1      -3.980  78.441 118.159  0.00  0.00     0.028 C 
ATOM     12  C   LIG d   1      -3.316  77.920 119.444  0.00  0.00     0.006 C 
ENDBRANCH   8  11
ENDBRANCH   7   8
ENDBRANCH   1   7
BRANCH   6  13
ATOM     13  N   LIG d   1      -1.518  76.108 116.852  0.00  0.00    -0.311 N 
ATOM     14  C   LIG d   1      -1.963  74.950 117.336  0.00  0.00     0.210 C 
ATOM     15  C   LIG d   1      -1.422  74.577 118.720  0.00  0.00     0.109 C 
ATOM     16  O   LIG d   1      -2.729  74.180 116.736  0.00  0.00    -0.276 OA
ATOM     17  H   LIG d   1      -0.873  76.653 117.391  0.00  0.00     0.149 HD
ENDBRANCH   6  13
BRANCH   5  18
ATOM     18  N   LIG d   1       0.258  76.229 114.369  0.00  0.00     0.381 N 
ATOM     19  H   LIG d   1       0.970  76.647 113.804  0.00  0.00    -0.090 HD
ATOM     20  H   LIG d   1      -0.191  75.510 113.829  0.00  0.00    -0.090 HD
ATOM     21  H   LIG d   1       0.663  75.835 115.189  0.00  0.00    -0.090 HD
ENDBRANCH   5  18
BRANCH   3  22
ATOM     22  C   LIG d   1      -2.481  79.816 112.765  0.00  0.00     0.382 C 
ATOM     23  O   LIG d   1      -3.195  80.800 113.076  0.00  0.00    -0.241 OA
ATOM     24  O   LIG d   1      -1.948  79.775 111.640  0.00  0.00    -0.241 OA
ENDBRANCH   3  22
TORSDOF 7
ENDMDL
MODEL 4
REMARK VINA RESULT:      -5.3      1.164      1.174
REMARK  7 active torsions:
REMARK  status: ('A' for Active; 'I' for Inactive)
REMARK    1  A    between atoms: C_2  and  C_3 
REMARK    2  A    between atoms: C_3  and  O_6 
REMARK    3  A    between atoms: C_3  and  C_4 
REMARK    4  A    between atoms: C_7  and  O_6 
REMARK    5  A    between atoms: C_9  and  C_10 
REMARK    6  A    between atoms: N_15  and  C_14 
REMARK    7  A    between atoms: N_20  and  C_19 
REMARK       I    between atoms: C_22  and  N_20 
ROOT
ATOM      1  C   LIG d   1      -2.514  77.323 115.950  0.00  0.00     0.161 C 
ATOM      2  C   LIG d   1      -2.855  78.308 115.007  0.00  0.00     0.016 C 
ATOM      3  C   LIG d   1      -2.173  78.481 113.781  0.00  0.00     0.038 C 
ATOM      4  C   LIG d   1      -1.192  77.577 113.344  0.00  0.00     0.028 C 
ATOM      5  C   LIG d   1      -0.470  76.869 114.485  0.00  0.00    -0.047 C 
ATOM      6  C   LIG d   1      -1.520  76.259 115.442  0.00  0.00     0.091 C 
ENDROOT
BRANCH   1   7
ATOM      7  O   LIG d   1      -3.709  76.694 116.453  0.00  0.00    -0.368 OA
BRANCH   7   8
ATOM      8  C   LIG d   1      -4.763  76.462 115.486  0.00  0.00     0.119 C 
BRANCH   8   9
ATOM      9  C   LIG d   1      -6.106  76.740 116.189  0.00  0.00     0.028 C 
ATOM     10  C   LIG d   1      -6.027  77.937 117.153  0.00  0.00     0.006 C 
ENDBRANCH   8   9
BRANCH   8  11
ATOM     11  C   LIG d   1      -4.822  74.990 115.067  0.00  0.00     0.028 C 
ATOM     12  C   LIG d   1      -6.245  74.528 114.715  0.00  0.00     0.006 C 
ENDBRANCH   8  11
ENDBRANCH   7   8
ENDBRANCH   1   7
BRANCH   6  13
ATOM     13  N   LIG d   1      -0.899  75.619 116.631  0.00  0.00    -0.311 N 
ATOM     14  C   LIG d   1      -0.051  76.249 117.443  0.00  0.00     0.210 C 
ATOM     15  C   LIG d   1       0.488  75.400 118.598  0.00  0.00     0.109 C 
ATOM     16  O   LIG d   1       0.281  77.439 117.334  0.00  0.00    -0.276 OA
ATOM     17  H   LIG d   1      -1.137  74.664 116.812  0.00  0.00     0.149 HD
ENDBRANCH   6  13
BRANCH   5  18
ATOM     18  N   LIG d   1       0.425  75.860 113.888  0.00  0.00     0.381 N 
ATOM     19  H   LIG d   1       0.986  75.441 114.602  0.00  0.00    -0.090 HD
ATOM     20  H   LIG d   1       1.036  76.314 113.233  0.00  0.00    -0.090 HD
ATOM     21  H   LIG d   1      -0.112  75.161 113.424  0.00  0.00    -0.090 HD
ENDBRANCH   5  18
BRANCH   3  22
ATOM     22  C   LIG d   1      -2.442  79.591 112.995  0.00  0.00     0.382 C 
ATOM     23  O   LIG d   1      -3.151  80.522 113.448  0.00  0.00    -0.241 OA
ATOM     24  O   LIG d   1      -2.023  79.653 111.824  0.00  0.00    -0.241 OA
ENDBRANCH   3  22
TORSDOF 7
ENDMDL
MODEL 5
REMARK VINA RESULT:      -5.2      2.451      4.788
REMARK  7 active torsions:
REMARK  status: ('A' for Active; 'I' for Inactive)
REMARK    1  A    between atoms: C_2  and  C_3 
REMARK    2  A    between atoms: C_3  and  O_6 
REMARK    3  A    between atoms: C_3  and  C_4 
REMARK    4  A    between atoms: C_7  and  O_6 
REMARK    5  A    between atoms: C_9  and  C_10 
REMARK    6  A    between atoms: N_15  and  C_14 
REMARK    7  A    between atoms: N_20  and  C_19 
REMARK       I    between atoms: C_22  and  N_20 
ROOT
ATOM      1  C   LIG d   1      -2.983  77.885 115.437  0.00  0.00     0.161 C 
ATOM      2  C   LIG d   1      -1.695  78.275 115.839  0.00  0.00     0.016 C 
ATOM      3  C   LIG d   1      -0.805  77.423 116.533  0.00  0.00     0.038 C 
ATOM      4  C   LIG d   1      -1.088  76.065 116.740  0.00  0.00     0.028 C 
ATOM      5  C   LIG d   1      -2.581  75.760 116.798  0.00  0.00    -0.047 C 
ATOM      6  C   LIG d   1      -3.268  76.373 115.556  0.00  0.00     0.091 C 
ENDROOT
BRANCH   1   7
ATOM      7  O   LIG d   1      -3.233  78.337 114.092  0.00  0.00    -0.368 OA
BRANCH   7   8
ATOM      8  C   LIG d   1      -2.159  79.073 113.457  0.00  0.00     0.119 C 
BRANCH   8   9
ATOM      9  C   LIG d   1      -2.780  80.313 112.786  0.00  0.00     0.028 C 
ATOM     10  C   LIG d   1      -1.781  81.476 112.661  0.00  0.00     0.006 C 
ENDBRANCH   8   9
BRANCH   8  11
ATOM     11  C   LIG d   1      -1.530  78.267 112.316  0.00  0.00     0.028 C 
ATOM     12  C   LIG d   1      -2.426  78.200 111.069  0.00  0.00     0.006 C 
ENDBRANCH   8  11
ENDBRANCH   7   8
ENDBRANCH   1   7
BRANCH   6  13
ATOM     13  N   LIG d   1      -4.743  76.193 115.577  0.00  0.00    -0.311 N 
ATOM     14  C   LIG d   1      -5.408  75.485 114.666  0.00  0.00     0.210 C 
ATOM     15  C   LIG d   1      -6.927  75.443 114.862  0.00  0.00     0.109 C 
ATOM     16  O   LIG d   1      -4.881  74.861 113.732  0.00  0.00    -0.276 OA
ATOM     17  H   LIG d   1      -5.246  76.639 116.318  0.00  0.00     0.149 HD
ENDBRANCH   6  13
BRANCH   5  18
ATOM     18  N   LIG d   1      -2.734  74.295 116.879  0.00  0.00     0.381 N 
ATOM     19  H   LIG d   1      -1.838  73.856 116.806  0.00  0.00    -0.090 HD
ATOM     20  H   LIG d   1      -3.301  73.984 116.110  0.00  0.00    -0.090 HD
ATOM     21  H   LIG d   1      -3.165  74.044 117.742  0.00  0.00    -0.090 HD
ENDBRANCH   5  18
BRANCH   3  22
ATOM     22  C   LIG d   1       0.368  77.939 117.063  0.00  0.00     0.382 C 
ATOM     23  O   LIG d   1       1.191  77.177 117.624  0.00  0.00    -0.241 OA
ATOM     24  O   LIG d   1       0.592  79.164 117.026  0.00  0.00    -0.241 OA
ENDBRANCH   3  22
TORSDOF 7
ENDMDL
MODEL 6
REMARK VINA RESULT:      -5.0      2.477      4.987
REMARK  7 active torsions:
REMARK  status: ('A' for Active; 'I' for Inactive)
REMARK    1  A    between atoms: C_2  and  C_3 
REMARK    2  A    between atoms: C_3  and  O_6 
REMARK    3  A    between atoms: C_3  and  C_4 
REMARK    4  A    between atoms: C_7  and  O_6 
REMARK    5  A    between atoms: C_9  and  C_10 
REMARK    6  A    between atoms: N_15  and  C_14 
REMARK    7  A    between atoms: N_20  and  C_19 
REMARK       I    between atoms: C_22  and  N_20 
ROOT
ATOM      1  C   LIG d   1      -1.680  77.921 114.767  0.00  0.00     0.161 C 
ATOM      2  C   LIG d   1      -2.813  77.280 114.239  0.00  0.00     0.016 C 
ATOM      3  C   LIG d   1      -3.748  76.574 115.030  0.00  0.00     0.038 C 
ATOM      4  C   LIG d   1      -3.694  76.589 116.432  0.00  0.00     0.028 C 
ATOM      5  C   LIG d   1      -2.287  76.799 116.981  0.00  0.00    -0.047 C 
ATOM      6  C   LIG d   1      -1.664  78.042 116.306  0.00  0.00     0.091 C 
ENDROOT
BRANCH   1   7
ATOM      7  O   LIG d   1      -1.526  79.219 114.161  0.00  0.00    -0.368 OA
BRANCH   7   8
ATOM      8  C   LIG d   1      -2.285  79.451 112.949  0.00  0.00     0.119 C 
BRANCH   8   9
ATOM      9  C   LIG d   1      -1.329  79.247 111.758  0.00  0.00     0.028 C 
ATOM     10  C   LIG d   1      -1.895  78.272 110.712  0.00  0.00     0.006 C 
ENDBRANCH   8   9
BRANCH   8  11
ATOM     11  C   LIG d   1      -2.749  80.908 112.852  0.00  0.00     0.028 C 
ATOM     12  C   LIG d   1      -1.591  81.886 112.594  0.00  0.00     0.006 C 
ENDBRANCH   8  11
ENDBRANCH   7   8
ENDBRANCH   1   7
BRANCH   6  13
ATOM     13  N   LIG d   1      -0.257  78.270 116.724  0.00  0.00    -0.311 N 
ATOM     14  C   LIG d   1       0.088  79.062 117.738  0.00  0.00     0.210 C 
ATOM     15  C   LIG d   1       1.595  79.173 117.989  0.00  0.00     0.109 C 
ATOM     16  O   LIG d   1      -0.713  79.658 118.473  0.00  0.00    -0.276 OA
ATOM     17  H   LIG d   1       0.456  77.800 116.201  0.00  0.00     0.149 HD
ENDBRANCH   6  13
BRANCH   5  18
ATOM     18  N   LIG d   1      -2.395  76.931 118.447  0.00  0.00     0.381 N 
ATOM     19  H   LIG d   1      -3.236  76.492 118.765  0.00  0.00    -0.090 HD
ATOM     20  H   LIG d   1      -2.440  77.907 118.683  0.00  0.00    -0.090 HD
ATOM     21  H   LIG d   1      -1.606  76.511 118.886  0.00  0.00    -0.090 HD
ENDBRANCH   5  18
BRANCH   3  22
ATOM     22  C   LIG d   1      -4.729  75.810 114.417  0.00  0.00     0.382 C 
ATOM     23  O   LIG d   1      -4.986  74.659 114.846  0.00  0.00    -0.241 OA
ATOM     24  O   LIG d   1      -5.330  76.239 113.414  0.00  0.00    -0.241 OA
ENDBRANCH   3  22
TORSDOF 7
ENDMDL
MODEL 7
REMARK VINA RESULT:      -4.8      1.194      2.038
REMARK  7 active torsions:
REMARK  status: ('A' for Active; 'I' for Inactive)
REMARK    1  A    between atoms: C_2  and  C_3 
REMARK    2  A    between atoms: C_3  and  O_6 
REMARK    3  A    between atoms: C_3  and  C_4 
REMARK    4  A    between atoms: C_7  and  O_6 
REMARK    5  A    between atoms: C_9  and  C_10 
REMARK    6  A    between atoms: N_15  and  C_14 
REMARK    7  A    between atoms: N_20  and  C_19 
REMARK       I    between atoms: C_22  and  N_20 
ROOT
ATOM      1  C   LIG d   1      -3.330  76.577 114.766  0.00  0.00     0.161 C 
ATOM      2  C   LIG d   1      -3.405  77.706 113.932  0.00  0.00     0.016 C 
ATOM      3  C   LIG d   1      -2.276  78.301 113.325  0.00  0.00     0.038 C 
ATOM      4  C   LIG d   1      -1.004  77.713 113.388  0.00  0.00     0.028 C 
ATOM      5  C   LIG d   1      -0.794  76.857 114.632  0.00  0.00    -0.047 C 
ATOM      6  C   LIG d   1      -1.966  75.857 114.757  0.00  0.00     0.091 C 
ENDROOT
BRANCH   1   7
ATOM      7  O   LIG d   1      -4.387  75.654 114.435  0.00  0.00    -0.368 OA
BRANCH   7   8
ATOM      8  C   LIG d   1      -5.452  75.529 115.409  0.00  0.00     0.119 C 
BRANCH   8   9
ATOM      9  C   LIG d   1      -6.773  75.365 114.632  0.00  0.00     0.028 C 
ATOM     10  C   LIG d   1      -6.675  75.893 113.191  0.00  0.00     0.006 C 
ENDBRANCH   8   9
BRANCH   8  11
ATOM     11  C   LIG d   1      -5.617  76.815 116.223  0.00  0.00     0.028 C 
ATOM     12  C   LIG d   1      -7.017  76.953 116.842  0.00  0.00     0.006 C 
ENDBRANCH   8  11
ENDBRANCH   7   8
ENDBRANCH   1   7
BRANCH   6  13
ATOM     13  N   LIG d   1      -1.882  75.037 115.994  0.00  0.00    -0.311 N 
ATOM     14  C   LIG d   1      -1.947  75.552 117.220  0.00  0.00     0.210 C 
ATOM     15  C   LIG d   1      -1.820  74.532 118.357  0.00  0.00     0.109 C 
ATOM     16  O   LIG d   1      -2.130  76.752 117.475  0.00  0.00    -0.276 OA
ATOM     17  H   LIG d   1      -1.765  74.049 115.879  0.00  0.00     0.149 HD
ENDBRANCH   6  13
BRANCH   5  18
ATOM     18  N   LIG d   1       0.519  76.196 114.503  0.00  0.00     0.381 N 
ATOM     19  H   LIG d   1       0.985  76.192 115.388  0.00  0.00    -0.090 HD
ATOM     20  H   LIG d   1       1.081  76.716 113.853  0.00  0.00    -0.090 HD
ATOM     21  H   LIG d   1       0.400  75.262 114.177  0.00  0.00    -0.090 HD
ENDBRANCH   5  18
BRANCH   3  22
ATOM     22  C   LIG d   1      -2.407  79.520 112.677  0.00  0.00     0.382 C 
ATOM     23  O   LIG d   1      -1.719  79.764 111.656  0.00  0.00    -0.241 OA
ATOM     24  O   LIG d   1      -3.171  80.395 113.125  0.00  0.00    -0.241 OA
ENDBRANCH   3  22
TORSDOF 7
ENDMDL
MODEL 8
REMARK VINA RESULT:      -4.6      1.937      2.553
REMARK  7 active torsions:
REMARK  status: ('A' for Active; 'I' for Inactive)
REMARK    1  A    between atoms: C_2  and  C_3 
REMARK    2  A    between atoms: C_3  and  O_6 
REMARK    3  A    between atoms: C_3  and  C_4 
REMARK    4  A    between atoms: C_7  and  O_6 
REMARK    5  A    between atoms: C_9  and  C_10 
REMARK    6  A    between atoms: N_15  and  C_14 
REMARK    7  A    between atoms: N_20  and  C_19 
REMARK       I    between atoms: C_22  and  N_20 
ROOT
ATOM      1  C   LIG d   1      -2.884  78.151 115.997  0.00  0.00     0.161 C 
ATOM      2  C   LIG d   1      -3.158  78.792 114.777  0.00  0.00     0.016 C 
ATOM      3  C   LIG d   1      -2.353  78.647 113.624  0.00  0.00     0.038 C 
ATOM      4  C   LIG d   1      -1.296  77.726 113.569  0.00  0.00     0.028 C 
ATOM      5  C   LIG d   1      -0.676  77.432 114.931  0.00  0.00    -0.047 C 
ATOM      6  C   LIG d   1      -1.800  77.055 115.923  0.00  0.00     0.091 C 
ENDROOT
BRANCH   1   7
ATOM      7  O   LIG d   1      -4.102  77.614 116.550  0.00  0.00    -0.368 OA
BRANCH   7   8
ATOM      8  C   LIG d   1      -4.862  78.506 117.404  0.00  0.00     0.119 C 
BRANCH   8   9
ATOM      9  C   LIG d   1      -4.386  78.278 118.851  0.00  0.00     0.028 C 
ATOM     10  C   LIG d   1      -3.712  79.523 119.451  0.00  0.00     0.006 C 
ENDBRANCH   8   9
BRANCH   8  11
ATOM     11  C   LIG d   1      -6.350  78.143 117.404  0.00  0.00     0.028 C 
ATOM     12  C   LIG d   1      -7.215  79.178 118.142  0.00  0.00     0.006 C 
ENDBRANCH   8  11
ENDBRANCH   7   8
ENDBRANCH   1   7
BRANCH   6  13
ATOM     13  N   LIG d   1      -1.289  76.835 117.301  0.00  0.00    -0.311 N 
ATOM     14  C   LIG d   1      -0.715  77.788 118.031  0.00  0.00     0.210 C 
ATOM     15  C   LIG d   1      -0.241  77.343 119.418  0.00  0.00     0.109 C 
ATOM     16  O   LIG d   1      -0.581  78.969 117.675  0.00  0.00    -0.276 OA
ATOM     17  H   LIG d   1      -1.385  75.913 117.680  0.00  0.00     0.149 HD
ENDBRANCH   6  13
BRANCH   5  18
ATOM     18  N   LIG d   1       0.316  76.357 114.746  0.00  0.00     0.381 N 
ATOM     19  H   LIG d   1       0.301  75.743 115.536  0.00  0.00    -0.090 HD
ATOM     20  H   LIG d   1       1.231  76.766 114.682  0.00  0.00    -0.090 HD
ATOM     21  H   LIG d   1       0.114  75.845 113.915  0.00  0.00    -0.090 HD
ENDBRANCH   5  18
BRANCH   3  22
ATOM     22  C   LIG d   1      -2.577  79.459 112.523  0.00  0.00     0.382 C 
ATOM     23  O   LIG d   1      -2.038  79.187 111.423  0.00  0.00    -0.241 OA
ATOM     24  O   LIG d   1      -3.275  80.485 112.626  0.00  0.00    -0.241 OA
ENDBRANCH   3  22
TORSDOF 7
ENDMDL
MODEL 9
REMARK VINA RESULT:      -4.3      2.754      4.937
REMARK  7 active torsions:
REMARK  status: ('A' for Active; 'I' for Inactive)
REMARK    1  A    between atoms: C_2  and  C_3 
REMARK    2  A    between atoms: C_3  and  O_6 
REMARK    3  A    between atoms: C_3  and  C_4 
REMARK    4  A    between atoms: C_7  and  O_6 
REMARK    5  A    between atoms: C_9  and  C_10 
REMARK    6  A    between atoms: N_15  and  C_14 
REMARK    7  A    between atoms: N_20  and  C_19 
REMARK       I    between atoms: C_22  and  N_20 
ROOT
ATOM      1  C   LIG d   1      -3.149  77.549 117.688  0.00  0.00     0.161 C 
ATOM      2  C   LIG d   1      -4.353  78.108 118.148  0.00  0.00     0.016 C 
ATOM      3  C   LIG d   1      -5.581  77.984 117.458  0.00  0.00     0.038 C 
ATOM      4  C   LIG d   1      -5.720  77.159 116.332  0.00  0.00     0.028 C 
ATOM      5  C   LIG d   1      -4.424  76.984 115.547  0.00  0.00    -0.047 C 
ATOM      6  C   LIG d   1      -3.303  76.553 116.520  0.00  0.00     0.091 C 
ENDROOT
BRANCH   1   7
ATOM      7  O   LIG d   1      -2.448  76.930 118.785  0.00  0.00    -0.368 OA
BRANCH   7   8
ATOM      8  C   LIG d   1      -1.202  77.556 119.179  0.00  0.00     0.119 C 
BRANCH   8   9
ATOM      9  C   LIG d   1      -1.067  78.864 118.376  0.00  0.00     0.028 C 
ATOM     10  C   LIG d   1      -0.959  80.101 119.283  0.00  0.00     0.006 C 
ENDBRANCH   8   9
BRANCH   8  11
ATOM     11  C   LIG d   1       0.003  76.704 118.771  0.00  0.00     0.028 C 
ATOM     12  C   LIG d   1      -0.296  75.197 118.797  0.00  0.00     0.006 C 
ENDBRANCH   8  11
ENDBRANCH   7   8
ENDBRANCH   1   7
BRANCH   6  13
ATOM     13  N   LIG d   1      -1.982  76.440 115.848  0.00  0.00    -0.311 N 
ATOM     14  C   LIG d   1      -1.551  75.325 115.261  0.00  0.00     0.210 C 
ATOM     15  C   LIG d   1      -0.151  75.419 114.645  0.00  0.00     0.109 C 
ATOM     16  O   LIG d   1      -2.208  74.278 115.163  0.00  0.00    -0.276 OA
ATOM     17  H   LIG d   1      -1.397  77.253 115.853  0.00  0.00     0.149 HD
ENDBRANCH   6  13
BRANCH   5  18
ATOM     18  N   LIG d   1      -4.678  75.995 114.483  0.00  0.00     0.381 N 
ATOM     19  H   LIG d   1      -5.127  75.188 114.870  0.00  0.00    -0.090 HD
ATOM     20  H   LIG d   1      -3.799  75.708 114.089  0.00  0.00    -0.090 HD
ATOM     21  H   LIG d   1      -5.253  76.396 113.775  0.00  0.00    -0.090 HD
ENDBRANCH   5  18
BRANCH   3  22
ATOM     22  C   LIG d   1      -6.679  78.723 117.873  0.00  0.00     0.382 C 
ATOM     23  O   LIG d   1      -6.802  79.919 117.514  0.00  0.00    -0.241 OA
ATOM     24  O   LIG d   1      -7.526  78.222 118.637  0.00  0.00    -0.241 OA
ENDBRANCH   3  22
TORSDOF 7
ENDMDL
