MODEL 1
REMARK VINA RESULT:      -5.8      0.000      0.000
REMARK  7 active torsions:
REMARK  status: ('A' for Active; 'I' for Inactive)
REMARK    1  A    between atoms: C_2  and  C_3 
REMARK    2  A    between atoms: C_3  and  O_6 
REMARK    3  A    between atoms: C_3  and  C_4 
REMARK    4  A    between atoms: C_7  and  O_6 
REMARK    5  A    between atoms: C_9  and  C_10 
REMARK    6  A    between atoms: N_15  and  C_14 
REMARK    7  A    between atoms: N_20  and  C_19 
REMARK       I    between atoms: C_22  and  N_20 
ROOT
ATOM      1  C   LIG d   1      -2.535  78.063 114.594  0.00  0.00     0.161 C 
ATOM      2  C   LIG d   1      -2.809  79.218 113.842  0.00  0.00     0.016 C 
ATOM      3  C   LIG d   1      -1.836  80.197 113.538  0.00  0.00     0.038 C 
ATOM      4  C   LIG d   1      -0.478  80.012 113.839  0.00  0.00     0.028 C 
ATOM      5  C   LIG d   1      -0.242  79.100 115.038  0.00  0.00    -0.047 C 
ATOM      6  C   LIG d   1      -1.036  77.789 114.836  0.00  0.00     0.091 C 
ENDROOT
BRANCH   1   7
ATOM      7  O   LIG d   1      -3.160  76.920 113.979  0.00  0.00    -0.368 OA
BRANCH   7   8
ATOM      8  C   LIG d   1      -4.383  76.451 114.600  0.00  0.00     0.119 C 
BRANCH   8   9
ATOM      9  C   LIG d   1      -4.490  77.127 115.980  0.00  0.00     0.028 C 
ATOM     10  C   LIG d   1      -5.834  77.848 116.177  0.00  0.00     0.006 C 
ENDBRANCH   8   9
BRANCH   8  11
ATOM     11  C   LIG d   1      -4.319  74.948 114.889  0.00  0.00     0.028 C 
ATOM     12  C   LIG d   1      -5.690  74.352 115.247  0.00  0.00     0.006 C 
ENDBRANCH   8  11
ENDBRANCH   7   8
ENDBRANCH   1   7
BRANCH   6  13
ATOM     13  N   LIG d   1      -0.928  76.875 116.002  0.00  0.00    -0.311 N 
ATOM     14  C   LIG d   1      -0.755  75.559 115.890  0.00  0.00     0.210 C 
ATOM     15  C   LIG d   1      -0.689  74.799 117.218  0.00  0.00     0.109 C 
ATOM     16  O   LIG d   1      -0.617  74.954 114.816  0.00  0.00    -0.276 OA
ATOM     17  H   LIG d   1      -0.998  77.287 116.912  0.00  0.00     0.149 HD
ENDBRANCH   6  13
BRANCH   5  18
ATOM     18  N   LIG d   1       1.212  78.883 115.154  0.00  0.00     0.381 N 
ATOM     19  H   LIG d   1       1.465  78.788 116.118  0.00  0.00    -0.090 HD
ATOM     20  H   LIG d   1       1.691  79.684 114.780  0.00  0.00    -0.090 HD
ATOM     21  H   LIG d   1       1.476  78.065 114.652  0.00  0.00    -0.090 HD
ENDBRANCH   5  18
BRANCH   3  22
ATOM     22  C   LIG d   1      -2.225  81.396 112.961  0.00  0.00     0.382 C 
ATOM     23  O   LIG d   1      -1.403  82.339 112.860  0.00  0.00    -0.241 OA
ATOM     24  O   LIG d   1      -3.399  81.563 112.580  0.00  0.00    -0.241 OA
ENDBRANCH   3  22
TORSDOF 7
ENDMDL
MODEL 2
REMARK VINA RESULT:      -5.6      1.552      2.119
REMARK  7 active torsions:
REMARK  status: ('A' for Active; 'I' for Inactive)
REMARK    1  A    between atoms: C_2  and  C_3 
REMARK    2  A    between atoms: C_3  and  O_6 
REMARK    3  A    between atoms: C_3  and  C_4 
REMARK    4  A    between atoms: C_7  and  O_6 
REMARK    5  A    between atoms: C_9  and  C_10 
REMARK    6  A    between atoms: N_15  and  C_14 
REMARK    7  A    between atoms: N_20  and  C_19 
REMARK       I    between atoms: C_22  and  N_20 
ROOT
ATOM      1  C   LIG d   1      -2.370  78.818 115.900  0.00  0.00     0.161 C 
ATOM      2  C   LIG d   1      -2.606  79.971 115.133  0.00  0.00     0.016 C 
ATOM      3  C   LIG d   1      -2.340  80.051 113.747  0.00  0.00     0.038 C 
ATOM      4  C   LIG d   1      -1.959  78.928 112.999  0.00  0.00     0.028 C 
ATOM      5  C   LIG d   1      -1.224  77.874 113.820  0.00  0.00    -0.047 C 
ATOM      6  C   LIG d   1      -2.059  77.548 115.080  0.00  0.00     0.091 C 
ENDROOT
BRANCH   1   7
ATOM      7  O   LIG d   1      -3.484  78.583 116.784  0.00  0.00    -0.368 OA
BRANCH   7   8
ATOM      8  C   LIG d   1      -4.802  78.708 116.196  0.00  0.00     0.119 C 
BRANCH   8   9
ATOM      9  C   LIG d   1      -5.592  79.724 117.043  0.00  0.00     0.028 C 
ATOM     10  C   LIG d   1      -6.923  79.151 117.558  0.00  0.00     0.006 C 
ENDBRANCH   8   9
BRANCH   8  11
ATOM     11  C   LIG d   1      -5.586  77.396 116.302  0.00  0.00     0.028 C 
ATOM     12  C   LIG d   1      -5.645  76.629 114.971  0.00  0.00     0.006 C 
ENDBRANCH   8  11
ENDBRANCH   7   8
ENDBRANCH   1   7
BRANCH   6  13
ATOM     13  N   LIG d   1      -1.373  76.587 115.982  0.00  0.00    -0.311 N 
ATOM     14  C   LIG d   1      -1.605  75.276 115.970  0.00  0.00     0.210 C 
ATOM     15  C   LIG d   1      -0.805  74.467 116.996  0.00  0.00     0.109 C 
ATOM     16  O   LIG d   1      -2.375  74.701 115.185  0.00  0.00    -0.276 OA
ATOM     17  H   LIG d   1      -0.709  76.964 116.630  0.00  0.00     0.149 HD
ENDBRANCH   6  13
BRANCH   5  18
ATOM     18  N   LIG d   1      -1.009  76.702 112.951  0.00  0.00     0.381 N 
ATOM     19  H   LIG d   1      -0.243  76.876 112.331  0.00  0.00    -0.090 HD
ATOM     20  H   LIG d   1      -1.834  76.551 112.398  0.00  0.00    -0.090 HD
ATOM     21  H   LIG d   1      -0.820  75.896 113.506  0.00  0.00    -0.090 HD
ENDBRANCH   5  18
BRANCH   3  22
ATOM     22  C   LIG d   1      -2.417  81.277 113.102  0.00  0.00     0.382 C 
ATOM     23  O   LIG d   1      -3.450  81.584 112.461  0.00  0.00    -0.241 OA
ATOM     24  O   LIG d   1      -1.449  82.060 113.118  0.00  0.00    -0.241 OA
ENDBRANCH   3  22
TORSDOF 7
ENDMDL
MODEL 3
REMARK VINA RESULT:      -5.6      2.256      3.432
REMARK  7 active torsions:
REMARK  status: ('A' for Active; 'I' for Inactive)
REMARK    1  A    between atoms: C_2  and  C_3 
REMARK    2  A    between atoms: C_3  and  O_6 
REMARK    3  A    between atoms: C_3  and  C_4 
REMARK    4  A    between atoms: C_7  and  O_6 
REMARK    5  A    between atoms: C_9  and  C_10 
REMARK    6  A    between atoms: N_15  and  C_14 
REMARK    7  A    between atoms: N_20  and  C_19 
REMARK       I    between atoms: C_22  and  N_20 
ROOT
ATOM      1  C   LIG d   1      -2.312  79.745 114.488  0.00  0.00     0.161 C 
ATOM      2  C   LIG d   1      -1.831  80.893 113.837  0.00  0.00     0.016 C 
ATOM      3  C   LIG d   1      -1.116  80.856 112.618  0.00  0.00     0.038 C 
ATOM      4  C   LIG d   1      -0.963  79.670 111.885  0.00  0.00     0.028 C 
ATOM      5  C   LIG d   1      -0.993  78.414 112.750  0.00  0.00    -0.047 C 
ATOM      6  C   LIG d   1      -2.252  78.453 113.646  0.00  0.00     0.091 C 
ENDROOT
BRANCH   1   7
ATOM      7  O   LIG d   1      -3.655  79.975 114.957  0.00  0.00    -0.368 OA
BRANCH   7   8
ATOM      8  C   LIG d   1      -3.782  80.443 116.322  0.00  0.00     0.119 C 
BRANCH   8   9
ATOM      9  C   LIG d   1      -2.818  79.610 117.188  0.00  0.00     0.028 C 
ATOM     10  C   LIG d   1      -3.514  78.411 117.854  0.00  0.00     0.006 C 
ENDBRANCH   8   9
BRANCH   8  11
ATOM     11  C   LIG d   1      -5.179  80.158 116.881  0.00  0.00     0.028 C 
ATOM     12  C   LIG d   1      -5.922  81.434 117.307  0.00  0.00     0.006 C 
ENDBRANCH   8  11
ENDBRANCH   7   8
ENDBRANCH   1   7
BRANCH   6  13
ATOM     13  N   LIG d   1      -2.315  77.302 114.585  0.00  0.00    -0.311 N 
ATOM     14  C   LIG d   1      -3.222  76.331 114.495  0.00  0.00     0.210 C 
ATOM     15  C   LIG d   1      -3.122  75.250 115.575  0.00  0.00     0.109 C 
ATOM     16  O   LIG d   1      -4.081  76.246 113.604  0.00  0.00    -0.276 OA
ATOM     17  H   LIG d   1      -1.635  77.275 115.320  0.00  0.00     0.149 HD
ENDBRANCH   6  13
BRANCH   5  18
ATOM     18  N   LIG d   1      -0.963  77.249 111.846  0.00  0.00     0.381 N 
ATOM     19  H   LIG d   1      -1.881  77.072 111.491  0.00  0.00    -0.090 HD
ATOM     20  H   LIG d   1      -0.664  76.442 112.365  0.00  0.00    -0.090 HD
ATOM     21  H   LIG d   1      -0.335  77.419 111.091  0.00  0.00    -0.090 HD
ENDBRANCH   5  18
BRANCH   3  22
ATOM     22  C   LIG d   1      -0.509  82.008 112.141  0.00  0.00     0.382 C 
ATOM     23  O   LIG d   1      -0.906  82.527 111.070  0.00  0.00    -0.241 OA
ATOM     24  O   LIG d   1       0.458  82.509 112.745  0.00  0.00    -0.241 OA
ENDBRANCH   3  22
TORSDOF 7
ENDMDL
MODEL 4
REMARK VINA RESULT:      -5.4      2.986      5.876
REMARK  7 active torsions:
REMARK  status: ('A' for Active; 'I' for Inactive)
REMARK    1  A    between atoms: C_2  and  C_3 
REMARK    2  A    between atoms: C_3  and  O_6 
REMARK    3  A    between atoms: C_3  and  C_4 
REMARK    4  A    between atoms: C_7  and  O_6 
REMARK    5  A    between atoms: C_9  and  C_10 
REMARK    6  A    between atoms: N_15  and  C_14 
REMARK    7  A    between atoms: N_20  and  C_19 
REMARK       I    between atoms: C_22  and  N_20 
ROOT
ATOM      1  C   LIG d   1      -1.660  80.289 113.122  0.00  0.00     0.161 C 
ATOM      2  C   LIG d   1      -2.442  79.242 113.637  0.00  0.00     0.016 C 
ATOM      3  C   LIG d   1      -2.481  77.948 113.068  0.00  0.00     0.038 C 
ATOM      4  C   LIG d   1      -1.619  77.569 112.028  0.00  0.00     0.028 C 
ATOM      5  C   LIG d   1      -1.178  78.736 111.152  0.00  0.00    -0.047 C 
ATOM      6  C   LIG d   1      -0.630  79.864 112.056  0.00  0.00     0.091 C 
ENDROOT
BRANCH   1   7
ATOM      7  O   LIG d   1      -1.006  80.987 114.201  0.00  0.00    -0.368 OA
BRANCH   7   8
ATOM      8  C   LIG d   1      -0.546  80.167 115.304  0.00  0.00     0.119 C 
BRANCH   8   9
ATOM      9  C   LIG d   1      -0.880  80.916 116.608  0.00  0.00     0.028 C 
ATOM     10  C   LIG d   1      -2.250  80.516 117.181  0.00  0.00     0.006 C 
ENDBRANCH   8   9
BRANCH   8  11
ATOM     11  C   LIG d   1       0.979  80.026 115.295  0.00  0.00     0.028 C 
ATOM     12  C   LIG d   1       1.683  81.217 114.626  0.00  0.00     0.006 C 
ENDBRANCH   8  11
ENDBRANCH   7   8
ENDBRANCH   1   7
BRANCH   6  13
ATOM     13  N   LIG d   1      -0.254  81.077 111.284  0.00  0.00    -0.311 N 
ATOM     14  C   LIG d   1       0.985  81.321 110.859  0.00  0.00     0.210 C 
ATOM     15  C   LIG d   1       1.160  82.639 110.099  0.00  0.00     0.109 C 
ATOM     16  O   LIG d   1       1.949  80.556 111.012  0.00  0.00    -0.276 OA
ATOM     17  H   LIG d   1      -0.981  81.737 111.089  0.00  0.00     0.149 HD
ENDBRANCH   6  13
BRANCH   5  18
ATOM     18  N   LIG d   1      -0.177  78.223 110.197  0.00  0.00     0.381 N 
ATOM     19  H   LIG d   1       0.700  78.097 110.660  0.00  0.00    -0.090 HD
ATOM     20  H   LIG d   1      -0.052  78.898 109.463  0.00  0.00    -0.090 HD
ATOM     21  H   LIG d   1      -0.486  77.357 109.812  0.00  0.00    -0.090 HD
ENDBRANCH   5  18
BRANCH   3  22
ATOM     22  C   LIG d   1      -3.418  77.029 113.514  0.00  0.00     0.382 C 
ATOM     23  O   LIG d   1      -3.075  76.114 114.301  0.00  0.00    -0.241 OA
ATOM     24  O   LIG d   1      -4.594  77.076 113.105  0.00  0.00    -0.241 OA
ENDBRANCH   3  22
TORSDOF 7
ENDMDL
MODEL 5
REMARK VINA RESULT:      -5.0      2.662      3.671
REMARK  7 active torsions:
REMARK  status: ('A' for Active; 'I' for Inactive)
REMARK    1  A    between atoms: C_2  and  C_3 
REMARK    2  A    between atoms: C_3  and  O_6 
REMARK    3  A    between atoms: C_3  and  C_4 
REMARK    4  A    between atoms: C_7  and  O_6 
REMARK    5  A    between atoms: C_9  and  C_10 
REMARK    6  A    between atoms: N_15  and  C_14 
REMARK    7  A    between atoms: N_20  and  C_19 
REMARK       I    between atoms: C_22  and  N_20 
ROOT
ATOM      1  C   LIG d   1      -3.404  78.333 114.519  0.00  0.00     0.161 C 
ATOM      2  C   LIG d   1      -2.919  77.806 113.311  0.00  0.00     0.016 C 
ATOM      3  C   LIG d   1      -1.772  78.303 112.650  0.00  0.00     0.038 C 
ATOM      4  C   LIG d   1      -0.940  79.268 113.234  0.00  0.00     0.028 C 
ATOM      5  C   LIG d   1      -1.667  80.183 114.214  0.00  0.00    -0.047 C 
ATOM      6  C   LIG d   1      -2.446  79.313 115.228  0.00  0.00     0.091 C 
ENDROOT
BRANCH   1   7
ATOM      7  O   LIG d   1      -3.770  77.259 115.409  0.00  0.00    -0.368 OA
BRANCH   7   8
ATOM      8  C   LIG d   1      -4.038  75.979 114.786  0.00  0.00     0.119 C 
BRANCH   8   9
ATOM      9  C   LIG d   1      -5.545  75.697 114.937  0.00  0.00     0.028 C 
ATOM     10  C   LIG d   1      -5.831  74.243 115.348  0.00  0.00     0.006 C 
ENDBRANCH   8   9
BRANCH   8  11
ATOM     11  C   LIG d   1      -3.335  74.840 115.530  0.00  0.00     0.028 C 
ATOM     12  C   LIG d   1      -1.886  75.181 115.911  0.00  0.00     0.006 C 
ENDBRANCH   8  11
ENDBRANCH   7   8
ENDBRANCH   1   7
BRANCH   6  13
ATOM     13  N   LIG d   1      -3.253  80.129 116.172  0.00  0.00    -0.311 N 
ATOM     14  C   LIG d   1      -2.834  80.473 117.388  0.00  0.00     0.210 C 
ATOM     15  C   LIG d   1      -3.831  81.300 118.206  0.00  0.00     0.109 C 
ATOM     16  O   LIG d   1      -1.717  80.201 117.854  0.00  0.00    -0.276 OA
ATOM     17  H   LIG d   1      -4.160  80.420 115.862  0.00  0.00     0.149 HD
ENDBRANCH   6  13
BRANCH   5  18
ATOM     18  N   LIG d   1      -0.657  81.048 114.851  0.00  0.00     0.381 N 
ATOM     19  H   LIG d   1      -0.456  81.828 114.256  0.00  0.00    -0.090 HD
ATOM     20  H   LIG d   1       0.189  80.521 114.977  0.00  0.00    -0.090 HD
ATOM     21  H   LIG d   1      -0.991  81.371 115.732  0.00  0.00    -0.090 HD
ENDBRANCH   5  18
BRANCH   3  22
ATOM     22  C   LIG d   1      -1.471  77.860 111.371  0.00  0.00     0.382 C 
ATOM     23  O   LIG d   1      -1.362  76.631 111.142  0.00  0.00    -0.241 OA
ATOM     24  O   LIG d   1      -1.262  78.675 110.453  0.00  0.00    -0.241 OA
ENDBRANCH   3  22
TORSDOF 7
ENDMDL
MODEL 6
REMARK VINA RESULT:      -4.9      2.584      4.041
REMARK  7 active torsions:
REMARK  status: ('A' for Active; 'I' for Inactive)
REMARK    1  A    between atoms: C_2  and  C_3 
REMARK    2  A    between atoms: C_3  and  O_6 
REMARK    3  A    between atoms: C_3  and  C_4 
REMARK    4  A    between atoms: C_7  and  O_6 
REMARK    5  A    between atoms: C_9  and  C_10 
REMARK    6  A    between atoms: N_15  and  C_14 
REMARK    7  A    between atoms: N_20  and  C_19 
REMARK       I    between atoms: C_22  and  N_20 
ROOT
ATOM      1  C   LIG d   1      -2.824  79.438 115.781  0.00  0.00     0.161 C 
ATOM      2  C   LIG d   1      -1.741  80.324 115.903  0.00  0.00     0.016 C 
ATOM      3  C   LIG d   1      -0.559  80.219 115.135  0.00  0.00     0.038 C 
ATOM      4  C   LIG d   1      -0.441  79.305 114.078  0.00  0.00     0.028 C 
ATOM      5  C   LIG d   1      -1.308  78.063 114.251  0.00  0.00    -0.047 C 
ATOM      6  C   LIG d   1      -2.759  78.503 114.556  0.00  0.00     0.091 C 
ENDROOT
BRANCH   1   7
ATOM      7  O   LIG d   1      -4.062  80.177 115.781  0.00  0.00    -0.368 OA
BRANCH   7   8
ATOM      8  C   LIG d   1      -4.802  80.181 117.027  0.00  0.00     0.119 C 
BRANCH   8   9
ATOM      9  C   LIG d   1      -5.959  79.173 116.882  0.00  0.00     0.028 C 
ATOM     10  C   LIG d   1      -5.737  77.901 117.717  0.00  0.00     0.006 C 
ENDBRANCH   8   9
BRANCH   8  11
ATOM     11  C   LIG d   1      -5.472  81.536 117.273  0.00  0.00     0.028 C 
ATOM     12  C   LIG d   1      -6.996  81.425 117.442  0.00  0.00     0.006 C 
ENDBRANCH   8  11
ENDBRANCH   7   8
ENDBRANCH   1   7
BRANCH   6  13
ATOM     13  N   LIG d   1      -3.657  77.349 114.823  0.00  0.00    -0.311 N 
ATOM     14  C   LIG d   1      -4.452  76.810 113.900  0.00  0.00     0.210 C 
ATOM     15  C   LIG d   1      -5.311  75.640 114.390  0.00  0.00     0.109 C 
ATOM     16  O   LIG d   1      -4.503  77.168 112.714  0.00  0.00    -0.276 OA
ATOM     17  H   LIG d   1      -3.655  76.975 115.751  0.00  0.00     0.149 HD
ENDBRANCH   6  13
BRANCH   5  18
ATOM     18  N   LIG d   1      -1.193  77.263 113.017  0.00  0.00     0.381 N 
ATOM     19  H   LIG d   1      -1.094  77.870 112.228  0.00  0.00    -0.090 HD
ATOM     20  H   LIG d   1      -2.034  76.726 112.899  0.00  0.00    -0.090 HD
ATOM     21  H   LIG d   1      -0.407  76.654 113.078  0.00  0.00    -0.090 HD
ENDBRANCH   5  18
BRANCH   3  22
ATOM     22  C   LIG d   1       0.537  81.010 115.448  0.00  0.00     0.382 C 
ATOM     23  O   LIG d   1       1.616  80.860 114.826  0.00  0.00    -0.241 OA
ATOM     24  O   LIG d   1       0.473  81.839 116.375  0.00  0.00    -0.241 OA
ENDBRANCH   3  22
TORSDOF 7
ENDMDL
MODEL 7
REMARK VINA RESULT:      -4.9      1.880      3.749
REMARK  7 active torsions:
REMARK  status: ('A' for Active; 'I' for Inactive)
REMARK    1  A    between atoms: C_2  and  C_3 
REMARK    2  A    between atoms: C_3  and  O_6 
REMARK    3  A    between atoms: C_3  and  C_4 
REMARK    4  A    between atoms: C_7  and  O_6 
REMARK    5  A    between atoms: C_9  and  C_10 
REMARK    6  A    between atoms: N_15  and  C_14 
REMARK    7  A    between atoms: N_20  and  C_19 
REMARK       I    between atoms: C_22  and  N_20 
ROOT
ATOM      1  C   LIG d   1      -2.124  77.369 114.701  0.00  0.00     0.161 C 
ATOM      2  C   LIG d   1      -1.738  78.584 114.111  0.00  0.00     0.016 C 
ATOM      3  C   LIG d   1      -2.396  79.811 114.353  0.00  0.00     0.038 C 
ATOM      4  C   LIG d   1      -3.399  79.935 115.327  0.00  0.00     0.028 C 
ATOM      5  C   LIG d   1      -4.160  78.638 115.580  0.00  0.00    -0.047 C 
ATOM      6  C   LIG d   1      -3.145  77.505 115.850  0.00  0.00     0.091 C 
ENDROOT
BRANCH   1   7
ATOM      7  O   LIG d   1      -0.958  76.651 115.149  0.00  0.00    -0.368 OA
BRANCH   7   8
ATOM      8  C   LIG d   1      -0.626  76.786 116.553  0.00  0.00     0.119 C 
BRANCH   8   9
ATOM      9  C   LIG d   1       0.728  77.517 116.639  0.00  0.00     0.028 C 
ATOM     10  C   LIG d   1       0.568  79.016 116.942  0.00  0.00     0.006 C 
ENDBRANCH   8   9
BRANCH   8  11
ATOM     11  C   LIG d   1      -0.392  75.420 117.204  0.00  0.00     0.028 C 
ATOM     12  C   LIG d   1      -0.958  74.258 116.373  0.00  0.00     0.006 C 
ENDBRANCH   8  11
ENDBRANCH   7   8
ENDBRANCH   1   7
BRANCH   6  13
ATOM     13  N   LIG d   1      -3.803  76.184 116.025  0.00  0.00    -0.311 N 
ATOM     14  C   LIG d   1      -4.379  75.514 115.028  0.00  0.00     0.210 C 
ATOM     15  C   LIG d   1      -5.017  74.180 115.429  0.00  0.00     0.109 C 
ATOM     16  O   LIG d   1      -4.393  75.882 113.844  0.00  0.00    -0.276 OA
ATOM     17  H   LIG d   1      -3.811  75.796 116.948  0.00  0.00     0.149 HD
ENDBRANCH   6  13
BRANCH   5  18
ATOM     18  N   LIG d   1      -5.078  78.874 116.711  0.00  0.00     0.381 N 
ATOM     19  H   LIG d   1      -4.815  79.711 117.192  0.00  0.00    -0.090 HD
ATOM     20  H   LIG d   1      -5.006  78.105 117.354  0.00  0.00    -0.090 HD
ATOM     21  H   LIG d   1      -6.014  78.953 116.379  0.00  0.00    -0.090 HD
ENDBRANCH   5  18
BRANCH   3  22
ATOM     22  C   LIG d   1      -2.080  80.924 113.589  0.00  0.00     0.382 C 
ATOM     23  O   LIG d   1      -0.895  81.333 113.537  0.00  0.00    -0.241 OA
ATOM     24  O   LIG d   1      -2.971  81.550 112.986  0.00  0.00    -0.241 OA
ENDBRANCH   3  22
TORSDOF 7
ENDMDL
MODEL 8
REMARK VINA RESULT:      -4.8      2.974      4.834
REMARK  7 active torsions:
REMARK  status: ('A' for Active; 'I' for Inactive)
REMARK    1  A    between atoms: C_2  and  C_3 
REMARK    2  A    between atoms: C_3  and  O_6 
REMARK    3  A    between atoms: C_3  and  C_4 
REMARK    4  A    between atoms: C_7  and  O_6 
REMARK    5  A    between atoms: C_9  and  C_10 
REMARK    6  A    between atoms: N_15  and  C_14 
REMARK    7  A    between atoms: N_20  and  C_19 
REMARK       I    between atoms: C_22  and  N_20 
ROOT
ATOM      1  C   LIG d   1      -0.485  79.398 113.572  0.00  0.00     0.161 C 
ATOM      2  C   LIG d   1       0.471  80.091 112.811  0.00  0.00     0.016 C 
ATOM      3  C   LIG d   1       0.608  79.943 111.411  0.00  0.00     0.038 C 
ATOM      4  C   LIG d   1      -0.307  79.199 110.651  0.00  0.00     0.028 C 
ATOM      5  C   LIG d   1      -0.981  78.081 111.439  0.00  0.00    -0.047 C 
ATOM      6  C   LIG d   1      -1.564  78.668 112.745  0.00  0.00     0.091 C 
ENDROOT
BRANCH   1   7
ATOM      7  O   LIG d   1      -1.100  80.294 114.518  0.00  0.00    -0.368 OA
BRANCH   7   8
ATOM      8  C   LIG d   1      -0.478  80.367 115.824  0.00  0.00     0.119 C 
BRANCH   8   9
ATOM      9  C   LIG d   1      -0.086  78.933 116.230  0.00  0.00     0.028 C 
ATOM     10  C   LIG d   1      -1.183  78.235 117.051  0.00  0.00     0.006 C 
ENDBRANCH   8   9
BRANCH   8  11
ATOM     11  C   LIG d   1      -1.475  80.832 116.890  0.00  0.00     0.028 C 
ATOM     12  C   LIG d   1      -0.846  81.789 117.916  0.00  0.00     0.006 C 
ENDBRANCH   8  11
ENDBRANCH   7   8
ENDBRANCH   1   7
BRANCH   6  13
ATOM     13  N   LIG d   1      -2.168  77.625 113.615  0.00  0.00    -0.311 N 
ATOM     14  C   LIG d   1      -3.425  77.203 113.489  0.00  0.00     0.210 C 
ATOM     15  C   LIG d   1      -3.853  76.136 114.500  0.00  0.00     0.109 C 
ATOM     16  O   LIG d   1      -4.216  77.589 112.615  0.00  0.00    -0.276 OA
ATOM     17  H   LIG d   1      -1.587  77.235 114.331  0.00  0.00     0.149 HD
ENDBRANCH   6  13
BRANCH   5  18
ATOM     18  N   LIG d   1      -2.007  77.478 110.567  0.00  0.00     0.381 N 
ATOM     19  H   LIG d   1      -2.256  78.121 109.842  0.00  0.00    -0.090 HD
ATOM     20  H   LIG d   1      -2.828  77.288 111.115  0.00  0.00    -0.090 HD
ATOM     21  H   LIG d   1      -1.662  76.633 110.168  0.00  0.00    -0.090 HD
ENDBRANCH   5  18
BRANCH   3  22
ATOM     22  C   LIG d   1       1.695  80.510 110.763  0.00  0.00     0.382 C 
ATOM     23  O   LIG d   1       1.931  81.736 110.890  0.00  0.00    -0.241 OA
ATOM     24  O   LIG d   1       2.417  79.821 110.018  0.00  0.00    -0.241 OA
ENDBRANCH   3  22
TORSDOF 7
ENDMDL
MODEL 9
REMARK VINA RESULT:      -4.8      2.324      3.448
REMARK  7 active torsions:
REMARK  status: ('A' for Active; 'I' for Inactive)
REMARK    1  A    between atoms: C_2  and  C_3 
REMARK    2  A    between atoms: C_3  and  O_6 
REMARK    3  A    between atoms: C_3  and  C_4 
REMARK    4  A    between atoms: C_7  and  O_6 
REMARK    5  A    between atoms: C_9  and  C_10 
REMARK    6  A    between atoms: N_15  and  C_14 
REMARK    7  A    between atoms: N_20  and  C_19 
REMARK       I    between atoms: C_22  and  N_20 
ROOT
ATOM      1  C   LIG d   1      -0.378  79.343 114.749  0.00  0.00     0.161 C 
ATOM      2  C   LIG d   1      -0.404  80.560 114.048  0.00  0.00     0.016 C 
ATOM      3  C   LIG d   1      -0.925  80.695 112.741  0.00  0.00     0.038 C 
ATOM      4  C   LIG d   1      -1.599  79.645 112.099  0.00  0.00     0.028 C 
ATOM      5  C   LIG d   1      -1.150  78.264 112.565  0.00  0.00    -0.047 C 
ATOM      6  C   LIG d   1      -1.209  78.211 114.109  0.00  0.00     0.091 C 
ENDROOT
BRANCH   1   7
ATOM      7  O   LIG d   1      -0.789  79.556 116.114  0.00  0.00    -0.368 OA
BRANCH   7   8
ATOM      8  C   LIG d   1      -2.110  80.122 116.301  0.00  0.00     0.119 C 
BRANCH   8   9
ATOM      9  C   LIG d   1      -2.031  81.096 117.492  0.00  0.00     0.028 C 
ATOM     10  C   LIG d   1      -0.607  81.630 117.721  0.00  0.00     0.006 C 
ENDBRANCH   8   9
BRANCH   8  11
ATOM     11  C   LIG d   1      -3.121  79.050 116.719  0.00  0.00     0.028 C 
ATOM     12  C   LIG d   1      -2.546  78.055 117.739  0.00  0.00     0.006 C 
ENDBRANCH   8  11
ENDBRANCH   7   8
ENDBRANCH   1   7
BRANCH   6  13
ATOM     13  N   LIG d   1      -0.705  76.922 114.651  0.00  0.00    -0.311 N 
ATOM     14  C   LIG d   1      -1.490  75.875 114.899  0.00  0.00     0.210 C 
ATOM     15  C   LIG d   1      -0.772  74.651 115.476  0.00  0.00     0.109 C 
ATOM     16  O   LIG d   1      -2.708  75.833 114.667  0.00  0.00    -0.276 OA
ATOM     17  H   LIG d   1       0.276  76.858 114.840  0.00  0.00     0.149 HD
ENDBRANCH   6  13
BRANCH   5  18
ATOM     18  N   LIG d   1      -2.027  77.269 111.919  0.00  0.00     0.381 N 
ATOM     19  H   LIG d   1      -2.978  77.433 112.182  0.00  0.00    -0.090 HD
ATOM     20  H   LIG d   1      -1.766  76.352 112.235  0.00  0.00    -0.090 HD
ATOM     21  H   LIG d   1      -1.935  77.326 110.928  0.00  0.00    -0.090 HD
ENDBRANCH   5  18
BRANCH   3  22
ATOM     22  C   LIG d   1      -0.740  81.881 112.046  0.00  0.00     0.382 C 
ATOM     23  O   LIG d   1      -0.145  81.873 110.941  0.00  0.00    -0.241 OA
ATOM     24  O   LIG d   1      -1.121  82.963 112.530  0.00  0.00    -0.241 OA
ENDBRANCH   3  22
TORSDOF 7
ENDMDL
