MODEL 1
REMARK VINA RESULT:      -4.9      0.000      0.000
REMARK  7 active torsions:
REMARK  status: ('A' for Active; 'I' for Inactive)
REMARK    1  A    between atoms: C_2  and  C_3 
REMARK    2  A    between atoms: C_3  and  O_6 
REMARK    3  A    between atoms: C_3  and  C_4 
REMARK    4  A    between atoms: C_7  and  O_6 
REMARK    5  A    between atoms: C_9  and  C_10 
REMARK    6  A    between atoms: N_15  and  C_14 
REMARK    7  A    between atoms: N_20  and  C_19 
REMARK       I    between atoms: C_22  and  N_20 
ROOT
ATOM      1  C   LIG d   1      -2.470  78.399 114.478  0.00  0.00     0.161 C 
ATOM      2  C   LIG d   1      -2.899  79.325 113.513  0.00  0.00     0.016 C 
ATOM      3  C   LIG d   1      -2.176  80.494 113.180  0.00  0.00     0.038 C 
ATOM      4  C   LIG d   1      -0.890  80.739 113.685  0.00  0.00     0.028 C 
ATOM      5  C   LIG d   1      -0.638  80.089 115.041  0.00  0.00    -0.047 C 
ATOM      6  C   LIG d   1      -1.016  78.592 114.959  0.00  0.00     0.091 C 
ENDROOT
BRANCH   1   7
ATOM      7  O   LIG d   1      -2.661  77.058 113.986  0.00  0.00    -0.368 OA
BRANCH   7   8
ATOM      8  C   LIG d   1      -3.754  76.312 114.575  0.00  0.00     0.119 C 
BRANCH   8   9
ATOM      9  C   LIG d   1      -3.166  75.016 115.165  0.00  0.00     0.028 C 
ATOM     10  C   LIG d   1      -3.548  74.816 116.641  0.00  0.00     0.006 C 
ENDBRANCH   8   9
BRANCH   8  11
ATOM     11  C   LIG d   1      -4.755  75.855 113.510  0.00  0.00     0.028 C 
ATOM     12  C   LIG d   1      -6.172  75.654 114.071  0.00  0.00     0.006 C 
ENDBRANCH   8  11
ENDBRANCH   7   8
ENDBRANCH   1   7
BRANCH   6  13
ATOM     13  N   LIG d   1      -0.879  77.900 116.266  0.00  0.00    -0.311 N 
ATOM     14  C   LIG d   1      -0.316  76.700 116.406  0.00  0.00     0.210 C 
ATOM     15  C   LIG d   1      -0.295  76.159 117.838  0.00  0.00     0.109 C 
ATOM     16  O   LIG d   1       0.196  76.048 115.483  0.00  0.00    -0.276 OA
ATOM     17  H   LIG d   1      -1.240  78.372 117.072  0.00  0.00     0.149 HD
ENDBRANCH   6  13
BRANCH   5  18
ATOM     18  N   LIG d   1       0.780  80.308 115.384  0.00  0.00     0.381 N 
ATOM     19  H   LIG d   1       0.926  80.124 116.356  0.00  0.00    -0.090 HD
ATOM     20  H   LIG d   1       1.012  81.270 115.207  0.00  0.00    -0.090 HD
ATOM     21  H   LIG d   1       1.360  79.713 114.835  0.00  0.00    -0.090 HD
ENDBRANCH   5  18
BRANCH   3  22
ATOM     22  C   LIG d   1      -2.756  81.452 112.363  0.00  0.00     0.382 C 
ATOM     23  O   LIG d   1      -2.061  82.391 111.907  0.00  0.00    -0.241 OA
ATOM     24  O   LIG d   1      -3.976  81.414 112.113  0.00  0.00    -0.241 OA
ENDBRANCH   3  22
TORSDOF 7
ENDMDL
MODEL 2
REMARK VINA RESULT:      -4.9      3.330      6.761
REMARK  7 active torsions:
REMARK  status: ('A' for Active; 'I' for Inactive)
REMARK    1  A    between atoms: C_2  and  C_3 
REMARK    2  A    between atoms: C_3  and  O_6 
REMARK    3  A    between atoms: C_3  and  C_4 
REMARK    4  A    between atoms: C_7  and  O_6 
REMARK    5  A    between atoms: C_9  and  C_10 
REMARK    6  A    between atoms: N_15  and  C_14 
REMARK    7  A    between atoms: N_20  and  C_19 
REMARK       I    between atoms: C_22  and  N_20 
ROOT
ATOM      1  C   LIG d   1      -2.022  82.257 113.725  0.00  0.00     0.161 C 
ATOM      2  C   LIG d   1      -2.413  81.255 114.629  0.00  0.00     0.016 C 
ATOM      3  C   LIG d   1      -2.274  79.873 114.366  0.00  0.00     0.038 C 
ATOM      4  C   LIG d   1      -1.590  79.398 113.237  0.00  0.00     0.028 C 
ATOM      5  C   LIG d   1      -1.627  80.362 112.056  0.00  0.00    -0.047 C 
ATOM      6  C   LIG d   1      -1.173  81.760 112.536  0.00  0.00     0.091 C 
ENDROOT
BRANCH   1   7
ATOM      7  O   LIG d   1      -1.331  83.308 114.429  0.00  0.00    -0.368 OA
BRANCH   7   8
ATOM      8  C   LIG d   1      -0.460  82.887 115.507  0.00  0.00     0.119 C 
BRANCH   8   9
ATOM      9  C   LIG d   1      -0.670  83.863 116.680  0.00  0.00     0.028 C 
ATOM     10  C   LIG d   1      -1.300  83.180 117.906  0.00  0.00     0.006 C 
ENDBRANCH   8   9
BRANCH   8  11
ATOM     11  C   LIG d   1       1.015  83.031 115.119  0.00  0.00     0.028 C 
ATOM     12  C   LIG d   1       1.689  81.680 114.828  0.00  0.00     0.006 C 
ENDBRANCH   8  11
ENDBRANCH   7   8
ENDBRANCH   1   7
BRANCH   6  13
ATOM     13  N   LIG d   1      -1.260  82.784 111.462  0.00  0.00    -0.311 N 
ATOM     14  C   LIG d   1      -0.253  83.591 111.135  0.00  0.00     0.210 C 
ATOM     15  C   LIG d   1      -0.560  84.587 110.013  0.00  0.00     0.109 C 
ATOM     16  O   LIG d   1       0.877  83.555 111.646  0.00  0.00    -0.276 OA
ATOM     17  H   LIG d   1      -2.131  82.860 110.974  0.00  0.00     0.149 HD
ENDBRANCH   6  13
BRANCH   5  18
ATOM     18  N   LIG d   1      -0.763  79.805 110.999  0.00  0.00     0.381 N 
ATOM     19  H   LIG d   1       0.089  79.468 111.400  0.00  0.00    -0.090 HD
ATOM     20  H   LIG d   1      -0.537  80.535 110.346  0.00  0.00    -0.090 HD
ATOM     21  H   LIG d   1      -1.234  79.063 110.529  0.00  0.00    -0.090 HD
ENDBRANCH   5  18
BRANCH   3  22
ATOM     22  C   LIG d   1      -2.857  78.949 115.220  0.00  0.00     0.382 C 
ATOM     23  O   LIG d   1      -3.935  79.225 115.801  0.00  0.00    -0.241 OA
ATOM     24  O   LIG d   1      -2.297  77.861 115.451  0.00  0.00    -0.241 OA
ENDBRANCH   3  22
TORSDOF 7
ENDMDL
MODEL 3
REMARK VINA RESULT:      -4.8      1.276      1.937
REMARK  7 active torsions:
REMARK  status: ('A' for Active; 'I' for Inactive)
REMARK    1  A    between atoms: C_2  and  C_3 
REMARK    2  A    between atoms: C_3  and  O_6 
REMARK    3  A    between atoms: C_3  and  C_4 
REMARK    4  A    between atoms: C_7  and  O_6 
REMARK    5  A    between atoms: C_9  and  C_10 
REMARK    6  A    between atoms: N_15  and  C_14 
REMARK    7  A    between atoms: N_20  and  C_19 
REMARK       I    between atoms: C_22  and  N_20 
ROOT
ATOM      1  C   LIG d   1      -2.601  77.085 114.731  0.00  0.00     0.161 C 
ATOM      2  C   LIG d   1      -2.798  78.010 113.691  0.00  0.00     0.016 C 
ATOM      3  C   LIG d   1      -2.016  79.176 113.528  0.00  0.00     0.038 C 
ATOM      4  C   LIG d   1      -0.879  79.422 114.311  0.00  0.00     0.028 C 
ATOM      5  C   LIG d   1      -0.942  78.775 115.691  0.00  0.00    -0.047 C 
ATOM      6  C   LIG d   1      -1.294  77.279 115.528  0.00  0.00     0.091 C 
ENDROOT
BRANCH   1   7
ATOM      7  O   LIG d   1      -2.677  75.743 114.212  0.00  0.00    -0.368 OA
BRANCH   7   8
ATOM      8  C   LIG d   1      -3.829  74.966 114.620  0.00  0.00     0.119 C 
BRANCH   8   9
ATOM      9  C   LIG d   1      -4.867  75.045 113.484  0.00  0.00     0.028 C 
ATOM     10  C   LIG d   1      -6.132  75.817 113.896  0.00  0.00     0.006 C 
ENDBRANCH   8   9
BRANCH   8  11
ATOM     11  C   LIG d   1      -4.516  75.587 115.840  0.00  0.00     0.028 C 
ATOM     12  C   LIG d   1      -4.673  74.596 117.004  0.00  0.00     0.006 C 
ENDBRANCH   8  11
ENDBRANCH   7   8
ENDBRANCH   1   7
BRANCH   6  13
ATOM     13  N   LIG d   1      -1.458  76.590 116.835  0.00  0.00    -0.311 N 
ATOM     14  C   LIG d   1      -0.986  75.370 117.085  0.00  0.00     0.210 C 
ATOM     15  C   LIG d   1      -1.283  74.837 118.490  0.00  0.00     0.109 C 
ATOM     16  O   LIG d   1      -0.322  74.691 116.287  0.00  0.00    -0.276 OA
ATOM     17  H   LIG d   1      -1.958  77.081 117.550  0.00  0.00     0.149 HD
ENDBRANCH   6  13
BRANCH   5  18
ATOM     18  N   LIG d   1       0.362  78.994 116.346  0.00  0.00     0.381 N 
ATOM     19  H   LIG d   1       0.584  78.212 116.928  0.00  0.00    -0.090 HD
ATOM     20  H   LIG d   1       0.300  79.812 116.926  0.00  0.00    -0.090 HD
ATOM     21  H   LIG d   1       1.072  79.119 115.658  0.00  0.00    -0.090 HD
ENDBRANCH   5  18
BRANCH   3  22
ATOM     22  C   LIG d   1      -2.395  80.133 112.598  0.00  0.00     0.382 C 
ATOM     23  O   LIG d   1      -1.647  80.391 111.624  0.00  0.00    -0.241 OA
ATOM     24  O   LIG d   1      -3.454  80.772 112.745  0.00  0.00    -0.241 OA
ENDBRANCH   3  22
TORSDOF 7
ENDMDL
MODEL 4
REMARK VINA RESULT:      -4.7      2.884      6.362
REMARK  7 active torsions:
REMARK  status: ('A' for Active; 'I' for Inactive)
REMARK    1  A    between atoms: C_2  and  C_3 
REMARK    2  A    between atoms: C_3  and  O_6 
REMARK    3  A    between atoms: C_3  and  C_4 
REMARK    4  A    between atoms: C_7  and  O_6 
REMARK    5  A    between atoms: C_9  and  C_10 
REMARK    6  A    between atoms: N_15  and  C_14 
REMARK    7  A    between atoms: N_20  and  C_19 
REMARK       I    between atoms: C_22  and  N_20 
ROOT
ATOM      1  C   LIG d   1      -1.303  80.992 114.452  0.00  0.00     0.161 C 
ATOM      2  C   LIG d   1      -2.104  79.902 114.830  0.00  0.00     0.016 C 
ATOM      3  C   LIG d   1      -2.380  78.807 113.979  0.00  0.00     0.038 C 
ATOM      4  C   LIG d   1      -1.746  78.654 112.737  0.00  0.00     0.028 C 
ATOM      5  C   LIG d   1      -1.324  79.977 112.107  0.00  0.00    -0.047 C 
ATOM      6  C   LIG d   1      -0.513  80.790 113.142  0.00  0.00     0.091 C 
ENDROOT
BRANCH   1   7
ATOM      7  O   LIG d   1      -0.409  81.338 115.528  0.00  0.00    -0.368 OA
BRANCH   7   8
ATOM      8  C   LIG d   1      -0.547  82.676 116.066  0.00  0.00     0.119 C 
BRANCH   8   9
ATOM      9  C   LIG d   1      -0.688  82.548 117.595  0.00  0.00     0.028 C 
ATOM     10  C   LIG d   1      -0.338  83.853 118.328  0.00  0.00     0.006 C 
ENDBRANCH   8   9
BRANCH   8  11
ATOM     11  C   LIG d   1      -1.845  83.336 115.592  0.00  0.00     0.028 C 
ATOM     12  C   LIG d   1      -1.607  84.680 114.886  0.00  0.00     0.006 C 
ENDBRANCH   8  11
ENDBRANCH   7   8
ENDBRANCH   1   7
BRANCH   6  13
ATOM     13  N   LIG d   1      -0.132  82.134 112.635  0.00  0.00    -0.311 N 
ATOM     14  C   LIG d   1      -0.922  82.876 111.860  0.00  0.00     0.210 C 
ATOM     15  C   LIG d   1      -0.328  84.222 111.432  0.00  0.00     0.109 C 
ATOM     16  O   LIG d   1      -2.070  82.561 111.513  0.00  0.00    -0.276 OA
ATOM     17  H   LIG d   1       0.771  82.481 112.894  0.00  0.00     0.149 HD
ENDBRANCH   6  13
BRANCH   5  18
ATOM     18  N   LIG d   1      -0.555  79.664 110.887  0.00  0.00     0.381 N 
ATOM     19  H   LIG d   1      -0.267  78.706 110.905  0.00  0.00    -0.090 HD
ATOM     20  H   LIG d   1       0.268  80.240 110.865  0.00  0.00    -0.090 HD
ATOM     21  H   LIG d   1      -1.112  79.836 110.079  0.00  0.00    -0.090 HD
ENDBRANCH   5  18
BRANCH   3  22
ATOM     22  C   LIG d   1      -3.331  77.869 114.353  0.00  0.00     0.382 C 
ATOM     23  O   LIG d   1      -3.619  76.925 113.578  0.00  0.00    -0.241 OA
ATOM     24  O   LIG d   1      -3.936  77.980 115.436  0.00  0.00    -0.241 OA
ENDBRANCH   3  22
TORSDOF 7
ENDMDL
MODEL 5
REMARK VINA RESULT:      -4.7      2.948      4.162
REMARK  7 active torsions:
REMARK  status: ('A' for Active; 'I' for Inactive)
REMARK    1  A    between atoms: C_2  and  C_3 
REMARK    2  A    between atoms: C_3  and  O_6 
REMARK    3  A    between atoms: C_3  and  C_4 
REMARK    4  A    between atoms: C_7  and  O_6 
REMARK    5  A    between atoms: C_9  and  C_10 
REMARK    6  A    between atoms: N_15  and  C_14 
REMARK    7  A    between atoms: N_20  and  C_19 
REMARK       I    between atoms: C_22  and  N_20 
ROOT
ATOM      1  C   LIG d   1      -2.101  81.053 114.886  0.00  0.00     0.161 C 
ATOM      2  C   LIG d   1      -1.778  82.377 114.546  0.00  0.00     0.016 C 
ATOM      3  C   LIG d   1      -1.266  82.755 113.284  0.00  0.00     0.038 C 
ATOM      4  C   LIG d   1      -1.183  81.848 112.216  0.00  0.00     0.028 C 
ATOM      5  C   LIG d   1      -1.023  80.399 112.663  0.00  0.00    -0.047 C 
ATOM      6  C   LIG d   1      -2.123  80.068 113.698  0.00  0.00     0.091 C 
ENDROOT
BRANCH   1   7
ATOM      7  O   LIG d   1      -3.360  81.021 115.586  0.00  0.00    -0.368 OA
BRANCH   7   8
ATOM      8  C   LIG d   1      -3.319  80.537 116.951  0.00  0.00     0.119 C 
BRANCH   8   9
ATOM      9  C   LIG d   1      -4.334  79.383 117.063  0.00  0.00     0.028 C 
ATOM     10  C   LIG d   1      -3.695  78.089 117.594  0.00  0.00     0.006 C 
ENDBRANCH   8   9
BRANCH   8  11
ATOM     11  C   LIG d   1      -3.806  81.603 117.936  0.00  0.00     0.028 C 
ATOM     12  C   LIG d   1      -5.247  82.058 117.657  0.00  0.00     0.006 C 
ENDBRANCH   8  11
ENDBRANCH   7   8
ENDBRANCH   1   7
BRANCH   6  13
ATOM     13  N   LIG d   1      -1.987  78.695 114.249  0.00  0.00    -0.311 N 
ATOM     14  C   LIG d   1      -2.648  77.643 113.768  0.00  0.00     0.210 C 
ATOM     15  C   LIG d   1      -2.378  76.322 114.496  0.00  0.00     0.109 C 
ATOM     16  O   LIG d   1      -3.407  77.673 112.788  0.00  0.00    -0.276 OA
ATOM     17  H   LIG d   1      -1.368  78.575 115.027  0.00  0.00     0.149 HD
ENDBRANCH   6  13
BRANCH   5  18
ATOM     18  N   LIG d   1      -1.089  79.551 111.458  0.00  0.00     0.381 N 
ATOM     19  H   LIG d   1      -0.503  79.933 110.742  0.00  0.00    -0.090 HD
ATOM     20  H   LIG d   1      -2.035  79.542 111.119  0.00  0.00    -0.090 HD
ATOM     21  H   LIG d   1      -0.798  78.624 111.677  0.00  0.00    -0.090 HD
ENDBRANCH   5  18
BRANCH   3  22
ATOM     22  C   LIG d   1      -0.791  84.043 113.092  0.00  0.00     0.382 C 
ATOM     23  O   LIG d   1      -0.298  84.680 114.054  0.00  0.00    -0.241 OA
ATOM     24  O   LIG d   1      -0.891  84.594 111.979  0.00  0.00    -0.241 OA
ENDBRANCH   3  22
TORSDOF 7
ENDMDL
MODEL 6
REMARK VINA RESULT:      -4.7      2.988      6.357
REMARK  7 active torsions:
REMARK  status: ('A' for Active; 'I' for Inactive)
REMARK    1  A    between atoms: C_2  and  C_3 
REMARK    2  A    between atoms: C_3  and  O_6 
REMARK    3  A    between atoms: C_3  and  C_4 
REMARK    4  A    between atoms: C_7  and  O_6 
REMARK    5  A    between atoms: C_9  and  C_10 
REMARK    6  A    between atoms: N_15  and  C_14 
REMARK    7  A    between atoms: N_20  and  C_19 
REMARK       I    between atoms: C_22  and  N_20 
ROOT
ATOM      1  C   LIG d   1      -2.145  80.877 114.568  0.00  0.00     0.161 C 
ATOM      2  C   LIG d   1      -2.641  79.619 114.951  0.00  0.00     0.016 C 
ATOM      3  C   LIG d   1      -2.580  78.474 114.124  0.00  0.00     0.038 C 
ATOM      4  C   LIG d   1      -1.878  78.474 112.909  0.00  0.00     0.028 C 
ATOM      5  C   LIG d   1      -1.798  79.849 112.255  0.00  0.00    -0.047 C 
ATOM      6  C   LIG d   1      -1.277  80.869 113.293  0.00  0.00     0.091 C 
ENDROOT
BRANCH   1   7
ATOM      7  O   LIG d   1      -1.419  81.470 115.664  0.00  0.00    -0.368 OA
BRANCH   7   8
ATOM      8  C   LIG d   1      -2.042  82.616 116.294  0.00  0.00     0.119 C 
BRANCH   8   9
ATOM      9  C   LIG d   1      -0.935  83.653 116.567  0.00  0.00     0.028 C 
ATOM     10  C   LIG d   1      -0.764  84.648 115.407  0.00  0.00     0.006 C 
ENDBRANCH   8   9
BRANCH   8  11
ATOM     11  C   LIG d   1      -2.608  82.256 117.671  0.00  0.00     0.028 C 
ATOM     12  C   LIG d   1      -1.841  82.923 118.823  0.00  0.00     0.006 C 
ENDBRANCH   8  11
ENDBRANCH   7   8
ENDBRANCH   1   7
BRANCH   6  13
ATOM     13  N   LIG d   1      -1.248  82.256 112.759  0.00  0.00    -0.311 N 
ATOM     14  C   LIG d   1      -0.175  82.799 112.187  0.00  0.00     0.210 C 
ATOM     15  C   LIG d   1      -0.353  84.248 111.724  0.00  0.00     0.109 C 
ATOM     16  O   LIG d   1       0.897  82.207 111.989  0.00  0.00    -0.276 OA
ATOM     17  H   LIG d   1      -2.085  82.797 112.850  0.00  0.00     0.149 HD
ENDBRANCH   6  13
BRANCH   5  18
ATOM     18  N   LIG d   1      -0.925  79.729 111.072  0.00  0.00     0.381 N 
ATOM     19  H   LIG d   1      -1.336  79.102 110.409  0.00  0.00    -0.090 HD
ATOM     20  H   LIG d   1      -0.040  79.350 111.358  0.00  0.00    -0.090 HD
ATOM     21  H   LIG d   1      -0.792  80.624 110.655  0.00  0.00    -0.090 HD
ENDBRANCH   5  18
BRANCH   3  22
ATOM     22  C   LIG d   1      -3.261  77.324 114.492  0.00  0.00     0.382 C 
ATOM     23  O   LIG d   1      -4.264  77.402 115.241  0.00  0.00    -0.241 OA
ATOM     24  O   LIG d   1      -2.858  76.205 114.120  0.00  0.00    -0.241 OA
ENDBRANCH   3  22
TORSDOF 7
ENDMDL
MODEL 7
REMARK VINA RESULT:      -4.6      2.981      4.700
REMARK  7 active torsions:
REMARK  status: ('A' for Active; 'I' for Inactive)
REMARK    1  A    between atoms: C_2  and  C_3 
REMARK    2  A    between atoms: C_3  and  O_6 
REMARK    3  A    between atoms: C_3  and  C_4 
REMARK    4  A    between atoms: C_7  and  O_6 
REMARK    5  A    between atoms: C_9  and  C_10 
REMARK    6  A    between atoms: N_15  and  C_14 
REMARK    7  A    between atoms: N_20  and  C_19 
REMARK       I    between atoms: C_22  and  N_20 
ROOT
ATOM      1  C   LIG d   1      -2.283  81.493 114.773  0.00  0.00     0.161 C 
ATOM      2  C   LIG d   1      -1.908  82.474 113.840  0.00  0.00     0.016 C 
ATOM      3  C   LIG d   1      -1.438  82.173 112.541  0.00  0.00     0.038 C 
ATOM      4  C   LIG d   1      -1.455  80.866 112.030  0.00  0.00     0.028 C 
ATOM      5  C   LIG d   1      -1.350  79.793 113.109  0.00  0.00    -0.047 C 
ATOM      6  C   LIG d   1      -2.414  80.068 114.196  0.00  0.00     0.091 C 
ENDROOT
BRANCH   1   7
ATOM      7  O   LIG d   1      -3.508  81.883 115.426  0.00  0.00    -0.368 OA
BRANCH   7   8
ATOM      8  C   LIG d   1      -3.386  82.309 116.806  0.00  0.00     0.119 C 
BRANCH   8   9
ATOM      9  C   LIG d   1      -1.948  81.996 117.262  0.00  0.00     0.028 C 
ATOM     10  C   LIG d   1      -1.355  83.109 118.142  0.00  0.00     0.006 C 
ENDBRANCH   8   9
BRANCH   8  11
ATOM     11  C   LIG d   1      -4.292  81.486 117.725  0.00  0.00     0.028 C 
ATOM     12  C   LIG d   1      -5.233  82.358 118.572  0.00  0.00     0.006 C 
ENDBRANCH   8  11
ENDBRANCH   7   8
ENDBRANCH   1   7
BRANCH   6  13
ATOM     13  N   LIG d   1      -2.324  79.113 115.331  0.00  0.00    -0.311 N 
ATOM     14  C   LIG d   1      -3.046  77.996 115.409  0.00  0.00     0.210 C 
ATOM     15  C   LIG d   1      -2.814  77.163 116.673  0.00  0.00     0.109 C 
ATOM     16  O   LIG d   1      -3.832  77.600 114.535  0.00  0.00    -0.276 OA
ATOM     17  H   LIG d   1      -1.688  79.341 116.070  0.00  0.00     0.149 HD
ENDBRANCH   6  13
BRANCH   5  18
ATOM     18  N   LIG d   1      -1.518  78.483 112.452  0.00  0.00     0.381 N 
ATOM     19  H   LIG d   1      -2.455  78.156 112.584  0.00  0.00    -0.090 HD
ATOM     20  H   LIG d   1      -0.891  77.823 112.877  0.00  0.00    -0.090 HD
ATOM     21  H   LIG d   1      -1.320  78.561 111.479  0.00  0.00    -0.090 HD
ENDBRANCH   5  18
BRANCH   3  22
ATOM     22  C   LIG d   1      -0.907  83.181 111.751  0.00  0.00     0.382 C 
ATOM     23  O   LIG d   1      -1.231  83.267 110.542  0.00  0.00    -0.241 OA
ATOM     24  O   LIG d   1      -0.074  83.979 112.221  0.00  0.00    -0.241 OA
ENDBRANCH   3  22
TORSDOF 7
ENDMDL
MODEL 8
REMARK VINA RESULT:      -4.4      2.392      3.971
REMARK  7 active torsions:
REMARK  status: ('A' for Active; 'I' for Inactive)
REMARK    1  A    between atoms: C_2  and  C_3 
REMARK    2  A    between atoms: C_3  and  O_6 
REMARK    3  A    between atoms: C_3  and  C_4 
REMARK    4  A    between atoms: C_7  and  O_6 
REMARK    5  A    between atoms: C_9  and  C_10 
REMARK    6  A    between atoms: N_15  and  C_14 
REMARK    7  A    between atoms: N_20  and  C_19 
REMARK       I    between atoms: C_22  and  N_20 
ROOT
ATOM      1  C   LIG d   1      -0.428  80.191 114.739  0.00  0.00     0.161 C 
ATOM      2  C   LIG d   1      -0.616  81.453 114.152  0.00  0.00     0.016 C 
ATOM      3  C   LIG d   1      -1.449  81.674 113.030  0.00  0.00     0.038 C 
ATOM      4  C   LIG d   1      -2.274  80.665 112.510  0.00  0.00     0.028 C 
ATOM      5  C   LIG d   1      -1.737  79.259 112.752  0.00  0.00    -0.047 C 
ATOM      6  C   LIG d   1      -1.405  79.100 114.254  0.00  0.00     0.091 C 
ENDROOT
BRANCH   1   7
ATOM      7  O   LIG d   1      -0.479  80.307 116.174  0.00  0.00    -0.368 OA
BRANCH   7   8
ATOM      8  C   LIG d   1      -1.776  80.098 116.785  0.00  0.00     0.119 C 
BRANCH   8   9
ATOM      9  C   LIG d   1      -2.224  81.442 117.391  0.00  0.00     0.028 C 
ATOM     10  C   LIG d   1      -3.347  82.108 116.578  0.00  0.00     0.006 C 
ENDBRANCH   8   9
BRANCH   8  11
ATOM     11  C   LIG d   1      -1.686  79.130 117.968  0.00  0.00     0.028 C 
ATOM     12  C   LIG d   1      -2.981  78.331 118.184  0.00  0.00     0.006 C 
ENDBRANCH   8  11
ENDBRANCH   7   8
ENDBRANCH   1   7
BRANCH   6  13
ATOM     13  N   LIG d   1      -0.796  77.780 114.563  0.00  0.00    -0.311 N 
ATOM     14  C   LIG d   1      -1.502  76.719 114.950  0.00  0.00     0.210 C 
ATOM     15  C   LIG d   1      -0.675  75.462 115.237  0.00  0.00     0.109 C 
ATOM     16  O   LIG d   1      -2.737  76.691 115.052  0.00  0.00    -0.276 OA
ATOM     17  H   LIG d   1       0.199  77.705 114.476  0.00  0.00     0.149 HD
ENDBRANCH   6  13
BRANCH   5  18
ATOM     18  N   LIG d   1      -2.759  78.305 112.282  0.00  0.00     0.381 N 
ATOM     19  H   LIG d   1      -3.364  78.056 113.039  0.00  0.00    -0.090 HD
ATOM     20  H   LIG d   1      -2.302  77.471 111.957  0.00  0.00    -0.090 HD
ATOM     21  H   LIG d   1      -3.290  78.710 111.543  0.00  0.00    -0.090 HD
ENDBRANCH   5  18
BRANCH   3  22
ATOM     22  C   LIG d   1      -1.431  82.905 112.393  0.00  0.00     0.382 C 
ATOM     23  O   LIG d   1      -1.333  83.958 113.067  0.00  0.00    -0.241 OA
ATOM     24  O   LIG d   1      -1.558  82.978 111.156  0.00  0.00    -0.241 OA
ENDBRANCH   3  22
TORSDOF 7
ENDMDL
MODEL 9
REMARK VINA RESULT:      -4.4      2.600      3.140
REMARK  7 active torsions:
REMARK  status: ('A' for Active; 'I' for Inactive)
REMARK    1  A    between atoms: C_2  and  C_3 
REMARK    2  A    between atoms: C_3  and  O_6 
REMARK    3  A    between atoms: C_3  and  C_4 
REMARK    4  A    between atoms: C_7  and  O_6 
REMARK    5  A    between atoms: C_9  and  C_10 
REMARK    6  A    between atoms: N_15  and  C_14 
REMARK    7  A    between atoms: N_20  and  C_19 
REMARK       I    between atoms: C_22  and  N_20 
ROOT
ATOM      1  C   LIG d   1      -1.707  78.431 116.241  0.00  0.00     0.161 C 
ATOM      2  C   LIG d   1      -2.236  79.720 116.424  0.00  0.00     0.016 C 
ATOM      3  C   LIG d   1      -2.488  80.616 115.361  0.00  0.00     0.038 C 
ATOM      4  C   LIG d   1      -2.369  80.226 114.018  0.00  0.00     0.028 C 
ATOM      5  C   LIG d   1      -1.358  79.105 113.801  0.00  0.00    -0.047 C 
ATOM      6  C   LIG d   1      -1.675  77.948 114.776  0.00  0.00     0.091 C 
ENDROOT
BRANCH   1   7
ATOM      7  O   LIG d   1      -2.421  77.488 117.064  0.00  0.00    -0.368 OA
BRANCH   7   8
ATOM      8  C   LIG d   1      -3.767  77.162 116.639  0.00  0.00     0.119 C 
BRANCH   8   9
ATOM      9  C   LIG d   1      -4.738  77.767 117.671  0.00  0.00     0.028 C 
ATOM     10  C   LIG d   1      -6.208  77.649 117.234  0.00  0.00     0.006 C 
ENDBRANCH   8   9
BRANCH   8  11
ATOM     11  C   LIG d   1      -4.015  75.652 116.684  0.00  0.00     0.028 C 
ATOM     12  C   LIG d   1      -2.909  74.888 117.430  0.00  0.00     0.006 C 
ENDBRANCH   8  11
ENDBRANCH   7   8
ENDBRANCH   1   7
BRANCH   6  13
ATOM     13  N   LIG d   1      -0.682  76.845 114.687  0.00  0.00    -0.311 N 
ATOM     14  C   LIG d   1      -0.993  75.609 114.302  0.00  0.00     0.210 C 
ATOM     15  C   LIG d   1       0.176  74.619 114.300  0.00  0.00     0.109 C 
ATOM     16  O   LIG d   1      -2.119  75.246 113.931  0.00  0.00    -0.276 OA
ATOM     17  H   LIG d   1       0.262  77.060 114.940  0.00  0.00     0.149 HD
ENDBRANCH   6  13
BRANCH   5  18
ATOM     18  N   LIG d   1      -1.436  78.705 112.383  0.00  0.00     0.381 N 
ATOM     19  H   LIG d   1      -0.734  78.019 112.186  0.00  0.00    -0.090 HD
ATOM     20  H   LIG d   1      -1.260  79.510 111.808  0.00  0.00    -0.090 HD
ATOM     21  H   LIG d   1      -2.338  78.334 112.182  0.00  0.00    -0.090 HD
ENDBRANCH   5  18
BRANCH   3  22
ATOM     22  C   LIG d   1      -2.827  81.932 115.637  0.00  0.00     0.382 C 
ATOM     23  O   LIG d   1      -2.571  82.422 116.763  0.00  0.00    -0.241 OA
ATOM     24  O   LIG d   1      -3.425  82.622 114.789  0.00  0.00    -0.241 OA
ENDBRANCH   3  22
TORSDOF 7
ENDMDL
