MODEL 1
REMARK VINA RESULT:      -5.7      0.000      0.000
REMARK  7 active torsions:
REMARK  status: ('A' for Active; 'I' for Inactive)
REMARK    1  A    between atoms: C_2  and  C_3 
REMARK    2  A    between atoms: C_3  and  O_6 
REMARK    3  A    between atoms: C_3  and  C_4 
REMARK    4  A    between atoms: C_7  and  O_6 
REMARK    5  A    between atoms: C_9  and  C_10 
REMARK    6  A    between atoms: N_15  and  C_14 
REMARK    7  A    between atoms: N_20  and  C_19 
REMARK       I    between atoms: C_22  and  N_20 
ROOT
ATOM      1  C   LIG d   1      -3.020  77.471 114.944  0.00  0.00     0.161 C 
ATOM      2  C   LIG d   1      -3.200  78.569 114.087  0.00  0.00     0.016 C 
ATOM      3  C   LIG d   1      -2.135  79.369 113.613  0.00  0.00     0.038 C 
ATOM      4  C   LIG d   1      -0.793  79.031 113.845  0.00  0.00     0.028 C 
ATOM      5  C   LIG d   1      -0.584  78.223 115.122  0.00  0.00    -0.047 C 
ATOM      6  C   LIG d   1      -1.555  77.019 115.118  0.00  0.00     0.091 C 
ENDROOT
BRANCH   1   7
ATOM      7  O   LIG d   1      -3.835  76.367 114.502  0.00  0.00    -0.368 OA
BRANCH   7   8
ATOM      8  C   LIG d   1      -5.229  76.408 114.893  0.00  0.00     0.119 C 
BRANCH   8   9
ATOM      9  C   LIG d   1      -5.277  76.488 116.431  0.00  0.00     0.028 C 
ATOM     10  C   LIG d   1      -6.008  77.746 116.930  0.00  0.00     0.006 C 
ENDBRANCH   8   9
BRANCH   8  11
ATOM     11  C   LIG d   1      -5.947  75.103 114.533  0.00  0.00     0.028 C 
ATOM     12  C   LIG d   1      -6.538  74.390 115.759  0.00  0.00     0.006 C 
ENDBRANCH   8  11
ENDBRANCH   7   8
ENDBRANCH   1   7
BRANCH   6  13
ATOM     13  N   LIG d   1      -1.475  76.224 116.371  0.00  0.00    -0.311 N 
ATOM     14  C   LIG d   1      -1.362  74.897 116.391  0.00  0.00     0.210 C 
ATOM     15  C   LIG d   1      -1.317  74.272 117.789  0.00  0.00     0.109 C 
ATOM     16  O   LIG d   1      -1.263  74.180 115.383  0.00  0.00    -0.276 OA
ATOM     17  H   LIG d   1      -1.517  76.728 117.235  0.00  0.00     0.149 HD
ENDBRANCH   6  13
BRANCH   5  18
ATOM     18  N   LIG d   1       0.834  77.821 115.168  0.00  0.00     0.381 N 
ATOM     19  H   LIG d   1       1.019  77.148 114.452  0.00  0.00    -0.090 HD
ATOM     20  H   LIG d   1       1.022  77.395 116.059  0.00  0.00    -0.090 HD
ATOM     21  H   LIG d   1       1.418  78.619 115.043  0.00  0.00    -0.090 HD
ENDBRANCH   5  18
BRANCH   3  22
ATOM     22  C   LIG d   1      -2.409  80.545 112.931  0.00  0.00     0.382 C 
ATOM     23  O   LIG d   1      -3.577  81.003 112.915  0.00  0.00    -0.241 OA
ATOM     24  O   LIG d   1      -1.512  81.130 112.295  0.00  0.00    -0.241 OA
ENDBRANCH   3  22
TORSDOF 7
ENDMDL
MODEL 2
REMARK VINA RESULT:      -5.5      1.145      1.157
REMARK  7 active torsions:
REMARK  status: ('A' for Active; 'I' for Inactive)
REMARK    1  A    between atoms: C_2  and  C_3 
REMARK    2  A    between atoms: C_3  and  O_6 
REMARK    3  A    between atoms: C_3  and  C_4 
REMARK    4  A    between atoms: C_7  and  O_6 
REMARK    5  A    between atoms: C_9  and  C_10 
REMARK    6  A    between atoms: N_15  and  C_14 
REMARK    7  A    between atoms: N_20  and  C_19 
REMARK       I    between atoms: C_22  and  N_20 
ROOT
ATOM      1  C   LIG d   1      -2.758  77.730 116.236  0.00  0.00     0.161 C 
ATOM      2  C   LIG d   1      -3.072  78.612 115.189  0.00  0.00     0.016 C 
ATOM      3  C   LIG d   1      -2.246  78.802 114.057  0.00  0.00     0.038 C 
ATOM      4  C   LIG d   1      -1.115  78.005 113.823  0.00  0.00     0.028 C 
ATOM      5  C   LIG d   1      -0.487  77.455 115.099  0.00  0.00    -0.047 C 
ATOM      6  C   LIG d   1      -1.585  76.771 115.945  0.00  0.00     0.091 C 
ENDROOT
BRANCH   1   7
ATOM      7  O   LIG d   1      -3.932  76.985 116.616  0.00  0.00    -0.368 OA
BRANCH   7   8
ATOM      8  C   LIG d   1      -4.889  76.723 115.561  0.00  0.00     0.119 C 
BRANCH   8   9
ATOM      9  C   LIG d   1      -6.298  76.923 116.153  0.00  0.00     0.028 C 
ATOM     10  C   LIG d   1      -6.305  77.915 117.328  0.00  0.00     0.006 C 
ENDBRANCH   8   9
BRANCH   8  11
ATOM     11  C   LIG d   1      -4.841  75.258 115.116  0.00  0.00     0.028 C 
ATOM     12  C   LIG d   1      -6.173  74.524 115.336  0.00  0.00     0.006 C 
ENDBRANCH   8  11
ENDBRANCH   7   8
ENDBRANCH   1   7
BRANCH   6  13
ATOM     13  N   LIG d   1      -1.071  76.279 117.250  0.00  0.00    -0.311 N 
ATOM     14  C   LIG d   1      -0.609  75.044 117.437  0.00  0.00     0.210 C 
ATOM     15  C   LIG d   1      -0.147  74.737 118.865  0.00  0.00     0.109 C 
ATOM     16  O   LIG d   1      -0.509  74.184 116.550  0.00  0.00    -0.276 OA
ATOM     17  H   LIG d   1      -1.087  76.922 118.018  0.00  0.00     0.149 HD
ENDBRANCH   6  13
BRANCH   5  18
ATOM     18  N   LIG d   1       0.595  76.533 114.702  0.00  0.00     0.381 N 
ATOM     19  H   LIG d   1       0.948  76.793 113.803  0.00  0.00    -0.090 HD
ATOM     20  H   LIG d   1       0.221  75.603 114.637  0.00  0.00    -0.090 HD
ATOM     21  H   LIG d   1       1.328  76.558 115.375  0.00  0.00    -0.090 HD
ENDBRANCH   5  18
BRANCH   3  22
ATOM     22  C   LIG d   1      -2.526  79.826 113.165  0.00  0.00     0.382 C 
ATOM     23  O   LIG d   1      -3.498  80.591 113.375  0.00  0.00    -0.241 OA
ATOM     24  O   LIG d   1      -1.847  79.966 112.131  0.00  0.00    -0.241 OA
ENDBRANCH   3  22
TORSDOF 7
ENDMDL
MODEL 3
REMARK VINA RESULT:      -4.9      2.612      4.853
REMARK  7 active torsions:
REMARK  status: ('A' for Active; 'I' for Inactive)
REMARK    1  A    between atoms: C_2  and  C_3 
REMARK    2  A    between atoms: C_3  and  O_6 
REMARK    3  A    between atoms: C_3  and  C_4 
REMARK    4  A    between atoms: C_7  and  O_6 
REMARK    5  A    between atoms: C_9  and  C_10 
REMARK    6  A    between atoms: N_15  and  C_14 
REMARK    7  A    between atoms: N_20  and  C_19 
REMARK       I    between atoms: C_22  and  N_20 
ROOT
ATOM      1  C   LIG d   1      -2.367  77.249 117.103  0.00  0.00     0.161 C 
ATOM      2  C   LIG d   1      -3.401  76.478 116.546  0.00  0.00     0.016 C 
ATOM      3  C   LIG d   1      -3.835  76.611 115.207  0.00  0.00     0.038 C 
ATOM      4  C   LIG d   1      -3.159  77.424 114.285  0.00  0.00     0.028 C 
ATOM      5  C   LIG d   1      -2.429  78.596 114.932  0.00  0.00    -0.047 C 
ATOM      6  C   LIG d   1      -1.544  78.062 116.082  0.00  0.00     0.091 C 
ENDROOT
BRANCH   1   7
ATOM      7  O   LIG d   1      -1.500  76.408 117.889  0.00  0.00    -0.368 OA
BRANCH   7   8
ATOM      8  C   LIG d   1      -1.457  75.009 117.514  0.00  0.00     0.119 C 
BRANCH   8   9
ATOM      9  C   LIG d   1      -1.512  74.180 118.812  0.00  0.00     0.028 C 
ATOM     10  C   LIG d   1      -0.216  74.289 119.633  0.00  0.00     0.006 C 
ENDBRANCH   8   9
BRANCH   8  11
ATOM     11  C   LIG d   1      -0.120  74.649 116.859  0.00  0.00     0.028 C 
ATOM     12  C   LIG d   1      -0.237  74.443 115.341  0.00  0.00     0.006 C 
ENDBRANCH   8  11
ENDBRANCH   7   8
ENDBRANCH   1   7
BRANCH   6  13
ATOM     13  N   LIG d   1      -0.859  79.153 116.823  0.00  0.00    -0.311 N 
ATOM     14  C   LIG d   1       0.456  79.183 117.033  0.00  0.00     0.210 C 
ATOM     15  C   LIG d   1       0.955  80.388 117.837  0.00  0.00     0.109 C 
ATOM     16  O   LIG d   1       1.261  78.344 116.602  0.00  0.00    -0.276 OA
ATOM     17  H   LIG d   1      -1.432  79.892 117.181  0.00  0.00     0.149 HD
ENDBRANCH   6  13
BRANCH   5  18
ATOM     18  N   LIG d   1      -1.656  79.277 113.876  0.00  0.00     0.381 N 
ATOM     19  H   LIG d   1      -2.223  79.977 113.440  0.00  0.00    -0.090 HD
ATOM     20  H   LIG d   1      -1.394  78.603 113.179  0.00  0.00    -0.090 HD
ATOM     21  H   LIG d   1      -0.841  79.696 114.267  0.00  0.00    -0.090 HD
ENDBRANCH   5  18
BRANCH   3  22
ATOM     22  C   LIG d   1      -4.983  75.955 114.789  0.00  0.00     0.382 C 
ATOM     23  O   LIG d   1      -4.914  74.772 114.376  0.00  0.00    -0.241 OA
ATOM     24  O   LIG d   1      -6.080  76.546 114.777  0.00  0.00    -0.241 OA
ENDBRANCH   3  22
TORSDOF 7
ENDMDL
MODEL 4
REMARK VINA RESULT:      -4.9      1.964      5.032
REMARK  7 active torsions:
REMARK  status: ('A' for Active; 'I' for Inactive)
REMARK    1  A    between atoms: C_2  and  C_3 
REMARK    2  A    between atoms: C_3  and  O_6 
REMARK    3  A    between atoms: C_3  and  C_4 
REMARK    4  A    between atoms: C_7  and  O_6 
REMARK    5  A    between atoms: C_9  and  C_10 
REMARK    6  A    between atoms: N_15  and  C_14 
REMARK    7  A    between atoms: N_20  and  C_19 
REMARK       I    between atoms: C_22  and  N_20 
ROOT
ATOM      1  C   LIG d   1      -1.432  75.993 115.108  0.00  0.00     0.161 C 
ATOM      2  C   LIG d   1      -1.191  75.378 116.348  0.00  0.00     0.016 C 
ATOM      3  C   LIG d   1      -0.254  75.864 117.288  0.00  0.00     0.038 C 
ATOM      4  C   LIG d   1       0.401  77.092 117.116  0.00  0.00     0.028 C 
ATOM      5  C   LIG d   1       0.565  77.491 115.653  0.00  0.00    -0.047 C 
ATOM      6  C   LIG d   1      -0.808  77.396 114.950  0.00  0.00     0.091 C 
ENDROOT
BRANCH   1   7
ATOM      7  O   LIG d   1      -2.850  76.045 114.856  0.00  0.00    -0.368 OA
BRANCH   7   8
ATOM      8  C   LIG d   1      -3.705  75.576 115.928  0.00  0.00     0.119 C 
BRANCH   8   9
ATOM      9  C   LIG d   1      -4.727  74.601 115.311  0.00  0.00     0.028 C 
ATOM     10  C   LIG d   1      -6.086  75.269 115.039  0.00  0.00     0.006 C 
ENDBRANCH   8   9
BRANCH   8  11
ATOM     11  C   LIG d   1      -4.539  76.718 116.516  0.00  0.00     0.028 C 
ATOM     12  C   LIG d   1      -4.000  77.214 117.867  0.00  0.00     0.006 C 
ENDBRANCH   8  11
ENDBRANCH   7   8
ENDBRANCH   1   7
BRANCH   6  13
ATOM     13  N   LIG d   1      -0.722  77.688 113.495  0.00  0.00    -0.311 N 
ATOM     14  C   LIG d   1      -1.007  78.878 112.969  0.00  0.00     0.210 C 
ATOM     15  C   LIG d   1      -0.872  78.959 111.445  0.00  0.00     0.109 C 
ATOM     16  O   LIG d   1      -1.327  79.882 113.622  0.00  0.00    -0.276 OA
ATOM     17  H   LIG d   1      -0.440  76.938 112.895  0.00  0.00     0.149 HD
ENDBRANCH   6  13
BRANCH   5  18
ATOM     18  N   LIG d   1       1.137  78.850 115.623  0.00  0.00     0.381 N 
ATOM     19  H   LIG d   1       2.129  78.798 115.507  0.00  0.00    -0.090 HD
ATOM     20  H   LIG d   1       0.946  79.303 116.499  0.00  0.00    -0.090 HD
ATOM     21  H   LIG d   1       0.735  79.373 114.876  0.00  0.00    -0.090 HD
ENDBRANCH   5  18
BRANCH   3  22
ATOM     22  C   LIG d   1       0.066  75.097 118.399  0.00  0.00     0.382 C 
ATOM     23  O   LIG d   1       1.152  75.284 118.998  0.00  0.00    -0.241 OA
ATOM     24  O   LIG d   1      -0.698  74.191 118.782  0.00  0.00    -0.241 OA
ENDBRANCH   3  22
TORSDOF 7
ENDMDL
MODEL 5
REMARK VINA RESULT:      -4.6      2.179      5.301
REMARK  7 active torsions:
REMARK  status: ('A' for Active; 'I' for Inactive)
REMARK    1  A    between atoms: C_2  and  C_3 
REMARK    2  A    between atoms: C_3  and  O_6 
REMARK    3  A    between atoms: C_3  and  C_4 
REMARK    4  A    between atoms: C_7  and  O_6 
REMARK    5  A    between atoms: C_9  and  C_10 
REMARK    6  A    between atoms: N_15  and  C_14 
REMARK    7  A    between atoms: N_20  and  C_19 
REMARK       I    between atoms: C_22  and  N_20 
ROOT
ATOM      1  C   LIG d   1      -1.065  77.781 115.367  0.00  0.00     0.161 C 
ATOM      2  C   LIG d   1      -2.224  76.989 115.402  0.00  0.00     0.016 C 
ATOM      3  C   LIG d   1      -3.309  77.157 114.510  0.00  0.00     0.038 C 
ATOM      4  C   LIG d   1      -3.242  78.037 113.420  0.00  0.00     0.028 C 
ATOM      5  C   LIG d   1      -2.298  79.212 113.646  0.00  0.00    -0.047 C 
ATOM      6  C   LIG d   1      -0.927  78.672 114.114  0.00  0.00     0.091 C 
ENDROOT
BRANCH   1   7
ATOM      7  O   LIG d   1       0.101  76.948 115.520  0.00  0.00    -0.368 OA
BRANCH   7   8
ATOM      8  C   LIG d   1      -0.120  75.644 116.113  0.00  0.00     0.119 C 
BRANCH   8   9
ATOM      9  C   LIG d   1       0.567  75.641 117.492  0.00  0.00     0.028 C 
ATOM     10  C   LIG d   1      -0.434  75.824 118.646  0.00  0.00     0.006 C 
ENDBRANCH   8   9
BRANCH   8  11
ATOM     11  C   LIG d   1       0.577  74.542 115.310  0.00  0.00     0.028 C 
ATOM     12  C   LIG d   1       0.912  74.971 113.873  0.00  0.00     0.006 C 
ENDBRANCH   8  11
ENDBRANCH   7   8
ENDBRANCH   1   7
BRANCH   6  13
ATOM     13  N   LIG d   1       0.031  79.760 114.439  0.00  0.00    -0.311 N 
ATOM     14  C   LIG d   1       0.694  80.453 113.515  0.00  0.00     0.210 C 
ATOM     15  C   LIG d   1       1.647  81.518 114.066  0.00  0.00     0.109 C 
ATOM     16  O   LIG d   1       0.559  80.309 112.291  0.00  0.00    -0.276 OA
ATOM     17  H   LIG d   1       0.177  79.965 115.408  0.00  0.00     0.149 HD
ENDBRANCH   6  13
BRANCH   5  18
ATOM     18  N   LIG d   1      -2.219  79.971 112.384  0.00  0.00     0.381 N 
ATOM     19  H   LIG d   1      -2.215  79.339 111.608  0.00  0.00    -0.090 HD
ATOM     20  H   LIG d   1      -1.360  80.492 112.370  0.00  0.00    -0.090 HD
ATOM     21  H   LIG d   1      -2.994  80.593 112.311  0.00  0.00    -0.090 HD
ENDBRANCH   5  18
BRANCH   3  22
ATOM     22  C   LIG d   1      -4.492  76.469 114.730  0.00  0.00     0.382 C 
ATOM     23  O   LIG d   1      -5.470  77.054 115.254  0.00  0.00    -0.241 OA
ATOM     24  O   LIG d   1      -4.580  75.258 114.452  0.00  0.00    -0.241 OA
ENDBRANCH   3  22
TORSDOF 7
ENDMDL
MODEL 6
REMARK VINA RESULT:      -4.6      2.195      2.437
REMARK  7 active torsions:
REMARK  status: ('A' for Active; 'I' for Inactive)
REMARK    1  A    between atoms: C_2  and  C_3 
REMARK    2  A    between atoms: C_3  and  O_6 
REMARK    3  A    between atoms: C_3  and  C_4 
REMARK    4  A    between atoms: C_7  and  O_6 
REMARK    5  A    between atoms: C_9  and  C_10 
REMARK    6  A    between atoms: N_15  and  C_14 
REMARK    7  A    between atoms: N_20  and  C_19 
REMARK       I    between atoms: C_22  and  N_20 
ROOT
ATOM      1  C   LIG d   1      -2.647  77.807 115.782  0.00  0.00     0.161 C 
ATOM      2  C   LIG d   1      -2.870  78.051 114.417  0.00  0.00     0.016 C 
ATOM      3  C   LIG d   1      -1.870  77.910 113.427  0.00  0.00     0.038 C 
ATOM      4  C   LIG d   1      -0.610  77.367 113.719  0.00  0.00     0.028 C 
ATOM      5  C   LIG d   1      -0.178  77.582 115.165  0.00  0.00    -0.047 C 
ATOM      6  C   LIG d   1      -1.310  77.107 116.104  0.00  0.00     0.091 C 
ENDROOT
BRANCH   1   7
ATOM      7  O   LIG d   1      -3.750  77.059 116.332  0.00  0.00    -0.368 OA
BRANCH   7   8
ATOM      8  C   LIG d   1      -4.629  76.423 115.372  0.00  0.00     0.119 C 
BRANCH   8   9
ATOM      9  C   LIG d   1      -6.078  76.736 115.794  0.00  0.00     0.028 C 
ATOM     10  C   LIG d   1      -6.152  77.440 117.160  0.00  0.00     0.006 C 
ENDBRANCH   8   9
BRANCH   8  11
ATOM     11  C   LIG d   1      -4.510  74.898 115.433  0.00  0.00     0.028 C 
ATOM     12  C   LIG d   1      -5.713  74.180 114.801  0.00  0.00     0.006 C 
ENDBRANCH   8  11
ENDBRANCH   7   8
ENDBRANCH   1   7
BRANCH   6  13
ATOM     13  N   LIG d   1      -1.003  77.360 117.536  0.00  0.00    -0.311 N 
ATOM     14  C   LIG d   1      -0.864  78.580 118.051  0.00  0.00     0.210 C 
ATOM     15  C   LIG d   1      -0.528  78.616 119.546  0.00  0.00     0.109 C 
ATOM     16  O   LIG d   1      -1.018  79.636 117.420  0.00  0.00    -0.276 OA
ATOM     17  H   LIG d   1      -0.892  76.559 118.127  0.00  0.00     0.149 HD
ENDBRANCH   6  13
BRANCH   5  18
ATOM     18  N   LIG d   1       1.086  76.848 115.366  0.00  0.00     0.381 N 
ATOM     19  H   LIG d   1       1.611  76.838 114.515  0.00  0.00    -0.090 HD
ATOM     20  H   LIG d   1       0.874  75.898 115.616  0.00  0.00    -0.090 HD
ATOM     21  H   LIG d   1       1.619  77.278 116.089  0.00  0.00    -0.090 HD
ENDBRANCH   5  18
BRANCH   3  22
ATOM     22  C   LIG d   1      -2.114  78.353 112.136  0.00  0.00     0.382 C 
ATOM     23  O   LIG d   1      -2.721  77.614 111.324  0.00  0.00    -0.241 OA
ATOM     24  O   LIG d   1      -1.696  79.465 111.760  0.00  0.00    -0.241 OA
ENDBRANCH   3  22
TORSDOF 7
ENDMDL
MODEL 7
REMARK VINA RESULT:      -4.4      3.027      5.097
REMARK  7 active torsions:
REMARK  status: ('A' for Active; 'I' for Inactive)
REMARK    1  A    between atoms: C_2  and  C_3 
REMARK    2  A    between atoms: C_3  and  O_6 
REMARK    3  A    between atoms: C_3  and  C_4 
REMARK    4  A    between atoms: C_7  and  O_6 
REMARK    5  A    between atoms: C_9  and  C_10 
REMARK    6  A    between atoms: N_15  and  C_14 
REMARK    7  A    between atoms: N_20  and  C_19 
REMARK       I    between atoms: C_22  and  N_20 
ROOT
ATOM      1  C   LIG d   1      -2.400  76.962 115.607  0.00  0.00     0.161 C 
ATOM      2  C   LIG d   1      -1.328  77.635 116.217  0.00  0.00     0.016 C 
ATOM      3  C   LIG d   1      -1.497  78.639 117.198  0.00  0.00     0.038 C 
ATOM      4  C   LIG d   1      -2.753  78.934 117.749  0.00  0.00     0.028 C 
ATOM      5  C   LIG d   1      -3.913  78.638 116.804  0.00  0.00    -0.047 C 
ATOM      6  C   LIG d   1      -3.772  77.192 116.275  0.00  0.00     0.091 C 
ENDROOT
BRANCH   1   7
ATOM      7  O   LIG d   1      -2.111  75.552 115.529  0.00  0.00    -0.368 OA
BRANCH   7   8
ATOM      8  C   LIG d   1      -0.966  75.093 116.289  0.00  0.00     0.119 C 
BRANCH   8   9
ATOM      9  C   LIG d   1      -0.131  74.186 115.365  0.00  0.00     0.028 C 
ATOM     10  C   LIG d   1       0.942  74.967 114.588  0.00  0.00     0.006 C 
ENDBRANCH   8   9
BRANCH   8  11
ATOM     11  C   LIG d   1      -1.394  74.199 117.456  0.00  0.00     0.028 C 
ATOM     12  C   LIG d   1      -0.705  74.575 118.778  0.00  0.00     0.006 C 
ENDBRANCH   8  11
ENDBRANCH   7   8
ENDBRANCH   1   7
BRANCH   6  13
ATOM     13  N   LIG d   1      -4.820  76.849 115.279  0.00  0.00    -0.311 N 
ATOM     14  C   LIG d   1      -5.974  76.265 115.600  0.00  0.00     0.210 C 
ATOM     15  C   LIG d   1      -6.905  75.980 114.418  0.00  0.00     0.109 C 
ATOM     16  O   LIG d   1      -6.327  75.986 116.755  0.00  0.00    -0.276 OA
ATOM     17  H   LIG d   1      -4.629  77.069 114.321  0.00  0.00     0.149 HD
ENDBRANCH   6  13
BRANCH   5  18
ATOM     18  N   LIG d   1      -5.165  78.860 117.552  0.00  0.00     0.381 N 
ATOM     19  H   LIG d   1      -5.295  79.839 117.712  0.00  0.00    -0.090 HD
ATOM     20  H   LIG d   1      -5.096  78.402 118.444  0.00  0.00    -0.090 HD
ATOM     21  H   LIG d   1      -5.937  78.493 117.041  0.00  0.00    -0.090 HD
ENDBRANCH   5  18
BRANCH   3  22
ATOM     22  C   LIG d   1      -0.405  79.388 117.610  0.00  0.00     0.382 C 
ATOM     23  O   LIG d   1       0.749  78.899 117.550  0.00  0.00    -0.241 OA
ATOM     24  O   LIG d   1      -0.564  80.530 118.081  0.00  0.00    -0.241 OA
ENDBRANCH   3  22
TORSDOF 7
ENDMDL
MODEL 8
REMARK VINA RESULT:      -4.2      2.714      5.477
REMARK  7 active torsions:
REMARK  status: ('A' for Active; 'I' for Inactive)
REMARK    1  A    between atoms: C_2  and  C_3 
REMARK    2  A    between atoms: C_3  and  O_6 
REMARK    3  A    between atoms: C_3  and  C_4 
REMARK    4  A    between atoms: C_7  and  O_6 
REMARK    5  A    between atoms: C_9  and  C_10 
REMARK    6  A    between atoms: N_15  and  C_14 
REMARK    7  A    between atoms: N_20  and  C_19 
REMARK       I    between atoms: C_22  and  N_20 
ROOT
ATOM      1  C   LIG d   1      -2.889  77.685 116.043  0.00  0.00     0.161 C 
ATOM      2  C   LIG d   1      -3.941  77.194 115.252  0.00  0.00     0.016 C 
ATOM      3  C   LIG d   1      -5.235  76.928 115.756  0.00  0.00     0.038 C 
ATOM      4  C   LIG d   1      -5.609  77.281 117.061  0.00  0.00     0.028 C 
ATOM      5  C   LIG d   1      -4.440  77.311 118.039  0.00  0.00    -0.047 C 
ATOM      6  C   LIG d   1      -3.309  78.180 117.442  0.00  0.00     0.091 C 
ENDROOT
BRANCH   1   7
ATOM      7  O   LIG d   1      -2.188  78.725 115.333  0.00  0.00    -0.368 OA
BRANCH   7   8
ATOM      8  C   LIG d   1      -1.022  78.309 114.580  0.00  0.00     0.119 C 
BRANCH   8   9
ATOM      9  C   LIG d   1       0.223  78.763 115.367  0.00  0.00     0.028 C 
ATOM     10  C   LIG d   1       0.897  77.604 116.118  0.00  0.00     0.006 C 
ENDBRANCH   8   9
BRANCH   8  11
ATOM     11  C   LIG d   1      -0.939  79.036 113.235  0.00  0.00     0.028 C 
ATOM     12  C   LIG d   1      -2.235  79.782 112.879  0.00  0.00     0.006 C 
ENDBRANCH   8  11
ENDBRANCH   7   8
ENDBRANCH   1   7
BRANCH   6  13
ATOM     13  N   LIG d   1      -2.094  78.195 118.298  0.00  0.00    -0.311 N 
ATOM     14  C   LIG d   1      -1.476  79.313 118.675  0.00  0.00     0.210 C 
ATOM     15  C   LIG d   1      -0.229  79.103 119.539  0.00  0.00     0.109 C 
ATOM     16  O   LIG d   1      -1.861  80.460 118.402  0.00  0.00    -0.276 OA
ATOM     17  H   LIG d   1      -1.732  77.309 118.591  0.00  0.00     0.149 HD
ENDBRANCH   6  13
BRANCH   5  18
ATOM     18  N   LIG d   1      -4.947  77.826 119.325  0.00  0.00     0.381 N 
ATOM     19  H   LIG d   1      -5.637  77.201 119.691  0.00  0.00    -0.090 HD
ATOM     20  H   LIG d   1      -5.381  78.718 119.169  0.00  0.00    -0.090 HD
ATOM     21  H   LIG d   1      -4.198  77.921 119.974  0.00  0.00    -0.090 HD
ENDBRANCH   5  18
BRANCH   3  22
ATOM     22  C   LIG d   1      -6.159  76.266 114.962  0.00  0.00     0.382 C 
ATOM     23  O   LIG d   1      -7.089  75.613 115.494  0.00  0.00    -0.241 OA
ATOM     24  O   LIG d   1      -6.048  76.276 113.721  0.00  0.00    -0.241 OA
ENDBRANCH   3  22
TORSDOF 7
ENDMDL
MODEL 9
REMARK VINA RESULT:      -4.0      3.118      6.176
REMARK  7 active torsions:
REMARK  status: ('A' for Active; 'I' for Inactive)
REMARK    1  A    between atoms: C_2  and  C_3 
REMARK    2  A    between atoms: C_3  and  O_6 
REMARK    3  A    between atoms: C_3  and  C_4 
REMARK    4  A    between atoms: C_7  and  O_6 
REMARK    5  A    between atoms: C_9  and  C_10 
REMARK    6  A    between atoms: N_15  and  C_14 
REMARK    7  A    between atoms: N_20  and  C_19 
REMARK       I    between atoms: C_22  and  N_20 
ROOT
ATOM      1  C   LIG d   1       0.085  79.492 113.861  0.00  0.00     0.161 C 
ATOM      2  C   LIG d   1      -0.891  79.117 112.923  0.00  0.00     0.016 C 
ATOM      3  C   LIG d   1      -2.048  78.375 113.258  0.00  0.00     0.038 C 
ATOM      4  C   LIG d   1      -2.384  78.085 114.588  0.00  0.00     0.028 C 
ATOM      5  C   LIG d   1      -1.175  78.006 115.515  0.00  0.00    -0.047 C 
ATOM      6  C   LIG d   1      -0.320  79.281 115.335  0.00  0.00     0.091 C 
ENDROOT
BRANCH   1   7
ATOM      7  O   LIG d   1       0.475  80.861 113.640  0.00  0.00    -0.368 OA
BRANCH   7   8
ATOM      8  C   LIG d   1       0.191  81.400 112.325  0.00  0.00     0.119 C 
BRANCH   8   9
ATOM      9  C   LIG d   1       1.541  81.663 111.631  0.00  0.00     0.028 C 
ATOM     10  C   LIG d   1       1.858  80.617 110.549  0.00  0.00     0.006 C 
ENDBRANCH   8   9
BRANCH   8  11
ATOM     11  C   LIG d   1      -0.490  82.769 112.419  0.00  0.00     0.028 C 
ATOM     12  C   LIG d   1      -0.599  83.475 111.058  0.00  0.00     0.006 C 
ENDBRANCH   8  11
ENDBRANCH   7   8
ENDBRANCH   1   7
BRANCH   6  13
ATOM     13  N   LIG d   1       0.926  79.246 116.144  0.00  0.00    -0.311 N 
ATOM     14  C   LIG d   1       1.047  79.837 117.331  0.00  0.00     0.210 C 
ATOM     15  C   LIG d   1       2.424  79.696 117.987  0.00  0.00     0.109 C 
ATOM     16  O   LIG d   1       0.134  80.437 117.919  0.00  0.00    -0.276 OA
ATOM     17  H   LIG d   1       1.707  78.754 115.756  0.00  0.00     0.149 HD
ENDBRANCH   6  13
BRANCH   5  18
ATOM     18  N   LIG d   1      -1.679  77.836 116.891  0.00  0.00     0.381 N 
ATOM     19  H   LIG d   1      -1.467  78.651 117.432  0.00  0.00    -0.090 HD
ATOM     20  H   LIG d   1      -1.217  77.050 117.312  0.00  0.00    -0.090 HD
ATOM     21  H   LIG d   1      -2.663  77.684 116.877  0.00  0.00    -0.090 HD
ENDBRANCH   5  18
BRANCH   3  22
ATOM     22  C   LIG d   1      -2.861  77.879 112.250  0.00  0.00     0.382 C 
ATOM     23  O   LIG d   1      -2.439  77.832 111.069  0.00  0.00    -0.241 OA
ATOM     24  O   LIG d   1      -4.028  77.520 112.499  0.00  0.00    -0.241 OA
ENDBRANCH   3  22
TORSDOF 7
ENDMDL
