MODEL 1
REMARK VINA RESULT:      -5.0      0.000      0.000
REMARK  7 active torsions:
REMARK  status: ('A' for Active; 'I' for Inactive)
REMARK    1  A    between atoms: C_2  and  C_3 
REMARK    2  A    between atoms: C_3  and  O_6 
REMARK    3  A    between atoms: C_3  and  C_4 
REMARK    4  A    between atoms: C_7  and  O_6 
REMARK    5  A    between atoms: C_9  and  C_10 
REMARK    6  A    between atoms: N_15  and  C_14 
REMARK    7  A    between atoms: N_20  and  C_19 
REMARK       I    between atoms: C_22  and  N_20 
ROOT
ATOM      1  C   LIG d   1      -1.853  78.274 115.298  0.00  0.00     0.161 C 
ATOM      2  C   LIG d   1      -2.424  79.453 114.789  0.00  0.00     0.016 C 
ATOM      3  C   LIG d   1      -2.551  79.722 113.407  0.00  0.00     0.038 C 
ATOM      4  C   LIG d   1      -2.251  78.757 112.433  0.00  0.00     0.028 C 
ATOM      5  C   LIG d   1      -1.201  77.747 112.884  0.00  0.00    -0.047 C 
ATOM      6  C   LIG d   1      -1.622  77.164 114.252  0.00  0.00     0.091 C 
ENDROOT
BRANCH   1   7
ATOM      7  O   LIG d   1      -2.652  77.777 116.390  0.00  0.00    -0.368 OA
BRANCH   7   8
ATOM      8  C   LIG d   1      -4.079  77.701 116.152  0.00  0.00     0.119 C 
BRANCH   8   9
ATOM      9  C   LIG d   1      -4.787  78.199 117.428  0.00  0.00     0.028 C 
ATOM     10  C   LIG d   1      -4.977  79.725 117.436  0.00  0.00     0.006 C 
ENDBRANCH   8   9
BRANCH   8  11
ATOM     11  C   LIG d   1      -4.538  76.251 115.973  0.00  0.00     0.028 C 
ATOM     12  C   LIG d   1      -5.120  75.979 114.577  0.00  0.00     0.006 C 
ENDBRANCH   8  11
ENDBRANCH   7   8
ENDBRANCH   1   7
BRANCH   6  13
ATOM     13  N   LIG d   1      -0.608  76.229 114.806  0.00  0.00    -0.311 N 
ATOM     14  C   LIG d   1      -0.876  74.966 115.132  0.00  0.00     0.210 C 
ATOM     15  C   LIG d   1       0.309  74.180 115.704  0.00  0.00     0.109 C 
ATOM     16  O   LIG d   1      -1.974  74.411 114.972  0.00  0.00    -0.276 OA
ATOM     17  H   LIG d   1       0.318  76.587 114.939  0.00  0.00     0.149 HD
ENDBRANCH   6  13
BRANCH   5  18
ATOM     18  N   LIG d   1      -1.086  76.723 111.829  0.00  0.00     0.381 N 
ATOM     19  H   LIG d   1      -1.808  76.039 111.941  0.00  0.00    -0.090 HD
ATOM     20  H   LIG d   1      -0.198  76.261 111.920  0.00  0.00    -0.090 HD
ATOM     21  H   LIG d   1      -1.157  77.149 110.931  0.00  0.00    -0.090 HD
ENDBRANCH   5  18
BRANCH   3  22
ATOM     22  C   LIG d   1      -2.945  80.983 112.985  0.00  0.00     0.382 C 
ATOM     23  O   LIG d   1      -4.141  81.192 112.668  0.00  0.00    -0.241 OA
ATOM     24  O   LIG d   1      -2.112  81.902 112.877  0.00  0.00    -0.241 OA
ENDBRANCH   3  22
TORSDOF 7
ENDMDL
MODEL 2
REMARK VINA RESULT:      -4.9      2.133      2.688
REMARK  7 active torsions:
REMARK  status: ('A' for Active; 'I' for Inactive)
REMARK    1  A    between atoms: C_2  and  C_3 
REMARK    2  A    between atoms: C_3  and  O_6 
REMARK    3  A    between atoms: C_3  and  C_4 
REMARK    4  A    between atoms: C_7  and  O_6 
REMARK    5  A    between atoms: C_9  and  C_10 
REMARK    6  A    between atoms: N_15  and  C_14 
REMARK    7  A    between atoms: N_20  and  C_19 
REMARK       I    between atoms: C_22  and  N_20 
ROOT
ATOM      1  C   LIG d   1      -2.892  77.886 114.931  0.00  0.00     0.161 C 
ATOM      2  C   LIG d   1      -3.188  78.919 114.027  0.00  0.00     0.016 C 
ATOM      3  C   LIG d   1      -2.286  79.963 113.715  0.00  0.00     0.038 C 
ATOM      4  C   LIG d   1      -0.961  79.959 114.174  0.00  0.00     0.028 C 
ATOM      5  C   LIG d   1      -0.778  79.208 115.489  0.00  0.00    -0.047 C 
ATOM      6  C   LIG d   1      -1.411  77.804 115.357  0.00  0.00     0.091 C 
ENDROOT
BRANCH   1   7
ATOM      7  O   LIG d   1      -3.328  76.623 114.390  0.00  0.00    -0.368 OA
BRANCH   7   8
ATOM      8  C   LIG d   1      -4.386  75.950 115.115  0.00  0.00     0.119 C 
BRANCH   8   9
ATOM      9  C   LIG d   1      -3.869  74.549 115.494  0.00  0.00     0.028 C 
ATOM     10  C   LIG d   1      -3.963  74.277 117.005  0.00  0.00     0.006 C 
ENDBRANCH   8   9
BRANCH   8  11
ATOM     11  C   LIG d   1      -5.605  75.704 114.221  0.00  0.00     0.028 C 
ATOM     12  C   LIG d   1      -6.934  75.788 114.989  0.00  0.00     0.006 C 
ENDBRANCH   8  11
ENDBRANCH   7   8
ENDBRANCH   1   7
BRANCH   6  13
ATOM     13  N   LIG d   1      -1.350  77.033 116.626  0.00  0.00    -0.311 N 
ATOM     14  C   LIG d   1      -0.573  75.965 116.799  0.00  0.00     0.210 C 
ATOM     15  C   LIG d   1      -0.677  75.306 118.178  0.00  0.00     0.109 C 
ATOM     16  O   LIG d   1       0.216  75.520 115.952  0.00  0.00    -0.276 OA
ATOM     17  H   LIG d   1      -1.935  77.344 117.377  0.00  0.00     0.149 HD
ENDBRANCH   6  13
BRANCH   5  18
ATOM     18  N   LIG d   1       0.668  79.165 115.780  0.00  0.00     0.381 N 
ATOM     19  H   LIG d   1       1.130  78.579 115.114  0.00  0.00    -0.090 HD
ATOM     20  H   LIG d   1       0.804  78.771 116.694  0.00  0.00    -0.090 HD
ATOM     21  H   LIG d   1       1.050  80.084 115.745  0.00  0.00    -0.090 HD
ENDBRANCH   5  18
BRANCH   3  22
ATOM     22  C   LIG d   1      -2.721  81.046 112.966  0.00  0.00     0.382 C 
ATOM     23  O   LIG d   1      -1.886  81.826 112.449  0.00  0.00    -0.241 OA
ATOM     24  O   LIG d   1      -3.938  81.277 112.838  0.00  0.00    -0.241 OA
ENDBRANCH   3  22
TORSDOF 7
ENDMDL
MODEL 3
REMARK VINA RESULT:      -4.7      3.235      5.829
REMARK  7 active torsions:
REMARK  status: ('A' for Active; 'I' for Inactive)
REMARK    1  A    between atoms: C_2  and  C_3 
REMARK    2  A    between atoms: C_3  and  O_6 
REMARK    3  A    between atoms: C_3  and  C_4 
REMARK    4  A    between atoms: C_7  and  O_6 
REMARK    5  A    between atoms: C_9  and  C_10 
REMARK    6  A    between atoms: N_15  and  C_14 
REMARK    7  A    between atoms: N_20  and  C_19 
REMARK       I    between atoms: C_22  and  N_20 
ROOT
ATOM      1  C   LIG d   1      -0.698  79.773 113.325  0.00  0.00     0.161 C 
ATOM      2  C   LIG d   1      -1.718  79.246 112.515  0.00  0.00     0.016 C 
ATOM      3  C   LIG d   1      -2.635  78.266 112.958  0.00  0.00     0.038 C 
ATOM      4  C   LIG d   1      -2.689  77.853 114.298  0.00  0.00     0.028 C 
ATOM      5  C   LIG d   1      -1.356  77.985 115.027  0.00  0.00    -0.047 C 
ATOM      6  C   LIG d   1      -0.811  79.417 114.822  0.00  0.00     0.091 C 
ENDROOT
BRANCH   1   7
ATOM      7  O   LIG d   1      -0.628  81.203 113.155  0.00  0.00    -0.368 OA
BRANCH   7   8
ATOM      8  C   LIG d   1       0.182  81.674 112.050  0.00  0.00     0.119 C 
BRANCH   8   9
ATOM      9  C   LIG d   1       1.598  81.095 112.234  0.00  0.00     0.028 C 
ATOM     10  C   LIG d   1       2.333  80.904 110.896  0.00  0.00     0.006 C 
ENDBRANCH   8   9
BRANCH   8  11
ATOM     11  C   LIG d   1       0.357  83.195 112.096  0.00  0.00     0.028 C 
ATOM     12  C   LIG d   1      -0.369  83.914 110.948  0.00  0.00     0.006 C 
ENDBRANCH   8  11
ENDBRANCH   7   8
ENDBRANCH   1   7
BRANCH   6  13
ATOM     13  N   LIG d   1       0.531  79.605 115.432  0.00  0.00    -0.311 N 
ATOM     14  C   LIG d   1       0.717  80.104 116.653  0.00  0.00     0.210 C 
ATOM     15  C   LIG d   1       2.182  80.234 117.082  0.00  0.00     0.109 C 
ATOM     16  O   LIG d   1      -0.193  80.421 117.434  0.00  0.00    -0.276 OA
ATOM     17  H   LIG d   1       1.324  79.345 114.880  0.00  0.00     0.149 HD
ENDBRANCH   6  13
BRANCH   5  18
ATOM     18  N   LIG d   1      -1.589  77.652 116.445  0.00  0.00     0.381 N 
ATOM     19  H   LIG d   1      -2.565  77.721 116.653  0.00  0.00    -0.090 HD
ATOM     20  H   LIG d   1      -1.096  78.313 117.019  0.00  0.00    -0.090 HD
ATOM     21  H   LIG d   1      -1.265  76.729 116.636  0.00  0.00    -0.090 HD
ENDBRANCH   5  18
BRANCH   3  22
ATOM     22  C   LIG d   1      -3.485  77.658 112.047  0.00  0.00     0.382 C 
ATOM     23  O   LIG d   1      -3.063  77.348 110.907  0.00  0.00    -0.241 OA
ATOM     24  O   LIG d   1      -4.679  77.456 112.335  0.00  0.00    -0.241 OA
ENDBRANCH   3  22
TORSDOF 7
ENDMDL
MODEL 4
REMARK VINA RESULT:      -4.7      3.073      5.407
REMARK  7 active torsions:
REMARK  status: ('A' for Active; 'I' for Inactive)
REMARK    1  A    between atoms: C_2  and  C_3 
REMARK    2  A    between atoms: C_3  and  O_6 
REMARK    3  A    between atoms: C_3  and  C_4 
REMARK    4  A    between atoms: C_7  and  O_6 
REMARK    5  A    between atoms: C_9  and  C_10 
REMARK    6  A    between atoms: N_15  and  C_14 
REMARK    7  A    between atoms: N_20  and  C_19 
REMARK       I    between atoms: C_22  and  N_20 
ROOT
ATOM      1  C   LIG d   1      -1.172  80.258 113.147  0.00  0.00     0.161 C 
ATOM      2  C   LIG d   1      -1.696  79.037 112.690  0.00  0.00     0.016 C 
ATOM      3  C   LIG d   1      -1.194  78.348 111.562  0.00  0.00     0.038 C 
ATOM      4  C   LIG d   1      -0.028  78.761 110.901  0.00  0.00     0.028 C 
ATOM      5  C   LIG d   1       0.237  80.258 111.016  0.00  0.00    -0.047 C 
ATOM      6  C   LIG d   1       0.170  80.666 112.505  0.00  0.00     0.091 C 
ENDROOT
BRANCH   1   7
ATOM      7  O   LIG d   1      -1.053  80.231 114.583  0.00  0.00    -0.368 OA
BRANCH   7   8
ATOM      8  C   LIG d   1      -1.265  78.945 115.217  0.00  0.00     0.119 C 
BRANCH   8   9
ATOM      9  C   LIG d   1      -2.566  79.042 116.036  0.00  0.00     0.028 C 
ATOM     10  C   LIG d   1      -3.452  77.794 115.880  0.00  0.00     0.006 C 
ENDBRANCH   8   9
BRANCH   8  11
ATOM     11  C   LIG d   1      -0.165  78.639 116.237  0.00  0.00     0.028 C 
ATOM     12  C   LIG d   1      -0.094  79.679 117.367  0.00  0.00     0.006 C 
ENDBRANCH   8  11
ENDBRANCH   7   8
ENDBRANCH   1   7
BRANCH   6  13
ATOM     13  N   LIG d   1       0.334  82.131 112.699  0.00  0.00    -0.311 N 
ATOM     14  C   LIG d   1      -0.395  83.042 112.057  0.00  0.00     0.210 C 
ATOM     15  C   LIG d   1      -0.051  84.497 112.389  0.00  0.00     0.109 C 
ATOM     16  O   LIG d   1      -1.317  82.782 111.268  0.00  0.00    -0.276 OA
ATOM     17  H   LIG d   1       1.038  82.429 113.345  0.00  0.00     0.149 HD
ENDBRANCH   6  13
BRANCH   5  18
ATOM     18  N   LIG d   1       1.550  80.527 110.401  0.00  0.00     0.381 N 
ATOM     19  H   LIG d   1       2.259  80.538 111.107  0.00  0.00    -0.090 HD
ATOM     20  H   LIG d   1       1.526  81.432 109.965  0.00  0.00    -0.090 HD
ATOM     21  H   LIG d   1       1.758  79.829 109.721  0.00  0.00    -0.090 HD
ENDBRANCH   5  18
BRANCH   3  22
ATOM     22  C   LIG d   1      -1.883  77.254 111.061  0.00  0.00     0.382 C 
ATOM     23  O   LIG d   1      -3.099  77.360 110.769  0.00  0.00    -0.241 OA
ATOM     24  O   LIG d   1      -1.317  76.152 110.940  0.00  0.00    -0.241 OA
ENDBRANCH   3  22
TORSDOF 7
ENDMDL
MODEL 5
REMARK VINA RESULT:      -4.6      2.932      4.607
REMARK  7 active torsions:
REMARK  status: ('A' for Active; 'I' for Inactive)
REMARK    1  A    between atoms: C_2  and  C_3 
REMARK    2  A    between atoms: C_3  and  O_6 
REMARK    3  A    between atoms: C_3  and  C_4 
REMARK    4  A    between atoms: C_7  and  O_6 
REMARK    5  A    between atoms: C_9  and  C_10 
REMARK    6  A    between atoms: N_15  and  C_14 
REMARK    7  A    between atoms: N_20  and  C_19 
REMARK       I    between atoms: C_22  and  N_20 
ROOT
ATOM      1  C   LIG d   1      -1.436  79.864 114.355  0.00  0.00     0.161 C 
ATOM      2  C   LIG d   1      -2.375  78.819 114.340  0.00  0.00     0.016 C 
ATOM      3  C   LIG d   1      -2.612  78.002 113.211  0.00  0.00     0.038 C 
ATOM      4  C   LIG d   1      -1.813  78.077 112.061  0.00  0.00     0.028 C 
ATOM      5  C   LIG d   1      -1.189  79.452 111.845  0.00  0.00    -0.047 C 
ATOM      6  C   LIG d   1      -0.477  79.889 113.146  0.00  0.00     0.091 C 
ENDROOT
BRANCH   1   7
ATOM      7  O   LIG d   1      -0.688  79.831 115.587  0.00  0.00    -0.368 OA
BRANCH   7   8
ATOM      8  C   LIG d   1      -1.157  78.900 116.593  0.00  0.00     0.119 C 
BRANCH   8   9
ATOM      9  C   LIG d   1      -1.397  79.699 117.888  0.00  0.00     0.028 C 
ATOM     10  C   LIG d   1      -2.730  79.338 118.563  0.00  0.00     0.006 C 
ENDBRANCH   8   9
BRANCH   8  11
ATOM     11  C   LIG d   1      -0.080  77.870 116.945  0.00  0.00     0.028 C 
ATOM     12  C   LIG d   1      -0.336  76.497 116.304  0.00  0.00     0.006 C 
ENDBRANCH   8  11
ENDBRANCH   7   8
ENDBRANCH   1   7
BRANCH   6  13
ATOM     13  N   LIG d   1       0.089  81.259 113.049  0.00  0.00    -0.311 N 
ATOM     14  C   LIG d   1       1.357  81.507 112.722  0.00  0.00     0.210 C 
ATOM     15  C   LIG d   1       1.740  82.990 112.700  0.00  0.00     0.109 C 
ATOM     16  O   LIG d   1       2.191  80.642 112.417  0.00  0.00    -0.276 OA
ATOM     17  H   LIG d   1      -0.526  82.023 113.250  0.00  0.00     0.149 HD
ENDBRANCH   6  13
BRANCH   5  18
ATOM     18  N   LIG d   1      -0.275  79.350 110.692  0.00  0.00     0.381 N 
ATOM     19  H   LIG d   1       0.655  79.591 110.974  0.00  0.00    -0.090 HD
ATOM     20  H   LIG d   1      -0.569  80.002 109.986  0.00  0.00    -0.090 HD
ATOM     21  H   LIG d   1      -0.289  78.424 110.326  0.00  0.00    -0.090 HD
ENDBRANCH   5  18
BRANCH   3  22
ATOM     22  C   LIG d   1      -3.685  77.124 113.212  0.00  0.00     0.382 C 
ATOM     23  O   LIG d   1      -3.662  76.106 113.944  0.00  0.00    -0.241 OA
ATOM     24  O   LIG d   1      -4.658  77.314 112.456  0.00  0.00    -0.241 OA
ENDBRANCH   3  22
TORSDOF 7
ENDMDL
MODEL 6
REMARK VINA RESULT:      -4.6      1.326      2.102
REMARK  7 active torsions:
REMARK  status: ('A' for Active; 'I' for Inactive)
REMARK    1  A    between atoms: C_2  and  C_3 
REMARK    2  A    between atoms: C_3  and  O_6 
REMARK    3  A    between atoms: C_3  and  C_4 
REMARK    4  A    between atoms: C_7  and  O_6 
REMARK    5  A    between atoms: C_9  and  C_10 
REMARK    6  A    between atoms: N_15  and  C_14 
REMARK    7  A    between atoms: N_20  and  C_19 
REMARK       I    between atoms: C_22  and  N_20 
ROOT
ATOM      1  C   LIG d   1      -2.640  78.600 115.831  0.00  0.00     0.161 C 
ATOM      2  C   LIG d   1      -2.981  79.717 115.050  0.00  0.00     0.016 C 
ATOM      3  C   LIG d   1      -2.727  79.802 113.662  0.00  0.00     0.038 C 
ATOM      4  C   LIG d   1      -2.249  78.706 112.927  0.00  0.00     0.028 C 
ATOM      5  C   LIG d   1      -1.422  77.733 113.759  0.00  0.00    -0.047 C 
ATOM      6  C   LIG d   1      -2.220  77.352 115.027  0.00  0.00     0.091 C 
ENDROOT
BRANCH   1   7
ATOM      7  O   LIG d   1      -3.726  78.278 116.723  0.00  0.00    -0.368 OA
BRANCH   7   8
ATOM      8  C   LIG d   1      -4.275  79.383 117.483  0.00  0.00     0.119 C 
BRANCH   8   9
ATOM      9  C   LIG d   1      -3.754  79.257 118.927  0.00  0.00     0.028 C 
ATOM     10  C   LIG d   1      -2.650  80.280 119.245  0.00  0.00     0.006 C 
ENDBRANCH   8   9
BRANCH   8  11
ATOM     11  C   LIG d   1      -5.799  79.281 117.592  0.00  0.00     0.028 C 
ATOM     12  C   LIG d   1      -6.447  80.572 118.117  0.00  0.00     0.006 C 
ENDBRANCH   8  11
ENDBRANCH   7   8
ENDBRANCH   1   7
BRANCH   6  13
ATOM     13  N   LIG d   1      -1.448  76.468 115.938  0.00  0.00    -0.311 N 
ATOM     14  C   LIG d   1      -1.545  75.140 115.928  0.00  0.00     0.210 C 
ATOM     15  C   LIG d   1      -0.676  74.420 116.964  0.00  0.00     0.109 C 
ATOM     16  O   LIG d   1      -2.243  74.488 115.137  0.00  0.00    -0.276 OA
ATOM     17  H   LIG d   1      -0.833  76.912 116.592  0.00  0.00     0.149 HD
ENDBRANCH   6  13
BRANCH   5  18
ATOM     18  N   LIG d   1      -1.105  76.573 112.905  0.00  0.00     0.381 N 
ATOM     19  H   LIG d   1      -0.564  76.870 112.117  0.00  0.00    -0.090 HD
ATOM     20  H   LIG d   1      -1.963  76.175 112.566  0.00  0.00    -0.090 HD
ATOM     21  H   LIG d   1      -0.598  75.893 113.427  0.00  0.00    -0.090 HD
ENDBRANCH   5  18
BRANCH   3  22
ATOM     22  C   LIG d   1      -2.915  81.006 113.002  0.00  0.00     0.382 C 
ATOM     23  O   LIG d   1      -1.935  81.759 112.780  0.00  0.00    -0.241 OA
ATOM     24  O   LIG d   1      -4.057  81.371 112.664  0.00  0.00    -0.241 OA
ENDBRANCH   3  22
TORSDOF 7
ENDMDL
MODEL 7
REMARK VINA RESULT:      -4.6      2.980      5.361
REMARK  7 active torsions:
REMARK  status: ('A' for Active; 'I' for Inactive)
REMARK    1  A    between atoms: C_2  and  C_3 
REMARK    2  A    between atoms: C_3  and  O_6 
REMARK    3  A    between atoms: C_3  and  C_4 
REMARK    4  A    between atoms: C_7  and  O_6 
REMARK    5  A    between atoms: C_9  and  C_10 
REMARK    6  A    between atoms: N_15  and  C_14 
REMARK    7  A    between atoms: N_20  and  C_19 
REMARK       I    between atoms: C_22  and  N_20 
ROOT
ATOM      1  C   LIG d   1      -1.709  79.866 113.161  0.00  0.00     0.161 C 
ATOM      2  C   LIG d   1      -2.575  78.883 113.669  0.00  0.00     0.016 C 
ATOM      3  C   LIG d   1      -2.744  77.612 113.073  0.00  0.00     0.038 C 
ATOM      4  C   LIG d   1      -1.940  77.179 112.008  0.00  0.00     0.028 C 
ATOM      5  C   LIG d   1      -1.408  78.320 111.148  0.00  0.00    -0.047 C 
ATOM      6  C   LIG d   1      -0.741  79.371 112.066  0.00  0.00     0.091 C 
ENDROOT
BRANCH   1   7
ATOM      7  O   LIG d   1      -0.973  80.474 114.241  0.00  0.00    -0.368 OA
BRANCH   7   8
ATOM      8  C   LIG d   1       0.147  79.714 114.757  0.00  0.00     0.119 C 
BRANCH   8   9
ATOM      9  C   LIG d   1      -0.180  79.339 116.215  0.00  0.00     0.028 C 
ATOM     10  C   LIG d   1      -0.398  77.827 116.397  0.00  0.00     0.006 C 
ENDBRANCH   8   9
BRANCH   8  11
ATOM     11  C   LIG d   1       1.414  80.572 114.834  0.00  0.00     0.028 C 
ATOM     12  C   LIG d   1       2.003  80.639 116.251  0.00  0.00     0.006 C 
ENDBRANCH   8  11
ENDBRANCH   7   8
ENDBRANCH   1   7
BRANCH   6  13
ATOM     13  N   LIG d   1      -0.268  80.562 111.313  0.00  0.00    -0.311 N 
ATOM     14  C   LIG d   1       1.018  80.815 111.074  0.00  0.00     0.210 C 
ATOM     15  C   LIG d   1       1.289  82.107 110.297  0.00  0.00     0.109 C 
ATOM     16  O   LIG d   1       1.957  80.075 111.404  0.00  0.00    -0.276 OA
ATOM     17  H   LIG d   1      -0.965  81.199 110.981  0.00  0.00     0.149 HD
ENDBRANCH   6  13
BRANCH   5  18
ATOM     18  N   LIG d   1      -0.477  77.739 110.163  0.00  0.00     0.381 N 
ATOM     19  H   LIG d   1      -0.842  77.859 109.240  0.00  0.00    -0.090 HD
ATOM     20  H   LIG d   1      -0.388  76.754 110.342  0.00  0.00    -0.090 HD
ATOM     21  H   LIG d   1       0.414  78.179 110.235  0.00  0.00    -0.090 HD
ENDBRANCH   5  18
BRANCH   3  22
ATOM     22  C   LIG d   1      -3.755  76.774 113.518  0.00  0.00     0.382 C 
ATOM     23  O   LIG d   1      -3.483  75.808 114.271  0.00  0.00    -0.241 OA
ATOM     24  O   LIG d   1      -4.930  76.945 113.141  0.00  0.00    -0.241 OA
ENDBRANCH   3  22
TORSDOF 7
ENDMDL
MODEL 8
REMARK VINA RESULT:      -4.4      2.447      4.397
REMARK  7 active torsions:
REMARK  status: ('A' for Active; 'I' for Inactive)
REMARK    1  A    between atoms: C_2  and  C_3 
REMARK    2  A    between atoms: C_3  and  O_6 
REMARK    3  A    between atoms: C_3  and  C_4 
REMARK    4  A    between atoms: C_7  and  O_6 
REMARK    5  A    between atoms: C_9  and  C_10 
REMARK    6  A    between atoms: N_15  and  C_14 
REMARK    7  A    between atoms: N_20  and  C_19 
REMARK       I    between atoms: C_22  and  N_20 
ROOT
ATOM      1  C   LIG d   1      -2.898  78.334 115.948  0.00  0.00     0.161 C 
ATOM      2  C   LIG d   1      -1.727  79.101 116.067  0.00  0.00     0.016 C 
ATOM      3  C   LIG d   1      -0.471  78.555 116.421  0.00  0.00     0.038 C 
ATOM      4  C   LIG d   1      -0.270  77.171 116.533  0.00  0.00     0.028 C 
ATOM      5  C   LIG d   1      -1.531  76.404 116.917  0.00  0.00    -0.047 C 
ATOM      6  C   LIG d   1      -2.674  76.807 115.958  0.00  0.00     0.091 C 
ENDROOT
BRANCH   1   7
ATOM      7  O   LIG d   1      -3.621  78.727 114.765  0.00  0.00    -0.368 OA
BRANCH   7   8
ATOM      8  C   LIG d   1      -2.835  78.877 113.557  0.00  0.00     0.119 C 
BRANCH   8   9
ATOM      9  C   LIG d   1      -3.062  80.308 113.032  0.00  0.00     0.028 C 
ATOM     10  C   LIG d   1      -1.750  81.098 112.897  0.00  0.00     0.006 C 
ENDBRANCH   8   9
BRANCH   8  11
ATOM     11  C   LIG d   1      -3.339  77.952 112.446  0.00  0.00     0.028 C 
ATOM     12  C   LIG d   1      -2.293  77.719 111.344  0.00  0.00     0.006 C 
ENDBRANCH   8  11
ENDBRANCH   7   8
ENDBRANCH   1   7
BRANCH   6  13
ATOM     13  N   LIG d   1      -3.967  76.166 116.316  0.00  0.00    -0.311 N 
ATOM     14  C   LIG d   1      -4.656  75.390 115.481  0.00  0.00     0.210 C 
ATOM     15  C   LIG d   1      -5.973  74.845 116.043  0.00  0.00     0.109 C 
ATOM     16  O   LIG d   1      -4.286  75.074 114.340  0.00  0.00    -0.276 OA
ATOM     17  H   LIG d   1      -4.325  76.343 117.234  0.00  0.00     0.149 HD
ENDBRANCH   6  13
BRANCH   5  18
ATOM     18  N   LIG d   1      -1.211  74.965 116.863  0.00  0.00     0.381 N 
ATOM     19  H   LIG d   1      -1.363  74.551 117.761  0.00  0.00    -0.090 HD
ATOM     20  H   LIG d   1      -0.241  74.857 116.626  0.00  0.00    -0.090 HD
ATOM     21  H   LIG d   1      -1.780  74.515 116.180  0.00  0.00    -0.090 HD
ENDBRANCH   5  18
BRANCH   3  22
ATOM     22  C   LIG d   1       0.590  79.400 116.705  0.00  0.00     0.382 C 
ATOM     23  O   LIG d   1       0.943  80.267 115.870  0.00  0.00    -0.241 OA
ATOM     24  O   LIG d   1       1.227  79.278 117.769  0.00  0.00    -0.241 OA
ENDBRANCH   3  22
TORSDOF 7
ENDMDL
MODEL 9
REMARK VINA RESULT:      -4.4      2.787      4.028
REMARK  7 active torsions:
REMARK  status: ('A' for Active; 'I' for Inactive)
REMARK    1  A    between atoms: C_2  and  C_3 
REMARK    2  A    between atoms: C_3  and  O_6 
REMARK    3  A    between atoms: C_3  and  C_4 
REMARK    4  A    between atoms: C_7  and  O_6 
REMARK    5  A    between atoms: C_9  and  C_10 
REMARK    6  A    between atoms: N_15  and  C_14 
REMARK    7  A    between atoms: N_20  and  C_19 
REMARK       I    between atoms: C_22  and  N_20 
ROOT
ATOM      1  C   LIG d   1      -3.608  77.898 116.889  0.00  0.00     0.161 C 
ATOM      2  C   LIG d   1      -2.725  78.892 117.342  0.00  0.00     0.016 C 
ATOM      3  C   LIG d   1      -1.430  79.085 116.806  0.00  0.00     0.038 C 
ATOM      4  C   LIG d   1      -0.986  78.389 115.672  0.00  0.00     0.028 C 
ATOM      5  C   LIG d   1      -1.650  77.027 115.498  0.00  0.00    -0.047 C 
ATOM      6  C   LIG d   1      -3.184  77.203 115.579  0.00  0.00     0.091 C 
ENDROOT
BRANCH   1   7
ATOM      7  O   LIG d   1      -4.935  78.447 116.758  0.00  0.00    -0.368 OA
BRANCH   7   8
ATOM      8  C   LIG d   1      -5.807  78.286 117.904  0.00  0.00     0.119 C 
BRANCH   8   9
ATOM      9  C   LIG d   1      -6.450  76.890 117.805  0.00  0.00     0.028 C 
ATOM     10  C   LIG d   1      -7.577  76.835 116.760  0.00  0.00     0.006 C 
ENDBRANCH   8   9
BRANCH   8  11
ATOM     11  C   LIG d   1      -6.975  79.275 117.858  0.00  0.00     0.028 C 
ATOM     12  C   LIG d   1      -6.525  80.737 118.008  0.00  0.00     0.006 C 
ENDBRANCH   8  11
ENDBRANCH   7   8
ENDBRANCH   1   7
BRANCH   6  13
ATOM     13  N   LIG d   1      -3.907  75.907 115.502  0.00  0.00    -0.311 N 
ATOM     14  C   LIG d   1      -4.842  75.642 114.591  0.00  0.00     0.210 C 
ATOM     15  C   LIG d   1      -5.477  74.253 114.701  0.00  0.00     0.109 C 
ATOM     16  O   LIG d   1      -5.182  76.414 113.681  0.00  0.00    -0.276 OA
ATOM     17  H   LIG d   1      -3.672  75.212 116.183  0.00  0.00     0.149 HD
ENDBRANCH   6  13
BRANCH   5  18
ATOM     18  N   LIG d   1      -1.199  76.473 114.207  0.00  0.00     0.381 N 
ATOM     19  H   LIG d   1      -1.932  75.930 113.797  0.00  0.00    -0.090 HD
ATOM     20  H   LIG d   1      -0.412  75.870 114.370  0.00  0.00    -0.090 HD
ATOM     21  H   LIG d   1      -0.939  77.212 113.591  0.00  0.00    -0.090 HD
ENDBRANCH   5  18
BRANCH   3  22
ATOM     22  C   LIG d   1      -0.550  79.954 117.433  0.00  0.00     0.382 C 
ATOM     23  O   LIG d   1       0.438  80.405 116.805  0.00  0.00    -0.241 OA
ATOM     24  O   LIG d   1      -0.707  80.258 118.630  0.00  0.00    -0.241 OA
ENDBRANCH   3  22
TORSDOF 7
ENDMDL
