MODEL 1
REMARK VINA RESULT:      -5.0      0.000      0.000
REMARK  7 active torsions:
REMARK  status: ('A' for Active; 'I' for Inactive)
REMARK    1  A    between atoms: C_2  and  C_3 
REMARK    2  A    between atoms: C_3  and  O_6 
REMARK    3  A    between atoms: C_3  and  C_4 
REMARK    4  A    between atoms: C_7  and  O_6 
REMARK    5  A    between atoms: C_9  and  C_10 
REMARK    6  A    between atoms: N_15  and  C_14 
REMARK    7  A    between atoms: N_20  and  C_19 
REMARK       I    between atoms: C_22  and  N_20 
ROOT
ATOM      1  C   LIG d   1      -3.466  79.210 115.569  0.00  0.00     0.161 C 
ATOM      2  C   LIG d   1      -3.212  80.233 114.639  0.00  0.00     0.016 C 
ATOM      3  C   LIG d   1      -2.299  80.102 113.568  0.00  0.00     0.038 C 
ATOM      4  C   LIG d   1      -1.686  78.878 113.262  0.00  0.00     0.028 C 
ATOM      5  C   LIG d   1      -1.525  77.962 114.471  0.00  0.00    -0.047 C 
ATOM      6  C   LIG d   1      -2.889  77.831 115.186  0.00  0.00     0.091 C 
ENDROOT
BRANCH   1   7
ATOM      7  O   LIG d   1      -4.883  79.111 115.811  0.00  0.00    -0.368 OA
BRANCH   7   8
ATOM      8  C   LIG d   1      -5.326  79.452 117.148  0.00  0.00     0.119 C 
BRANCH   8   9
ATOM      9  C   LIG d   1      -6.681  78.755 117.379  0.00  0.00     0.028 C 
ATOM     10  C   LIG d   1      -6.722  77.339 116.778  0.00  0.00     0.006 C 
ENDBRANCH   8   9
BRANCH   8  11
ATOM     11  C   LIG d   1      -5.616  80.951 117.273  0.00  0.00     0.028 C 
ATOM     12  C   LIG d   1      -7.119  81.270 117.274  0.00  0.00     0.006 C 
ENDBRANCH   8  11
ENDBRANCH   7   8
ENDBRANCH   1   7
BRANCH   6  13
ATOM     13  N   LIG d   1      -2.803  77.020 116.428  0.00  0.00    -0.311 N 
ATOM     14  C   LIG d   1      -3.378  75.826 116.566  0.00  0.00     0.210 C 
ATOM     15  C   LIG d   1      -3.182  75.168 117.935  0.00  0.00     0.109 C 
ATOM     16  O   LIG d   1      -4.005  75.236 115.673  0.00  0.00    -0.276 OA
ATOM     17  H   LIG d   1      -2.286  77.409 117.192  0.00  0.00     0.149 HD
ENDBRANCH   6  13
BRANCH   5  18
ATOM     18  N   LIG d   1      -1.000  76.672 113.986  0.00  0.00     0.381 N 
ATOM     19  H   LIG d   1      -1.272  75.939 114.611  0.00  0.00    -0.090 HD
ATOM     20  H   LIG d   1       0.004  76.715 113.969  0.00  0.00    -0.090 HD
ATOM     21  H   LIG d   1      -1.347  76.484 113.071  0.00  0.00    -0.090 HD
ENDBRANCH   5  18
BRANCH   3  22
ATOM     22  C   LIG d   1      -1.962  81.215 112.813  0.00  0.00     0.382 C 
ATOM     23  O   LIG d   1      -2.833  82.075 112.541  0.00  0.00    -0.241 OA
ATOM     24  O   LIG d   1      -0.808  81.346 112.363  0.00  0.00    -0.241 OA
ENDBRANCH   3  22
TORSDOF 7
ENDMDL
MODEL 2
REMARK VINA RESULT:      -5.0      2.594      5.368
REMARK  7 active torsions:
REMARK  status: ('A' for Active; 'I' for Inactive)
REMARK    1  A    between atoms: C_2  and  C_3 
REMARK    2  A    between atoms: C_3  and  O_6 
REMARK    3  A    between atoms: C_3  and  C_4 
REMARK    4  A    between atoms: C_7  and  O_6 
REMARK    5  A    between atoms: C_9  and  C_10 
REMARK    6  A    between atoms: N_15  and  C_14 
REMARK    7  A    between atoms: N_20  and  C_19 
REMARK       I    between atoms: C_22  and  N_20 
ROOT
ATOM      1  C   LIG d   1      -1.873  76.436 115.069  0.00  0.00     0.161 C 
ATOM      2  C   LIG d   1      -1.814  75.910 116.371  0.00  0.00     0.016 C 
ATOM      3  C   LIG d   1      -1.420  76.666 117.499  0.00  0.00     0.038 C 
ATOM      4  C   LIG d   1      -1.201  78.049 117.425  0.00  0.00     0.028 C 
ATOM      5  C   LIG d   1      -0.758  78.519 116.043  0.00  0.00    -0.047 C 
ATOM      6  C   LIG d   1      -1.744  77.972 114.987  0.00  0.00     0.091 C 
ENDROOT
BRANCH   1   7
ATOM      7  O   LIG d   1      -3.082  75.999 114.419  0.00  0.00    -0.368 OA
BRANCH   7   8
ATOM      8  C   LIG d   1      -4.180  75.637 115.292  0.00  0.00     0.119 C 
BRANCH   8   9
ATOM      9  C   LIG d   1      -4.828  74.363 114.717  0.00  0.00     0.028 C 
ATOM     10  C   LIG d   1      -6.296  74.205 115.148  0.00  0.00     0.006 C 
ENDBRANCH   8   9
BRANCH   8  11
ATOM     11  C   LIG d   1      -5.284  76.699 115.269  0.00  0.00     0.028 C 
ATOM     12  C   LIG d   1      -5.169  77.703 116.428  0.00  0.00     0.006 C 
ENDBRANCH   8  11
ENDBRANCH   7   8
ENDBRANCH   1   7
BRANCH   6  13
ATOM     13  N   LIG d   1      -1.337  78.315 113.599  0.00  0.00    -0.311 N 
ATOM     14  C   LIG d   1      -2.136  78.935 112.733  0.00  0.00     0.210 C 
ATOM     15  C   LIG d   1      -1.526  79.176 111.348  0.00  0.00     0.109 C 
ATOM     16  O   LIG d   1      -3.281  79.337 112.989  0.00  0.00    -0.276 OA
ATOM     17  H   LIG d   1      -0.413  78.053 113.317  0.00  0.00     0.149 HD
ENDBRANCH   6  13
BRANCH   5  18
ATOM     18  N   LIG d   1      -0.700  79.993 116.071  0.00  0.00     0.381 N 
ATOM     19  H   LIG d   1      -1.066  80.330 116.939  0.00  0.00    -0.090 HD
ATOM     20  H   LIG d   1      -1.269  80.355 115.327  0.00  0.00    -0.090 HD
ATOM     21  H   LIG d   1       0.242  80.299 115.959  0.00  0.00    -0.090 HD
ENDBRANCH   5  18
BRANCH   3  22
ATOM     22  C   LIG d   1      -1.202  76.028 118.711  0.00  0.00     0.382 C 
ATOM     23  O   LIG d   1      -0.145  76.244 119.352  0.00  0.00    -0.241 OA
ATOM     24  O   LIG d   1      -2.029  75.206 119.150  0.00  0.00    -0.241 OA
ENDBRANCH   3  22
TORSDOF 7
ENDMDL
MODEL 3
REMARK VINA RESULT:      -4.9      2.592      5.840
REMARK  7 active torsions:
REMARK  status: ('A' for Active; 'I' for Inactive)
REMARK    1  A    between atoms: C_2  and  C_3 
REMARK    2  A    between atoms: C_3  and  O_6 
REMARK    3  A    between atoms: C_3  and  C_4 
REMARK    4  A    between atoms: C_7  and  O_6 
REMARK    5  A    between atoms: C_9  and  C_10 
REMARK    6  A    between atoms: N_15  and  C_14 
REMARK    7  A    between atoms: N_20  and  C_19 
REMARK       I    between atoms: C_22  and  N_20 
ROOT
ATOM      1  C   LIG d   1      -4.384  78.495 116.058  0.00  0.00     0.161 C 
ATOM      2  C   LIG d   1      -4.191  77.304 115.340  0.00  0.00     0.016 C 
ATOM      3  C   LIG d   1      -5.145  76.261 115.293  0.00  0.00     0.038 C 
ATOM      4  C   LIG d   1      -6.428  76.404 115.841  0.00  0.00     0.028 C 
ATOM      5  C   LIG d   1      -6.483  77.387 117.005  0.00  0.00    -0.047 C 
ATOM      6  C   LIG d   1      -5.823  78.716 116.571  0.00  0.00     0.091 C 
ENDROOT
BRANCH   1   7
ATOM      7  O   LIG d   1      -3.958  79.619 115.263  0.00  0.00    -0.368 OA
BRANCH   7   8
ATOM      8  C   LIG d   1      -2.743  79.433 114.496  0.00  0.00     0.119 C 
BRANCH   8   9
ATOM      9  C   LIG d   1      -1.581  80.025 115.318  0.00  0.00     0.028 C 
ATOM     10  C   LIG d   1      -0.786  78.946 116.072  0.00  0.00     0.006 C 
ENDBRANCH   8   9
BRANCH   8  11
ATOM     11  C   LIG d   1      -2.774  80.244 113.197  0.00  0.00     0.028 C 
ATOM     12  C   LIG d   1      -1.928  79.612 112.080  0.00  0.00     0.006 C 
ENDBRANCH   8  11
ENDBRANCH   7   8
ENDBRANCH   1   7
BRANCH   6  13
ATOM     13  N   LIG d   1      -5.759  79.706 117.678  0.00  0.00    -0.311 N 
ATOM     14  C   LIG d   1      -6.357  80.895 117.634  0.00  0.00     0.210 C 
ATOM     15  C   LIG d   1      -6.148  81.770 118.873  0.00  0.00     0.109 C 
ATOM     16  O   LIG d   1      -7.068  81.294 116.699  0.00  0.00    -0.276 OA
ATOM     17  H   LIG d   1      -5.229  79.450 118.488  0.00  0.00     0.149 HD
ENDBRANCH   6  13
BRANCH   5  18
ATOM     18  N   LIG d   1      -7.898  77.544 117.390  0.00  0.00     0.381 N 
ATOM     19  H   LIG d   1      -8.079  77.034 118.231  0.00  0.00    -0.090 HD
ATOM     20  H   LIG d   1      -8.477  77.165 116.661  0.00  0.00    -0.090 HD
ATOM     21  H   LIG d   1      -8.110  78.508 117.525  0.00  0.00    -0.090 HD
ENDBRANCH   5  18
BRANCH   3  22
ATOM     22  C   LIG d   1      -4.803  75.042 114.725  0.00  0.00     0.382 C 
ATOM     23  O   LIG d   1      -3.650  74.575 114.890  0.00  0.00    -0.241 OA
ATOM     24  O   LIG d   1      -5.619  74.426 114.014  0.00  0.00    -0.241 OA
ENDBRANCH   3  22
TORSDOF 7
ENDMDL
MODEL 4
REMARK VINA RESULT:      -4.9      3.373      5.897
REMARK  7 active torsions:
REMARK  status: ('A' for Active; 'I' for Inactive)
REMARK    1  A    between atoms: C_2  and  C_3 
REMARK    2  A    between atoms: C_3  and  O_6 
REMARK    3  A    between atoms: C_3  and  C_4 
REMARK    4  A    between atoms: C_7  and  O_6 
REMARK    5  A    between atoms: C_9  and  C_10 
REMARK    6  A    between atoms: N_15  and  C_14 
REMARK    7  A    between atoms: N_20  and  C_19 
REMARK       I    between atoms: C_22  and  N_20 
ROOT
ATOM      1  C   LIG d   1      -1.499  80.163 114.335  0.00  0.00     0.161 C 
ATOM      2  C   LIG d   1      -2.278  79.055 114.707  0.00  0.00     0.016 C 
ATOM      3  C   LIG d   1      -2.662  78.035 113.806  0.00  0.00     0.038 C 
ATOM      4  C   LIG d   1      -2.163  77.977 112.497  0.00  0.00     0.028 C 
ATOM      5  C   LIG d   1      -1.783  79.341 111.932  0.00  0.00    -0.047 C 
ATOM      6  C   LIG d   1      -0.853  80.059 112.937  0.00  0.00     0.091 C 
ENDROOT
BRANCH   1   7
ATOM      7  O   LIG d   1      -0.492  80.412 115.335  0.00  0.00    -0.368 OA
BRANCH   7   8
ATOM      8  C   LIG d   1      -0.713  79.796 116.628  0.00  0.00     0.119 C 
BRANCH   8   9
ATOM      9  C   LIG d   1      -0.732  80.923 117.680  0.00  0.00     0.028 C 
ATOM     10  C   LIG d   1      -1.870  80.754 118.700  0.00  0.00     0.006 C 
ENDBRANCH   8   9
BRANCH   8  11
ATOM     11  C   LIG d   1       0.460  78.893 117.023  0.00  0.00     0.028 C 
ATOM     12  C   LIG d   1       0.056  77.416 117.155  0.00  0.00     0.006 C 
ENDBRANCH   8  11
ENDBRANCH   7   8
ENDBRANCH   1   7
BRANCH   6  13
ATOM     13  N   LIG d   1      -0.502  81.436 112.501  0.00  0.00    -0.311 N 
ATOM     14  C   LIG d   1       0.610  81.730 111.830  0.00  0.00     0.210 C 
ATOM     15  C   LIG d   1       0.789  83.214 111.494  0.00  0.00     0.109 C 
ATOM     16  O   LIG d   1       1.450  80.899 111.452  0.00  0.00    -0.276 OA
ATOM     17  H   LIG d   1      -1.143  82.167 112.738  0.00  0.00     0.149 HD
ENDBRANCH   6  13
BRANCH   5  18
ATOM     18  N   LIG d   1      -1.151  79.119 110.618  0.00  0.00     0.381 N 
ATOM     19  H   LIG d   1      -1.799  78.670 110.002  0.00  0.00    -0.090 HD
ATOM     20  H   LIG d   1      -0.357  78.514 110.736  0.00  0.00    -0.090 HD
ATOM     21  H   LIG d   1      -0.859  79.989 110.228  0.00  0.00    -0.090 HD
ENDBRANCH   5  18
BRANCH   3  22
ATOM     22  C   LIG d   1      -3.586  77.081 114.202  0.00  0.00     0.382 C 
ATOM     23  O   LIG d   1      -3.548  76.616 115.367  0.00  0.00    -0.241 OA
ATOM     24  O   LIG d   1      -4.430  76.646 113.396  0.00  0.00    -0.241 OA
ENDBRANCH   3  22
TORSDOF 7
ENDMDL
MODEL 5
REMARK VINA RESULT:      -4.8      2.792      3.434
REMARK  7 active torsions:
REMARK  status: ('A' for Active; 'I' for Inactive)
REMARK    1  A    between atoms: C_2  and  C_3 
REMARK    2  A    between atoms: C_3  and  O_6 
REMARK    3  A    between atoms: C_3  and  C_4 
REMARK    4  A    between atoms: C_7  and  O_6 
REMARK    5  A    between atoms: C_9  and  C_10 
REMARK    6  A    between atoms: N_15  and  C_14 
REMARK    7  A    between atoms: N_20  and  C_19 
REMARK       I    between atoms: C_22  and  N_20 
ROOT
ATOM      1  C   LIG d   1      -3.365  76.582 115.437  0.00  0.00     0.161 C 
ATOM      2  C   LIG d   1      -3.419  76.988 114.093  0.00  0.00     0.016 C 
ATOM      3  C   LIG d   1      -2.480  77.867 113.508  0.00  0.00     0.038 C 
ATOM      4  C   LIG d   1      -1.328  78.285 114.191  0.00  0.00     0.028 C 
ATOM      5  C   LIG d   1      -1.498  78.305 115.707  0.00  0.00    -0.047 C 
ATOM      6  C   LIG d   1      -2.054  76.939 116.168  0.00  0.00     0.091 C 
ENDROOT
BRANCH   1   7
ATOM      7  O   LIG d   1      -3.622  75.167 115.531  0.00  0.00    -0.368 OA
BRANCH   7   8
ATOM      8  C   LIG d   1      -4.893  74.787 116.115  0.00  0.00     0.119 C 
BRANCH   8   9
ATOM      9  C   LIG d   1      -5.822  74.360 114.963  0.00  0.00     0.028 C 
ATOM     10  C   LIG d   1      -6.718  75.511 114.474  0.00  0.00     0.006 C 
ENDBRANCH   8   9
BRANCH   8  11
ATOM     11  C   LIG d   1      -5.585  75.986 116.771  0.00  0.00     0.028 C 
ATOM     12  C   LIG d   1      -5.740  75.825 118.292  0.00  0.00     0.006 C 
ENDBRANCH   8  11
ENDBRANCH   7   8
ENDBRANCH   1   7
BRANCH   6  13
ATOM     13  N   LIG d   1      -2.329  76.902 117.628  0.00  0.00    -0.311 N 
ATOM     14  C   LIG d   1      -1.739  76.050 118.464  0.00  0.00     0.210 C 
ATOM     15  C   LIG d   1      -2.180  76.168 119.926  0.00  0.00     0.109 C 
ATOM     16  O   LIG d   1      -0.868  75.229 118.139  0.00  0.00    -0.276 OA
ATOM     17  H   LIG d   1      -2.999  77.556 117.983  0.00  0.00     0.149 HD
ENDBRANCH   6  13
BRANCH   5  18
ATOM     18  N   LIG d   1      -0.184  78.624 116.298  0.00  0.00     0.381 N 
ATOM     19  H   LIG d   1      -0.301  78.906 117.251  0.00  0.00    -0.090 HD
ATOM     20  H   LIG d   1       0.223  79.390 115.790  0.00  0.00    -0.090 HD
ATOM     21  H   LIG d   1       0.414  77.829 116.250  0.00  0.00    -0.090 HD
ENDBRANCH   5  18
BRANCH   3  22
ATOM     22  C   LIG d   1      -2.710  78.371 112.236  0.00  0.00     0.382 C 
ATOM     23  O   LIG d   1      -2.601  79.602 112.020  0.00  0.00    -0.241 OA
ATOM     24  O   LIG d   1      -3.067  77.615 111.313  0.00  0.00    -0.241 OA
ENDBRANCH   3  22
TORSDOF 7
ENDMDL
MODEL 6
REMARK VINA RESULT:      -4.8      1.516      2.056
REMARK  7 active torsions:
REMARK  status: ('A' for Active; 'I' for Inactive)
REMARK    1  A    between atoms: C_2  and  C_3 
REMARK    2  A    between atoms: C_3  and  O_6 
REMARK    3  A    between atoms: C_3  and  C_4 
REMARK    4  A    between atoms: C_7  and  O_6 
REMARK    5  A    between atoms: C_9  and  C_10 
REMARK    6  A    between atoms: N_15  and  C_14 
REMARK    7  A    between atoms: N_20  and  C_19 
REMARK       I    between atoms: C_22  and  N_20 
ROOT
ATOM      1  C   LIG d   1      -2.413  78.749 115.174  0.00  0.00     0.161 C 
ATOM      2  C   LIG d   1      -2.742  80.002 114.629  0.00  0.00     0.016 C 
ATOM      3  C   LIG d   1      -2.676  80.291 113.247  0.00  0.00     0.038 C 
ATOM      4  C   LIG d   1      -2.418  79.296 112.292  0.00  0.00     0.028 C 
ATOM      5  C   LIG d   1      -1.587  78.138 112.834  0.00  0.00    -0.047 C 
ATOM      6  C   LIG d   1      -2.237  77.620 114.137  0.00  0.00     0.091 C 
ENDROOT
BRANCH   1   7
ATOM      7  O   LIG d   1      -3.391  78.374 116.163  0.00  0.00    -0.368 OA
BRANCH   7   8
ATOM      8  C   LIG d   1      -3.027  78.616 117.544  0.00  0.00     0.119 C 
BRANCH   8   9
ATOM      9  C   LIG d   1      -2.948  77.248 118.249  0.00  0.00     0.028 C 
ATOM     10  C   LIG d   1      -4.168  76.361 117.948  0.00  0.00     0.006 C 
ENDBRANCH   8   9
BRANCH   8  11
ATOM     11  C   LIG d   1      -4.123  79.390 118.282  0.00  0.00     0.028 C 
ATOM     12  C   LIG d   1      -5.176  79.982 117.333  0.00  0.00     0.006 C 
ENDBRANCH   8  11
ENDBRANCH   7   8
ENDBRANCH   1   7
BRANCH   6  13
ATOM     13  N   LIG d   1      -1.440  76.541 114.778  0.00  0.00    -0.311 N 
ATOM     14  C   LIG d   1      -1.945  75.353 115.106  0.00  0.00     0.210 C 
ATOM     15  C   LIG d   1      -0.957  74.393 115.775  0.00  0.00     0.109 C 
ATOM     16  O   LIG d   1      -3.109  74.991 114.876  0.00  0.00    -0.276 OA
ATOM     17  H   LIG d   1      -0.478  76.738 114.972  0.00  0.00     0.149 HD
ENDBRANCH   6  13
BRANCH   5  18
ATOM     18  N   LIG d   1      -1.511  77.111 111.777  0.00  0.00     0.381 N 
ATOM     19  H   LIG d   1      -1.404  77.550 110.885  0.00  0.00    -0.090 HD
ATOM     20  H   LIG d   1      -2.370  76.588 111.770  0.00  0.00    -0.090 HD
ATOM     21  H   LIG d   1      -0.743  76.500 111.950  0.00  0.00    -0.090 HD
ENDBRANCH   5  18
BRANCH   3  22
ATOM     22  C   LIG d   1      -2.829  81.598 112.810  0.00  0.00     0.382 C 
ATOM     23  O   LIG d   1      -3.874  82.234 113.089  0.00  0.00    -0.241 OA
ATOM     24  O   LIG d   1      -1.955  82.135 112.104  0.00  0.00    -0.241 OA
ENDBRANCH   3  22
TORSDOF 7
ENDMDL
MODEL 7
REMARK VINA RESULT:      -4.7      2.017      3.192
REMARK  7 active torsions:
REMARK  status: ('A' for Active; 'I' for Inactive)
REMARK    1  A    between atoms: C_2  and  C_3 
REMARK    2  A    between atoms: C_3  and  O_6 
REMARK    3  A    between atoms: C_3  and  C_4 
REMARK    4  A    between atoms: C_7  and  O_6 
REMARK    5  A    between atoms: C_9  and  C_10 
REMARK    6  A    between atoms: N_15  and  C_14 
REMARK    7  A    between atoms: N_20  and  C_19 
REMARK       I    between atoms: C_22  and  N_20 
ROOT
ATOM      1  C   LIG d   1      -2.818  78.323 114.858  0.00  0.00     0.161 C 
ATOM      2  C   LIG d   1      -3.026  79.290 113.860  0.00  0.00     0.016 C 
ATOM      3  C   LIG d   1      -2.098  80.314 113.562  0.00  0.00     0.038 C 
ATOM      4  C   LIG d   1      -0.822  80.351 114.145  0.00  0.00     0.028 C 
ATOM      5  C   LIG d   1      -0.765  79.694 115.520  0.00  0.00    -0.047 C 
ATOM      6  C   LIG d   1      -1.384  78.280 115.427  0.00  0.00     0.091 C 
ENDROOT
BRANCH   1   7
ATOM      7  O   LIG d   1      -3.201  77.023 114.367  0.00  0.00    -0.368 OA
BRANCH   7   8
ATOM      8  C   LIG d   1      -4.522  76.563 114.746  0.00  0.00     0.119 C 
BRANCH   8   9
ATOM      9  C   LIG d   1      -4.807  77.091 116.165  0.00  0.00     0.028 C 
ATOM     10  C   LIG d   1      -6.302  77.361 116.402  0.00  0.00     0.006 C 
ENDBRANCH   8   9
BRANCH   8  11
ATOM     11  C   LIG d   1      -4.567  75.037 114.864  0.00  0.00     0.028 C 
ATOM     12  C   LIG d   1      -3.799  74.511 116.086  0.00  0.00     0.006 C 
ENDBRANCH   8  11
ENDBRANCH   7   8
ENDBRANCH   1   7
BRANCH   6  13
ATOM     13  N   LIG d   1      -1.444  77.600 116.747  0.00  0.00    -0.311 N 
ATOM     14  C   LIG d   1      -0.800  76.467 117.018  0.00  0.00     0.210 C 
ATOM     15  C   LIG d   1      -1.014  75.924 118.435  0.00  0.00     0.109 C 
ATOM     16  O   LIG d   1      -0.045  75.877 116.230  0.00  0.00    -0.276 OA
ATOM     17  H   LIG d   1      -2.009  78.028 117.455  0.00  0.00     0.149 HD
ENDBRANCH   6  13
BRANCH   5  18
ATOM     18  N   LIG d   1       0.646  79.680 115.949  0.00  0.00     0.381 N 
ATOM     19  H   LIG d   1       0.697  79.702 116.948  0.00  0.00    -0.090 HD
ATOM     20  H   LIG d   1       1.102  80.501 115.592  0.00  0.00    -0.090 HD
ATOM     21  H   LIG d   1       1.100  78.863 115.604  0.00  0.00    -0.090 HD
ENDBRANCH   5  18
BRANCH   3  22
ATOM     22  C   LIG d   1      -2.459  81.340 112.702  0.00  0.00     0.382 C 
ATOM     23  O   LIG d   1      -1.585  81.912 112.007  0.00  0.00    -0.241 OA
ATOM     24  O   LIG d   1      -3.641  81.729 112.644  0.00  0.00    -0.241 OA
ENDBRANCH   3  22
TORSDOF 7
ENDMDL
MODEL 8
REMARK VINA RESULT:      -4.6      1.545      2.244
REMARK  7 active torsions:
REMARK  status: ('A' for Active; 'I' for Inactive)
REMARK    1  A    between atoms: C_2  and  C_3 
REMARK    2  A    between atoms: C_3  and  O_6 
REMARK    3  A    between atoms: C_3  and  C_4 
REMARK    4  A    between atoms: C_7  and  O_6 
REMARK    5  A    between atoms: C_9  and  C_10 
REMARK    6  A    between atoms: N_15  and  C_14 
REMARK    7  A    between atoms: N_20  and  C_19 
REMARK       I    between atoms: C_22  and  N_20 
ROOT
ATOM      1  C   LIG d   1      -2.189  79.173 115.525  0.00  0.00     0.161 C 
ATOM      2  C   LIG d   1      -2.579  80.312 114.801  0.00  0.00     0.016 C 
ATOM      3  C   LIG d   1      -2.601  80.366 113.388  0.00  0.00     0.038 C 
ATOM      4  C   LIG d   1      -2.379  79.227 112.599  0.00  0.00     0.028 C 
ATOM      5  C   LIG d   1      -1.491  78.187 113.273  0.00  0.00    -0.047 C 
ATOM      6  C   LIG d   1      -2.050  77.887 114.683  0.00  0.00     0.091 C 
ENDROOT
BRANCH   1   7
ATOM      7  O   LIG d   1      -3.098  78.957 116.623  0.00  0.00    -0.368 OA
BRANCH   7   8
ATOM      8  C   LIG d   1      -4.486  78.741 116.267  0.00  0.00     0.119 C 
BRANCH   8   9
ATOM      9  C   LIG d   1      -5.331  79.750 117.069  0.00  0.00     0.028 C 
ATOM     10  C   LIG d   1      -4.499  80.517 118.110  0.00  0.00     0.006 C 
ENDBRANCH   8   9
BRANCH   8  11
ATOM     11  C   LIG d   1      -4.968  77.359 116.719  0.00  0.00     0.028 C 
ATOM     12  C   LIG d   1      -5.617  76.554 115.583  0.00  0.00     0.006 C 
ENDBRANCH   8  11
ENDBRANCH   7   8
ENDBRANCH   1   7
BRANCH   6  13
ATOM     13  N   LIG d   1      -1.193  76.942 115.444  0.00  0.00    -0.311 N 
ATOM     14  C   LIG d   1      -1.442  75.637 115.535  0.00  0.00     0.210 C 
ATOM     15  C   LIG d   1      -0.443  74.845 116.385  0.00  0.00     0.109 C 
ATOM     16  O   LIG d   1      -2.377  75.054 114.966  0.00  0.00    -0.276 OA
ATOM     17  H   LIG d   1      -0.394  77.325 115.911  0.00  0.00     0.149 HD
ENDBRANCH   6  13
BRANCH   5  18
ATOM     18  N   LIG d   1      -1.456  76.998 112.401  0.00  0.00     0.381 N 
ATOM     19  H   LIG d   1      -1.929  76.238 112.845  0.00  0.00    -0.090 HD
ATOM     20  H   LIG d   1      -0.498  76.731 112.254  0.00  0.00    -0.090 HD
ATOM     21  H   LIG d   1      -1.888  77.204 111.527  0.00  0.00    -0.090 HD
ENDBRANCH   5  18
BRANCH   3  22
ATOM     22  C   LIG d   1      -2.810  81.579 112.750  0.00  0.00     0.382 C 
ATOM     23  O   LIG d   1      -3.968  82.054 112.670  0.00  0.00    -0.241 OA
ATOM     24  O   LIG d   1      -1.861  82.182 112.215  0.00  0.00    -0.241 OA
ENDBRANCH   3  22
TORSDOF 7
ENDMDL
MODEL 9
REMARK VINA RESULT:      -4.5      2.779      4.211
REMARK  7 active torsions:
REMARK  status: ('A' for Active; 'I' for Inactive)
REMARK    1  A    between atoms: C_2  and  C_3 
REMARK    2  A    between atoms: C_3  and  O_6 
REMARK    3  A    between atoms: C_3  and  C_4 
REMARK    4  A    between atoms: C_7  and  O_6 
REMARK    5  A    between atoms: C_9  and  C_10 
REMARK    6  A    between atoms: N_15  and  C_14 
REMARK    7  A    between atoms: N_20  and  C_19 
REMARK       I    between atoms: C_22  and  N_20 
ROOT
ATOM      1  C   LIG d   1      -4.698  77.228 117.181  0.00  0.00     0.161 C 
ATOM      2  C   LIG d   1      -5.491  78.368 117.395  0.00  0.00     0.016 C 
ATOM      3  C   LIG d   1      -5.135  79.660 116.943  0.00  0.00     0.038 C 
ATOM      4  C   LIG d   1      -4.027  79.875 116.111  0.00  0.00     0.028 C 
ATOM      5  C   LIG d   1      -2.924  78.837 116.291  0.00  0.00    -0.047 C 
ATOM      6  C   LIG d   1      -3.540  77.424 116.180  0.00  0.00     0.091 C 
ENDROOT
BRANCH   1   7
ATOM      7  O   LIG d   1      -5.529  76.123 116.776  0.00  0.00    -0.368 OA
BRANCH   7   8
ATOM      8  C   LIG d   1      -6.637  76.446 115.901  0.00  0.00     0.119 C 
BRANCH   8   9
ATOM      9  C   LIG d   1      -7.920  75.901 116.557  0.00  0.00     0.028 C 
ATOM     10  C   LIG d   1      -7.622  74.895 117.682  0.00  0.00     0.006 C 
ENDBRANCH   8   9
BRANCH   8  11
ATOM     11  C   LIG d   1      -6.522  75.711 114.562  0.00  0.00     0.028 C 
ATOM     12  C   LIG d   1      -5.484  74.578 114.591  0.00  0.00     0.006 C 
ENDBRANCH   8  11
ENDBRANCH   7   8
ENDBRANCH   1   7
BRANCH   6  13
ATOM     13  N   LIG d   1      -2.544  76.350 116.427  0.00  0.00    -0.311 N 
ATOM     14  C   LIG d   1      -1.850  75.756 115.458  0.00  0.00     0.210 C 
ATOM     15  C   LIG d   1      -0.890  74.659 115.929  0.00  0.00     0.109 C 
ATOM     16  O   LIG d   1      -1.915  76.056 114.256  0.00  0.00    -0.276 OA
ATOM     17  H   LIG d   1      -2.406  76.066 117.377  0.00  0.00     0.149 HD
ENDBRANCH   6  13
BRANCH   5  18
ATOM     18  N   LIG d   1      -1.893  79.101 115.269  0.00  0.00     0.381 N 
ATOM     19  H   LIG d   1      -1.073  79.476 115.703  0.00  0.00    -0.090 HD
ATOM     20  H   LIG d   1      -2.246  79.782 114.619  0.00  0.00    -0.090 HD
ATOM     21  H   LIG d   1      -1.667  78.258 114.787  0.00  0.00    -0.090 HD
ENDBRANCH   5  18
BRANCH   3  22
ATOM     22  C   LIG d   1      -5.871  80.759 117.359  0.00  0.00     0.382 C 
ATOM     23  O   LIG d   1      -6.949  81.045 116.785  0.00  0.00    -0.241 OA
ATOM     24  O   LIG d   1      -5.447  81.495 118.270  0.00  0.00    -0.241 OA
ENDBRANCH   3  22
TORSDOF 7
ENDMDL
