MODEL 1
REMARK VINA RESULT:      -5.2      0.000      0.000
REMARK  7 active torsions:
REMARK  status: ('A' for Active; 'I' for Inactive)
REMARK    1  A    between atoms: C_2  and  C_3 
REMARK    2  A    between atoms: C_3  and  O_6 
REMARK    3  A    between atoms: C_3  and  C_4 
REMARK    4  A    between atoms: C_7  and  O_6 
REMARK    5  A    between atoms: C_9  and  C_10 
REMARK    6  A    between atoms: N_15  and  C_14 
REMARK    7  A    between atoms: N_20  and  C_19 
REMARK       I    between atoms: C_22  and  N_20 
ROOT
ATOM      1  C   LIG d   1      -1.917  77.386 114.710  0.00  0.00     0.161 C 
ATOM      2  C   LIG d   1      -3.151  76.953 114.197  0.00  0.00     0.016 C 
ATOM      3  C   LIG d   1      -4.123  76.280 114.971  0.00  0.00     0.038 C 
ATOM      4  C   LIG d   1      -3.990  76.128 116.360  0.00  0.00     0.028 C 
ATOM      5  C   LIG d   1      -2.539  76.101 116.829  0.00  0.00    -0.047 C 
ATOM      6  C   LIG d   1      -1.801  77.328 116.248  0.00  0.00     0.091 C 
ENDROOT
BRANCH   1   7
ATOM      7  O   LIG d   1      -1.631  78.717 114.236  0.00  0.00    -0.368 OA
BRANCH   7   8
ATOM      8  C   LIG d   1      -2.340  79.135 113.044  0.00  0.00     0.119 C 
BRANCH   8   9
ATOM      9  C   LIG d   1      -1.361  79.023 111.860  0.00  0.00     0.028 C 
ATOM     10  C   LIG d   1      -1.789  77.950 110.844  0.00  0.00     0.006 C 
ENDBRANCH   8   9
BRANCH   8  11
ATOM     11  C   LIG d   1      -2.724  80.616 113.115  0.00  0.00     0.028 C 
ATOM     12  C   LIG d   1      -1.539  81.553 112.830  0.00  0.00     0.006 C 
ENDBRANCH   8  11
ENDBRANCH   7   8
ENDBRANCH   1   7
BRANCH   6  13
ATOM     13  N   LIG d   1      -0.354  77.334 116.590  0.00  0.00    -0.311 N 
ATOM     14  C   LIG d   1       0.154  78.014 117.616  0.00  0.00     0.210 C 
ATOM     15  C   LIG d   1       1.673  77.900 117.779  0.00  0.00     0.109 C 
ATOM     16  O   LIG d   1      -0.513  78.677 118.425  0.00  0.00    -0.276 OA
ATOM     17  H   LIG d   1       0.255  76.797 116.004  0.00  0.00     0.149 HD
ENDBRANCH   6  13
BRANCH   5  18
ATOM     18  N   LIG d   1      -2.549  76.077 118.304  0.00  0.00     0.381 N 
ATOM     19  H   LIG d   1      -3.162  75.356 118.628  0.00  0.00    -0.090 HD
ATOM     20  H   LIG d   1      -2.893  76.959 118.641  0.00  0.00    -0.090 HD
ATOM     21  H   LIG d   1      -1.627  75.919 118.649  0.00  0.00    -0.090 HD
ENDBRANCH   5  18
BRANCH   3  22
ATOM     22  C   LIG d   1      -5.226  75.715 114.350  0.00  0.00     0.382 C 
ATOM     23  O   LIG d   1      -5.134  74.585 113.813  0.00  0.00    -0.241 OA
ATOM     24  O   LIG d   1      -6.301  76.341 114.281  0.00  0.00    -0.241 OA
ENDBRANCH   3  22
TORSDOF 7
ENDMDL
MODEL 2
REMARK VINA RESULT:      -5.1      2.261      5.699
REMARK  7 active torsions:
REMARK  status: ('A' for Active; 'I' for Inactive)
REMARK    1  A    between atoms: C_2  and  C_3 
REMARK    2  A    between atoms: C_3  and  O_6 
REMARK    3  A    between atoms: C_3  and  C_4 
REMARK    4  A    between atoms: C_7  and  O_6 
REMARK    5  A    between atoms: C_9  and  C_10 
REMARK    6  A    between atoms: N_15  and  C_14 
REMARK    7  A    between atoms: N_20  and  C_19 
REMARK       I    between atoms: C_22  and  N_20 
ROOT
ATOM      1  C   LIG d   1      -2.768  75.749 116.228  0.00  0.00     0.161 C 
ATOM      2  C   LIG d   1      -2.282  75.335 117.479  0.00  0.00     0.016 C 
ATOM      3  C   LIG d   1      -1.101  75.846 118.064  0.00  0.00     0.038 C 
ATOM      4  C   LIG d   1      -0.402  76.925 117.502  0.00  0.00     0.028 C 
ATOM      5  C   LIG d   1      -0.572  77.034 115.990  0.00  0.00    -0.047 C 
ATOM      6  C   LIG d   1      -2.079  77.004 115.651  0.00  0.00     0.091 C 
ENDROOT
BRANCH   1   7
ATOM      7  O   LIG d   1      -4.194  75.948 116.299  0.00  0.00    -0.368 OA
BRANCH   7   8
ATOM      8  C   LIG d   1      -5.010  74.759 116.160  0.00  0.00     0.119 C 
BRANCH   8   9
ATOM      9  C   LIG d   1      -5.141  74.460 114.654  0.00  0.00     0.028 C 
ATOM     10  C   LIG d   1      -5.714  75.650 113.867  0.00  0.00     0.006 C 
ENDBRANCH   8   9
BRANCH   8  11
ATOM     11  C   LIG d   1      -6.440  75.005 116.650  0.00  0.00     0.028 C 
ATOM     12  C   LIG d   1      -6.603  74.762 118.159  0.00  0.00     0.006 C 
ENDBRANCH   8  11
ENDBRANCH   7   8
ENDBRANCH   1   7
BRANCH   6  13
ATOM     13  N   LIG d   1      -2.331  77.021 114.186  0.00  0.00    -0.311 N 
ATOM     14  C   LIG d   1      -2.613  78.130 113.504  0.00  0.00     0.210 C 
ATOM     15  C   LIG d   1      -2.858  77.923 112.006  0.00  0.00     0.109 C 
ATOM     16  O   LIG d   1      -2.652  79.270 113.991  0.00  0.00    -0.276 OA
ATOM     17  H   LIG d   1      -2.289  76.144 113.706  0.00  0.00     0.149 HD
ENDBRANCH   6  13
BRANCH   5  18
ATOM     18  N   LIG d   1       0.094  78.276 115.556  0.00  0.00     0.381 N 
ATOM     19  H   LIG d   1       0.489  78.743 116.347  0.00  0.00    -0.090 HD
ATOM     20  H   LIG d   1      -0.590  78.884 115.140  0.00  0.00    -0.090 HD
ATOM     21  H   LIG d   1       0.809  78.067 114.894  0.00  0.00    -0.090 HD
ENDBRANCH   5  18
BRANCH   3  22
ATOM     22  C   LIG d   1      -0.586  75.251 119.206  0.00  0.00     0.382 C 
ATOM     23  O   LIG d   1      -1.274  74.418 119.843  0.00  0.00    -0.241 OA
ATOM     24  O   LIG d   1       0.541  75.569 119.630  0.00  0.00    -0.241 OA
ENDBRANCH   3  22
TORSDOF 7
ENDMDL
MODEL 3
REMARK VINA RESULT:      -4.9      1.534      4.848
REMARK  7 active torsions:
REMARK  status: ('A' for Active; 'I' for Inactive)
REMARK    1  A    between atoms: C_2  and  C_3 
REMARK    2  A    between atoms: C_3  and  O_6 
REMARK    3  A    between atoms: C_3  and  C_4 
REMARK    4  A    between atoms: C_7  and  O_6 
REMARK    5  A    between atoms: C_9  and  C_10 
REMARK    6  A    between atoms: N_15  and  C_14 
REMARK    7  A    between atoms: N_20  and  C_19 
REMARK       I    between atoms: C_22  and  N_20 
ROOT
ATOM      1  C   LIG d   1      -2.212  77.336 114.690  0.00  0.00     0.161 C 
ATOM      2  C   LIG d   1      -1.068  77.533 115.480  0.00  0.00     0.016 C 
ATOM      3  C   LIG d   1      -0.881  76.927 116.743  0.00  0.00     0.038 C 
ATOM      4  C   LIG d   1      -1.765  75.957 117.238  0.00  0.00     0.028 C 
ATOM      5  C   LIG d   1      -3.186  76.103 116.705  0.00  0.00    -0.047 C 
ATOM      6  C   LIG d   1      -3.136  76.194 115.163  0.00  0.00     0.091 C 
ENDROOT
BRANCH   1   7
ATOM      7  O   LIG d   1      -1.828  77.133 113.315  0.00  0.00    -0.368 OA
BRANCH   7   8
ATOM      8  C   LIG d   1      -1.627  78.331 112.526  0.00  0.00     0.119 C 
BRANCH   8   9
ATOM      9  C   LIG d   1      -2.822  79.266 112.791  0.00  0.00     0.028 C 
ATOM     10  C   LIG d   1      -2.386  80.718 113.050  0.00  0.00     0.006 C 
ENDBRANCH   8   9
BRANCH   8  11
ATOM     11  C   LIG d   1      -1.676  78.024 111.026  0.00  0.00     0.028 C 
ATOM     12  C   LIG d   1      -0.727  78.912 110.205  0.00  0.00     0.006 C 
ENDBRANCH   8  11
ENDBRANCH   7   8
ENDBRANCH   1   7
BRANCH   6  13
ATOM     13  N   LIG d   1      -4.477  76.424 114.565  0.00  0.00    -0.311 N 
ATOM     14  C   LIG d   1      -5.265  75.441 114.131  0.00  0.00     0.210 C 
ATOM     15  C   LIG d   1      -6.598  75.898 113.531  0.00  0.00     0.109 C 
ATOM     16  O   LIG d   1      -4.999  74.233 114.215  0.00  0.00    -0.276 OA
ATOM     17  H   LIG d   1      -4.786  77.373 114.487  0.00  0.00     0.149 HD
ENDBRANCH   6  13
BRANCH   5  18
ATOM     18  N   LIG d   1      -3.966  74.950 117.191  0.00  0.00     0.381 N 
ATOM     19  H   LIG d   1      -3.989  74.237 116.490  0.00  0.00    -0.090 HD
ATOM     20  H   LIG d   1      -4.909  75.247 117.370  0.00  0.00    -0.090 HD
ATOM     21  H   LIG d   1      -3.559  74.591 118.027  0.00  0.00    -0.090 HD
ENDBRANCH   5  18
BRANCH   3  22
ATOM     22  C   LIG d   1       0.180  77.321 117.544  0.00  0.00     0.382 C 
ATOM     23  O   LIG d   1       0.717  78.441 117.368  0.00  0.00    -0.241 OA
ATOM     24  O   LIG d   1       0.637  76.552 118.411  0.00  0.00    -0.241 OA
ENDBRANCH   3  22
TORSDOF 7
ENDMDL
MODEL 4
REMARK VINA RESULT:      -4.8      2.233      2.938
REMARK  7 active torsions:
REMARK  status: ('A' for Active; 'I' for Inactive)
REMARK    1  A    between atoms: C_2  and  C_3 
REMARK    2  A    between atoms: C_3  and  O_6 
REMARK    3  A    between atoms: C_3  and  C_4 
REMARK    4  A    between atoms: C_7  and  O_6 
REMARK    5  A    between atoms: C_9  and  C_10 
REMARK    6  A    between atoms: N_15  and  C_14 
REMARK    7  A    between atoms: N_20  and  C_19 
REMARK       I    between atoms: C_22  and  N_20 
ROOT
ATOM      1  C   LIG d   1      -2.038  77.705 114.803  0.00  0.00     0.161 C 
ATOM      2  C   LIG d   1      -3.166  78.003 115.586  0.00  0.00     0.016 C 
ATOM      3  C   LIG d   1      -3.358  77.506 116.895  0.00  0.00     0.038 C 
ATOM      4  C   LIG d   1      -2.357  76.793 117.572  0.00  0.00     0.028 C 
ATOM      5  C   LIG d   1      -1.412  76.042 116.639  0.00  0.00    -0.047 C 
ATOM      6  C   LIG d   1      -0.885  77.020 115.565  0.00  0.00     0.091 C 
ENDROOT
BRANCH   1   7
ATOM      7  O   LIG d   1      -1.568  78.900 114.149  0.00  0.00    -0.368 OA
BRANCH   7   8
ATOM      8  C   LIG d   1      -2.342  79.351 113.011  0.00  0.00     0.119 C 
BRANCH   8   9
ATOM      9  C   LIG d   1      -1.500  79.093 111.746  0.00  0.00     0.028 C 
ATOM     10  C   LIG d   1      -1.939  77.824 110.998  0.00  0.00     0.006 C 
ENDBRANCH   8   9
BRANCH   8  11
ATOM     11  C   LIG d   1      -2.560  80.867 113.051  0.00  0.00     0.028 C 
ATOM     12  C   LIG d   1      -1.272  81.661 112.783  0.00  0.00     0.006 C 
ENDBRANCH   8  11
ENDBRANCH   7   8
ENDBRANCH   1   7
BRANCH   6  13
ATOM     13  N   LIG d   1      -0.019  76.347 114.561  0.00  0.00    -0.311 N 
ATOM     14  C   LIG d   1      -0.228  75.105 114.130  0.00  0.00     0.210 C 
ATOM     15  C   LIG d   1       0.794  74.595 113.108  0.00  0.00     0.109 C 
ATOM     16  O   LIG d   1      -1.180  74.388 114.471  0.00  0.00    -0.276 OA
ATOM     17  H   LIG d   1       0.759  76.868 114.208  0.00  0.00     0.149 HD
ENDBRANCH   6  13
BRANCH   5  18
ATOM     18  N   LIG d   1      -0.340  75.458 117.467  0.00  0.00     0.381 N 
ATOM     19  H   LIG d   1      -0.459  74.466 117.526  0.00  0.00    -0.090 HD
ATOM     20  H   LIG d   1      -0.401  75.839 118.394  0.00  0.00    -0.090 HD
ATOM     21  H   LIG d   1       0.550  75.670 117.071  0.00  0.00    -0.090 HD
ENDBRANCH   5  18
BRANCH   3  22
ATOM     22  C   LIG d   1      -4.579  77.686 117.527  0.00  0.00     0.382 C 
ATOM     23  O   LIG d   1      -4.824  77.086 118.602  0.00  0.00    -0.241 OA
ATOM     24  O   LIG d   1      -5.456  78.406 117.013  0.00  0.00    -0.241 OA
ENDBRANCH   3  22
TORSDOF 7
ENDMDL
MODEL 5
REMARK VINA RESULT:      -4.8      2.560      5.068
REMARK  7 active torsions:
REMARK  status: ('A' for Active; 'I' for Inactive)
REMARK    1  A    between atoms: C_2  and  C_3 
REMARK    2  A    between atoms: C_3  and  O_6 
REMARK    3  A    between atoms: C_3  and  C_4 
REMARK    4  A    between atoms: C_7  and  O_6 
REMARK    5  A    between atoms: C_9  and  C_10 
REMARK    6  A    between atoms: N_15  and  C_14 
REMARK    7  A    between atoms: N_20  and  C_19 
REMARK       I    between atoms: C_22  and  N_20 
ROOT
ATOM      1  C   LIG d   1      -3.057  77.740 115.844  0.00  0.00     0.161 C 
ATOM      2  C   LIG d   1      -3.187  78.633 114.767  0.00  0.00     0.016 C 
ATOM      3  C   LIG d   1      -2.385  78.571 113.605  0.00  0.00     0.038 C 
ATOM      4  C   LIG d   1      -1.494  77.512 113.374  0.00  0.00     0.028 C 
ATOM      5  C   LIG d   1      -0.970  76.871 114.655  0.00  0.00    -0.047 C 
ATOM      6  C   LIG d   1      -2.168  76.512 115.563  0.00  0.00     0.091 C 
ENDROOT
BRANCH   1   7
ATOM      7  O   LIG d   1      -4.362  77.322 116.292  0.00  0.00    -0.368 OA
BRANCH   7   8
ATOM      8  C   LIG d   1      -4.989  78.157 117.296  0.00  0.00     0.119 C 
BRANCH   8   9
ATOM      9  C   LIG d   1      -4.453  77.712 118.670  0.00  0.00     0.028 C 
ATOM     10  C   LIG d   1      -3.868  78.881 119.479  0.00  0.00     0.006 C 
ENDBRANCH   8   9
BRANCH   8  11
ATOM     11  C   LIG d   1      -6.501  77.919 117.354  0.00  0.00     0.028 C 
ATOM     12  C   LIG d   1      -7.288  79.177 117.752  0.00  0.00     0.006 C 
ENDBRANCH   8  11
ENDBRANCH   7   8
ENDBRANCH   1   7
BRANCH   6  13
ATOM     13  N   LIG d   1      -1.739  75.957 116.873  0.00  0.00    -0.311 N 
ATOM     14  C   LIG d   1      -2.284  74.874 117.425  0.00  0.00     0.210 C 
ATOM     15  C   LIG d   1      -1.708  74.483 118.789  0.00  0.00     0.109 C 
ATOM     16  O   LIG d   1      -3.167  74.180 116.898  0.00  0.00    -0.276 OA
ATOM     17  H   LIG d   1      -1.006  76.440 117.355  0.00  0.00     0.149 HD
ENDBRANCH   6  13
BRANCH   5  18
ATOM     18  N   LIG d   1      -0.164  75.698 114.269  0.00  0.00     0.381 N 
ATOM     19  H   LIG d   1      -0.254  75.534 113.286  0.00  0.00    -0.090 HD
ATOM     20  H   LIG d   1      -0.511  74.891 114.757  0.00  0.00    -0.090 HD
ATOM     21  H   LIG d   1       0.793  75.850 114.501  0.00  0.00    -0.090 HD
ENDBRANCH   5  18
BRANCH   3  22
ATOM     22  C   LIG d   1      -2.441  79.598 112.675  0.00  0.00     0.382 C 
ATOM     23  O   LIG d   1      -1.674  79.588 111.682  0.00  0.00    -0.241 OA
ATOM     24  O   LIG d   1      -3.217  80.558 112.841  0.00  0.00    -0.241 OA
ENDBRANCH   3  22
TORSDOF 7
ENDMDL
MODEL 6
REMARK VINA RESULT:      -4.8      1.978      4.791
REMARK  7 active torsions:
REMARK  status: ('A' for Active; 'I' for Inactive)
REMARK    1  A    between atoms: C_2  and  C_3 
REMARK    2  A    between atoms: C_3  and  O_6 
REMARK    3  A    between atoms: C_3  and  C_4 
REMARK    4  A    between atoms: C_7  and  O_6 
REMARK    5  A    between atoms: C_9  and  C_10 
REMARK    6  A    between atoms: N_15  and  C_14 
REMARK    7  A    between atoms: N_20  and  C_19 
REMARK       I    between atoms: C_22  and  N_20 
ROOT
ATOM      1  C   LIG d   1      -2.989  77.135 115.830  0.00  0.00     0.161 C 
ATOM      2  C   LIG d   1      -3.180  78.133 114.860  0.00  0.00     0.016 C 
ATOM      3  C   LIG d   1      -2.322  78.314 113.751  0.00  0.00     0.038 C 
ATOM      4  C   LIG d   1      -1.294  77.407 113.453  0.00  0.00     0.028 C 
ATOM      5  C   LIG d   1      -0.754  76.679 114.679  0.00  0.00    -0.047 C 
ATOM      6  C   LIG d   1      -1.938  76.067 115.461  0.00  0.00     0.091 C 
ENDROOT
BRANCH   1   7
ATOM      7  O   LIG d   1      -4.250  76.510 116.142  0.00  0.00    -0.368 OA
BRANCH   7   8
ATOM      8  C   LIG d   1      -4.573  75.315 115.389  0.00  0.00     0.119 C 
BRANCH   8   9
ATOM      9  C   LIG d   1      -5.784  75.644 114.495  0.00  0.00     0.028 C 
ATOM     10  C   LIG d   1      -7.009  76.094 115.308  0.00  0.00     0.006 C 
ENDBRANCH   8   9
BRANCH   8  11
ATOM     11  C   LIG d   1      -5.045  74.186 116.311  0.00  0.00     0.028 C 
ATOM     12  C   LIG d   1      -4.775  74.478 117.796  0.00  0.00     0.006 C 
ENDBRANCH   8  11
ENDBRANCH   7   8
ENDBRANCH   1   7
BRANCH   6  13
ATOM     13  N   LIG d   1      -1.505  75.408 116.721  0.00  0.00    -0.311 N 
ATOM     14  C   LIG d   1      -0.932  76.061 117.730  0.00  0.00     0.210 C 
ATOM     15  C   LIG d   1      -0.545  75.188 118.928  0.00  0.00     0.109 C 
ATOM     16  O   LIG d   1      -0.737  77.285 117.761  0.00  0.00    -0.276 OA
ATOM     17  H   LIG d   1      -1.655  74.421 116.794  0.00  0.00     0.149 HD
ENDBRANCH   6  13
BRANCH   5  18
ATOM     18  N   LIG d   1       0.212  75.669 114.208  0.00  0.00     0.381 N 
ATOM     19  H   LIG d   1       0.755  76.044 113.456  0.00  0.00    -0.090 HD
ATOM     20  H   LIG d   1      -0.294  74.871 113.864  0.00  0.00    -0.090 HD
ATOM     21  H   LIG d   1       0.811  75.395 114.955  0.00  0.00    -0.090 HD
ENDBRANCH   5  18
BRANCH   3  22
ATOM     22  C   LIG d   1      -2.464  79.436 112.949  0.00  0.00     0.382 C 
ATOM     23  O   LIG d   1      -3.251  80.353 113.286  0.00  0.00    -0.241 OA
ATOM     24  O   LIG d   1      -1.848  79.523 111.870  0.00  0.00    -0.241 OA
ENDBRANCH   3  22
TORSDOF 7
ENDMDL
MODEL 7
REMARK VINA RESULT:      -4.7      3.519      6.430
REMARK  7 active torsions:
REMARK  status: ('A' for Active; 'I' for Inactive)
REMARK    1  A    between atoms: C_2  and  C_3 
REMARK    2  A    between atoms: C_3  and  O_6 
REMARK    3  A    between atoms: C_3  and  C_4 
REMARK    4  A    between atoms: C_7  and  O_6 
REMARK    5  A    between atoms: C_9  and  C_10 
REMARK    6  A    between atoms: N_15  and  C_14 
REMARK    7  A    between atoms: N_20  and  C_19 
REMARK       I    between atoms: C_22  and  N_20 
ROOT
ATOM      1  C   LIG d   1      -0.408  80.443 112.709  0.00  0.00     0.161 C 
ATOM      2  C   LIG d   1       0.644  80.562 111.786  0.00  0.00     0.016 C 
ATOM      3  C   LIG d   1       0.694  79.848 110.566  0.00  0.00     0.038 C 
ATOM      4  C   LIG d   1      -0.387  79.076 110.115  0.00  0.00     0.028 C 
ATOM      5  C   LIG d   1      -1.253  78.527 111.244  0.00  0.00    -0.047 C 
ATOM      6  C   LIG d   1      -1.648  79.690 112.183  0.00  0.00     0.091 C 
ENDROOT
BRANCH   1   7
ATOM      7  O   LIG d   1      -0.782  81.747 113.194  0.00  0.00    -0.368 OA
BRANCH   7   8
ATOM      8  C   LIG d   1      -0.029  82.865 112.662  0.00  0.00     0.119 C 
BRANCH   8   9
ATOM      9  C   LIG d   1       0.582  83.622 113.857  0.00  0.00     0.028 C 
ATOM     10  C   LIG d   1       2.040  84.040 113.604  0.00  0.00     0.006 C 
ENDBRANCH   8   9
BRANCH   8  11
ATOM     11  C   LIG d   1      -0.948  83.875 111.968  0.00  0.00     0.028 C 
ATOM     12  C   LIG d   1      -0.262  84.598 110.798  0.00  0.00     0.006 C 
ENDBRANCH   8  11
ENDBRANCH   7   8
ENDBRANCH   1   7
BRANCH   6  13
ATOM     13  N   LIG d   1      -2.426  79.227 113.361  0.00  0.00    -0.311 N 
ATOM     14  C   LIG d   1      -1.994  78.290 114.203  0.00  0.00     0.210 C 
ATOM     15  C   LIG d   1      -2.962  77.947 115.341  0.00  0.00     0.109 C 
ATOM     16  O   LIG d   1      -0.888  77.733 114.135  0.00  0.00    -0.276 OA
ATOM     17  H   LIG d   1      -3.322  79.648 113.510  0.00  0.00     0.149 HD
ENDBRANCH   6  13
BRANCH   5  18
ATOM     18  N   LIG d   1      -2.416  77.860 110.629  0.00  0.00     0.381 N 
ATOM     19  H   LIG d   1      -3.228  78.436 110.727  0.00  0.00    -0.090 HD
ATOM     20  H   LIG d   1      -2.585  76.993 111.109  0.00  0.00    -0.090 HD
ATOM     21  H   LIG d   1      -2.239  77.685 109.665  0.00  0.00    -0.090 HD
ENDBRANCH   5  18
BRANCH   3  22
ATOM     22  C   LIG d   1       1.851  79.872 109.802  0.00  0.00     0.382 C 
ATOM     23  O   LIG d   1       2.334  80.968 109.430  0.00  0.00    -0.241 OA
ATOM     24  O   LIG d   1       2.393  78.809 109.443  0.00  0.00    -0.241 OA
ENDBRANCH   3  22
TORSDOF 7
ENDMDL
MODEL 8
REMARK VINA RESULT:      -4.2      2.868      5.432
REMARK  7 active torsions:
REMARK  status: ('A' for Active; 'I' for Inactive)
REMARK    1  A    between atoms: C_2  and  C_3 
REMARK    2  A    between atoms: C_3  and  O_6 
REMARK    3  A    between atoms: C_3  and  C_4 
REMARK    4  A    between atoms: C_7  and  O_6 
REMARK    5  A    between atoms: C_9  and  C_10 
REMARK    6  A    between atoms: N_15  and  C_14 
REMARK    7  A    between atoms: N_20  and  C_19 
REMARK       I    between atoms: C_22  and  N_20 
ROOT
ATOM      1  C   LIG d   1      -3.927  76.617 117.046  0.00  0.00     0.161 C 
ATOM      2  C   LIG d   1      -4.857  75.928 117.842  0.00  0.00     0.016 C 
ATOM      3  C   LIG d   1      -5.936  75.184 117.311  0.00  0.00     0.038 C 
ATOM      4  C   LIG d   1      -6.071  74.952 115.934  0.00  0.00     0.028 C 
ATOM      5  C   LIG d   1      -5.447  76.045 115.073  0.00  0.00    -0.047 C 
ATOM      6  C   LIG d   1      -3.993  76.284 115.540  0.00  0.00     0.091 C 
ENDROOT
BRANCH   1   7
ATOM      7  O   LIG d   1      -2.595  76.397 117.550  0.00  0.00    -0.368 OA
BRANCH   7   8
ATOM      8  C   LIG d   1      -2.483  75.510 118.690  0.00  0.00     0.119 C 
BRANCH   8   9
ATOM      9  C   LIG d   1      -1.510  76.163 119.691  0.00  0.00     0.028 C 
ATOM     10  C   LIG d   1      -0.707  77.315 119.062  0.00  0.00     0.006 C 
ENDBRANCH   8   9
BRANCH   8  11
ATOM     11  C   LIG d   1      -1.832  74.180 118.300  0.00  0.00     0.028 C 
ATOM     12  C   LIG d   1      -1.294  74.180 116.860  0.00  0.00     0.006 C 
ENDBRANCH   8  11
ENDBRANCH   7   8
ENDBRANCH   1   7
BRANCH   6  13
ATOM     13  N   LIG d   1      -3.337  77.396 114.805  0.00  0.00    -0.311 N 
ATOM     14  C   LIG d   1      -2.185  77.263 114.150  0.00  0.00     0.210 C 
ATOM     15  C   LIG d   1      -1.672  78.539 113.476  0.00  0.00     0.109 C 
ATOM     16  O   LIG d   1      -1.555  76.200 114.036  0.00  0.00    -0.276 OA
ATOM     17  H   LIG d   1      -3.796  78.286 114.819  0.00  0.00     0.149 HD
ENDBRANCH   6  13
BRANCH   5  18
ATOM     18  N   LIG d   1      -5.537  75.609 113.666  0.00  0.00     0.381 N 
ATOM     19  H   LIG d   1      -5.973  76.323 113.118  0.00  0.00    -0.090 HD
ATOM     20  H   LIG d   1      -6.107  74.782 113.618  0.00  0.00    -0.090 HD
ATOM     21  H   LIG d   1      -4.627  75.415 113.310  0.00  0.00    -0.090 HD
ENDBRANCH   5  18
BRANCH   3  22
ATOM     22  C   LIG d   1      -6.918  74.696 118.160  0.00  0.00     0.382 C 
ATOM     23  O   LIG d   1      -8.017  74.314 117.693  0.00  0.00    -0.241 OA
ATOM     24  O   LIG d   1      -6.734  74.674 119.392  0.00  0.00    -0.241 OA
ENDBRANCH   3  22
TORSDOF 7
ENDMDL
MODEL 9
REMARK VINA RESULT:      -4.1      2.126      4.821
REMARK  7 active torsions:
REMARK  status: ('A' for Active; 'I' for Inactive)
REMARK    1  A    between atoms: C_2  and  C_3 
REMARK    2  A    between atoms: C_3  and  O_6 
REMARK    3  A    between atoms: C_3  and  C_4 
REMARK    4  A    between atoms: C_7  and  O_6 
REMARK    5  A    between atoms: C_9  and  C_10 
REMARK    6  A    between atoms: N_15  and  C_14 
REMARK    7  A    between atoms: N_20  and  C_19 
REMARK       I    between atoms: C_22  and  N_20 
ROOT
ATOM      1  C   LIG d   1      -3.220  77.745 116.028  0.00  0.00     0.161 C 
ATOM      2  C   LIG d   1      -3.382  78.501 114.856  0.00  0.00     0.016 C 
ATOM      3  C   LIG d   1      -2.360  78.677 113.895  0.00  0.00     0.038 C 
ATOM      4  C   LIG d   1      -1.145  77.979 113.969  0.00  0.00     0.028 C 
ATOM      5  C   LIG d   1      -0.749  77.601 115.392  0.00  0.00    -0.047 C 
ATOM      6  C   LIG d   1      -1.939  76.885 116.071  0.00  0.00     0.091 C 
ENDROOT
BRANCH   1   7
ATOM      7  O   LIG d   1      -4.383  76.921 116.244  0.00  0.00    -0.368 OA
BRANCH   7   8
ATOM      8  C   LIG d   1      -5.486  77.547 116.945  0.00  0.00     0.119 C 
BRANCH   8   9
ATOM      9  C   LIG d   1      -5.080  77.674 118.426  0.00  0.00     0.028 C 
ATOM     10  C   LIG d   1      -5.098  79.132 118.916  0.00  0.00     0.006 C 
ENDBRANCH   8   9
BRANCH   8  11
ATOM     11  C   LIG d   1      -6.729  76.652 116.940  0.00  0.00     0.028 C 
ATOM     12  C   LIG d   1      -6.993  76.007 115.570  0.00  0.00     0.006 C 
ENDBRANCH   8  11
ENDBRANCH   7   8
ENDBRANCH   1   7
BRANCH   6  13
ATOM     13  N   LIG d   1      -1.665  76.556 117.494  0.00  0.00    -0.311 N 
ATOM     14  C   LIG d   1      -1.409  77.476 118.423  0.00  0.00     0.210 C 
ATOM     15  C   LIG d   1      -1.134  76.921 119.824  0.00  0.00     0.109 C 
ATOM     16  O   LIG d   1      -1.414  78.700 118.226  0.00  0.00    -0.276 OA
ATOM     17  H   LIG d   1      -1.672  75.588 117.748  0.00  0.00     0.149 HD
ENDBRANCH   6  13
BRANCH   5  18
ATOM     18  N   LIG d   1       0.461  76.762 115.310  0.00  0.00     0.381 N 
ATOM     19  H   LIG d   1       0.968  76.980 114.476  0.00  0.00    -0.090 HD
ATOM     20  H   LIG d   1       0.184  75.796 115.268  0.00  0.00    -0.090 HD
ATOM     21  H   LIG d   1       1.037  76.915 116.108  0.00  0.00    -0.090 HD
ENDBRANCH   5  18
BRANCH   3  22
ATOM     22  C   LIG d   1      -2.533  79.591 112.867  0.00  0.00     0.382 C 
ATOM     23  O   LIG d   1      -1.897  79.455 111.794  0.00  0.00    -0.241 OA
ATOM     24  O   LIG d   1      -3.284  80.574 113.015  0.00  0.00    -0.241 OA
ENDBRANCH   3  22
TORSDOF 7
ENDMDL
