MODEL 1
REMARK VINA RESULT:      -5.3      0.000      0.000
REMARK  7 active torsions:
REMARK  status: ('A' for Active; 'I' for Inactive)
REMARK    1  A    between atoms: C_2  and  C_3 
REMARK    2  A    between atoms: C_3  and  O_6 
REMARK    3  A    between atoms: C_3  and  C_4 
REMARK    4  A    between atoms: C_7  and  O_6 
REMARK    5  A    between atoms: C_9  and  C_10 
REMARK    6  A    between atoms: N_15  and  C_14 
REMARK    7  A    between atoms: N_20  and  C_19 
REMARK       I    between atoms: C_22  and  N_20 
ROOT
ATOM      1  C   LIG d   1      -0.808  80.636 111.493  0.00  0.00     0.161 C 
ATOM      2  C   LIG d   1      -1.572  79.478 111.273  0.00  0.00     0.016 C 
ATOM      3  C   LIG d   1      -2.595  79.043 112.147  0.00  0.00     0.038 C 
ATOM      4  C   LIG d   1      -3.028  79.824 113.229  0.00  0.00     0.028 C 
ATOM      5  C   LIG d   1      -1.948  80.751 113.777  0.00  0.00    -0.047 C 
ATOM      6  C   LIG d   1      -1.340  81.560 112.609  0.00  0.00     0.091 C 
ENDROOT
BRANCH   1   7
ATOM      7  O   LIG d   1      -0.667  81.370 110.261  0.00  0.00    -0.368 OA
BRANCH   7   8
ATOM      8  C   LIG d   1       0.645  81.337 109.647  0.00  0.00     0.119 C 
BRANCH   8   9
ATOM      9  C   LIG d   1       1.466  80.249 110.365  0.00  0.00     0.028 C 
ATOM     10  C   LIG d   1       1.847  79.088 109.431  0.00  0.00     0.006 C 
ENDBRANCH   8   9
BRANCH   8  11
ATOM     11  C   LIG d   1       1.406  82.644 109.888  0.00  0.00     0.028 C 
ATOM     12  C   LIG d   1       0.560  83.891 109.583  0.00  0.00     0.006 C 
ENDBRANCH   8  11
ENDBRANCH   7   8
ENDBRANCH   1   7
BRANCH   6  13
ATOM     13  N   LIG d   1      -0.218  82.431 113.045  0.00  0.00    -0.311 N 
ATOM     14  C   LIG d   1      -0.301  83.759 113.105  0.00  0.00     0.210 C 
ATOM     15  C   LIG d   1       0.979  84.467 113.562  0.00  0.00     0.109 C 
ATOM     16  O   LIG d   1      -1.322  84.416 112.854  0.00  0.00    -0.276 OA
ATOM     17  H   LIG d   1       0.639  81.978 113.298  0.00  0.00     0.149 HD
ENDBRANCH   6  13
BRANCH   5  18
ATOM     18  N   LIG d   1      -2.572  81.602 114.808  0.00  0.00     0.381 N 
ATOM     19  H   LIG d   1      -2.173  82.519 114.776  0.00  0.00    -0.090 HD
ATOM     20  H   LIG d   1      -2.385  81.208 115.713  0.00  0.00    -0.090 HD
ATOM     21  H   LIG d   1      -3.555  81.655 114.656  0.00  0.00    -0.090 HD
ENDBRANCH   5  18
BRANCH   3  22
ATOM     22  C   LIG d   1      -3.169  77.794 111.965  0.00  0.00     0.382 C 
ATOM     23  O   LIG d   1      -4.242  77.685 111.323  0.00  0.00    -0.241 OA
ATOM     24  O   LIG d   1      -2.652  76.781 112.472  0.00  0.00    -0.241 OA
ENDBRANCH   3  22
TORSDOF 7
ENDMDL
MODEL 2
REMARK VINA RESULT:      -5.1      3.316      7.024
REMARK  7 active torsions:
REMARK  status: ('A' for Active; 'I' for Inactive)
REMARK    1  A    between atoms: C_2  and  C_3 
REMARK    2  A    between atoms: C_3  and  O_6 
REMARK    3  A    between atoms: C_3  and  C_4 
REMARK    4  A    between atoms: C_7  and  O_6 
REMARK    5  A    between atoms: C_9  and  C_10 
REMARK    6  A    between atoms: N_15  and  C_14 
REMARK    7  A    between atoms: N_20  and  C_19 
REMARK       I    between atoms: C_22  and  N_20 
ROOT
ATOM      1  C   LIG d   1      -3.028  79.961 114.918  0.00  0.00     0.161 C 
ATOM      2  C   LIG d   1      -2.710  81.152 114.244  0.00  0.00     0.016 C 
ATOM      3  C   LIG d   1      -2.163  81.186 112.940  0.00  0.00     0.038 C 
ATOM      4  C   LIG d   1      -2.037  80.028 112.159  0.00  0.00     0.028 C 
ATOM      5  C   LIG d   1      -1.873  78.755 112.983  0.00  0.00    -0.047 C 
ATOM      6  C   LIG d   1      -3.000  78.693 114.039  0.00  0.00     0.091 C 
ENDROOT
BRANCH   1   7
ATOM      7  O   LIG d   1      -4.308  80.094 115.567  0.00  0.00    -0.368 OA
BRANCH   7   8
ATOM      8  C   LIG d   1      -4.280  80.241 117.008  0.00  0.00     0.119 C 
BRANCH   8   9
ATOM      9  C   LIG d   1      -5.554  79.579 117.566  0.00  0.00     0.028 C 
ATOM     10  C   LIG d   1      -5.770  78.160 117.011  0.00  0.00     0.006 C 
ENDBRANCH   8   9
BRANCH   8  11
ATOM     11  C   LIG d   1      -4.375  81.713 117.419  0.00  0.00     0.028 C 
ATOM     12  C   LIG d   1      -3.069  82.247 118.028  0.00  0.00     0.006 C 
ENDBRANCH   8  11
ENDBRANCH   7   8
ENDBRANCH   1   7
BRANCH   6  13
ATOM     13  N   LIG d   1      -2.866  77.522 114.944  0.00  0.00    -0.311 N 
ATOM     14  C   LIG d   1      -3.414  76.334 114.692  0.00  0.00     0.210 C 
ATOM     15  C   LIG d   1      -3.169  75.268 115.765  0.00  0.00     0.109 C 
ATOM     16  O   LIG d   1      -4.052  76.053 113.666  0.00  0.00    -0.276 OA
ATOM     17  H   LIG d   1      -2.338  77.653 115.784  0.00  0.00     0.149 HD
ENDBRANCH   6  13
BRANCH   5  18
ATOM     18  N   LIG d   1      -1.891  77.614 112.050  0.00  0.00     0.381 N 
ATOM     19  H   LIG d   1      -2.738  77.625 111.518  0.00  0.00    -0.090 HD
ATOM     20  H   LIG d   1      -1.863  76.760 112.579  0.00  0.00    -0.090 HD
ATOM     21  H   LIG d   1      -1.106  77.660 111.438  0.00  0.00    -0.090 HD
ENDBRANCH   5  18
BRANCH   3  22
ATOM     22  C   LIG d   1      -1.698  82.385 112.421  0.00  0.00     0.382 C 
ATOM     23  O   LIG d   1      -1.584  83.388 113.165  0.00  0.00    -0.241 OA
ATOM     24  O   LIG d   1      -1.435  82.488 111.208  0.00  0.00    -0.241 OA
ENDBRANCH   3  22
TORSDOF 7
ENDMDL
MODEL 3
REMARK VINA RESULT:      -5.0      1.954      4.068
REMARK  7 active torsions:
REMARK  status: ('A' for Active; 'I' for Inactive)
REMARK    1  A    between atoms: C_2  and  C_3 
REMARK    2  A    between atoms: C_3  and  O_6 
REMARK    3  A    between atoms: C_3  and  C_4 
REMARK    4  A    between atoms: C_7  and  O_6 
REMARK    5  A    between atoms: C_9  and  C_10 
REMARK    6  A    between atoms: N_15  and  C_14 
REMARK    7  A    between atoms: N_20  and  C_19 
REMARK       I    between atoms: C_22  and  N_20 
ROOT
ATOM      1  C   LIG d   1      -2.496  81.512 112.468  0.00  0.00     0.161 C 
ATOM      2  C   LIG d   1      -3.032  80.316 112.974  0.00  0.00     0.016 C 
ATOM      3  C   LIG d   1      -2.489  79.041 112.696  0.00  0.00     0.038 C 
ATOM      4  C   LIG d   1      -1.274  78.885 112.011  0.00  0.00     0.028 C 
ATOM      5  C   LIG d   1      -0.969  80.031 111.052  0.00  0.00    -0.047 C 
ATOM      6  C   LIG d   1      -1.107  81.371 111.810  0.00  0.00     0.091 C 
ENDROOT
BRANCH   1   7
ATOM      7  O   LIG d   1      -2.459  82.510 113.507  0.00  0.00    -0.368 OA
BRANCH   7   8
ATOM      8  C   LIG d   1      -1.516  82.276 114.581  0.00  0.00     0.119 C 
BRANCH   8   9
ATOM      9  C   LIG d   1      -2.295  82.356 115.908  0.00  0.00     0.028 C 
ATOM     10  C   LIG d   1      -3.754  82.800 115.705  0.00  0.00     0.006 C 
ENDBRANCH   8   9
BRANCH   8  11
ATOM     11  C   LIG d   1      -0.470  83.392 114.657  0.00  0.00     0.028 C 
ATOM     12  C   LIG d   1      -0.919  84.678 113.946  0.00  0.00     0.006 C 
ENDBRANCH   8  11
ENDBRANCH   7   8
ENDBRANCH   1   7
BRANCH   6  13
ATOM     13  N   LIG d   1      -0.908  82.547 110.923  0.00  0.00    -0.311 N 
ATOM     14  C   LIG d   1       0.261  83.170 110.784  0.00  0.00     0.210 C 
ATOM     15  C   LIG d   1       0.243  84.373 109.836  0.00  0.00     0.109 C 
ATOM     16  O   LIG d   1       1.318  82.822 111.332  0.00  0.00    -0.276 OA
ATOM     17  H   LIG d   1      -1.706  82.877 110.417  0.00  0.00     0.149 HD
ENDBRANCH   6  13
BRANCH   5  18
ATOM     18  N   LIG d   1       0.385  79.810 110.510  0.00  0.00     0.381 N 
ATOM     19  H   LIG d   1       0.823  79.051 110.993  0.00  0.00    -0.090 HD
ATOM     20  H   LIG d   1       0.934  80.638 110.659  0.00  0.00    -0.090 HD
ATOM     21  H   LIG d   1       0.333  79.608 109.536  0.00  0.00    -0.090 HD
ENDBRANCH   5  18
BRANCH   3  22
ATOM     22  C   LIG d   1      -3.184  77.901 113.072  0.00  0.00     0.382 C 
ATOM     23  O   LIG d   1      -3.736  77.846 114.196  0.00  0.00    -0.241 OA
ATOM     24  O   LIG d   1      -3.227  76.911 112.318  0.00  0.00    -0.241 OA
ENDBRANCH   3  22
TORSDOF 7
ENDMDL
MODEL 4
REMARK VINA RESULT:      -4.9      3.944      7.331
REMARK  7 active torsions:
REMARK  status: ('A' for Active; 'I' for Inactive)
REMARK    1  A    between atoms: C_2  and  C_3 
REMARK    2  A    between atoms: C_3  and  O_6 
REMARK    3  A    between atoms: C_3  and  C_4 
REMARK    4  A    between atoms: C_7  and  O_6 
REMARK    5  A    between atoms: C_9  and  C_10 
REMARK    6  A    between atoms: N_15  and  C_14 
REMARK    7  A    between atoms: N_20  and  C_19 
REMARK       I    between atoms: C_22  and  N_20 
ROOT
ATOM      1  C   LIG d   1      -1.760  78.943 115.495  0.00  0.00     0.161 C 
ATOM      2  C   LIG d   1      -2.295  80.154 115.024  0.00  0.00     0.016 C 
ATOM      3  C   LIG d   1      -2.742  80.343 113.696  0.00  0.00     0.038 C 
ATOM      4  C   LIG d   1      -2.824  79.281 112.783  0.00  0.00     0.028 C 
ATOM      5  C   LIG d   1      -1.825  78.163 113.062  0.00  0.00    -0.047 C 
ATOM      6  C   LIG d   1      -1.945  77.742 114.545  0.00  0.00     0.091 C 
ENDROOT
BRANCH   1   7
ATOM      7  O   LIG d   1      -2.304  78.642 116.795  0.00  0.00    -0.368 OA
BRANCH   7   8
ATOM      8  C   LIG d   1      -3.592  77.980 116.810  0.00  0.00     0.119 C 
BRANCH   8   9
ATOM      9  C   LIG d   1      -4.621  78.981 117.372  0.00  0.00     0.028 C 
ATOM     10  C   LIG d   1      -4.007  79.930 118.415  0.00  0.00     0.006 C 
ENDBRANCH   8   9
BRANCH   8  11
ATOM     11  C   LIG d   1      -3.601  76.799 117.785  0.00  0.00     0.028 C 
ATOM     12  C   LIG d   1      -2.246  76.588 118.478  0.00  0.00     0.006 C 
ENDBRANCH   8  11
ENDBRANCH   7   8
ENDBRANCH   1   7
BRANCH   6  13
ATOM     13  N   LIG d   1      -0.944  76.710 114.924  0.00  0.00    -0.311 N 
ATOM     14  C   LIG d   1      -1.252  75.431 115.131  0.00  0.00     0.210 C 
ATOM     15  C   LIG d   1      -0.073  74.539 115.533  0.00  0.00     0.109 C 
ATOM     16  O   LIG d   1      -2.384  74.944 114.989  0.00  0.00    -0.276 OA
ATOM     17  H   LIG d   1       0.004  77.013 115.030  0.00  0.00     0.149 HD
ENDBRANCH   6  13
BRANCH   5  18
ATOM     18  N   LIG d   1      -2.113  77.063 112.123  0.00  0.00     0.381 N 
ATOM     19  H   LIG d   1      -1.710  76.213 112.463  0.00  0.00    -0.090 HD
ATOM     20  H   LIG d   1      -1.695  77.276 111.234  0.00  0.00    -0.090 HD
ATOM     21  H   LIG d   1      -3.098  76.953 112.018  0.00  0.00    -0.090 HD
ENDBRANCH   5  18
BRANCH   3  22
ATOM     22  C   LIG d   1      -3.075  81.615 113.257  0.00  0.00     0.382 C 
ATOM     23  O   LIG d   1      -2.743  81.989 112.106  0.00  0.00    -0.241 OA
ATOM     24  O   LIG d   1      -3.664  82.410 114.014  0.00  0.00    -0.241 OA
ENDBRANCH   3  22
TORSDOF 7
ENDMDL
MODEL 5
REMARK VINA RESULT:      -4.8      2.585      4.786
REMARK  7 active torsions:
REMARK  status: ('A' for Active; 'I' for Inactive)
REMARK    1  A    between atoms: C_2  and  C_3 
REMARK    2  A    between atoms: C_3  and  O_6 
REMARK    3  A    between atoms: C_3  and  C_4 
REMARK    4  A    between atoms: C_7  and  O_6 
REMARK    5  A    between atoms: C_9  and  C_10 
REMARK    6  A    between atoms: N_15  and  C_14 
REMARK    7  A    between atoms: N_20  and  C_19 
REMARK       I    between atoms: C_22  and  N_20 
ROOT
ATOM      1  C   LIG d   1      -2.456  80.645 114.062  0.00  0.00     0.161 C 
ATOM      2  C   LIG d   1      -2.906  79.363 114.417  0.00  0.00     0.016 C 
ATOM      3  C   LIG d   1      -2.808  78.239 113.564  0.00  0.00     0.038 C 
ATOM      4  C   LIG d   1      -2.111  78.291 112.348  0.00  0.00     0.028 C 
ATOM      5  C   LIG d   1      -2.082  79.682 111.725  0.00  0.00    -0.047 C 
ATOM      6  C   LIG d   1      -1.592  80.696 112.784  0.00  0.00     0.091 C 
ENDROOT
BRANCH   1   7
ATOM      7  O   LIG d   1      -1.748  81.239 115.168  0.00  0.00    -0.368 OA
BRANCH   7   8
ATOM      8  C   LIG d   1      -2.535  82.069 116.056  0.00  0.00     0.119 C 
BRANCH   8   9
ATOM      9  C   LIG d   1      -2.553  83.492 115.465  0.00  0.00     0.028 C 
ATOM     10  C   LIG d   1      -1.193  84.198 115.592  0.00  0.00     0.006 C 
ENDBRANCH   8   9
BRANCH   8  11
ATOM     11  C   LIG d   1      -1.867  82.208 117.428  0.00  0.00     0.028 C 
ATOM     12  C   LIG d   1      -2.881  82.380 118.570  0.00  0.00     0.006 C 
ENDBRANCH   8  11
ENDBRANCH   7   8
ENDBRANCH   1   7
BRANCH   6  13
ATOM     13  N   LIG d   1      -1.614  82.095 112.282  0.00  0.00    -0.311 N 
ATOM     14  C   LIG d   1      -0.527  82.860 112.195  0.00  0.00     0.210 C 
ATOM     15  C   LIG d   1      -0.774  84.277 111.670  0.00  0.00     0.109 C 
ATOM     16  O   LIG d   1       0.623  82.488 112.474  0.00  0.00    -0.276 OA
ATOM     17  H   LIG d   1      -2.502  82.466 112.005  0.00  0.00     0.149 HD
ENDBRANCH   6  13
BRANCH   5  18
ATOM     18  N   LIG d   1      -1.209  79.620 110.537  0.00  0.00     0.381 N 
ATOM     19  H   LIG d   1      -0.424  80.227 110.661  0.00  0.00    -0.090 HD
ATOM     20  H   LIG d   1      -1.728  79.935 109.736  0.00  0.00    -0.090 HD
ATOM     21  H   LIG d   1      -0.896  78.685 110.392  0.00  0.00    -0.090 HD
ENDBRANCH   5  18
BRANCH   3  22
ATOM     22  C   LIG d   1      -3.447  77.058 113.908  0.00  0.00     0.382 C 
ATOM     23  O   LIG d   1      -4.223  76.504 113.093  0.00  0.00    -0.241 OA
ATOM     24  O   LIG d   1      -3.290  76.561 115.040  0.00  0.00    -0.241 OA
ENDBRANCH   3  22
TORSDOF 7
ENDMDL
MODEL 6
REMARK VINA RESULT:      -4.7      5.590      8.425
REMARK  7 active torsions:
REMARK  status: ('A' for Active; 'I' for Inactive)
REMARK    1  A    between atoms: C_2  and  C_3 
REMARK    2  A    between atoms: C_3  and  O_6 
REMARK    3  A    between atoms: C_3  and  C_4 
REMARK    4  A    between atoms: C_7  and  O_6 
REMARK    5  A    between atoms: C_9  and  C_10 
REMARK    6  A    between atoms: N_15  and  C_14 
REMARK    7  A    between atoms: N_20  and  C_19 
REMARK       I    between atoms: C_22  and  N_20 
ROOT
ATOM      1  C   LIG d   1      -4.072  77.075 117.009  0.00  0.00     0.161 C 
ATOM      2  C   LIG d   1      -4.804  78.254 117.228  0.00  0.00     0.016 C 
ATOM      3  C   LIG d   1      -4.439  79.508 116.687  0.00  0.00     0.038 C 
ATOM      4  C   LIG d   1      -3.394  79.639 115.760  0.00  0.00     0.028 C 
ATOM      5  C   LIG d   1      -2.319  78.568 115.903  0.00  0.00    -0.047 C 
ATOM      6  C   LIG d   1      -2.994  77.177 115.911  0.00  0.00     0.091 C 
ENDROOT
BRANCH   1   7
ATOM      7  O   LIG d   1      -4.973  75.986 116.727  0.00  0.00    -0.368 OA
BRANCH   7   8
ATOM      8  C   LIG d   1      -6.149  76.318 115.947  0.00  0.00     0.119 C 
BRANCH   8   9
ATOM      9  C   LIG d   1      -7.366  75.694 116.658  0.00  0.00     0.028 C 
ATOM     10  C   LIG d   1      -6.958  74.750 117.802  0.00  0.00     0.006 C 
ENDBRANCH   8   9
BRANCH   8  11
ATOM     11  C   LIG d   1      -6.106  75.660 114.565  0.00  0.00     0.028 C 
ATOM     12  C   LIG d   1      -5.250  74.383 114.540  0.00  0.00     0.006 C 
ENDBRANCH   8  11
ENDBRANCH   7   8
ENDBRANCH   1   7
BRANCH   6  13
ATOM     13  N   LIG d   1      -2.020  76.076 116.132  0.00  0.00    -0.311 N 
ATOM     14  C   LIG d   1      -1.370  75.464 115.144  0.00  0.00     0.210 C 
ATOM     15  C   LIG d   1      -0.427  74.341 115.589  0.00  0.00     0.109 C 
ATOM     16  O   LIG d   1      -1.460  75.765 113.944  0.00  0.00    -0.276 OA
ATOM     17  H   LIG d   1      -1.863  75.789 117.078  0.00  0.00     0.149 HD
ENDBRANCH   6  13
BRANCH   5  18
ATOM     18  N   LIG d   1      -1.366  78.742 114.791  0.00  0.00     0.381 N 
ATOM     19  H   LIG d   1      -1.698  79.450 114.167  0.00  0.00    -0.090 HD
ATOM     20  H   LIG d   1      -1.300  77.879 114.281  0.00  0.00    -0.090 HD
ATOM     21  H   LIG d   1      -0.470  78.995 115.146  0.00  0.00    -0.090 HD
ENDBRANCH   5  18
BRANCH   3  22
ATOM     22  C   LIG d   1      -5.098  80.654 117.104  0.00  0.00     0.382 C 
ATOM     23  O   LIG d   1      -4.443  81.622 117.561  0.00  0.00    -0.241 OA
ATOM     24  O   LIG d   1      -6.341  80.716 117.071  0.00  0.00    -0.241 OA
ENDBRANCH   3  22
TORSDOF 7
ENDMDL
MODEL 7
REMARK VINA RESULT:      -4.7      2.754      6.244
REMARK  7 active torsions:
REMARK  status: ('A' for Active; 'I' for Inactive)
REMARK    1  A    between atoms: C_2  and  C_3 
REMARK    2  A    between atoms: C_3  and  O_6 
REMARK    3  A    between atoms: C_3  and  C_4 
REMARK    4  A    between atoms: C_7  and  O_6 
REMARK    5  A    between atoms: C_9  and  C_10 
REMARK    6  A    between atoms: N_15  and  C_14 
REMARK    7  A    between atoms: N_20  and  C_19 
REMARK       I    between atoms: C_22  and  N_20 
ROOT
ATOM      1  C   LIG d   1      -0.857  80.716 114.354  0.00  0.00     0.161 C 
ATOM      2  C   LIG d   1      -0.726  81.950 113.695  0.00  0.00     0.016 C 
ATOM      3  C   LIG d   1      -1.098  82.155 112.347  0.00  0.00     0.038 C 
ATOM      4  C   LIG d   1      -1.772  81.173 111.606  0.00  0.00     0.028 C 
ATOM      5  C   LIG d   1      -1.471  79.752 112.069  0.00  0.00    -0.047 C 
ATOM      6  C   LIG d   1      -1.694  79.664 113.596  0.00  0.00     0.091 C 
ENDROOT
BRANCH   1   7
ATOM      7  O   LIG d   1      -1.392  80.924 115.677  0.00  0.00    -0.368 OA
BRANCH   7   8
ATOM      8  C   LIG d   1      -2.222  82.099 115.852  0.00  0.00     0.119 C 
BRANCH   8   9
ATOM      9  C   LIG d   1      -1.847  82.732 117.205  0.00  0.00     0.028 C 
ATOM     10  C   LIG d   1      -0.478  83.431 117.167  0.00  0.00     0.006 C 
ENDBRANCH   8   9
BRANCH   8  11
ATOM     11  C   LIG d   1      -3.701  81.723 115.975  0.00  0.00     0.028 C 
ATOM     12  C   LIG d   1      -3.911  80.276 116.448  0.00  0.00     0.006 C 
ENDBRANCH   8  11
ENDBRANCH   7   8
ENDBRANCH   1   7
BRANCH   6  13
ATOM     13  N   LIG d   1      -1.340  78.329 114.145  0.00  0.00    -0.311 N 
ATOM     14  C   LIG d   1      -2.229  77.354 114.330  0.00  0.00     0.210 C 
ATOM     15  C   LIG d   1      -1.658  76.063 114.925  0.00  0.00     0.109 C 
ATOM     16  O   LIG d   1      -3.429  77.424 114.028  0.00  0.00    -0.276 OA
ATOM     17  H   LIG d   1      -0.381  78.175 114.388  0.00  0.00     0.149 HD
ENDBRANCH   6  13
BRANCH   5  18
ATOM     18  N   LIG d   1      -2.343  78.840 111.305  0.00  0.00     0.381 N 
ATOM     19  H   LIG d   1      -3.301  79.016 111.533  0.00  0.00    -0.090 HD
ATOM     20  H   LIG d   1      -2.127  77.893 111.561  0.00  0.00    -0.090 HD
ATOM     21  H   LIG d   1      -2.198  78.969 110.328  0.00  0.00    -0.090 HD
ENDBRANCH   5  18
BRANCH   3  22
ATOM     22  C   LIG d   1      -0.759  83.341 111.713  0.00  0.00     0.382 C 
ATOM     23  O   LIG d   1      -1.184  83.578 110.557  0.00  0.00    -0.241 OA
ATOM     24  O   LIG d   1       0.001  84.158 112.266  0.00  0.00    -0.241 OA
ENDBRANCH   3  22
TORSDOF 7
ENDMDL
MODEL 8
REMARK VINA RESULT:      -4.6      4.135      7.235
REMARK  7 active torsions:
REMARK  status: ('A' for Active; 'I' for Inactive)
REMARK    1  A    between atoms: C_2  and  C_3 
REMARK    2  A    between atoms: C_3  and  O_6 
REMARK    3  A    between atoms: C_3  and  C_4 
REMARK    4  A    between atoms: C_7  and  O_6 
REMARK    5  A    between atoms: C_9  and  C_10 
REMARK    6  A    between atoms: N_15  and  C_14 
REMARK    7  A    between atoms: N_20  and  C_19 
REMARK       I    between atoms: C_22  and  N_20 
ROOT
ATOM      1  C   LIG d   1      -2.024  78.879 115.584  0.00  0.00     0.161 C 
ATOM      2  C   LIG d   1      -2.485  80.107 115.081  0.00  0.00     0.016 C 
ATOM      3  C   LIG d   1      -2.777  80.327 113.715  0.00  0.00     0.038 C 
ATOM      4  C   LIG d   1      -2.773  79.283 112.778  0.00  0.00     0.028 C 
ATOM      5  C   LIG d   1      -1.828  78.144 113.145  0.00  0.00    -0.047 C 
ATOM      6  C   LIG d   1      -2.120  77.698 114.596  0.00  0.00     0.091 C 
ENDROOT
BRANCH   1   7
ATOM      7  O   LIG d   1      -2.714  78.564 116.810  0.00  0.00    -0.368 OA
BRANCH   7   8
ATOM      8  C   LIG d   1      -1.904  78.549 118.012  0.00  0.00     0.119 C 
BRANCH   8   9
ATOM      9  C   LIG d   1      -2.349  77.338 118.854  0.00  0.00     0.028 C 
ATOM     10  C   LIG d   1      -1.227  76.300 119.027  0.00  0.00     0.006 C 
ENDBRANCH   8   9
BRANCH   8  11
ATOM     11  C   LIG d   1      -2.182  79.776 118.886  0.00  0.00     0.028 C 
ATOM     12  C   LIG d   1      -3.595  80.345 118.683  0.00  0.00     0.006 C 
ENDBRANCH   8  11
ENDBRANCH   7   8
ENDBRANCH   1   7
BRANCH   6  13
ATOM     13  N   LIG d   1      -1.183  76.643 115.064  0.00  0.00    -0.311 N 
ATOM     14  C   LIG d   1      -1.547  75.379 115.273  0.00  0.00     0.210 C 
ATOM     15  C   LIG d   1      -0.430  74.459 115.774  0.00  0.00     0.109 C 
ATOM     16  O   LIG d   1      -2.682  74.926 115.060  0.00  0.00    -0.276 OA
ATOM     17  H   LIG d   1      -0.235  76.917 115.232  0.00  0.00     0.149 HD
ENDBRANCH   6  13
BRANCH   5  18
ATOM     18  N   LIG d   1      -2.026  77.065 112.158  0.00  0.00     0.381 N 
ATOM     19  H   LIG d   1      -2.994  77.003 111.915  0.00  0.00    -0.090 HD
ATOM     20  H   LIG d   1      -1.747  76.192 112.571  0.00  0.00    -0.090 HD
ATOM     21  H   LIG d   1      -1.482  77.245 111.343  0.00  0.00    -0.090 HD
ENDBRANCH   5  18
BRANCH   3  22
ATOM     22  C   LIG d   1      -3.040  81.613 113.267  0.00  0.00     0.382 C 
ATOM     23  O   LIG d   1      -3.571  82.449 114.037  0.00  0.00    -0.241 OA
ATOM     24  O   LIG d   1      -2.794  81.934 112.089  0.00  0.00    -0.241 OA
ENDBRANCH   3  22
TORSDOF 7
ENDMDL
MODEL 9
REMARK VINA RESULT:      -4.4      3.711      6.927
REMARK  7 active torsions:
REMARK  status: ('A' for Active; 'I' for Inactive)
REMARK    1  A    between atoms: C_2  and  C_3 
REMARK    2  A    between atoms: C_3  and  O_6 
REMARK    3  A    between atoms: C_3  and  C_4 
REMARK    4  A    between atoms: C_7  and  O_6 
REMARK    5  A    between atoms: C_9  and  C_10 
REMARK    6  A    between atoms: N_15  and  C_14 
REMARK    7  A    between atoms: N_20  and  C_19 
REMARK       I    between atoms: C_22  and  N_20 
ROOT
ATOM      1  C   LIG d   1      -2.640  78.635 115.183  0.00  0.00     0.161 C 
ATOM      2  C   LIG d   1      -3.031  79.439 114.099  0.00  0.00     0.016 C 
ATOM      3  C   LIG d   1      -2.233  80.481 113.575  0.00  0.00     0.038 C 
ATOM      4  C   LIG d   1      -0.915  80.694 114.006  0.00  0.00     0.028 C 
ATOM      5  C   LIG d   1      -0.665  80.236 115.439  0.00  0.00    -0.047 C 
ATOM      6  C   LIG d   1      -1.160  78.780 115.594  0.00  0.00     0.091 C 
ENDROOT
BRANCH   1   7
ATOM      7  O   LIG d   1      -2.950  77.255 114.906  0.00  0.00    -0.368 OA
BRANCH   7   8
ATOM      8  C   LIG d   1      -4.271  76.807 115.300  0.00  0.00     0.119 C 
BRANCH   8   9
ATOM      9  C   LIG d   1      -4.244  76.571 116.822  0.00  0.00     0.028 C 
ATOM     10  C   LIG d   1      -3.691  75.184 117.192  0.00  0.00     0.006 C 
ENDBRANCH   8   9
BRANCH   8  11
ATOM     11  C   LIG d   1      -4.604  75.445 114.684  0.00  0.00     0.028 C 
ATOM     12  C   LIG d   1      -5.937  75.447 113.920  0.00  0.00     0.006 C 
ENDBRANCH   8  11
ENDBRANCH   7   8
ENDBRANCH   1   7
BRANCH   6  13
ATOM     13  N   LIG d   1      -1.029  78.283 116.989  0.00  0.00    -0.311 N 
ATOM     14  C   LIG d   1      -0.500  77.101 117.299  0.00  0.00     0.210 C 
ATOM     15  C   LIG d   1      -0.479  76.774 118.796  0.00  0.00     0.109 C 
ATOM     16  O   LIG d   1      -0.016  76.306 116.479  0.00  0.00    -0.276 OA
ATOM     17  H   LIG d   1      -1.369  78.878 117.719  0.00  0.00     0.149 HD
ENDBRANCH   6  13
BRANCH   5  18
ATOM     18  N   LIG d   1       0.777  80.389 115.711  0.00  0.00     0.381 N 
ATOM     19  H   LIG d   1       1.226  80.815 114.925  0.00  0.00    -0.090 HD
ATOM     20  H   LIG d   1       1.180  79.479 115.850  0.00  0.00    -0.090 HD
ATOM     21  H   LIG d   1       0.913  80.949 116.524  0.00  0.00    -0.090 HD
ENDBRANCH   5  18
BRANCH   3  22
ATOM     22  C   LIG d   1      -2.767  81.350 112.636  0.00  0.00     0.382 C 
ATOM     23  O   LIG d   1      -2.064  81.743 111.674  0.00  0.00    -0.241 OA
ATOM     24  O   LIG d   1      -3.929  81.781 112.763  0.00  0.00    -0.241 OA
ENDBRANCH   3  22
TORSDOF 7
ENDMDL
