MODEL 1
REMARK VINA RESULT:      -5.6      0.000      0.000
REMARK  7 active torsions:
REMARK  status: ('A' for Active; 'I' for Inactive)
REMARK    1  A    between atoms: C_2  and  C_3 
REMARK    2  A    between atoms: C_3  and  O_6 
REMARK    3  A    between atoms: C_3  and  C_4 
REMARK    4  A    between atoms: C_7  and  O_6 
REMARK    5  A    between atoms: C_9  and  C_10 
REMARK    6  A    between atoms: N_15  and  C_14 
REMARK    7  A    between atoms: N_20  and  C_19 
REMARK       I    between atoms: C_22  and  N_20 
ROOT
ATOM      1  C   LIG d   1      -1.531  76.413 111.772  0.00  0.00     0.161 C 
ATOM      2  C   LIG d   1      -0.575  77.065 110.976  0.00  0.00     0.016 C 
ATOM      3  C   LIG d   1      -0.281  78.444 111.085  0.00  0.00     0.038 C 
ATOM      4  C   LIG d   1      -0.819  79.238 112.109  0.00  0.00     0.028 C 
ATOM      5  C   LIG d   1      -2.168  78.740 112.616  0.00  0.00    -0.047 C 
ATOM      6  C   LIG d   1      -2.049  77.239 112.969  0.00  0.00     0.091 C 
ENDROOT
BRANCH   1   7
ATOM      7  O   LIG d   1      -1.010  75.148 112.225  0.00  0.00    -0.368 OA
BRANCH   7   8
ATOM      8  C   LIG d   1       0.103  75.212 113.151  0.00  0.00     0.119 C 
BRANCH   8   9
ATOM      9  C   LIG d   1       1.151  74.182 112.686  0.00  0.00     0.028 C 
ATOM     10  C   LIG d   1       2.308  74.831 111.908  0.00  0.00     0.006 C 
ENDBRANCH   8   9
BRANCH   8  11
ATOM     11  C   LIG d   1      -0.313  74.763 114.554  0.00  0.00     0.028 C 
ATOM     12  C   LIG d   1       0.402  75.547 115.667  0.00  0.00     0.006 C 
ENDBRANCH   8  11
ENDBRANCH   7   8
ENDBRANCH   1   7
BRANCH   6  13
ATOM     13  N   LIG d   1      -3.346  76.652 113.393  0.00  0.00    -0.311 N 
ATOM     14  C   LIG d   1      -3.691  76.482 114.669  0.00  0.00     0.210 C 
ATOM     15  C   LIG d   1      -5.065  75.840 114.886  0.00  0.00     0.109 C 
ATOM     16  O   LIG d   1      -3.004  76.831 115.640  0.00  0.00    -0.276 OA
ATOM     17  H   LIG d   1      -3.977  76.369 112.670  0.00  0.00     0.149 HD
ENDBRANCH   6  13
BRANCH   5  18
ATOM     18  N   LIG d   1      -2.547  79.576 113.770  0.00  0.00     0.381 N 
ATOM     19  H   LIG d   1      -1.912  80.344 113.855  0.00  0.00    -0.090 HD
ATOM     20  H   LIG d   1      -2.487  79.023 114.607  0.00  0.00    -0.090 HD
ATOM     21  H   LIG d   1      -3.477  79.917 113.654  0.00  0.00    -0.090 HD
ENDBRANCH   5  18
BRANCH   3  22
ATOM     22  C   LIG d   1       0.531  79.050 110.139  0.00  0.00     0.382 C 
ATOM     23  O   LIG d   1       1.652  78.557 109.866  0.00  0.00    -0.241 OA
ATOM     24  O   LIG d   1       0.176  80.109 109.587  0.00  0.00    -0.241 OA
ENDBRANCH   3  22
TORSDOF 7
ENDMDL
MODEL 2
REMARK VINA RESULT:      -5.5      2.353      4.384
REMARK  7 active torsions:
REMARK  status: ('A' for Active; 'I' for Inactive)
REMARK    1  A    between atoms: C_2  and  C_3 
REMARK    2  A    between atoms: C_3  and  O_6 
REMARK    3  A    between atoms: C_3  and  C_4 
REMARK    4  A    between atoms: C_7  and  O_6 
REMARK    5  A    between atoms: C_9  and  C_10 
REMARK    6  A    between atoms: N_15  and  C_14 
REMARK    7  A    between atoms: N_20  and  C_19 
REMARK       I    between atoms: C_22  and  N_20 
ROOT
ATOM      1  C   LIG d   1      -1.676  77.566 113.361  0.00  0.00     0.161 C 
ATOM      2  C   LIG d   1      -2.283  78.832 113.287  0.00  0.00     0.016 C 
ATOM      3  C   LIG d   1      -1.881  79.835 112.375  0.00  0.00     0.038 C 
ATOM      4  C   LIG d   1      -0.940  79.586 111.366  0.00  0.00     0.028 C 
ATOM      5  C   LIG d   1       0.056  78.488 111.724  0.00  0.00    -0.047 C 
ATOM      6  C   LIG d   1      -0.722  77.238 112.193  0.00  0.00     0.091 C 
ENDROOT
BRANCH   1   7
ATOM      7  O   LIG d   1      -2.687  76.547 113.484  0.00  0.00    -0.368 OA
BRANCH   7   8
ATOM      8  C   LIG d   1      -2.620  75.723 114.674  0.00  0.00     0.119 C 
BRANCH   8   9
ATOM      9  C   LIG d   1      -4.001  75.781 115.355  0.00  0.00     0.028 C 
ATOM     10  C   LIG d   1      -5.029  74.858 114.679  0.00  0.00     0.006 C 
ENDBRANCH   8   9
BRANCH   8  11
ATOM     11  C   LIG d   1      -1.639  76.302 115.698  0.00  0.00     0.028 C 
ATOM     12  C   LIG d   1      -0.584  75.282 116.154  0.00  0.00     0.006 C 
ENDBRANCH   8  11
ENDBRANCH   7   8
ENDBRANCH   1   7
BRANCH   6  13
ATOM     13  N   LIG d   1       0.178  76.144 112.643  0.00  0.00    -0.311 N 
ATOM     14  C   LIG d   1       0.692  75.233 111.819  0.00  0.00     0.210 C 
ATOM     15  C   LIG d   1       1.581  74.181 112.492  0.00  0.00     0.109 C 
ATOM     16  O   LIG d   1       0.523  75.213 110.591  0.00  0.00    -0.276 OA
ATOM     17  H   LIG d   1       0.394  76.104 113.620  0.00  0.00     0.149 HD
ENDBRANCH   6  13
BRANCH   5  18
ATOM     18  N   LIG d   1       0.890  78.236 110.533  0.00  0.00     0.381 N 
ATOM     19  H   LIG d   1       0.915  79.055 109.959  0.00  0.00    -0.090 HD
ATOM     20  H   LIG d   1       0.479  77.490 110.001  0.00  0.00    -0.090 HD
ATOM     21  H   LIG d   1       1.814  77.988 110.810  0.00  0.00    -0.090 HD
ENDBRANCH   5  18
BRANCH   3  22
ATOM     22  C   LIG d   1      -2.396  81.117 112.494  0.00  0.00     0.382 C 
ATOM     23  O   LIG d   1      -1.646  82.110 112.336  0.00  0.00    -0.241 OA
ATOM     24  O   LIG d   1      -3.590  81.292 112.801  0.00  0.00    -0.241 OA
ENDBRANCH   3  22
TORSDOF 7
ENDMDL
MODEL 3
REMARK VINA RESULT:      -5.4      2.729      4.813
REMARK  7 active torsions:
REMARK  status: ('A' for Active; 'I' for Inactive)
REMARK    1  A    between atoms: C_2  and  C_3 
REMARK    2  A    between atoms: C_3  and  O_6 
REMARK    3  A    between atoms: C_3  and  C_4 
REMARK    4  A    between atoms: C_7  and  O_6 
REMARK    5  A    between atoms: C_9  and  C_10 
REMARK    6  A    between atoms: N_15  and  C_14 
REMARK    7  A    between atoms: N_20  and  C_19 
REMARK       I    between atoms: C_22  and  N_20 
ROOT
ATOM      1  C   LIG d   1      -1.520  75.352 114.592  0.00  0.00     0.161 C 
ATOM      2  C   LIG d   1      -2.169  76.055 113.563  0.00  0.00     0.016 C 
ATOM      3  C   LIG d   1      -1.559  76.362 112.325  0.00  0.00     0.038 C 
ATOM      4  C   LIG d   1      -0.301  75.851 111.972  0.00  0.00     0.028 C 
ATOM      5  C   LIG d   1       0.594  75.561 113.172  0.00  0.00    -0.047 C 
ATOM      6  C   LIG d   1      -0.187  74.691 114.182  0.00  0.00     0.091 C 
ENDROOT
BRANCH   1   7
ATOM      7  O   LIG d   1      -2.414  74.371 115.153  0.00  0.00    -0.368 OA
BRANCH   7   8
ATOM      8  C   LIG d   1      -3.210  74.806 116.282  0.00  0.00     0.119 C 
BRANCH   8   9
ATOM      9  C   LIG d   1      -2.552  74.242 117.557  0.00  0.00     0.028 C 
ATOM     10  C   LIG d   1      -2.149  75.347 118.547  0.00  0.00     0.006 C 
ENDBRANCH   8   9
BRANCH   8  11
ATOM     11  C   LIG d   1      -4.613  74.192 116.245  0.00  0.00     0.028 C 
ATOM     12  C   LIG d   1      -5.221  74.180 114.833  0.00  0.00     0.006 C 
ENDBRANCH   8  11
ENDBRANCH   7   8
ENDBRANCH   1   7
BRANCH   6  13
ATOM     13  N   LIG d   1       0.586  74.431 115.424  0.00  0.00    -0.311 N 
ATOM     14  C   LIG d   1       0.827  75.362 116.346  0.00  0.00     0.210 C 
ATOM     15  C   LIG d   1       1.662  74.889 117.540  0.00  0.00     0.109 C 
ATOM     16  O   LIG d   1       0.402  76.526 116.304  0.00  0.00    -0.276 OA
ATOM     17  H   LIG d   1       0.943  73.504 115.555  0.00  0.00     0.149 HD
ENDBRANCH   6  13
BRANCH   5  18
ATOM     18  N   LIG d   1       1.817  74.907 112.669  0.00  0.00     0.381 N 
ATOM     19  H   LIG d   1       1.578  74.241 111.962  0.00  0.00    -0.090 HD
ATOM     20  H   LIG d   1       2.259  74.417 113.427  0.00  0.00    -0.090 HD
ATOM     21  H   LIG d   1       2.440  75.589 112.296  0.00  0.00    -0.090 HD
ENDBRANCH   5  18
BRANCH   3  22
ATOM     22  C   LIG d   1      -2.193  77.221 111.441  0.00  0.00     0.382 C 
ATOM     23  O   LIG d   1      -1.643  78.300 111.113  0.00  0.00    -0.241 OA
ATOM     24  O   LIG d   1      -3.327  76.953 111.002  0.00  0.00    -0.241 OA
ENDBRANCH   3  22
TORSDOF 7
ENDMDL
MODEL 4
REMARK VINA RESULT:      -5.4      2.881      5.050
REMARK  7 active torsions:
REMARK  status: ('A' for Active; 'I' for Inactive)
REMARK    1  A    between atoms: C_2  and  C_3 
REMARK    2  A    between atoms: C_3  and  O_6 
REMARK    3  A    between atoms: C_3  and  C_4 
REMARK    4  A    between atoms: C_7  and  O_6 
REMARK    5  A    between atoms: C_9  and  C_10 
REMARK    6  A    between atoms: N_15  and  C_14 
REMARK    7  A    between atoms: N_20  and  C_19 
REMARK       I    between atoms: C_22  and  N_20 
ROOT
ATOM      1  C   LIG d   1      -2.192  78.304 115.530  0.00  0.00     0.161 C 
ATOM      2  C   LIG d   1      -2.558  79.443 114.794  0.00  0.00     0.016 C 
ATOM      3  C   LIG d   1      -2.190  79.651 113.445  0.00  0.00     0.038 C 
ATOM      4  C   LIG d   1      -1.553  78.656 112.689  0.00  0.00     0.028 C 
ATOM      5  C   LIG d   1      -0.720  77.695 113.531  0.00  0.00    -0.047 C 
ATOM      6  C   LIG d   1      -1.592  77.157 114.689  0.00  0.00     0.091 C 
ENDROOT
BRANCH   1   7
ATOM      7  O   LIG d   1      -3.320  77.829 116.291  0.00  0.00    -0.368 OA
BRANCH   7   8
ATOM      8  C   LIG d   1      -3.167  77.841 117.732  0.00  0.00     0.119 C 
BRANCH   8   9
ATOM      9  C   LIG d   1      -3.835  76.565 118.278  0.00  0.00     0.028 C 
ATOM     10  C   LIG d   1      -4.079  75.514 117.182  0.00  0.00     0.006 C 
ENDBRANCH   8   9
BRANCH   8  11
ATOM     11  C   LIG d   1      -3.937  79.004 118.364  0.00  0.00     0.028 C 
ATOM     12  C   LIG d   1      -5.213  79.366 117.588  0.00  0.00     0.006 C 
ENDBRANCH   8  11
ENDBRANCH   7   8
ENDBRANCH   1   7
BRANCH   6  13
ATOM     13  N   LIG d   1      -0.829  76.275 115.610  0.00  0.00    -0.311 N 
ATOM     14  C   LIG d   1      -0.820  74.947 115.514  0.00  0.00     0.210 C 
ATOM     15  C   LIG d   1       0.015  74.227 116.578  0.00  0.00     0.109 C 
ATOM     16  O   LIG d   1      -1.400  74.298 114.630  0.00  0.00    -0.276 OA
ATOM     17  H   LIG d   1      -0.305  76.720 116.339  0.00  0.00     0.149 HD
ENDBRANCH   6  13
BRANCH   5  18
ATOM     18  N   LIG d   1      -0.226  76.631 112.637  0.00  0.00     0.381 N 
ATOM     19  H   LIG d   1       0.669  76.886 112.270  0.00  0.00    -0.090 HD
ATOM     20  H   LIG d   1      -0.865  76.531 111.868  0.00  0.00    -0.090 HD
ATOM     21  H   LIG d   1      -0.157  75.771 113.135  0.00  0.00    -0.090 HD
ENDBRANCH   5  18
BRANCH   3  22
ATOM     22  C   LIG d   1      -2.424  80.881 112.850  0.00  0.00     0.382 C 
ATOM     23  O   LIG d   1      -3.597  81.311 112.740  0.00  0.00    -0.241 OA
ATOM     24  O   LIG d   1      -1.480  81.547 112.383  0.00  0.00    -0.241 OA
ENDBRANCH   3  22
TORSDOF 7
ENDMDL
MODEL 5
REMARK VINA RESULT:      -5.3      2.805      5.536
REMARK  7 active torsions:
REMARK  status: ('A' for Active; 'I' for Inactive)
REMARK    1  A    between atoms: C_2  and  C_3 
REMARK    2  A    between atoms: C_3  and  O_6 
REMARK    3  A    between atoms: C_3  and  C_4 
REMARK    4  A    between atoms: C_7  and  O_6 
REMARK    5  A    between atoms: C_9  and  C_10 
REMARK    6  A    between atoms: N_15  and  C_14 
REMARK    7  A    between atoms: N_20  and  C_19 
REMARK       I    between atoms: C_22  and  N_20 
ROOT
ATOM      1  C   LIG d   1      -1.389  79.768 113.137  0.00  0.00     0.161 C 
ATOM      2  C   LIG d   1      -2.456  78.879 112.927  0.00  0.00     0.016 C 
ATOM      3  C   LIG d   1      -2.431  77.849 111.959  0.00  0.00     0.038 C 
ATOM      4  C   LIG d   1      -1.271  77.541 111.233  0.00  0.00     0.028 C 
ATOM      5  C   LIG d   1      -0.336  78.732 111.052  0.00  0.00    -0.047 C 
ATOM      6  C   LIG d   1      -0.073  79.378 112.431  0.00  0.00     0.091 C 
ENDROOT
BRANCH   1   7
ATOM      7  O   LIG d   1      -1.167  79.940 114.551  0.00  0.00    -0.368 OA
BRANCH   7   8
ATOM      8  C   LIG d   1      -1.478  78.800 115.388  0.00  0.00     0.119 C 
BRANCH   8   9
ATOM      9  C   LIG d   1      -2.050  79.340 116.713  0.00  0.00     0.028 C 
ATOM     10  C   LIG d   1      -3.588  79.305 116.745  0.00  0.00     0.006 C 
ENDBRANCH   8   9
BRANCH   8  11
ATOM     11  C   LIG d   1      -0.210  78.033 115.777  0.00  0.00     0.028 C 
ATOM     12  C   LIG d   1      -0.098  76.671 115.073  0.00  0.00     0.006 C 
ENDBRANCH   8  11
ENDBRANCH   7   8
ENDBRANCH   1   7
BRANCH   6  13
ATOM     13  N   LIG d   1       0.765  80.601 112.334  0.00  0.00    -0.311 N 
ATOM     14  C   LIG d   1       0.668  81.480 111.338  0.00  0.00     0.210 C 
ATOM     15  C   LIG d   1       1.639  82.661 111.420  0.00  0.00     0.109 C 
ATOM     16  O   LIG d   1      -0.153  81.409 110.411  0.00  0.00    -0.276 OA
ATOM     17  H   LIG d   1       1.436  80.753 113.062  0.00  0.00     0.149 HD
ENDBRANCH   6  13
BRANCH   5  18
ATOM     18  N   LIG d   1       0.892  78.240 110.400  0.00  0.00     0.381 N 
ATOM     19  H   LIG d   1       1.156  77.360 110.796  0.00  0.00    -0.090 HD
ATOM     20  H   LIG d   1       1.635  78.896 110.568  0.00  0.00    -0.090 HD
ATOM     21  H   LIG d   1       0.742  78.141 109.420  0.00  0.00    -0.090 HD
ENDBRANCH   5  18
BRANCH   3  22
ATOM     22  C   LIG d   1      -3.590  77.140 111.680  0.00  0.00     0.382 C 
ATOM     23  O   LIG d   1      -3.866  76.829 110.496  0.00  0.00    -0.241 OA
ATOM     24  O   LIG d   1      -4.385  76.845 112.593  0.00  0.00    -0.241 OA
ENDBRANCH   3  22
TORSDOF 7
ENDMDL
MODEL 6
REMARK VINA RESULT:      -5.3      2.586      4.195
REMARK  7 active torsions:
REMARK  status: ('A' for Active; 'I' for Inactive)
REMARK    1  A    between atoms: C_2  and  C_3 
REMARK    2  A    between atoms: C_3  and  O_6 
REMARK    3  A    between atoms: C_3  and  C_4 
REMARK    4  A    between atoms: C_7  and  O_6 
REMARK    5  A    between atoms: C_9  and  C_10 
REMARK    6  A    between atoms: N_15  and  C_14 
REMARK    7  A    between atoms: N_20  and  C_19 
REMARK       I    between atoms: C_22  and  N_20 
ROOT
ATOM      1  C   LIG d   1      -2.062  78.795 114.200  0.00  0.00     0.161 C 
ATOM      2  C   LIG d   1      -1.318  79.828 113.608  0.00  0.00     0.016 C 
ATOM      3  C   LIG d   1      -0.779  79.750 112.303  0.00  0.00     0.038 C 
ATOM      4  C   LIG d   1      -1.077  78.685 111.440  0.00  0.00     0.028 C 
ATOM      5  C   LIG d   1      -1.406  77.388 112.171  0.00  0.00    -0.047 C 
ATOM      6  C   LIG d   1      -2.492  77.671 113.234  0.00  0.00     0.091 C 
ENDROOT
BRANCH   1   7
ATOM      7  O   LIG d   1      -3.212  79.344 114.874  0.00  0.00    -0.368 OA
BRANCH   7   8
ATOM      8  C   LIG d   1      -3.157  79.357 116.321  0.00  0.00     0.119 C 
BRANCH   8   9
ATOM      9  C   LIG d   1      -1.953  78.494 116.747  0.00  0.00     0.028 C 
ATOM     10  C   LIG d   1      -2.374  77.263 117.568  0.00  0.00     0.006 C 
ENDBRANCH   8   9
BRANCH   8  11
ATOM     11  C   LIG d   1      -4.383  78.671 116.931  0.00  0.00     0.028 C 
ATOM     12  C   LIG d   1      -5.282  79.642 117.712  0.00  0.00     0.006 C 
ENDBRANCH   8  11
ENDBRANCH   7   8
ENDBRANCH   1   7
BRANCH   6  13
ATOM     13  N   LIG d   1      -2.811  76.472 114.052  0.00  0.00    -0.311 N 
ATOM     14  C   LIG d   1      -4.005  75.882 114.052  0.00  0.00     0.210 C 
ATOM     15  C   LIG d   1      -4.128  74.671 114.982  0.00  0.00     0.109 C 
ATOM     16  O   LIG d   1      -4.965  76.227 113.346  0.00  0.00    -0.276 OA
ATOM     17  H   LIG d   1      -2.081  76.107 114.631  0.00  0.00     0.149 HD
ENDBRANCH   6  13
BRANCH   5  18
ATOM     18  N   LIG d   1      -1.831  76.402 111.159  0.00  0.00     0.381 N 
ATOM     19  H   LIG d   1      -1.272  75.576 111.235  0.00  0.00    -0.090 HD
ATOM     20  H   LIG d   1      -1.691  76.794 110.244  0.00  0.00    -0.090 HD
ATOM     21  H   LIG d   1      -2.793  76.175 111.287  0.00  0.00    -0.090 HD
ENDBRANCH   5  18
BRANCH   3  22
ATOM     22  C   LIG d   1       0.103  80.727 111.864  0.00  0.00     0.382 C 
ATOM     23  O   LIG d   1       0.835  81.326 112.687  0.00  0.00    -0.241 OA
ATOM     24  O   LIG d   1       0.142  81.047 110.661  0.00  0.00    -0.241 OA
ENDBRANCH   3  22
TORSDOF 7
ENDMDL
MODEL 7
REMARK VINA RESULT:      -5.2      3.053      5.593
REMARK  7 active torsions:
REMARK  status: ('A' for Active; 'I' for Inactive)
REMARK    1  A    between atoms: C_2  and  C_3 
REMARK    2  A    between atoms: C_3  and  O_6 
REMARK    3  A    between atoms: C_3  and  C_4 
REMARK    4  A    between atoms: C_7  and  O_6 
REMARK    5  A    between atoms: C_9  and  C_10 
REMARK    6  A    between atoms: N_15  and  C_14 
REMARK    7  A    between atoms: N_20  and  C_19 
REMARK       I    between atoms: C_22  and  N_20 
ROOT
ATOM      1  C   LIG d   1      -0.945  79.549 113.294  0.00  0.00     0.161 C 
ATOM      2  C   LIG d   1      -1.004  78.148 113.381  0.00  0.00     0.016 C 
ATOM      3  C   LIG d   1      -0.714  77.288 112.298  0.00  0.00     0.038 C 
ATOM      4  C   LIG d   1      -0.195  77.770 111.087  0.00  0.00     0.028 C 
ATOM      5  C   LIG d   1      -0.598  79.209 110.785  0.00  0.00    -0.047 C 
ATOM      6  C   LIG d   1      -0.274  80.090 112.014  0.00  0.00     0.091 C 
ENDROOT
BRANCH   1   7
ATOM      7  O   LIG d   1      -0.296  80.085 114.464  0.00  0.00    -0.368 OA
BRANCH   7   8
ATOM      8  C   LIG d   1      -0.207  79.198 115.606  0.00  0.00     0.119 C 
BRANCH   8   9
ATOM      9  C   LIG d   1      -1.282  79.638 116.619  0.00  0.00     0.028 C 
ATOM     10  C   LIG d   1      -2.440  78.632 116.722  0.00  0.00     0.006 C 
ENDBRANCH   8   9
BRANCH   8  11
ATOM     11  C   LIG d   1       1.129  79.361 116.336  0.00  0.00     0.028 C 
ATOM     12  C   LIG d   1       1.962  80.536 115.798  0.00  0.00     0.006 C 
ENDBRANCH   8  11
ENDBRANCH   7   8
ENDBRANCH   1   7
BRANCH   6  13
ATOM     13  N   LIG d   1      -0.714  81.498 111.835  0.00  0.00    -0.311 N 
ATOM     14  C   LIG d   1       0.071  82.455 111.344  0.00  0.00     0.210 C 
ATOM     15  C   LIG d   1      -0.574  83.842 111.262  0.00  0.00     0.109 C 
ATOM     16  O   LIG d   1       1.230  82.280 110.939  0.00  0.00    -0.276 OA
ATOM     17  H   LIG d   1      -1.651  81.721 112.109  0.00  0.00     0.149 HD
ENDBRANCH   6  13
BRANCH   5  18
ATOM     18  N   LIG d   1       0.122  79.628 109.568  0.00  0.00     0.381 N 
ATOM     19  H   LIG d   1       0.628  78.853 109.190  0.00  0.00    -0.090 HD
ATOM     20  H   LIG d   1       0.781  80.347 109.810  0.00  0.00    -0.090 HD
ATOM     21  H   LIG d   1      -0.524  79.974 108.892  0.00  0.00    -0.090 HD
ENDBRANCH   5  18
BRANCH   3  22
ATOM     22  C   LIG d   1      -0.980  75.932 112.406  0.00  0.00     0.382 C 
ATOM     23  O   LIG d   1      -1.571  75.488 113.421  0.00  0.00    -0.241 OA
ATOM     24  O   LIG d   1      -0.598  75.140 111.524  0.00  0.00    -0.241 OA
ENDBRANCH   3  22
TORSDOF 7
ENDMDL
MODEL 8
REMARK VINA RESULT:      -5.2      3.280      4.518
REMARK  7 active torsions:
REMARK  status: ('A' for Active; 'I' for Inactive)
REMARK    1  A    between atoms: C_2  and  C_3 
REMARK    2  A    between atoms: C_3  and  O_6 
REMARK    3  A    between atoms: C_3  and  C_4 
REMARK    4  A    between atoms: C_7  and  O_6 
REMARK    5  A    between atoms: C_9  and  C_10 
REMARK    6  A    between atoms: N_15  and  C_14 
REMARK    7  A    between atoms: N_20  and  C_19 
REMARK       I    between atoms: C_22  and  N_20 
ROOT
ATOM      1  C   LIG d   1      -2.140  77.913 114.781  0.00  0.00     0.161 C 
ATOM      2  C   LIG d   1      -2.561  78.905 113.879  0.00  0.00     0.016 C 
ATOM      3  C   LIG d   1      -1.774  80.028 113.534  0.00  0.00     0.038 C 
ATOM      4  C   LIG d   1      -0.442  80.158 113.955  0.00  0.00     0.028 C 
ATOM      5  C   LIG d   1      -0.149  79.440 115.268  0.00  0.00    -0.047 C 
ATOM      6  C   LIG d   1      -0.646  77.980 115.164  0.00  0.00     0.091 C 
ENDROOT
BRANCH   1   7
ATOM      7  O   LIG d   1      -2.465  76.609 114.261  0.00  0.00    -0.368 OA
BRANCH   7   8
ATOM      8  C   LIG d   1      -3.360  75.806 115.069  0.00  0.00     0.119 C 
BRANCH   8   9
ATOM      9  C   LIG d   1      -4.605  75.499 114.215  0.00  0.00     0.028 C 
ATOM     10  C   LIG d   1      -5.287  74.182 114.624  0.00  0.00     0.006 C 
ENDBRANCH   8   9
BRANCH   8  11
ATOM     11  C   LIG d   1      -3.879  76.593 116.276  0.00  0.00     0.028 C 
ATOM     12  C   LIG d   1      -3.677  75.849 117.605  0.00  0.00     0.006 C 
ENDBRANCH   8  11
ENDBRANCH   7   8
ENDBRANCH   1   7
BRANCH   6  13
ATOM     13  N   LIG d   1      -0.474  77.231 116.436  0.00  0.00    -0.311 N 
ATOM     14  C   LIG d   1       0.115  76.039 116.511  0.00  0.00     0.210 C 
ATOM     15  C   LIG d   1       0.170  75.432 117.916  0.00  0.00     0.109 C 
ATOM     16  O   LIG d   1       0.625  75.441 115.552  0.00  0.00    -0.276 OA
ATOM     17  H   LIG d   1      -0.832  77.657 117.269  0.00  0.00     0.149 HD
ENDBRANCH   6  13
BRANCH   5  18
ATOM     18  N   LIG d   1       1.301  79.541 115.517  0.00  0.00     0.381 N 
ATOM     19  H   LIG d   1       1.801  79.018 114.826  0.00  0.00    -0.090 HD
ATOM     20  H   LIG d   1       1.504  79.146 116.419  0.00  0.00    -0.090 HD
ATOM     21  H   LIG d   1       1.586  80.495 115.493  0.00  0.00    -0.090 HD
ENDBRANCH   5  18
BRANCH   3  22
ATOM     22  C   LIG d   1      -2.334  81.057 112.791  0.00  0.00     0.382 C 
ATOM     23  O   LIG d   1      -3.580  81.193 112.749  0.00  0.00    -0.241 OA
ATOM     24  O   LIG d   1      -1.610  81.822 112.128  0.00  0.00    -0.241 OA
ENDBRANCH   3  22
TORSDOF 7
ENDMDL
MODEL 9
REMARK VINA RESULT:      -5.0      3.238      5.110
REMARK  7 active torsions:
REMARK  status: ('A' for Active; 'I' for Inactive)
REMARK    1  A    between atoms: C_2  and  C_3 
REMARK    2  A    between atoms: C_3  and  O_6 
REMARK    3  A    between atoms: C_3  and  C_4 
REMARK    4  A    between atoms: C_7  and  O_6 
REMARK    5  A    between atoms: C_9  and  C_10 
REMARK    6  A    between atoms: N_15  and  C_14 
REMARK    7  A    between atoms: N_20  and  C_19 
REMARK       I    between atoms: C_22  and  N_20 
ROOT
ATOM      1  C   LIG d   1      -1.415  78.418 115.215  0.00  0.00     0.161 C 
ATOM      2  C   LIG d   1      -1.914  79.602 114.646  0.00  0.00     0.016 C 
ATOM      3  C   LIG d   1      -2.190  79.746 113.267  0.00  0.00     0.038 C 
ATOM      4  C   LIG d   1      -2.128  78.660 112.381  0.00  0.00     0.028 C 
ATOM      5  C   LIG d   1      -1.147  77.578 112.817  0.00  0.00    -0.047 C 
ATOM      6  C   LIG d   1      -1.447  77.189 114.283  0.00  0.00     0.091 C 
ENDROOT
BRANCH   1   7
ATOM      7  O   LIG d   1      -2.115  78.134 116.443  0.00  0.00    -0.368 OA
BRANCH   7   8
ATOM      8  C   LIG d   1      -2.611  79.282 117.174  0.00  0.00     0.119 C 
BRANCH   8   9
ATOM      9  C   LIG d   1      -1.692  79.485 118.395  0.00  0.00     0.028 C 
ATOM     10  C   LIG d   1      -0.908  80.806 118.325  0.00  0.00     0.006 C 
ENDBRANCH   8   9
BRANCH   8  11
ATOM     11  C   LIG d   1      -4.003  79.014 117.754  0.00  0.00     0.028 C 
ATOM     12  C   LIG d   1      -4.918  80.248 117.700  0.00  0.00     0.006 C 
ENDBRANCH   8  11
ENDBRANCH   7   8
ENDBRANCH   1   7
BRANCH   6  13
ATOM     13  N   LIG d   1      -0.479  76.195 114.815  0.00  0.00    -0.311 N 
ATOM     14  C   LIG d   1      -0.845  75.054 115.398  0.00  0.00     0.210 C 
ATOM     15  C   LIG d   1       0.312  74.182 115.894  0.00  0.00     0.109 C 
ATOM     16  O   LIG d   1      -2.017  74.668 115.521  0.00  0.00    -0.276 OA
ATOM     17  H   LIG d   1       0.494  76.415 114.729  0.00  0.00     0.149 HD
ENDBRANCH   6  13
BRANCH   5  18
ATOM     18  N   LIG d   1      -1.285  76.447 111.879  0.00  0.00     0.381 N 
ATOM     19  H   LIG d   1      -2.253  76.226 111.755  0.00  0.00    -0.090 HD
ATOM     20  H   LIG d   1      -0.826  75.643 112.270  0.00  0.00    -0.090 HD
ATOM     21  H   LIG d   1      -0.874  76.680 111.002  0.00  0.00    -0.090 HD
ENDBRANCH   5  18
BRANCH   3  22
ATOM     22  C   LIG d   1      -2.494  80.998 112.754  0.00  0.00     0.382 C 
ATOM     23  O   LIG d   1      -1.572  81.773 112.405  0.00  0.00    -0.241 OA
ATOM     24  O   LIG d   1      -3.677  81.379 112.679  0.00  0.00    -0.241 OA
ENDBRANCH   3  22
TORSDOF 7
ENDMDL
