MODEL 1
REMARK VINA RESULT:      -5.3      0.000      0.000
REMARK  7 active torsions:
REMARK  status: ('A' for Active; 'I' for Inactive)
REMARK    1  A    between atoms: C_2  and  C_3 
REMARK    2  A    between atoms: C_3  and  O_6 
REMARK    3  A    between atoms: C_3  and  C_4 
REMARK    4  A    between atoms: C_7  and  O_6 
REMARK    5  A    between atoms: C_9  and  C_10 
REMARK    6  A    between atoms: N_15  and  C_14 
REMARK    7  A    between atoms: N_20  and  C_19 
REMARK       I    between atoms: C_22  and  N_20 
ROOT
ATOM      1  C   LIG d   1      -1.357  75.520 115.109  0.00  0.00     0.161 C 
ATOM      2  C   LIG d   1      -0.947  75.007 116.350  0.00  0.00     0.016 C 
ATOM      3  C   LIG d   1      -0.328  75.792 117.351  0.00  0.00     0.038 C 
ATOM      4  C   LIG d   1      -0.213  77.185 117.235  0.00  0.00     0.028 C 
ATOM      5  C   LIG d   1      -0.155  77.670 115.790  0.00  0.00    -0.047 C 
ATOM      6  C   LIG d   1      -1.341  77.060 115.008  0.00  0.00     0.091 C 
ENDROOT
BRANCH   1   7
ATOM      7  O   LIG d   1      -2.663  75.009 114.776  0.00  0.00    -0.368 OA
BRANCH   7   8
ATOM      8  C   LIG d   1      -3.776  75.908 115.005  0.00  0.00     0.119 C 
BRANCH   8   9
ATOM      9  C   LIG d   1      -4.420  75.515 116.348  0.00  0.00     0.028 C 
ATOM     10  C   LIG d   1      -4.162  76.556 117.451  0.00  0.00     0.006 C 
ENDBRANCH   8   9
BRANCH   8  11
ATOM     11  C   LIG d   1      -4.874  75.714 113.956  0.00  0.00     0.028 C 
ATOM     12  C   LIG d   1      -6.288  75.784 114.554  0.00  0.00     0.006 C 
ENDBRANCH   8  11
ENDBRANCH   7   8
ENDBRANCH   1   7
BRANCH   6  13
ATOM     13  N   LIG d   1      -1.312  77.416 113.565  0.00  0.00    -0.311 N 
ATOM     14  C   LIG d   1      -2.029  78.407 113.040  0.00  0.00     0.210 C 
ATOM     15  C   LIG d   1      -1.867  78.592 111.528  0.00  0.00     0.109 C 
ATOM     16  O   LIG d   1      -2.761  79.171 113.688  0.00  0.00    -0.276 OA
ATOM     17  H   LIG d   1      -0.721  76.867 112.972  0.00  0.00     0.149 HD
ENDBRANCH   6  13
BRANCH   5  18
ATOM     18  N   LIG d   1      -0.176  79.145 115.813  0.00  0.00     0.381 N 
ATOM     19  H   LIG d   1       0.163  79.502 114.943  0.00  0.00    -0.090 HD
ATOM     20  H   LIG d   1       0.432  79.467 116.546  0.00  0.00    -0.090 HD
ATOM     21  H   LIG d   1      -1.104  79.470 115.975  0.00  0.00    -0.090 HD
ENDBRANCH   5  18
BRANCH   3  22
ATOM     22  C   LIG d   1       0.220  75.177 118.466  0.00  0.00     0.382 C 
ATOM     23  O   LIG d   1       1.337  75.548 118.901  0.00  0.00    -0.241 OA
ATOM     24  O   LIG d   1      -0.367  74.225 119.015  0.00  0.00    -0.241 OA
ENDBRANCH   3  22
TORSDOF 7
ENDMDL
MODEL 2
REMARK VINA RESULT:      -5.3      2.033      4.959
REMARK  7 active torsions:
REMARK  status: ('A' for Active; 'I' for Inactive)
REMARK    1  A    between atoms: C_2  and  C_3 
REMARK    2  A    between atoms: C_3  and  O_6 
REMARK    3  A    between atoms: C_3  and  C_4 
REMARK    4  A    between atoms: C_7  and  O_6 
REMARK    5  A    between atoms: C_9  and  C_10 
REMARK    6  A    between atoms: N_15  and  C_14 
REMARK    7  A    between atoms: N_20  and  C_19 
REMARK       I    between atoms: C_22  and  N_20 
ROOT
ATOM      1  C   LIG d   1      -2.573  77.681 116.131  0.00  0.00     0.161 C 
ATOM      2  C   LIG d   1      -2.850  78.540 115.055  0.00  0.00     0.016 C 
ATOM      3  C   LIG d   1      -2.188  78.463 113.807  0.00  0.00     0.038 C 
ATOM      4  C   LIG d   1      -1.306  77.418 113.500  0.00  0.00     0.028 C 
ATOM      5  C   LIG d   1      -0.619  76.824 114.725  0.00  0.00    -0.047 C 
ATOM      6  C   LIG d   1      -1.693  76.464 115.777  0.00  0.00     0.091 C 
ENDROOT
BRANCH   1   7
ATOM      7  O   LIG d   1      -3.806  77.248 116.740  0.00  0.00    -0.368 OA
BRANCH   7   8
ATOM      8  C   LIG d   1      -4.963  77.196 115.869  0.00  0.00     0.119 C 
BRANCH   8   9
ATOM      9  C   LIG d   1      -6.172  77.708 116.675  0.00  0.00     0.028 C 
ATOM     10  C   LIG d   1      -7.219  76.610 116.924  0.00  0.00     0.006 C 
ENDBRANCH   8   9
BRANCH   8  11
ATOM     11  C   LIG d   1      -5.310  75.753 115.489  0.00  0.00     0.028 C 
ATOM     12  C   LIG d   1      -5.078  75.457 113.999  0.00  0.00     0.006 C 
ENDBRANCH   8  11
ENDBRANCH   7   8
ENDBRANCH   1   7
BRANCH   6  13
ATOM     13  N   LIG d   1      -1.100  75.955 117.041  0.00  0.00    -0.311 N 
ATOM     14  C   LIG d   1      -1.566  74.891 117.693  0.00  0.00     0.210 C 
ATOM     15  C   LIG d   1      -0.821  74.549 118.987  0.00  0.00     0.109 C 
ATOM     16  O   LIG d   1      -2.506  74.180 117.307  0.00  0.00    -0.276 OA
ATOM     17  H   LIG d   1      -0.314  76.454 117.410  0.00  0.00     0.149 HD
ENDBRANCH   6  13
BRANCH   5  18
ATOM     18  N   LIG d   1       0.164  75.658 114.276  0.00  0.00     0.381 N 
ATOM     19  H   LIG d   1       0.505  75.815 113.349  0.00  0.00    -0.090 HD
ATOM     20  H   LIG d   1      -0.434  74.851 114.259  0.00  0.00    -0.090 HD
ATOM     21  H   LIG d   1       0.928  75.501 114.896  0.00  0.00    -0.090 HD
ENDBRANCH   5  18
BRANCH   3  22
ATOM     22  C   LIG d   1      -2.378  79.464 112.866  0.00  0.00     0.382 C 
ATOM     23  O   LIG d   1      -3.092  80.457 113.142  0.00  0.00    -0.241 OA
ATOM     24  O   LIG d   1      -1.881  79.363 111.728  0.00  0.00    -0.241 OA
ENDBRANCH   3  22
TORSDOF 7
ENDMDL
MODEL 3
REMARK VINA RESULT:      -5.1      1.082      1.472
REMARK  7 active torsions:
REMARK  status: ('A' for Active; 'I' for Inactive)
REMARK    1  A    between atoms: C_2  and  C_3 
REMARK    2  A    between atoms: C_3  and  O_6 
REMARK    3  A    between atoms: C_3  and  C_4 
REMARK    4  A    between atoms: C_7  and  O_6 
REMARK    5  A    between atoms: C_9  and  C_10 
REMARK    6  A    between atoms: N_15  and  C_14 
REMARK    7  A    between atoms: N_20  and  C_19 
REMARK       I    between atoms: C_22  and  N_20 
ROOT
ATOM      1  C   LIG d   1      -2.060  75.704 115.053  0.00  0.00     0.161 C 
ATOM      2  C   LIG d   1      -1.857  75.340 116.395  0.00  0.00     0.016 C 
ATOM      3  C   LIG d   1      -1.149  76.140 117.320  0.00  0.00     0.038 C 
ATOM      4  C   LIG d   1      -0.723  77.439 117.004  0.00  0.00     0.028 C 
ATOM      5  C   LIG d   1      -0.462  77.645 115.516  0.00  0.00    -0.047 C 
ATOM      6  C   LIG d   1      -1.698  77.167 114.719  0.00  0.00     0.091 C 
ENDROOT
BRANCH   1   7
ATOM      7  O   LIG d   1      -3.421  75.425 114.671  0.00  0.00    -0.368 OA
BRANCH   7   8
ATOM      8  C   LIG d   1      -4.414  75.542 115.720  0.00  0.00     0.119 C 
BRANCH   8   9
ATOM      9  C   LIG d   1      -5.531  74.526 115.415  0.00  0.00     0.028 C 
ATOM     10  C   LIG d   1      -6.809  74.798 116.226  0.00  0.00     0.006 C 
ENDBRANCH   8   9
BRANCH   8  11
ATOM     11  C   LIG d   1      -5.095  76.914 115.691  0.00  0.00     0.028 C 
ATOM     12  C   LIG d   1      -4.678  77.811 116.867  0.00  0.00     0.006 C 
ENDBRANCH   8  11
ENDBRANCH   7   8
ENDBRANCH   1   7
BRANCH   6  13
ATOM     13  N   LIG d   1      -1.494  77.255 113.250  0.00  0.00    -0.311 N 
ATOM     14  C   LIG d   1      -2.212  78.049 112.457  0.00  0.00     0.210 C 
ATOM     15  C   LIG d   1      -1.853  77.973 110.969  0.00  0.00     0.109 C 
ATOM     16  O   LIG d   1      -3.090  78.833 112.848  0.00  0.00    -0.276 OA
ATOM     17  H   LIG d   1      -0.781  76.676 112.852  0.00  0.00     0.149 HD
ENDBRANCH   6  13
BRANCH   5  18
ATOM     18  N   LIG d   1      -0.159  79.074 115.310  0.00  0.00     0.381 N 
ATOM     19  H   LIG d   1       0.718  79.169 114.838  0.00  0.00    -0.090 HD
ATOM     20  H   LIG d   1      -0.085  79.523 116.206  0.00  0.00    -0.090 HD
ATOM     21  H   LIG d   1      -0.882  79.502 114.774  0.00  0.00    -0.090 HD
ENDBRANCH   5  18
BRANCH   3  22
ATOM     22  C   LIG d   1      -0.826  75.626 118.567  0.00  0.00     0.382 C 
ATOM     23  O   LIG d   1       0.343  75.741 119.009  0.00  0.00    -0.241 OA
ATOM     24  O   LIG d   1      -1.677  75.011 119.237  0.00  0.00    -0.241 OA
ENDBRANCH   3  22
TORSDOF 7
ENDMDL
MODEL 4
REMARK VINA RESULT:      -5.1      2.381      5.277
REMARK  7 active torsions:
REMARK  status: ('A' for Active; 'I' for Inactive)
REMARK    1  A    between atoms: C_2  and  C_3 
REMARK    2  A    between atoms: C_3  and  O_6 
REMARK    3  A    between atoms: C_3  and  C_4 
REMARK    4  A    between atoms: C_7  and  O_6 
REMARK    5  A    between atoms: C_9  and  C_10 
REMARK    6  A    between atoms: N_15  and  C_14 
REMARK    7  A    between atoms: N_20  and  C_19 
REMARK       I    between atoms: C_22  and  N_20 
ROOT
ATOM      1  C   LIG d   1      -2.947  78.108 115.855  0.00  0.00     0.161 C 
ATOM      2  C   LIG d   1      -3.029  79.002 114.774  0.00  0.00     0.016 C 
ATOM      3  C   LIG d   1      -2.250  78.878 113.601  0.00  0.00     0.038 C 
ATOM      4  C   LIG d   1      -1.439  77.759 113.364  0.00  0.00     0.028 C 
ATOM      5  C   LIG d   1      -0.941  77.090 114.641  0.00  0.00    -0.047 C 
ATOM      6  C   LIG d   1      -2.148  76.819 115.568  0.00  0.00     0.091 C 
ENDROOT
BRANCH   1   7
ATOM      7  O   LIG d   1      -4.271  77.784 116.323  0.00  0.00    -0.368 OA
BRANCH   7   8
ATOM      8  C   LIG d   1      -4.526  78.025 117.729  0.00  0.00     0.119 C 
BRANCH   8   9
ATOM      9  C   LIG d   1      -5.781  77.218 118.116  0.00  0.00     0.028 C 
ATOM     10  C   LIG d   1      -6.168  76.185 117.045  0.00  0.00     0.006 C 
ENDBRANCH   8   9
BRANCH   8  11
ATOM     11  C   LIG d   1      -4.892  79.490 117.985  0.00  0.00     0.028 C 
ATOM     12  C   LIG d   1      -6.209  79.903 117.310  0.00  0.00     0.006 C 
ENDBRANCH   8  11
ENDBRANCH   7   8
ENDBRANCH   1   7
BRANCH   6  13
ATOM     13  N   LIG d   1      -1.740  76.242 116.876  0.00  0.00    -0.311 N 
ATOM     14  C   LIG d   1      -2.155  75.055 117.315  0.00  0.00     0.210 C 
ATOM     15  C   LIG d   1      -1.630  74.658 118.699  0.00  0.00     0.109 C 
ATOM     16  O   LIG d   1      -2.880  74.279 116.676  0.00  0.00    -0.276 OA
ATOM     17  H   LIG d   1      -1.127  76.792 117.445  0.00  0.00     0.149 HD
ENDBRANCH   6  13
BRANCH   5  18
ATOM     18  N   LIG d   1      -0.224  75.862 114.251  0.00  0.00     0.381 N 
ATOM     19  H   LIG d   1      -0.089  75.849 113.260  0.00  0.00    -0.090 HD
ATOM     20  H   LIG d   1      -0.783  75.065 114.503  0.00  0.00    -0.090 HD
ATOM     21  H   LIG d   1       0.656  75.819 114.715  0.00  0.00    -0.090 HD
ENDBRANCH   5  18
BRANCH   3  22
ATOM     22  C   LIG d   1      -2.248  79.903 112.666  0.00  0.00     0.382 C 
ATOM     23  O   LIG d   1      -1.313  79.990 111.834  0.00  0.00    -0.241 OA
ATOM     24  O   LIG d   1      -3.146  80.766 112.674  0.00  0.00    -0.241 OA
ENDBRANCH   3  22
TORSDOF 7
ENDMDL
MODEL 5
REMARK VINA RESULT:      -4.8      1.702      4.856
REMARK  7 active torsions:
REMARK  status: ('A' for Active; 'I' for Inactive)
REMARK    1  A    between atoms: C_2  and  C_3 
REMARK    2  A    between atoms: C_3  and  O_6 
REMARK    3  A    between atoms: C_3  and  C_4 
REMARK    4  A    between atoms: C_7  and  O_6 
REMARK    5  A    between atoms: C_9  and  C_10 
REMARK    6  A    between atoms: N_15  and  C_14 
REMARK    7  A    between atoms: N_20  and  C_19 
REMARK       I    between atoms: C_22  and  N_20 
ROOT
ATOM      1  C   LIG d   1      -2.944  77.064 115.648  0.00  0.00     0.161 C 
ATOM      2  C   LIG d   1      -3.008  77.974 114.580  0.00  0.00     0.016 C 
ATOM      3  C   LIG d   1      -1.914  78.772 114.171  0.00  0.00     0.038 C 
ATOM      4  C   LIG d   1      -0.630  78.602 114.709  0.00  0.00     0.028 C 
ATOM      5  C   LIG d   1      -0.637  78.052 116.132  0.00  0.00    -0.047 C 
ATOM      6  C   LIG d   1      -1.521  76.784 116.175  0.00  0.00     0.091 C 
ENDROOT
BRANCH   1   7
ATOM      7  O   LIG d   1      -3.592  75.831 115.278  0.00  0.00    -0.368 OA
BRANCH   7   8
ATOM      8  C   LIG d   1      -4.704  75.420 116.112  0.00  0.00     0.119 C 
BRANCH   8   9
ATOM      9  C   LIG d   1      -5.918  75.200 115.190  0.00  0.00     0.028 C 
ATOM     10  C   LIG d   1      -5.605  75.524 113.720  0.00  0.00     0.006 C 
ENDBRANCH   8   9
BRANCH   8  11
ATOM     11  C   LIG d   1      -5.122  76.537 117.073  0.00  0.00     0.028 C 
ATOM     12  C   LIG d   1      -6.626  76.844 117.012  0.00  0.00     0.006 C 
ENDBRANCH   8  11
ENDBRANCH   7   8
ENDBRANCH   1   7
BRANCH   6  13
ATOM     13  N   LIG d   1      -1.650  76.230 117.548  0.00  0.00    -0.311 N 
ATOM     14  C   LIG d   1      -1.285  74.992 117.877  0.00  0.00     0.210 C 
ATOM     15  C   LIG d   1      -1.523  74.616 119.342  0.00  0.00     0.109 C 
ATOM     16  O   LIG d   1      -0.758  74.181 117.101  0.00  0.00    -0.276 OA
ATOM     17  H   LIG d   1      -2.040  76.831 118.247  0.00  0.00     0.149 HD
ENDBRANCH   6  13
BRANCH   5  18
ATOM     18  N   LIG d   1       0.763  77.795 116.517  0.00  0.00     0.381 N 
ATOM     19  H   LIG d   1       1.229  78.661 116.698  0.00  0.00    -0.090 HD
ATOM     20  H   LIG d   1       1.231  77.337 115.755  0.00  0.00    -0.090 HD
ATOM     21  H   LIG d   1       0.793  77.218 117.329  0.00  0.00    -0.090 HD
ENDBRANCH   5  18
BRANCH   3  22
ATOM     22  C   LIG d   1      -2.110  79.780 113.240  0.00  0.00     0.382 C 
ATOM     23  O   LIG d   1      -1.124  80.308 112.671  0.00  0.00    -0.241 OA
ATOM     24  O   LIG d   1      -3.257  80.200 112.995  0.00  0.00    -0.241 OA
ENDBRANCH   3  22
TORSDOF 7
ENDMDL
MODEL 6
REMARK VINA RESULT:      -4.6      2.900      4.100
REMARK  7 active torsions:
REMARK  status: ('A' for Active; 'I' for Inactive)
REMARK    1  A    between atoms: C_2  and  C_3 
REMARK    2  A    between atoms: C_3  and  O_6 
REMARK    3  A    between atoms: C_3  and  C_4 
REMARK    4  A    between atoms: C_7  and  O_6 
REMARK    5  A    between atoms: C_9  and  C_10 
REMARK    6  A    between atoms: N_15  and  C_14 
REMARK    7  A    between atoms: N_20  and  C_19 
REMARK       I    between atoms: C_22  and  N_20 
ROOT
ATOM      1  C   LIG d   1      -3.335  78.351 116.775  0.00  0.00     0.161 C 
ATOM      2  C   LIG d   1      -2.356  79.172 117.360  0.00  0.00     0.016 C 
ATOM      3  C   LIG d   1      -1.004  79.184 116.949  0.00  0.00     0.038 C 
ATOM      4  C   LIG d   1      -0.566  78.480 115.817  0.00  0.00     0.028 C 
ATOM      5  C   LIG d   1      -1.410  77.249 115.506  0.00  0.00    -0.047 C 
ATOM      6  C   LIG d   1      -2.900  77.658 115.467  0.00  0.00     0.091 C 
ENDROOT
BRANCH   1   7
ATOM      7  O   LIG d   1      -4.545  79.105 116.565  0.00  0.00    -0.368 OA
BRANCH   7   8
ATOM      8  C   LIG d   1      -5.583  78.936 117.562  0.00  0.00     0.119 C 
BRANCH   8   9
ATOM      9  C   LIG d   1      -6.632  77.970 116.977  0.00  0.00     0.028 C 
ATOM     10  C   LIG d   1      -6.545  76.564 117.594  0.00  0.00     0.006 C 
ENDBRANCH   8   9
BRANCH   8  11
ATOM     11  C   LIG d   1      -6.333  80.247 117.813  0.00  0.00     0.028 C 
ATOM     12  C   LIG d   1      -7.856  80.098 117.670  0.00  0.00     0.006 C 
ENDBRANCH   8  11
ENDBRANCH   7   8
ENDBRANCH   1   7
BRANCH   6  13
ATOM     13  N   LIG d   1      -3.802  76.497 115.252  0.00  0.00    -0.311 N 
ATOM     14  C   LIG d   1      -4.275  76.147 114.057  0.00  0.00     0.210 C 
ATOM     15  C   LIG d   1      -5.205  74.929 114.060  0.00  0.00     0.109 C 
ATOM     16  O   LIG d   1      -3.987  76.710 112.990  0.00  0.00    -0.276 OA
ATOM     17  H   LIG d   1      -4.061  75.965 116.060  0.00  0.00     0.149 HD
ENDBRANCH   6  13
BRANCH   5  18
ATOM     18  N   LIG d   1      -0.930  76.691 114.228  0.00  0.00     0.381 N 
ATOM     19  H   LIG d   1      -0.774  77.430 113.572  0.00  0.00    -0.090 HD
ATOM     20  H   LIG d   1      -1.636  76.081 113.853  0.00  0.00    -0.090 HD
ATOM     21  H   LIG d   1      -0.086  76.182 114.373  0.00  0.00    -0.090 HD
ENDBRANCH   5  18
BRANCH   3  22
ATOM     22  C   LIG d   1      -0.064  79.876 117.698  0.00  0.00     0.382 C 
ATOM     23  O   LIG d   1       0.282  81.033 117.357  0.00  0.00    -0.241 OA
ATOM     24  O   LIG d   1       0.475  79.340 118.685  0.00  0.00    -0.241 OA
ENDBRANCH   3  22
TORSDOF 7
ENDMDL
MODEL 7
REMARK VINA RESULT:      -4.5      2.724      5.110
REMARK  7 active torsions:
REMARK  status: ('A' for Active; 'I' for Inactive)
REMARK    1  A    between atoms: C_2  and  C_3 
REMARK    2  A    between atoms: C_3  and  O_6 
REMARK    3  A    between atoms: C_3  and  C_4 
REMARK    4  A    between atoms: C_7  and  O_6 
REMARK    5  A    between atoms: C_9  and  C_10 
REMARK    6  A    between atoms: N_15  and  C_14 
REMARK    7  A    between atoms: N_20  and  C_19 
REMARK       I    between atoms: C_22  and  N_20 
ROOT
ATOM      1  C   LIG d   1      -1.843  79.283 114.260  0.00  0.00     0.161 C 
ATOM      2  C   LIG d   1      -2.620  78.143 114.522  0.00  0.00     0.016 C 
ATOM      3  C   LIG d   1      -3.013  77.223 113.523  0.00  0.00     0.038 C 
ATOM      4  C   LIG d   1      -2.526  77.301 112.210  0.00  0.00     0.028 C 
ATOM      5  C   LIG d   1      -2.148  78.717 111.787  0.00  0.00    -0.047 C 
ATOM      6  C   LIG d   1      -1.209  79.325 112.854  0.00  0.00     0.091 C 
ENDROOT
BRANCH   1   7
ATOM      7  O   LIG d   1      -0.826  79.425 115.272  0.00  0.00    -0.368 OA
BRANCH   7   8
ATOM      8  C   LIG d   1      -1.001  78.625 116.467  0.00  0.00     0.119 C 
BRANCH   8   9
ATOM      9  C   LIG d   1      -1.126  79.594 117.659  0.00  0.00     0.028 C 
ATOM     10  C   LIG d   1      -2.502  79.512 118.341  0.00  0.00     0.006 C 
ENDBRANCH   8   9
BRANCH   8  11
ATOM     11  C   LIG d   1       0.242  77.780 116.760  0.00  0.00     0.028 C 
ATOM     12  C   LIG d   1       0.209  76.410 116.065  0.00  0.00     0.006 C 
ENDBRANCH   8  11
ENDBRANCH   7   8
ENDBRANCH   1   7
BRANCH   6  13
ATOM     13  N   LIG d   1      -0.858  80.739 112.560  0.00  0.00    -0.311 N 
ATOM     14  C   LIG d   1       0.153  81.095 111.770  0.00  0.00     0.210 C 
ATOM     15  C   LIG d   1       0.354  82.606 111.617  0.00  0.00     0.109 C 
ATOM     16  O   LIG d   1       0.883  80.303 111.155  0.00  0.00    -0.276 OA
ATOM     17  H   LIG d   1      -1.418  81.447 112.993  0.00  0.00     0.149 HD
ENDBRANCH   6  13
BRANCH   5  18
ATOM     18  N   LIG d   1      -1.528  78.633 110.451  0.00  0.00     0.381 N 
ATOM     19  H   LIG d   1      -1.694  77.728 110.057  0.00  0.00    -0.090 HD
ATOM     20  H   LIG d   1      -0.535  78.759 110.545  0.00  0.00    -0.090 HD
ATOM     21  H   LIG d   1      -1.905  79.337 109.855  0.00  0.00    -0.090 HD
ENDBRANCH   5  18
BRANCH   3  22
ATOM     22  C   LIG d   1      -3.936  76.233 113.825  0.00  0.00     0.382 C 
ATOM     23  O   LIG d   1      -3.629  75.309 114.615  0.00  0.00    -0.241 OA
ATOM     24  O   LIG d   1      -5.058  76.229 113.282  0.00  0.00    -0.241 OA
ENDBRANCH   3  22
TORSDOF 7
ENDMDL
MODEL 8
REMARK VINA RESULT:      -4.4      2.739      4.561
REMARK  7 active torsions:
REMARK  status: ('A' for Active; 'I' for Inactive)
REMARK    1  A    between atoms: C_2  and  C_3 
REMARK    2  A    between atoms: C_3  and  O_6 
REMARK    3  A    between atoms: C_3  and  C_4 
REMARK    4  A    between atoms: C_7  and  O_6 
REMARK    5  A    between atoms: C_9  and  C_10 
REMARK    6  A    between atoms: N_15  and  C_14 
REMARK    7  A    between atoms: N_20  and  C_19 
REMARK       I    between atoms: C_22  and  N_20 
ROOT
ATOM      1  C   LIG d   1      -2.619  78.259 115.310  0.00  0.00     0.161 C 
ATOM      2  C   LIG d   1      -1.612  77.290 115.163  0.00  0.00     0.016 C 
ATOM      3  C   LIG d   1      -1.548  76.111 115.940  0.00  0.00     0.038 C 
ATOM      4  C   LIG d   1      -2.578  75.745 116.820  0.00  0.00     0.028 C 
ATOM      5  C   LIG d   1      -3.358  76.936 117.367  0.00  0.00    -0.047 C 
ATOM      6  C   LIG d   1      -3.812  77.824 116.186  0.00  0.00     0.091 C 
ENDROOT
BRANCH   1   7
ATOM      7  O   LIG d   1      -3.079  78.686 114.013  0.00  0.00    -0.368 OA
BRANCH   7   8
ATOM      8  C   LIG d   1      -2.191  78.415 112.900  0.00  0.00     0.119 C 
BRANCH   8   9
ATOM      9  C   LIG d   1      -1.655  79.768 112.395  0.00  0.00     0.028 C 
ATOM     10  C   LIG d   1      -2.667  80.910 112.589  0.00  0.00     0.006 C 
ENDBRANCH   8   9
BRANCH   8  11
ATOM     11  C   LIG d   1      -2.951  77.812 111.715  0.00  0.00     0.028 C 
ATOM     12  C   LIG d   1      -2.092  77.712 110.445  0.00  0.00     0.006 C 
ENDBRANCH   8  11
ENDBRANCH   7   8
ENDBRANCH   1   7
BRANCH   6  13
ATOM     13  N   LIG d   1      -4.510  79.056 116.639  0.00  0.00    -0.311 N 
ATOM     14  C   LIG d   1      -5.811  79.100 116.920  0.00  0.00     0.210 C 
ATOM     15  C   LIG d   1      -6.334  80.474 117.350  0.00  0.00     0.109 C 
ATOM     16  O   LIG d   1      -6.576  78.124 116.883  0.00  0.00    -0.276 OA
ATOM     17  H   LIG d   1      -3.958  79.887 116.726  0.00  0.00     0.149 HD
ENDBRANCH   6  13
BRANCH   5  18
ATOM     18  N   LIG d   1      -4.485  76.405 118.158  0.00  0.00     0.381 N 
ATOM     19  H   LIG d   1      -4.651  75.450 117.911  0.00  0.00    -0.090 HD
ATOM     20  H   LIG d   1      -5.311  76.935 117.943  0.00  0.00    -0.090 HD
ATOM     21  H   LIG d   1      -4.281  76.474 119.131  0.00  0.00    -0.090 HD
ENDBRANCH   5  18
BRANCH   3  22
ATOM     22  C   LIG d   1      -0.423  75.303 115.871  0.00  0.00     0.382 C 
ATOM     23  O   LIG d   1      -0.403  74.203 116.475  0.00  0.00    -0.241 OA
ATOM     24  O   LIG d   1       0.588  75.679 115.248  0.00  0.00    -0.241 OA
ENDBRANCH   3  22
TORSDOF 7
ENDMDL
MODEL 9
REMARK VINA RESULT:      -4.3      2.940      4.022
REMARK  7 active torsions:
REMARK  status: ('A' for Active; 'I' for Inactive)
REMARK    1  A    between atoms: C_2  and  C_3 
REMARK    2  A    between atoms: C_3  and  O_6 
REMARK    3  A    between atoms: C_3  and  C_4 
REMARK    4  A    between atoms: C_7  and  O_6 
REMARK    5  A    between atoms: C_9  and  C_10 
REMARK    6  A    between atoms: N_15  and  C_14 
REMARK    7  A    between atoms: N_20  and  C_19 
REMARK       I    between atoms: C_22  and  N_20 
ROOT
ATOM      1  C   LIG d   1      -4.285  76.635 116.746  0.00  0.00     0.161 C 
ATOM      2  C   LIG d   1      -3.235  75.706 116.657  0.00  0.00     0.016 C 
ATOM      3  C   LIG d   1      -1.907  75.991 117.051  0.00  0.00     0.038 C 
ATOM      4  C   LIG d   1      -1.569  77.185 117.706  0.00  0.00     0.028 C 
ATOM      5  C   LIG d   1      -2.491  78.349 117.360  0.00  0.00    -0.047 C 
ATOM      6  C   LIG d   1      -3.958  77.904 117.562  0.00  0.00     0.091 C 
ENDROOT
BRANCH   1   7
ATOM      7  O   LIG d   1      -5.463  75.992 117.271  0.00  0.00    -0.368 OA
BRANCH   7   8
ATOM      8  C   LIG d   1      -6.296  75.303 116.307  0.00  0.00     0.119 C 
BRANCH   8   9
ATOM      9  C   LIG d   1      -6.426  76.215 115.071  0.00  0.00     0.028 C 
ATOM     10  C   LIG d   1      -5.779  75.600 113.818  0.00  0.00     0.006 C 
ENDBRANCH   8   9
BRANCH   8  11
ATOM     11  C   LIG d   1      -7.724  75.124 116.831  0.00  0.00     0.028 C 
ATOM     12  C   LIG d   1      -8.041  76.043 118.021  0.00  0.00     0.006 C 
ENDBRANCH   8  11
ENDBRANCH   7   8
ENDBRANCH   1   7
BRANCH   6  13
ATOM     13  N   LIG d   1      -4.929  78.956 117.165  0.00  0.00    -0.311 N 
ATOM     14  C   LIG d   1      -5.883  79.416 117.973  0.00  0.00     0.210 C 
ATOM     15  C   LIG d   1      -6.790  80.487 117.358  0.00  0.00     0.109 C 
ATOM     16  O   LIG d   1      -6.044  79.062 119.150  0.00  0.00    -0.276 OA
ATOM     17  H   LIG d   1      -4.851  79.322 116.236  0.00  0.00     0.149 HD
ENDBRANCH   6  13
BRANCH   5  18
ATOM     18  N   LIG d   1      -2.110  79.489 118.215  0.00  0.00     0.381 N 
ATOM     19  H   LIG d   1      -2.481  80.336 117.835  0.00  0.00    -0.090 HD
ATOM     20  H   LIG d   1      -1.108  79.562 118.231  0.00  0.00    -0.090 HD
ATOM     21  H   LIG d   1      -2.455  79.352 119.140  0.00  0.00    -0.090 HD
ENDBRANCH   5  18
BRANCH   3  22
ATOM     22  C   LIG d   1      -0.894  75.093 116.753  0.00  0.00     0.382 C 
ATOM     23  O   LIG d   1       0.109  75.009 117.502  0.00  0.00    -0.241 OA
ATOM     24  O   LIG d   1      -0.949  74.397 115.721  0.00  0.00    -0.241 OA
ENDBRANCH   3  22
TORSDOF 7
ENDMDL
