MODEL 1
REMARK VINA RESULT:      -5.9      0.000      0.000
REMARK  7 active torsions:
REMARK  status: ('A' for Active; 'I' for Inactive)
REMARK    1  A    between atoms: C_2  and  C_3 
REMARK    2  A    between atoms: C_3  and  O_6 
REMARK    3  A    between atoms: C_3  and  C_4 
REMARK    4  A    between atoms: C_7  and  O_6 
REMARK    5  A    between atoms: C_9  and  C_10 
REMARK    6  A    between atoms: N_15  and  C_14 
REMARK    7  A    between atoms: N_20  and  C_19 
REMARK       I    between atoms: C_22  and  N_20 
ROOT
ATOM      1  C   LIG d   1      -1.406  77.782 113.647  0.00  0.00     0.161 C 
ATOM      2  C   LIG d   1      -2.011  79.048 113.579  0.00  0.00     0.016 C 
ATOM      3  C   LIG d   1      -1.791  79.960 112.521  0.00  0.00     0.038 C 
ATOM      4  C   LIG d   1      -1.065  79.604 111.375  0.00  0.00     0.028 C 
ATOM      5  C   LIG d   1      -0.022  78.521 111.630  0.00  0.00    -0.047 C 
ATOM      6  C   LIG d   1      -0.699  77.333 112.351  0.00  0.00     0.091 C 
ENDROOT
BRANCH   1   7
ATOM      7  O   LIG d   1      -2.377  76.798 114.054  0.00  0.00    -0.368 OA
BRANCH   7   8
ATOM      8  C   LIG d   1      -2.247  76.296 115.407  0.00  0.00     0.119 C 
BRANCH   8   9
ATOM      9  C   LIG d   1      -1.734  74.846 115.315  0.00  0.00     0.028 C 
ATOM     10  C   LIG d   1      -0.551  74.581 116.262  0.00  0.00     0.006 C 
ENDBRANCH   8   9
BRANCH   8  11
ATOM     11  C   LIG d   1      -3.610  76.200 116.099  0.00  0.00     0.028 C 
ATOM     12  C   LIG d   1      -4.507  75.105 115.501  0.00  0.00     0.006 C 
ENDBRANCH   8  11
ENDBRANCH   7   8
ENDBRANCH   1   7
BRANCH   6  13
ATOM     13  N   LIG d   1       0.269  76.265 112.714  0.00  0.00    -0.311 N 
ATOM     14  C   LIG d   1       0.582  75.254 111.905  0.00  0.00     0.210 C 
ATOM     15  C   LIG d   1       1.586  74.251 112.482  0.00  0.00     0.109 C 
ATOM     16  O   LIG d   1       0.148  75.110 110.752  0.00  0.00    -0.276 OA
ATOM     17  H   LIG d   1       0.692  76.321 113.619  0.00  0.00     0.149 HD
ENDBRANCH   6  13
BRANCH   5  18
ATOM     18  N   LIG d   1       0.564  78.151 110.328  0.00  0.00     0.381 N 
ATOM     19  H   LIG d   1       0.399  78.879 109.663  0.00  0.00    -0.090 HD
ATOM     20  H   LIG d   1       0.116  77.314 109.997  0.00  0.00    -0.090 HD
ATOM     21  H   LIG d   1       1.543  77.995 110.426  0.00  0.00    -0.090 HD
ENDBRANCH   5  18
BRANCH   3  22
ATOM     22  C   LIG d   1      -2.268  81.258 112.622  0.00  0.00     0.382 C 
ATOM     23  O   LIG d   1      -1.569  82.217 112.216  0.00  0.00    -0.241 OA
ATOM     24  O   LIG d   1      -3.371  81.486 113.156  0.00  0.00    -0.241 OA
ENDBRANCH   3  22
TORSDOF 7
ENDMDL
MODEL 2
REMARK VINA RESULT:      -5.6      2.177      3.207
REMARK  7 active torsions:
REMARK  status: ('A' for Active; 'I' for Inactive)
REMARK    1  A    between atoms: C_2  and  C_3 
REMARK    2  A    between atoms: C_3  and  O_6 
REMARK    3  A    between atoms: C_3  and  C_4 
REMARK    4  A    between atoms: C_7  and  O_6 
REMARK    5  A    between atoms: C_9  and  C_10 
REMARK    6  A    between atoms: N_15  and  C_14 
REMARK    7  A    between atoms: N_20  and  C_19 
REMARK       I    between atoms: C_22  and  N_20 
ROOT
ATOM      1  C   LIG d   1      -2.561  78.429 115.525  0.00  0.00     0.161 C 
ATOM      2  C   LIG d   1      -2.802  79.563 114.731  0.00  0.00     0.016 C 
ATOM      3  C   LIG d   1      -2.200  79.771 113.469  0.00  0.00     0.038 C 
ATOM      4  C   LIG d   1      -1.425  78.782 112.845  0.00  0.00     0.028 C 
ATOM      5  C   LIG d   1      -0.747  77.834 113.827  0.00  0.00    -0.047 C 
ATOM      6  C   LIG d   1      -1.806  77.288 114.811  0.00  0.00     0.091 C 
ENDROOT
BRANCH   1   7
ATOM      7  O   LIG d   1      -3.802  77.943 116.073  0.00  0.00    -0.368 OA
BRANCH   7   8
ATOM      8  C   LIG d   1      -4.599  78.909 116.802  0.00  0.00     0.119 C 
BRANCH   8   9
ATOM      9  C   LIG d   1      -4.035  78.987 118.234  0.00  0.00     0.028 C 
ATOM     10  C   LIG d   1      -3.751  77.598 118.830  0.00  0.00     0.006 C 
ENDBRANCH   8   9
BRANCH   8  11
ATOM     11  C   LIG d   1      -6.045  78.432 116.961  0.00  0.00     0.028 C 
ATOM     12  C   LIG d   1      -6.324  77.115 116.219  0.00  0.00     0.006 C 
ENDBRANCH   8  11
ENDBRANCH   7   8
ENDBRANCH   1   7
BRANCH   6  13
ATOM     13  N   LIG d   1      -1.212  76.418 115.859  0.00  0.00    -0.311 N 
ATOM     14  C   LIG d   1      -1.092  75.097 115.734  0.00  0.00     0.210 C 
ATOM     15  C   LIG d   1      -0.469  74.387 116.940  0.00  0.00     0.109 C 
ATOM     16  O   LIG d   1      -1.412  74.451 114.725  0.00  0.00    -0.276 OA
ATOM     17  H   LIG d   1      -0.897  76.864 116.698  0.00  0.00     0.149 HD
ENDBRANCH   6  13
BRANCH   5  18
ATOM     18  N   LIG d   1      -0.088  76.774 113.041  0.00  0.00     0.381 N 
ATOM     19  H   LIG d   1       0.855  77.041 112.836  0.00  0.00    -0.090 HD
ATOM     20  H   LIG d   1      -0.580  76.660 112.172  0.00  0.00    -0.090 HD
ATOM     21  H   LIG d   1      -0.095  75.918 113.550  0.00  0.00    -0.090 HD
ENDBRANCH   5  18
BRANCH   3  22
ATOM     22  C   LIG d   1      -2.337  80.998 112.836  0.00  0.00     0.382 C 
ATOM     23  O   LIG d   1      -1.322  81.602 112.414  0.00  0.00    -0.241 OA
ATOM     24  O   LIG d   1      -3.458  81.528 112.723  0.00  0.00    -0.241 OA
ENDBRANCH   3  22
TORSDOF 7
ENDMDL
MODEL 3
REMARK VINA RESULT:      -5.3      2.576      4.476
REMARK  7 active torsions:
REMARK  status: ('A' for Active; 'I' for Inactive)
REMARK    1  A    between atoms: C_2  and  C_3 
REMARK    2  A    between atoms: C_3  and  O_6 
REMARK    3  A    between atoms: C_3  and  C_4 
REMARK    4  A    between atoms: C_7  and  O_6 
REMARK    5  A    between atoms: C_9  and  C_10 
REMARK    6  A    between atoms: N_15  and  C_14 
REMARK    7  A    between atoms: N_20  and  C_19 
REMARK       I    between atoms: C_22  and  N_20 
ROOT
ATOM      1  C   LIG d   1      -2.900  77.036 115.614  0.00  0.00     0.161 C 
ATOM      2  C   LIG d   1      -3.087  77.508 114.304  0.00  0.00     0.016 C 
ATOM      3  C   LIG d   1      -2.037  77.634 113.365  0.00  0.00     0.038 C 
ATOM      4  C   LIG d   1      -0.747  77.150 113.627  0.00  0.00     0.028 C 
ATOM      5  C   LIG d   1      -0.397  77.129 115.111  0.00  0.00    -0.047 C 
ATOM      6  C   LIG d   1      -1.521  76.399 115.881  0.00  0.00     0.091 C 
ENDROOT
BRANCH   1   7
ATOM      7  O   LIG d   1      -3.953  76.112 115.955  0.00  0.00    -0.368 OA
BRANCH   7   8
ATOM      8  C   LIG d   1      -5.264  76.414 115.417  0.00  0.00     0.119 C 
BRANCH   8   9
ATOM      9  C   LIG d   1      -6.165  76.825 116.597  0.00  0.00     0.028 C 
ATOM     10  C   LIG d   1      -6.044  78.321 116.935  0.00  0.00     0.006 C 
ENDBRANCH   8   9
BRANCH   8  11
ATOM     11  C   LIG d   1      -5.922  75.166 114.821  0.00  0.00     0.028 C 
ATOM     12  C   LIG d   1      -6.917  74.499 115.783  0.00  0.00     0.006 C 
ENDBRANCH   8  11
ENDBRANCH   7   8
ENDBRANCH   1   7
BRANCH   6  13
ATOM     13  N   LIG d   1      -1.299  76.408 117.351  0.00  0.00    -0.311 N 
ATOM     14  C   LIG d   1      -1.400  75.321 118.114  0.00  0.00     0.210 C 
ATOM     15  C   LIG d   1      -1.151  75.554 119.607  0.00  0.00     0.109 C 
ATOM     16  O   LIG d   1      -1.642  74.180 117.692  0.00  0.00    -0.276 OA
ATOM     17  H   LIG d   1      -1.068  77.286 117.772  0.00  0.00     0.149 HD
ENDBRANCH   6  13
BRANCH   5  18
ATOM     18  N   LIG d   1       0.918  76.476 115.250  0.00  0.00     0.381 N 
ATOM     19  H   LIG d   1       1.647  77.151 115.128  0.00  0.00    -0.090 HD
ATOM     20  H   LIG d   1       1.012  75.778 114.533  0.00  0.00    -0.090 HD
ATOM     21  H   LIG d   1       0.995  76.052 116.148  0.00  0.00    -0.090 HD
ENDBRANCH   5  18
BRANCH   3  22
ATOM     22  C   LIG d   1      -2.265  78.286 112.163  0.00  0.00     0.382 C 
ATOM     23  O   LIG d   1      -2.554  77.625 111.136  0.00  0.00    -0.241 OA
ATOM     24  O   LIG d   1      -2.141  79.523 112.082  0.00  0.00    -0.241 OA
ENDBRANCH   3  22
TORSDOF 7
ENDMDL
MODEL 4
REMARK VINA RESULT:      -5.1      2.350      4.041
REMARK  7 active torsions:
REMARK  status: ('A' for Active; 'I' for Inactive)
REMARK    1  A    between atoms: C_2  and  C_3 
REMARK    2  A    between atoms: C_3  and  O_6 
REMARK    3  A    between atoms: C_3  and  C_4 
REMARK    4  A    between atoms: C_7  and  O_6 
REMARK    5  A    between atoms: C_9  and  C_10 
REMARK    6  A    between atoms: N_15  and  C_14 
REMARK    7  A    between atoms: N_20  and  C_19 
REMARK       I    between atoms: C_22  and  N_20 
ROOT
ATOM      1  C   LIG d   1      -3.109  76.551 114.854  0.00  0.00     0.161 C 
ATOM      2  C   LIG d   1      -3.186  77.679 114.022  0.00  0.00     0.016 C 
ATOM      3  C   LIG d   1      -2.061  78.262 113.394  0.00  0.00     0.038 C 
ATOM      4  C   LIG d   1      -0.795  77.660 113.435  0.00  0.00     0.028 C 
ATOM      5  C   LIG d   1      -0.572  76.802 114.676  0.00  0.00    -0.047 C 
ATOM      6  C   LIG d   1      -1.753  75.815 114.822  0.00  0.00     0.091 C 
ENDROOT
BRANCH   1   7
ATOM      7  O   LIG d   1      -4.181  75.639 114.543  0.00  0.00    -0.368 OA
BRANCH   7   8
ATOM      8  C   LIG d   1      -5.184  75.459 115.572  0.00  0.00     0.119 C 
BRANCH   8   9
ATOM      9  C   LIG d   1      -6.565  75.573 114.898  0.00  0.00     0.028 C 
ATOM     10  C   LIG d   1      -6.461  75.870 113.393  0.00  0.00     0.006 C 
ENDBRANCH   8   9
BRANCH   8  11
ATOM     11  C   LIG d   1      -5.139  76.595 116.599  0.00  0.00     0.028 C 
ATOM     12  C   LIG d   1      -6.389  77.488 116.555  0.00  0.00     0.006 C 
ENDBRANCH   8  11
ENDBRANCH   7   8
ENDBRANCH   1   7
BRANCH   6  13
ATOM     13  N   LIG d   1      -1.657  74.995 116.058  0.00  0.00    -0.311 N 
ATOM     14  C   LIG d   1      -1.608  75.517 117.282  0.00  0.00     0.210 C 
ATOM     15  C   LIG d   1      -1.489  74.494 118.417  0.00  0.00     0.109 C 
ATOM     16  O   LIG d   1      -1.683  76.728 117.538  0.00  0.00    -0.276 OA
ATOM     17  H   LIG d   1      -1.622  74.001 115.944  0.00  0.00     0.149 HD
ENDBRANCH   6  13
BRANCH   5  18
ATOM     18  N   LIG d   1       0.730  76.127 114.524  0.00  0.00     0.381 N 
ATOM     19  H   LIG d   1       0.769  75.326 115.122  0.00  0.00    -0.090 HD
ATOM     20  H   LIG d   1       1.459  76.761 114.798  0.00  0.00    -0.090 HD
ATOM     21  H   LIG d   1       0.861  75.849 113.576  0.00  0.00    -0.090 HD
ENDBRANCH   5  18
BRANCH   3  22
ATOM     22  C   LIG d   1      -2.190  79.482 112.747  0.00  0.00     0.382 C 
ATOM     23  O   LIG d   1      -3.082  80.289 113.104  0.00  0.00    -0.241 OA
ATOM     24  O   LIG d   1      -1.455  79.766 111.783  0.00  0.00    -0.241 OA
ENDBRANCH   3  22
TORSDOF 7
ENDMDL
MODEL 5
REMARK VINA RESULT:      -5.1      2.608      5.435
REMARK  7 active torsions:
REMARK  status: ('A' for Active; 'I' for Inactive)
REMARK    1  A    between atoms: C_2  and  C_3 
REMARK    2  A    between atoms: C_3  and  O_6 
REMARK    3  A    between atoms: C_3  and  C_4 
REMARK    4  A    between atoms: C_7  and  O_6 
REMARK    5  A    between atoms: C_9  and  C_10 
REMARK    6  A    between atoms: N_15  and  C_14 
REMARK    7  A    between atoms: N_20  and  C_19 
REMARK       I    between atoms: C_22  and  N_20 
ROOT
ATOM      1  C   LIG d   1      -2.072  75.574 114.896  0.00  0.00     0.161 C 
ATOM      2  C   LIG d   1      -1.888  74.982 116.156  0.00  0.00     0.016 C 
ATOM      3  C   LIG d   1      -1.009  75.496 117.137  0.00  0.00     0.038 C 
ATOM      4  C   LIG d   1      -0.361  76.730 116.978  0.00  0.00     0.028 C 
ATOM      5  C   LIG d   1      -0.125  77.107 115.520  0.00  0.00    -0.047 C 
ATOM      6  C   LIG d   1      -1.458  76.982 114.747  0.00  0.00     0.091 C 
ENDROOT
BRANCH   1   7
ATOM      7  O   LIG d   1      -3.475  75.602 114.568  0.00  0.00    -0.368 OA
BRANCH   7   8
ATOM      8  C   LIG d   1      -4.392  75.437 115.678  0.00  0.00     0.119 C 
BRANCH   8   9
ATOM      9  C   LIG d   1      -5.549  74.543 115.194  0.00  0.00     0.028 C 
ATOM     10  C   LIG d   1      -6.884  74.890 115.876  0.00  0.00     0.006 C 
ENDBRANCH   8   9
BRANCH   8  11
ATOM     11  C   LIG d   1      -5.042  76.769 116.066  0.00  0.00     0.028 C 
ATOM     12  C   LIG d   1      -4.488  77.343 117.379  0.00  0.00     0.006 C 
ENDBRANCH   8  11
ENDBRANCH   7   8
ENDBRANCH   1   7
BRANCH   6  13
ATOM     13  N   LIG d   1      -1.299  77.252 113.294  0.00  0.00    -0.311 N 
ATOM     14  C   LIG d   1      -2.089  78.078 112.611  0.00  0.00     0.210 C 
ATOM     15  C   LIG d   1      -1.764  78.198 111.119  0.00  0.00     0.109 C 
ATOM     16  O   LIG d   1      -3.008  78.748 113.106  0.00  0.00    -0.276 OA
ATOM     17  H   LIG d   1      -0.557  76.774 112.820  0.00  0.00     0.149 HD
ENDBRANCH   6  13
BRANCH   5  18
ATOM     18  N   LIG d   1       0.430  78.474 115.497  0.00  0.00     0.381 N 
ATOM     19  H   LIG d   1       1.109  78.576 116.225  0.00  0.00    -0.090 HD
ATOM     20  H   LIG d   1      -0.313  79.129 115.665  0.00  0.00    -0.090 HD
ATOM     21  H   LIG d   1       0.851  78.656 114.613  0.00  0.00    -0.090 HD
ENDBRANCH   5  18
BRANCH   3  22
ATOM     22  C   LIG d   1      -0.738  74.752 118.275  0.00  0.00     0.382 C 
ATOM     23  O   LIG d   1      -1.676  74.401 119.032  0.00  0.00    -0.241 OA
ATOM     24  O   LIG d   1       0.435  74.465 118.578  0.00  0.00    -0.241 OA
ENDBRANCH   3  22
TORSDOF 7
ENDMDL
MODEL 6
REMARK VINA RESULT:      -5.1      2.339      3.659
REMARK  7 active torsions:
REMARK  status: ('A' for Active; 'I' for Inactive)
REMARK    1  A    between atoms: C_2  and  C_3 
REMARK    2  A    between atoms: C_3  and  O_6 
REMARK    3  A    between atoms: C_3  and  C_4 
REMARK    4  A    between atoms: C_7  and  O_6 
REMARK    5  A    between atoms: C_9  and  C_10 
REMARK    6  A    between atoms: N_15  and  C_14 
REMARK    7  A    between atoms: N_20  and  C_19 
REMARK       I    between atoms: C_22  and  N_20 
ROOT
ATOM      1  C   LIG d   1      -2.164  78.044 116.042  0.00  0.00     0.161 C 
ATOM      2  C   LIG d   1      -2.503  79.057 115.130  0.00  0.00     0.016 C 
ATOM      3  C   LIG d   1      -2.002  79.115 113.809  0.00  0.00     0.038 C 
ATOM      4  C   LIG d   1      -1.241  78.074 113.259  0.00  0.00     0.028 C 
ATOM      5  C   LIG d   1      -0.459  77.279 114.299  0.00  0.00    -0.047 C 
ATOM      6  C   LIG d   1      -1.424  76.839 115.424  0.00  0.00     0.091 C 
ENDROOT
BRANCH   1   7
ATOM      7  O   LIG d   1      -3.344  77.601 116.741  0.00  0.00    -0.368 OA
BRANCH   7   8
ATOM      8  C   LIG d   1      -4.536  77.431 115.936  0.00  0.00     0.119 C 
BRANCH   8   9
ATOM      9  C   LIG d   1      -5.683  78.181 116.641  0.00  0.00     0.028 C 
ATOM     10  C   LIG d   1      -6.064  77.539 117.986  0.00  0.00     0.006 C 
ENDBRANCH   8   9
BRANCH   8  11
ATOM     11  C   LIG d   1      -4.976  75.964 115.894  0.00  0.00     0.028 C 
ATOM     12  C   LIG d   1      -4.970  75.380 114.473  0.00  0.00     0.006 C 
ENDBRANCH   8  11
ENDBRANCH   7   8
ENDBRANCH   1   7
BRANCH   6  13
ATOM     13  N   LIG d   1      -0.724  76.128 116.525  0.00  0.00    -0.311 N 
ATOM     14  C   LIG d   1      -1.035  74.893 116.915  0.00  0.00     0.210 C 
ATOM     15  C   LIG d   1      -0.202  74.354 118.082  0.00  0.00     0.109 C 
ATOM     16  O   LIG d   1      -1.899  74.180 116.383  0.00  0.00    -0.276 OA
ATOM     17  H   LIG d   1       0.012  76.622 116.992  0.00  0.00     0.149 HD
ENDBRANCH   6  13
BRANCH   5  18
ATOM     18  N   LIG d   1       0.178  76.143 113.607  0.00  0.00     0.381 N 
ATOM     19  H   LIG d   1      -0.221  75.284 113.928  0.00  0.00    -0.090 HD
ATOM     20  H   LIG d   1       1.159  76.137 113.826  0.00  0.00    -0.090 HD
ATOM     21  H   LIG d   1       0.051  76.229 112.622  0.00  0.00    -0.090 HD
ENDBRANCH   5  18
BRANCH   3  22
ATOM     22  C   LIG d   1      -2.228  80.245 113.037  0.00  0.00     0.382 C 
ATOM     23  O   LIG d   1      -3.216  80.980 113.277  0.00  0.00    -0.241 OA
ATOM     24  O   LIG d   1      -1.482  80.513 112.076  0.00  0.00    -0.241 OA
ENDBRANCH   3  22
TORSDOF 7
ENDMDL
MODEL 7
REMARK VINA RESULT:      -4.8      3.032      4.583
REMARK  7 active torsions:
REMARK  status: ('A' for Active; 'I' for Inactive)
REMARK    1  A    between atoms: C_2  and  C_3 
REMARK    2  A    between atoms: C_3  and  O_6 
REMARK    3  A    between atoms: C_3  and  C_4 
REMARK    4  A    between atoms: C_7  and  O_6 
REMARK    5  A    between atoms: C_9  and  C_10 
REMARK    6  A    between atoms: N_15  and  C_14 
REMARK    7  A    between atoms: N_20  and  C_19 
REMARK       I    between atoms: C_22  and  N_20 
ROOT
ATOM      1  C   LIG d   1      -2.795  78.105 115.543  0.00  0.00     0.161 C 
ATOM      2  C   LIG d   1      -2.896  77.919 114.154  0.00  0.00     0.016 C 
ATOM      3  C   LIG d   1      -1.898  78.330 113.240  0.00  0.00     0.038 C 
ATOM      4  C   LIG d   1      -0.657  78.822 113.669  0.00  0.00     0.028 C 
ATOM      5  C   LIG d   1      -0.711  79.494 115.037  0.00  0.00    -0.047 C 
ATOM      6  C   LIG d   1      -1.400  78.539 116.038  0.00  0.00     0.091 C 
ENDROOT
BRANCH   1   7
ATOM      7  O   LIG d   1      -3.221  76.910 116.228  0.00  0.00    -0.368 OA
BRANCH   7   8
ATOM      8  C   LIG d   1      -3.163  75.682 115.462  0.00  0.00     0.119 C 
BRANCH   8   9
ATOM      9  C   LIG d   1      -4.538  74.996 115.583  0.00  0.00     0.028 C 
ATOM     10  C   LIG d   1      -5.294  74.956 114.244  0.00  0.00     0.006 C 
ENDBRANCH   8   9
BRANCH   8  11
ATOM     11  C   LIG d   1      -2.162  74.693 116.068  0.00  0.00     0.028 C 
ATOM     12  C   LIG d   1      -0.871  74.572 115.243  0.00  0.00     0.006 C 
ENDBRANCH   8  11
ENDBRANCH   7   8
ENDBRANCH   1   7
BRANCH   6  13
ATOM     13  N   LIG d   1      -1.570  79.153 117.381  0.00  0.00    -0.311 N 
ATOM     14  C   LIG d   1      -0.690  79.007 118.371  0.00  0.00     0.210 C 
ATOM     15  C   LIG d   1      -1.068  79.706 119.680  0.00  0.00     0.109 C 
ATOM     16  O   LIG d   1       0.382  78.392 118.278  0.00  0.00    -0.276 OA
ATOM     17  H   LIG d   1      -2.398  79.695 117.534  0.00  0.00     0.149 HD
ENDBRANCH   6  13
BRANCH   5  18
ATOM     18  N   LIG d   1       0.671  79.837 115.421  0.00  0.00     0.381 N 
ATOM     19  H   LIG d   1       0.666  80.623 116.039  0.00  0.00    -0.090 HD
ATOM     20  H   LIG d   1       1.185  80.088 114.595  0.00  0.00    -0.090 HD
ATOM     21  H   LIG d   1       1.104  79.058 115.867  0.00  0.00    -0.090 HD
ENDBRANCH   5  18
BRANCH   3  22
ATOM     22  C   LIG d   1      -2.155  78.287 111.878  0.00  0.00     0.382 C 
ATOM     23  O   LIG d   1      -1.413  78.910 111.081  0.00  0.00    -0.241 OA
ATOM     24  O   LIG d   1      -3.144  77.670 111.441  0.00  0.00    -0.241 OA
ENDBRANCH   3  22
TORSDOF 7
ENDMDL
MODEL 8
REMARK VINA RESULT:      -4.8      4.466      7.652
REMARK  7 active torsions:
REMARK  status: ('A' for Active; 'I' for Inactive)
REMARK    1  A    between atoms: C_2  and  C_3 
REMARK    2  A    between atoms: C_3  and  O_6 
REMARK    3  A    between atoms: C_3  and  C_4 
REMARK    4  A    between atoms: C_7  and  O_6 
REMARK    5  A    between atoms: C_9  and  C_10 
REMARK    6  A    between atoms: N_15  and  C_14 
REMARK    7  A    between atoms: N_20  and  C_19 
REMARK       I    between atoms: C_22  and  N_20 
ROOT
ATOM      1  C   LIG d   1      -4.253  78.750 116.607  0.00  0.00     0.161 C 
ATOM      2  C   LIG d   1      -4.155  77.455 116.072  0.00  0.00     0.016 C 
ATOM      3  C   LIG d   1      -5.257  76.578 115.950  0.00  0.00     0.038 C 
ATOM      4  C   LIG d   1      -6.569  76.995 116.217  0.00  0.00     0.028 C 
ATOM      5  C   LIG d   1      -6.650  78.126 117.236  0.00  0.00    -0.047 C 
ATOM      6  C   LIG d   1      -5.696  79.262 116.801  0.00  0.00     0.091 C 
ENDROOT
BRANCH   1   7
ATOM      7  O   LIG d   1      -3.499  79.673 115.797  0.00  0.00    -0.368 OA
BRANCH   7   8
ATOM      8  C   LIG d   1      -2.465  79.092 114.965  0.00  0.00     0.119 C 
BRANCH   8   9
ATOM      9  C   LIG d   1      -1.109  79.407 115.625  0.00  0.00     0.028 C 
ATOM     10  C   LIG d   1      -0.427  78.151 116.194  0.00  0.00     0.006 C 
ENDBRANCH   8   9
BRANCH   8  11
ATOM     11  C   LIG d   1      -2.412  79.764 113.590  0.00  0.00     0.028 C 
ATOM     12  C   LIG d   1      -2.378  78.753 112.433  0.00  0.00     0.006 C 
ENDBRANCH   8  11
ENDBRANCH   7   8
ENDBRANCH   1   7
BRANCH   6  13
ATOM     13  N   LIG d   1      -5.651  80.373 117.787  0.00  0.00    -0.311 N 
ATOM     14  C   LIG d   1      -6.414  81.461 117.702  0.00  0.00     0.210 C 
ATOM     15  C   LIG d   1      -6.195  82.494 118.812  0.00  0.00     0.109 C 
ATOM     16  O   LIG d   1      -7.275  81.654 116.830  0.00  0.00    -0.276 OA
ATOM     17  H   LIG d   1      -5.002  80.284 118.545  0.00  0.00     0.149 HD
ENDBRANCH   6  13
BRANCH   5  18
ATOM     18  N   LIG d   1      -8.059  78.554 117.317  0.00  0.00     0.381 N 
ATOM     19  H   LIG d   1      -8.374  78.507 118.265  0.00  0.00    -0.090 HD
ATOM     20  H   LIG d   1      -8.621  77.928 116.766  0.00  0.00    -0.090 HD
ATOM     21  H   LIG d   1      -8.153  79.485 116.974  0.00  0.00    -0.090 HD
ENDBRANCH   5  18
BRANCH   3  22
ATOM     22  C   LIG d   1      -5.046  75.255 115.594  0.00  0.00     0.382 C 
ATOM     23  O   LIG d   1      -6.003  74.555 115.186  0.00  0.00    -0.241 OA
ATOM     24  O   LIG d   1      -3.918  74.739 115.718  0.00  0.00    -0.241 OA
ENDBRANCH   3  22
TORSDOF 7
ENDMDL
MODEL 9
REMARK VINA RESULT:      -4.7      2.901      4.206
REMARK  7 active torsions:
REMARK  status: ('A' for Active; 'I' for Inactive)
REMARK    1  A    between atoms: C_2  and  C_3 
REMARK    2  A    between atoms: C_3  and  O_6 
REMARK    3  A    between atoms: C_3  and  C_4 
REMARK    4  A    between atoms: C_7  and  O_6 
REMARK    5  A    between atoms: C_9  and  C_10 
REMARK    6  A    between atoms: N_15  and  C_14 
REMARK    7  A    between atoms: N_20  and  C_19 
REMARK       I    between atoms: C_22  and  N_20 
ROOT
ATOM      1  C   LIG d   1      -2.812  77.827 114.085  0.00  0.00     0.161 C 
ATOM      2  C   LIG d   1      -2.324  78.053 112.787  0.00  0.00     0.016 C 
ATOM      3  C   LIG d   1      -1.188  78.848 112.511  0.00  0.00     0.038 C 
ATOM      4  C   LIG d   1      -0.369  79.352 113.533  0.00  0.00     0.028 C 
ATOM      5  C   LIG d   1      -1.108  79.571 114.849  0.00  0.00    -0.047 C 
ATOM      6  C   LIG d   1      -1.868  78.277 115.219  0.00  0.00     0.091 C 
ENDROOT
BRANCH   1   7
ATOM      7  O   LIG d   1      -3.157  76.437 114.242  0.00  0.00    -0.368 OA
BRANCH   7   8
ATOM      8  C   LIG d   1      -4.420  76.163 114.898  0.00  0.00     0.119 C 
BRANCH   8   9
ATOM      9  C   LIG d   1      -4.194  74.985 115.864  0.00  0.00     0.028 C 
ATOM     10  C   LIG d   1      -2.705  74.756 116.173  0.00  0.00     0.006 C 
ENDBRANCH   8   9
BRANCH   8  11
ATOM     11  C   LIG d   1      -5.472  75.673 113.899  0.00  0.00     0.028 C 
ATOM     12  C   LIG d   1      -6.889  75.637 114.494  0.00  0.00     0.006 C 
ENDBRANCH   8  11
ENDBRANCH   7   8
ENDBRANCH   1   7
BRANCH   6  13
ATOM     13  N   LIG d   1      -2.686  78.433 116.450  0.00  0.00    -0.311 N 
ATOM     14  C   LIG d   1      -2.260  78.081 117.662  0.00  0.00     0.210 C 
ATOM     15  C   LIG d   1      -3.269  78.308 118.793  0.00  0.00     0.109 C 
ATOM     16  O   LIG d   1      -1.131  77.633 117.913  0.00  0.00    -0.276 OA
ATOM     17  H   LIG d   1      -3.604  78.817 116.342  0.00  0.00     0.149 HD
ENDBRANCH   6  13
BRANCH   5  18
ATOM     18  N   LIG d   1      -0.110  79.965 115.860  0.00  0.00     0.381 N 
ATOM     19  H   LIG d   1       0.468  80.698 115.499  0.00  0.00    -0.090 HD
ATOM     20  H   LIG d   1       0.475  79.174 116.066  0.00  0.00    -0.090 HD
ATOM     21  H   LIG d   1      -0.568  80.273 116.690  0.00  0.00    -0.090 HD
ENDBRANCH   5  18
BRANCH   3  22
ATOM     22  C   LIG d   1      -0.883  79.180 111.200  0.00  0.00     0.382 C 
ATOM     23  O   LIG d   1      -0.274  80.247 110.948  0.00  0.00    -0.241 OA
ATOM     24  O   LIG d   1      -1.250  78.447 110.261  0.00  0.00    -0.241 OA
ENDBRANCH   3  22
TORSDOF 7
ENDMDL
