MODEL 1
REMARK VINA RESULT:      -5.7      0.000      0.000
REMARK  7 active torsions:
REMARK  status: ('A' for Active; 'I' for Inactive)
REMARK    1  A    between atoms: C_2  and  C_3 
REMARK    2  A    between atoms: C_3  and  O_6 
REMARK    3  A    between atoms: C_3  and  C_4 
REMARK    4  A    between atoms: C_7  and  O_6 
REMARK    5  A    between atoms: C_9  and  C_10 
REMARK    6  A    between atoms: N_15  and  C_14 
REMARK    7  A    between atoms: N_20  and  C_19 
REMARK       I    between atoms: C_22  and  N_20 
ROOT
ATOM      1  C   LIG d   1      -2.818  79.813 115.538  0.00  0.00     0.161 C 
ATOM      2  C   LIG d   1      -2.622  81.040 114.883  0.00  0.00     0.016 C 
ATOM      3  C   LIG d   1      -2.062  81.151 113.590  0.00  0.00     0.038 C 
ATOM      4  C   LIG d   1      -1.798  80.024 112.797  0.00  0.00     0.028 C 
ATOM      5  C   LIG d   1      -1.509  78.766 113.610  0.00  0.00    -0.047 C 
ATOM      6  C   LIG d   1      -2.640  78.567 114.645  0.00  0.00     0.091 C 
ENDROOT
BRANCH   1   7
ATOM      7  O   LIG d   1      -4.115  79.797 116.167  0.00  0.00    -0.368 OA
BRANCH   7   8
ATOM      8  C   LIG d   1      -4.212  80.469 117.446  0.00  0.00     0.119 C 
BRANCH   8   9
ATOM      9  C   LIG d   1      -3.057  79.956 118.328  0.00  0.00     0.028 C 
ATOM     10  C   LIG d   1      -3.141  80.482 119.770  0.00  0.00     0.006 C 
ENDBRANCH   8   9
BRANCH   8  11
ATOM     11  C   LIG d   1      -5.494  80.076 118.187  0.00  0.00     0.028 C 
ATOM     12  C   LIG d   1      -6.692  80.965 117.817  0.00  0.00     0.006 C 
ENDBRANCH   8  11
ENDBRANCH   7   8
ENDBRANCH   1   7
BRANCH   6  13
ATOM     13  N   LIG d   1      -2.392  77.405 115.538  0.00  0.00    -0.311 N 
ATOM     14  C   LIG d   1      -2.789  76.166 115.255  0.00  0.00     0.210 C 
ATOM     15  C   LIG d   1      -2.450  75.119 116.321  0.00  0.00     0.109 C 
ATOM     16  O   LIG d   1      -3.361  75.828 114.208  0.00  0.00    -0.276 OA
ATOM     17  H   LIG d   1      -1.907  77.584 116.395  0.00  0.00     0.149 HD
ENDBRANCH   6  13
BRANCH   5  18
ATOM     18  N   LIG d   1      -1.389  77.641 112.662  0.00  0.00     0.381 N 
ATOM     19  H   LIG d   1      -1.465  76.774 113.155  0.00  0.00    -0.090 HD
ATOM     20  H   LIG d   1      -0.484  77.679 112.227  0.00  0.00    -0.090 HD
ATOM     21  H   LIG d   1      -2.102  77.702 111.969  0.00  0.00    -0.090 HD
ENDBRANCH   5  18
BRANCH   3  22
ATOM     22  C   LIG d   1      -1.723  82.400 113.092  0.00  0.00     0.382 C 
ATOM     23  O   LIG d   1      -1.430  82.533 111.880  0.00  0.00    -0.241 OA
ATOM     24  O   LIG d   1      -1.663  83.386 113.850  0.00  0.00    -0.241 OA
ENDBRANCH   3  22
TORSDOF 7
ENDMDL
MODEL 2
REMARK VINA RESULT:      -5.6      0.585      1.745
REMARK  7 active torsions:
REMARK  status: ('A' for Active; 'I' for Inactive)
REMARK    1  A    between atoms: C_2  and  C_3 
REMARK    2  A    between atoms: C_3  and  O_6 
REMARK    3  A    between atoms: C_3  and  C_4 
REMARK    4  A    between atoms: C_7  and  O_6 
REMARK    5  A    between atoms: C_9  and  C_10 
REMARK    6  A    between atoms: N_15  and  C_14 
REMARK    7  A    between atoms: N_20  and  C_19 
REMARK       I    between atoms: C_22  and  N_20 
ROOT
ATOM      1  C   LIG d   1      -2.781  79.917 115.467  0.00  0.00     0.161 C 
ATOM      2  C   LIG d   1      -2.521  81.157 114.859  0.00  0.00     0.016 C 
ATOM      3  C   LIG d   1      -2.005  81.287 113.549  0.00  0.00     0.038 C 
ATOM      4  C   LIG d   1      -1.855  80.183 112.697  0.00  0.00     0.028 C 
ATOM      5  C   LIG d   1      -1.629  78.871 113.441  0.00  0.00    -0.047 C 
ATOM      6  C   LIG d   1      -2.730  78.705 114.513  0.00  0.00     0.091 C 
ENDROOT
BRANCH   1   7
ATOM      7  O   LIG d   1      -4.051  79.965 116.148  0.00  0.00    -0.368 OA
BRANCH   7   8
ATOM      8  C   LIG d   1      -4.031  79.626 117.557  0.00  0.00     0.119 C 
BRANCH   8   9
ATOM      9  C   LIG d   1      -4.921  80.648 118.291  0.00  0.00     0.028 C 
ATOM     10  C   LIG d   1      -6.377  80.621 117.796  0.00  0.00     0.006 C 
ENDBRANCH   8   9
BRANCH   8  11
ATOM     11  C   LIG d   1      -2.632  79.804 118.153  0.00  0.00     0.028 C 
ATOM     12  C   LIG d   1      -2.657  80.437 119.554  0.00  0.00     0.006 C 
ENDBRANCH   8  11
ENDBRANCH   7   8
ENDBRANCH   1   7
BRANCH   6  13
ATOM     13  N   LIG d   1      -2.534  77.488 115.343  0.00  0.00    -0.311 N 
ATOM     14  C   LIG d   1      -3.487  76.581 115.550  0.00  0.00     0.210 C 
ATOM     15  C   LIG d   1      -3.082  75.412 116.453  0.00  0.00     0.109 C 
ATOM     16  O   LIG d   1      -4.619  76.616 115.044  0.00  0.00    -0.276 OA
ATOM     17  H   LIG d   1      -1.635  77.364 115.766  0.00  0.00     0.149 HD
ENDBRANCH   6  13
BRANCH   5  18
ATOM     18  N   LIG d   1      -1.629  77.786 112.441  0.00  0.00     0.381 N 
ATOM     19  H   LIG d   1      -0.891  77.934 111.782  0.00  0.00    -0.090 HD
ATOM     20  H   LIG d   1      -2.502  77.801 111.945  0.00  0.00    -0.090 HD
ATOM     21  H   LIG d   1      -1.509  76.906 112.892  0.00  0.00    -0.090 HD
ENDBRANCH   5  18
BRANCH   3  22
ATOM     22  C   LIG d   1      -1.594  82.531 113.093  0.00  0.00     0.382 C 
ATOM     23  O   LIG d   1      -1.497  83.492 113.894  0.00  0.00    -0.241 OA
ATOM     24  O   LIG d   1      -1.361  82.715 111.883  0.00  0.00    -0.241 OA
ENDBRANCH   3  22
TORSDOF 7
ENDMDL
MODEL 3
REMARK VINA RESULT:      -5.6      2.677      3.771
REMARK  7 active torsions:
REMARK  status: ('A' for Active; 'I' for Inactive)
REMARK    1  A    between atoms: C_2  and  C_3 
REMARK    2  A    between atoms: C_3  and  O_6 
REMARK    3  A    between atoms: C_3  and  C_4 
REMARK    4  A    between atoms: C_7  and  O_6 
REMARK    5  A    between atoms: C_9  and  C_10 
REMARK    6  A    between atoms: N_15  and  C_14 
REMARK    7  A    between atoms: N_20  and  C_19 
REMARK       I    between atoms: C_22  and  N_20 
ROOT
ATOM      1  C   LIG d   1      -3.105  77.796 116.884  0.00  0.00     0.161 C 
ATOM      2  C   LIG d   1      -3.386  78.806 115.949  0.00  0.00     0.016 C 
ATOM      3  C   LIG d   1      -2.550  79.100 114.847  0.00  0.00     0.038 C 
ATOM      4  C   LIG d   1      -1.447  78.298 114.518  0.00  0.00     0.028 C 
ATOM      5  C   LIG d   1      -0.842  77.579 115.719  0.00  0.00    -0.047 C 
ATOM      6  C   LIG d   1      -1.965  76.838 116.479  0.00  0.00     0.091 C 
ENDROOT
BRANCH   1   7
ATOM      7  O   LIG d   1      -4.305  77.052 117.175  0.00  0.00    -0.368 OA
BRANCH   7   8
ATOM      8  C   LIG d   1      -5.280  76.972 116.105  0.00  0.00     0.119 C 
BRANCH   8   9
ATOM      9  C   LIG d   1      -6.675  77.138 116.737  0.00  0.00     0.028 C 
ATOM     10  C   LIG d   1      -7.403  75.795 116.915  0.00  0.00     0.006 C 
ENDBRANCH   8   9
BRANCH   8  11
ATOM     11  C   LIG d   1      -5.289  75.581 115.463  0.00  0.00     0.028 C 
ATOM     12  C   LIG d   1      -4.940  75.614 113.967  0.00  0.00     0.006 C 
ENDBRANCH   8  11
ENDBRANCH   7   8
ENDBRANCH   1   7
BRANCH   6  13
ATOM     13  N   LIG d   1      -1.473  76.177 117.716  0.00  0.00    -0.311 N 
ATOM     14  C   LIG d   1      -1.029  74.922 117.749  0.00  0.00     0.210 C 
ATOM     15  C   LIG d   1      -0.586  74.429 119.131  0.00  0.00     0.109 C 
ATOM     16  O   LIG d   1      -0.930  74.180 116.760  0.00  0.00    -0.276 OA
ATOM     17  H   LIG d   1      -1.488  76.717 118.559  0.00  0.00     0.149 HD
ENDBRANCH   6  13
BRANCH   5  18
ATOM     18  N   LIG d   1       0.208  76.674 115.214  0.00  0.00     0.381 N 
ATOM     19  H   LIG d   1       0.448  76.924 114.275  0.00  0.00    -0.090 HD
ATOM     20  H   LIG d   1      -0.147  75.734 115.209  0.00  0.00    -0.090 HD
ATOM     21  H   LIG d   1       1.015  76.729 115.796  0.00  0.00    -0.090 HD
ENDBRANCH   5  18
BRANCH   3  22
ATOM     22  C   LIG d   1      -2.793  80.232 114.083  0.00  0.00     0.382 C 
ATOM     23  O   LIG d   1      -2.944  80.130 112.842  0.00  0.00    -0.241 OA
ATOM     24  O   LIG d   1      -2.818  81.358 114.614  0.00  0.00    -0.241 OA
ENDBRANCH   3  22
TORSDOF 7
ENDMDL
MODEL 4
REMARK VINA RESULT:      -5.5      2.599      5.251
REMARK  7 active torsions:
REMARK  status: ('A' for Active; 'I' for Inactive)
REMARK    1  A    between atoms: C_2  and  C_3 
REMARK    2  A    between atoms: C_3  and  O_6 
REMARK    3  A    between atoms: C_3  and  C_4 
REMARK    4  A    between atoms: C_7  and  O_6 
REMARK    5  A    between atoms: C_9  and  C_10 
REMARK    6  A    between atoms: N_15  and  C_14 
REMARK    7  A    between atoms: N_20  and  C_19 
REMARK       I    between atoms: C_22  and  N_20 
ROOT
ATOM      1  C   LIG d   1      -1.472  77.284 114.464  0.00  0.00     0.161 C 
ATOM      2  C   LIG d   1      -2.736  76.955 113.945  0.00  0.00     0.016 C 
ATOM      3  C   LIG d   1      -3.625  76.054 114.575  0.00  0.00     0.038 C 
ATOM      4  C   LIG d   1      -3.372  75.533 115.853  0.00  0.00     0.028 C 
ATOM      5  C   LIG d   1      -1.886  75.441 116.185  0.00  0.00    -0.047 C 
ATOM      6  C   LIG d   1      -1.225  76.811 115.912  0.00  0.00     0.091 C 
ENDROOT
BRANCH   1   7
ATOM      7  O   LIG d   1      -1.254  78.704 114.356  0.00  0.00    -0.368 OA
BRANCH   7   8
ATOM      8  C   LIG d   1      -2.442  79.534 114.373  0.00  0.00     0.119 C 
BRANCH   8   9
ATOM      9  C   LIG d   1      -2.263  80.621 113.295  0.00  0.00     0.028 C 
ATOM     10  C   LIG d   1      -2.399  82.042 113.867  0.00  0.00     0.006 C 
ENDBRANCH   8   9
BRANCH   8  11
ATOM     11  C   LIG d   1      -2.571  80.294 115.697  0.00  0.00     0.028 C 
ATOM     12  C   LIG d   1      -3.661  79.714 116.612  0.00  0.00     0.006 C 
ENDBRANCH   8  11
ENDBRANCH   7   8
ENDBRANCH   1   7
BRANCH   6  13
ATOM     13  N   LIG d   1       0.245  76.785 116.131  0.00  0.00    -0.311 N 
ATOM     14  C   LIG d   1       0.820  77.127 117.283  0.00  0.00     0.210 C 
ATOM     15  C   LIG d   1       2.350  77.048 117.290  0.00  0.00     0.109 C 
ATOM     16  O   LIG d   1       0.207  77.457 118.309  0.00  0.00    -0.276 OA
ATOM     17  H   LIG d   1       0.816  76.499 115.360  0.00  0.00     0.149 HD
ENDBRANCH   6  13
BRANCH   5  18
ATOM     18  N   LIG d   1      -1.770  75.014 117.592  0.00  0.00     0.381 N 
ATOM     19  H   LIG d   1      -2.488  74.350 117.805  0.00  0.00    -0.090 HD
ATOM     20  H   LIG d   1      -1.894  75.815 118.187  0.00  0.00    -0.090 HD
ATOM     21  H   LIG d   1      -0.875  74.608 117.753  0.00  0.00    -0.090 HD
ENDBRANCH   5  18
BRANCH   3  22
ATOM     22  C   LIG d   1      -4.766  75.635 113.907  0.00  0.00     0.382 C 
ATOM     23  O   LIG d   1      -5.412  74.646 114.330  0.00  0.00    -0.241 OA
ATOM     24  O   LIG d   1      -5.131  76.205 112.862  0.00  0.00    -0.241 OA
ENDBRANCH   3  22
TORSDOF 7
ENDMDL
MODEL 5
REMARK VINA RESULT:      -5.4      2.742      3.870
REMARK  7 active torsions:
REMARK  status: ('A' for Active; 'I' for Inactive)
REMARK    1  A    between atoms: C_2  and  C_3 
REMARK    2  A    between atoms: C_3  and  O_6 
REMARK    3  A    between atoms: C_3  and  C_4 
REMARK    4  A    between atoms: C_7  and  O_6 
REMARK    5  A    between atoms: C_9  and  C_10 
REMARK    6  A    between atoms: N_15  and  C_14 
REMARK    7  A    between atoms: N_20  and  C_19 
REMARK       I    between atoms: C_22  and  N_20 
ROOT
ATOM      1  C   LIG d   1      -2.156  78.714 115.522  0.00  0.00     0.161 C 
ATOM      2  C   LIG d   1      -2.593  79.631 114.552  0.00  0.00     0.016 C 
ATOM      3  C   LIG d   1      -1.844  80.764 114.159  0.00  0.00     0.038 C 
ATOM      4  C   LIG d   1      -0.530  80.975 114.604  0.00  0.00     0.028 C 
ATOM      5  C   LIG d   1      -0.244  80.349 115.965  0.00  0.00    -0.047 C 
ATOM      6  C   LIG d   1      -0.678  78.866 115.937  0.00  0.00     0.091 C 
ENDROOT
BRANCH   1   7
ATOM      7  O   LIG d   1      -2.414  77.368 115.073  0.00  0.00    -0.368 OA
BRANCH   7   8
ATOM      8  C   LIG d   1      -3.740  76.850 115.343  0.00  0.00     0.119 C 
BRANCH   8   9
ATOM      9  C   LIG d   1      -3.693  76.150 116.715  0.00  0.00     0.028 C 
ATOM     10  C   LIG d   1      -2.496  75.193 116.845  0.00  0.00     0.006 C 
ENDBRANCH   8   9
BRANCH   8  11
ATOM     11  C   LIG d   1      -4.125  75.756 114.342  0.00  0.00     0.028 C 
ATOM     12  C   LIG d   1      -5.612  75.376 114.418  0.00  0.00     0.006 C 
ENDBRANCH   8  11
ENDBRANCH   7   8
ENDBRANCH   1   7
BRANCH   6  13
ATOM     13  N   LIG d   1      -0.510  78.201 117.255  0.00  0.00    -0.311 N 
ATOM     14  C   LIG d   1       0.536  77.436 117.562  0.00  0.00     0.210 C 
ATOM     15  C   LIG d   1       0.503  76.830 118.969  0.00  0.00     0.109 C 
ATOM     16  O   LIG d   1       1.504  77.228 116.815  0.00  0.00    -0.276 OA
ATOM     17  H   LIG d   1      -1.233  78.342 117.933  0.00  0.00     0.149 HD
ENDBRANCH   6  13
BRANCH   5  18
ATOM     18  N   LIG d   1       1.194  80.526 116.242  0.00  0.00     0.381 N 
ATOM     19  H   LIG d   1       1.465  81.467 116.039  0.00  0.00    -0.090 HD
ATOM     20  H   LIG d   1       1.719  79.911 115.645  0.00  0.00    -0.090 HD
ATOM     21  H   LIG d   1       1.385  80.317 117.197  0.00  0.00    -0.090 HD
ENDBRANCH   5  18
BRANCH   3  22
ATOM     22  C   LIG d   1      -2.425  81.722 113.342  0.00  0.00     0.382 C 
ATOM     23  O   LIG d   1      -3.585  81.548 112.899  0.00  0.00    -0.241 OA
ATOM     24  O   LIG d   1      -1.786  82.737 113.006  0.00  0.00    -0.241 OA
ENDBRANCH   3  22
TORSDOF 7
ENDMDL
MODEL 6
REMARK VINA RESULT:      -5.3      2.960      4.742
REMARK  7 active torsions:
REMARK  status: ('A' for Active; 'I' for Inactive)
REMARK    1  A    between atoms: C_2  and  C_3 
REMARK    2  A    between atoms: C_3  and  O_6 
REMARK    3  A    between atoms: C_3  and  C_4 
REMARK    4  A    between atoms: C_7  and  O_6 
REMARK    5  A    between atoms: C_9  and  C_10 
REMARK    6  A    between atoms: N_15  and  C_14 
REMARK    7  A    between atoms: N_20  and  C_19 
REMARK       I    between atoms: C_22  and  N_20 
ROOT
ATOM      1  C   LIG d   1      -3.824  77.307 116.912  0.00  0.00     0.161 C 
ATOM      2  C   LIG d   1      -4.694  78.250 117.484  0.00  0.00     0.016 C 
ATOM      3  C   LIG d   1      -4.601  79.640 117.243  0.00  0.00     0.038 C 
ATOM      4  C   LIG d   1      -3.720  80.171 116.289  0.00  0.00     0.028 C 
ATOM      5  C   LIG d   1      -2.482  79.309 116.062  0.00  0.00    -0.047 C 
ATOM      6  C   LIG d   1      -2.928  77.855 115.782  0.00  0.00     0.091 C 
ENDROOT
BRANCH   1   7
ATOM      7  O   LIG d   1      -4.576  76.168 116.447  0.00  0.00    -0.368 OA
BRANCH   7   8
ATOM      8  C   LIG d   1      -5.863  76.456 115.847  0.00  0.00     0.119 C 
BRANCH   8   9
ATOM      9  C   LIG d   1      -6.901  75.532 116.514  0.00  0.00     0.028 C 
ATOM     10  C   LIG d   1      -7.946  76.315 117.328  0.00  0.00     0.006 C 
ENDBRANCH   8   9
BRANCH   8  11
ATOM     11  C   LIG d   1      -5.882  76.082 114.362  0.00  0.00     0.028 C 
ATOM     12  C   LIG d   1      -4.889  74.960 114.018  0.00  0.00     0.006 C 
ENDBRANCH   8  11
ENDBRANCH   7   8
ENDBRANCH   1   7
BRANCH   6  13
ATOM     13  N   LIG d   1      -1.776  76.928 115.632  0.00  0.00    -0.311 N 
ATOM     14  C   LIG d   1      -1.368  76.449 114.458  0.00  0.00     0.210 C 
ATOM     15  C   LIG d   1      -0.174  75.493 114.529  0.00  0.00     0.109 C 
ATOM     16  O   LIG d   1      -1.863  76.750 113.361  0.00  0.00    -0.276 OA
ATOM     17  H   LIG d   1      -1.297  76.656 116.468  0.00  0.00     0.149 HD
ENDBRANCH   6  13
BRANCH   5  18
ATOM     18  N   LIG d   1      -1.722  79.906 114.949  0.00  0.00     0.381 N 
ATOM     19  H   LIG d   1      -0.741  79.841 115.135  0.00  0.00    -0.090 HD
ATOM     20  H   LIG d   1      -1.965  80.878 114.873  0.00  0.00    -0.090 HD
ATOM     21  H   LIG d   1      -1.937  79.434 114.097  0.00  0.00    -0.090 HD
ENDBRANCH   5  18
BRANCH   3  22
ATOM     22  C   LIG d   1      -5.368  80.520 117.992  0.00  0.00     0.382 C 
ATOM     23  O   LIG d   1      -6.348  81.102 117.465  0.00  0.00    -0.241 OA
ATOM     24  O   LIG d   1      -5.067  80.773 119.174  0.00  0.00    -0.241 OA
ENDBRANCH   3  22
TORSDOF 7
ENDMDL
MODEL 7
REMARK VINA RESULT:      -5.0      2.276      5.009
REMARK  7 active torsions:
REMARK  status: ('A' for Active; 'I' for Inactive)
REMARK    1  A    between atoms: C_2  and  C_3 
REMARK    2  A    between atoms: C_3  and  O_6 
REMARK    3  A    between atoms: C_3  and  C_4 
REMARK    4  A    between atoms: C_7  and  O_6 
REMARK    5  A    between atoms: C_9  and  C_10 
REMARK    6  A    between atoms: N_15  and  C_14 
REMARK    7  A    between atoms: N_20  and  C_19 
REMARK       I    between atoms: C_22  and  N_20 
ROOT
ATOM      1  C   LIG d   1      -2.324  79.888 115.019  0.00  0.00     0.161 C 
ATOM      2  C   LIG d   1      -2.829  78.579 115.096  0.00  0.00     0.016 C 
ATOM      3  C   LIG d   1      -2.753  77.652 114.031  0.00  0.00     0.038 C 
ATOM      4  C   LIG d   1      -2.027  77.924 112.862  0.00  0.00     0.028 C 
ATOM      5  C   LIG d   1      -1.933  79.411 112.540  0.00  0.00    -0.047 C 
ATOM      6  C   LIG d   1      -1.431  80.166 113.792  0.00  0.00     0.091 C 
ENDROOT
BRANCH   1   7
ATOM      7  O   LIG d   1      -1.620  80.212 116.235  0.00  0.00    -0.368 OA
BRANCH   7   8
ATOM      8  C   LIG d   1      -1.870  79.344 117.367  0.00  0.00     0.119 C 
BRANCH   8   9
ATOM      9  C   LIG d   1      -2.587  80.181 118.443  0.00  0.00     0.028 C 
ATOM     10  C   LIG d   1      -1.800  80.239 119.763  0.00  0.00     0.006 C 
ENDBRANCH   8   9
BRANCH   8  11
ATOM     11  C   LIG d   1      -0.561  78.884 118.016  0.00  0.00     0.028 C 
ATOM     12  C   LIG d   1       0.328  78.077 117.057  0.00  0.00     0.006 C 
ENDBRANCH   8  11
ENDBRANCH   7   8
ENDBRANCH   1   7
BRANCH   6  13
ATOM     13  N   LIG d   1      -1.390  81.637 113.589  0.00  0.00    -0.311 N 
ATOM     14  C   LIG d   1      -0.289  82.369 113.749  0.00  0.00     0.210 C 
ATOM     15  C   LIG d   1      -0.470  83.871 113.509  0.00  0.00     0.109 C 
ATOM     16  O   LIG d   1       0.828  81.913 114.036  0.00  0.00    -0.276 OA
ATOM     17  H   LIG d   1      -2.246  82.085 113.325  0.00  0.00     0.149 HD
ENDBRANCH   6  13
BRANCH   5  18
ATOM     18  N   LIG d   1      -1.036  79.560 111.377  0.00  0.00     0.381 N 
ATOM     19  H   LIG d   1      -1.564  79.848 110.578  0.00  0.00    -0.090 HD
ATOM     20  H   LIG d   1      -0.617  78.669 111.175  0.00  0.00    -0.090 HD
ATOM     21  H   LIG d   1      -0.328  80.231 111.577  0.00  0.00    -0.090 HD
ENDBRANCH   5  18
BRANCH   3  22
ATOM     22  C   LIG d   1      -3.442  76.452 114.115  0.00  0.00     0.382 C 
ATOM     23  O   LIG d   1      -4.334  76.181 113.275  0.00  0.00    -0.241 OA
ATOM     24  O   LIG d   1      -3.213  75.656 115.045  0.00  0.00    -0.241 OA
ENDBRANCH   3  22
TORSDOF 7
ENDMDL
MODEL 8
REMARK VINA RESULT:      -4.8      1.577      2.130
REMARK  7 active torsions:
REMARK  status: ('A' for Active; 'I' for Inactive)
REMARK    1  A    between atoms: C_2  and  C_3 
REMARK    2  A    between atoms: C_3  and  O_6 
REMARK    3  A    between atoms: C_3  and  C_4 
REMARK    4  A    between atoms: C_7  and  O_6 
REMARK    5  A    between atoms: C_9  and  C_10 
REMARK    6  A    between atoms: N_15  and  C_14 
REMARK    7  A    between atoms: N_20  and  C_19 
REMARK       I    between atoms: C_22  and  N_20 
ROOT
ATOM      1  C   LIG d   1      -3.177  79.294 115.992  0.00  0.00     0.161 C 
ATOM      2  C   LIG d   1      -2.893  80.498 115.327  0.00  0.00     0.016 C 
ATOM      3  C   LIG d   1      -2.064  80.579 114.184  0.00  0.00     0.038 C 
ATOM      4  C   LIG d   1      -1.583  79.433 113.535  0.00  0.00     0.028 C 
ATOM      5  C   LIG d   1      -1.428  78.232 114.462  0.00  0.00    -0.047 C 
ATOM      6  C   LIG d   1      -2.750  78.020 115.234  0.00  0.00     0.091 C 
ENDROOT
BRANCH   1   7
ATOM      7  O   LIG d   1      -4.579  79.236 116.321  0.00  0.00    -0.368 OA
BRANCH   7   8
ATOM      8  C   LIG d   1      -4.903  79.211 117.733  0.00  0.00     0.119 C 
BRANCH   8   9
ATOM      9  C   LIG d   1      -6.154  78.328 117.905  0.00  0.00     0.028 C 
ATOM     10  C   LIG d   1      -6.298  77.288 116.781  0.00  0.00     0.006 C 
ENDBRANCH   8   9
BRANCH   8  11
ATOM     11  C   LIG d   1      -5.312  80.598 118.235  0.00  0.00     0.028 C 
ATOM     12  C   LIG d   1      -6.752  80.972 117.846  0.00  0.00     0.006 C 
ENDBRANCH   8  11
ENDBRANCH   7   8
ENDBRANCH   1   7
BRANCH   6  13
ATOM     13  N   LIG d   1      -2.658  76.916 116.224  0.00  0.00    -0.311 N 
ATOM     14  C   LIG d   1      -1.799  76.915 117.242  0.00  0.00     0.210 C 
ATOM     15  C   LIG d   1      -1.855  75.670 118.134  0.00  0.00     0.109 C 
ATOM     16  O   LIG d   1      -1.018  77.840 117.510  0.00  0.00    -0.276 OA
ATOM     17  H   LIG d   1      -3.277  76.139 116.100  0.00  0.00     0.149 HD
ENDBRANCH   6  13
BRANCH   5  18
ATOM     18  N   LIG d   1      -1.051  77.073 113.631  0.00  0.00     0.381 N 
ATOM     19  H   LIG d   1      -1.810  76.421 113.595  0.00  0.00    -0.090 HD
ATOM     20  H   LIG d   1      -0.261  76.615 114.050  0.00  0.00    -0.090 HD
ATOM     21  H   LIG d   1      -0.820  77.375 112.710  0.00  0.00    -0.090 HD
ENDBRANCH   5  18
BRANCH   3  22
ATOM     22  C   LIG d   1      -1.677  81.821 113.703  0.00  0.00     0.382 C 
ATOM     23  O   LIG d   1      -0.771  82.464 114.285  0.00  0.00    -0.241 OA
ATOM     24  O   LIG d   1      -2.254  82.325 112.720  0.00  0.00    -0.241 OA
ENDBRANCH   3  22
TORSDOF 7
ENDMDL
MODEL 9
REMARK VINA RESULT:      -4.6      3.342      4.500
REMARK  7 active torsions:
REMARK  status: ('A' for Active; 'I' for Inactive)
REMARK    1  A    between atoms: C_2  and  C_3 
REMARK    2  A    between atoms: C_3  and  O_6 
REMARK    3  A    between atoms: C_3  and  C_4 
REMARK    4  A    between atoms: C_7  and  O_6 
REMARK    5  A    between atoms: C_9  and  C_10 
REMARK    6  A    between atoms: N_15  and  C_14 
REMARK    7  A    between atoms: N_20  and  C_19 
REMARK       I    between atoms: C_22  and  N_20 
ROOT
ATOM      1  C   LIG d   1      -3.300  78.148 116.352  0.00  0.00     0.161 C 
ATOM      2  C   LIG d   1      -4.177  77.371 115.577  0.00  0.00     0.016 C 
ATOM      3  C   LIG d   1      -3.775  76.211 114.875  0.00  0.00     0.038 C 
ATOM      4  C   LIG d   1      -2.492  75.662 115.024  0.00  0.00     0.028 C 
ATOM      5  C   LIG d   1      -1.431  76.692 115.395  0.00  0.00    -0.047 C 
ATOM      6  C   LIG d   1      -1.924  77.503 116.616  0.00  0.00     0.091 C 
ENDROOT
BRANCH   1   7
ATOM      7  O   LIG d   1      -3.933  78.504 117.597  0.00  0.00    -0.368 OA
BRANCH   7   8
ATOM      8  C   LIG d   1      -4.920  79.563 117.530  0.00  0.00     0.119 C 
BRANCH   8   9
ATOM      9  C   LIG d   1      -4.528  80.628 118.573  0.00  0.00     0.028 C 
ATOM     10  C   LIG d   1      -3.158  80.347 119.212  0.00  0.00     0.006 C 
ENDBRANCH   8   9
BRANCH   8  11
ATOM     11  C   LIG d   1      -6.303  79.064 117.960  0.00  0.00     0.028 C 
ATOM     12  C   LIG d   1      -7.375  80.164 117.911  0.00  0.00     0.006 C 
ENDBRANCH   8  11
ENDBRANCH   7   8
ENDBRANCH   1   7
BRANCH   6  13
ATOM     13  N   LIG d   1      -0.982  78.589 116.992  0.00  0.00    -0.311 N 
ATOM     14  C   LIG d   1      -0.050  78.457 117.934  0.00  0.00     0.210 C 
ATOM     15  C   LIG d   1       0.803  79.706 118.180  0.00  0.00     0.109 C 
ATOM     16  O   LIG d   1       0.174  77.414 118.567  0.00  0.00    -0.276 OA
ATOM     17  H   LIG d   1      -1.073  79.460 116.507  0.00  0.00     0.149 HD
ENDBRANCH   6  13
BRANCH   5  18
ATOM     18  N   LIG d   1      -0.174  75.964 115.653  0.00  0.00     0.381 N 
ATOM     19  H   LIG d   1       0.154  75.544 114.807  0.00  0.00    -0.090 HD
ATOM     20  H   LIG d   1      -0.353  75.234 116.320  0.00  0.00    -0.090 HD
ATOM     21  H   LIG d   1       0.514  76.589 116.011  0.00  0.00    -0.090 HD
ENDBRANCH   5  18
BRANCH   3  22
ATOM     22  C   LIG d   1      -4.649  75.611 113.982  0.00  0.00     0.382 C 
ATOM     23  O   LIG d   1      -4.855  76.133 112.860  0.00  0.00    -0.241 OA
ATOM     24  O   LIG d   1      -5.267  74.577 114.301  0.00  0.00    -0.241 OA
ENDBRANCH   3  22
TORSDOF 7
ENDMDL
