MODEL 1
REMARK VINA RESULT:      -5.0      0.000      0.000
REMARK  7 active torsions:
REMARK  status: ('A' for Active; 'I' for Inactive)
REMARK    1  A    between atoms: C_2  and  C_3 
REMARK    2  A    between atoms: C_3  and  O_6 
REMARK    3  A    between atoms: C_3  and  C_4 
REMARK    4  A    between atoms: C_7  and  O_6 
REMARK    5  A    between atoms: C_9  and  C_10 
REMARK    6  A    between atoms: N_15  and  C_14 
REMARK    7  A    between atoms: N_20  and  C_19 
REMARK       I    between atoms: C_22  and  N_20 
ROOT
ATOM      1  C   LIG d   1      -3.012  77.380 114.612  0.00  0.00     0.161 C 
ATOM      2  C   LIG d   1      -3.180  78.391 113.652  0.00  0.00     0.016 C 
ATOM      3  C   LIG d   1      -2.172  79.326 113.322  0.00  0.00     0.038 C 
ATOM      4  C   LIG d   1      -0.867  79.219 113.826  0.00  0.00     0.028 C 
ATOM      5  C   LIG d   1      -0.796  78.519 115.179  0.00  0.00    -0.047 C 
ATOM      6  C   LIG d   1      -1.559  77.178 115.092  0.00  0.00     0.091 C 
ENDROOT
BRANCH   1   7
ATOM      7  O   LIG d   1      -3.552  76.139 114.116  0.00  0.00    -0.368 OA
BRANCH   7   8
ATOM      8  C   LIG d   1      -4.687  75.603 114.840  0.00  0.00     0.119 C 
BRANCH   8   9
ATOM      9  C   LIG d   1      -4.255  74.250 115.440  0.00  0.00     0.028 C 
ATOM     10  C   LIG d   1      -4.487  74.181 116.958  0.00  0.00     0.006 C 
ENDBRANCH   8   9
BRANCH   8  11
ATOM     11  C   LIG d   1      -5.847  75.276 113.896  0.00  0.00     0.028 C 
ATOM     12  C   LIG d   1      -7.202  75.776 114.422  0.00  0.00     0.006 C 
ENDBRANCH   8  11
ENDBRANCH   7   8
ENDBRANCH   1   7
BRANCH   6  13
ATOM     13  N   LIG d   1      -1.610  76.469 116.397  0.00  0.00    -0.311 N 
ATOM     14  C   LIG d   1      -0.730  75.538 116.760  0.00  0.00     0.210 C 
ATOM     15  C   LIG d   1      -0.977  74.917 118.139  0.00  0.00     0.109 C 
ATOM     16  O   LIG d   1       0.251  75.190 116.086  0.00  0.00    -0.276 OA
ATOM     17  H   LIG d   1      -2.356  76.712 117.019  0.00  0.00     0.149 HD
ENDBRANCH   6  13
BRANCH   5  18
ATOM     18  N   LIG d   1       0.629  78.353 115.521  0.00  0.00     0.381 N 
ATOM     19  H   LIG d   1       0.793  78.673 116.454  0.00  0.00    -0.090 HD
ATOM     20  H   LIG d   1       1.181  78.912 114.894  0.00  0.00    -0.090 HD
ATOM     21  H   LIG d   1       0.889  77.395 115.440  0.00  0.00    -0.090 HD
ENDBRANCH   5  18
BRANCH   3  22
ATOM     22  C   LIG d   1      -2.477  80.407 112.510  0.00  0.00     0.382 C 
ATOM     23  O   LIG d   1      -1.574  80.963 111.840  0.00  0.00    -0.241 OA
ATOM     24  O   LIG d   1      -3.636  80.862 112.472  0.00  0.00    -0.241 OA
ENDBRANCH   3  22
TORSDOF 7
ENDMDL
MODEL 2
REMARK VINA RESULT:      -4.7      0.633      1.509
REMARK  7 active torsions:
REMARK  status: ('A' for Active; 'I' for Inactive)
REMARK    1  A    between atoms: C_2  and  C_3 
REMARK    2  A    between atoms: C_3  and  O_6 
REMARK    3  A    between atoms: C_3  and  C_4 
REMARK    4  A    between atoms: C_7  and  O_6 
REMARK    5  A    between atoms: C_9  and  C_10 
REMARK    6  A    between atoms: N_15  and  C_14 
REMARK    7  A    between atoms: N_20  and  C_19 
REMARK       I    between atoms: C_22  and  N_20 
ROOT
ATOM      1  C   LIG d   1      -2.979  77.252 114.621  0.00  0.00     0.161 C 
ATOM      2  C   LIG d   1      -3.156  78.269 113.668  0.00  0.00     0.016 C 
ATOM      3  C   LIG d   1      -2.158  79.216 113.347  0.00  0.00     0.038 C 
ATOM      4  C   LIG d   1      -0.852  79.118 113.851  0.00  0.00     0.028 C 
ATOM      5  C   LIG d   1      -0.776  78.409 115.199  0.00  0.00    -0.047 C 
ATOM      6  C   LIG d   1      -1.525  77.061 115.101  0.00  0.00     0.091 C 
ENDROOT
BRANCH   1   7
ATOM      7  O   LIG d   1      -3.507  76.010 114.114  0.00  0.00    -0.368 OA
BRANCH   7   8
ATOM      8  C   LIG d   1      -4.682  75.495 114.788  0.00  0.00     0.119 C 
BRANCH   8   9
ATOM      9  C   LIG d   1      -5.854  75.559 113.789  0.00  0.00     0.028 C 
ATOM     10  C   LIG d   1      -7.210  75.751 114.487  0.00  0.00     0.006 C 
ENDBRANCH   8   9
BRANCH   8  11
ATOM     11  C   LIG d   1      -5.095  76.396 115.956  0.00  0.00     0.028 C 
ATOM     12  C   LIG d   1      -4.970  75.698 117.319  0.00  0.00     0.006 C 
ENDBRANCH   8  11
ENDBRANCH   7   8
ENDBRANCH   1   7
BRANCH   6  13
ATOM     13  N   LIG d   1      -1.571  76.341 116.400  0.00  0.00    -0.311 N 
ATOM     14  C   LIG d   1      -1.232  75.061 116.541  0.00  0.00     0.210 C 
ATOM     15  C   LIG d   1      -1.371  74.508 117.963  0.00  0.00     0.109 C 
ATOM     16  O   LIG d   1      -0.799  74.339 115.631  0.00  0.00    -0.276 OA
ATOM     17  H   LIG d   1      -1.881  76.860 117.198  0.00  0.00     0.149 HD
ENDBRANCH   6  13
BRANCH   5  18
ATOM     18  N   LIG d   1       0.651  78.254 115.541  0.00  0.00     0.381 N 
ATOM     19  H   LIG d   1       1.203  78.270 114.707  0.00  0.00    -0.090 HD
ATOM     20  H   LIG d   1       0.783  77.365 115.990  0.00  0.00    -0.090 HD
ATOM     21  H   LIG d   1       0.937  78.988 116.151  0.00  0.00    -0.090 HD
ENDBRANCH   5  18
BRANCH   3  22
ATOM     22  C   LIG d   1      -2.473  80.301 112.542  0.00  0.00     0.382 C 
ATOM     23  O   LIG d   1      -1.577  80.859 111.864  0.00  0.00    -0.241 OA
ATOM     24  O   LIG d   1      -3.632  80.755 112.520  0.00  0.00    -0.241 OA
ENDBRANCH   3  22
TORSDOF 7
ENDMDL
MODEL 3
REMARK VINA RESULT:      -4.5      1.937      4.860
REMARK  7 active torsions:
REMARK  status: ('A' for Active; 'I' for Inactive)
REMARK    1  A    between atoms: C_2  and  C_3 
REMARK    2  A    between atoms: C_3  and  O_6 
REMARK    3  A    between atoms: C_3  and  C_4 
REMARK    4  A    between atoms: C_7  and  O_6 
REMARK    5  A    between atoms: C_9  and  C_10 
REMARK    6  A    between atoms: N_15  and  C_14 
REMARK    7  A    between atoms: N_20  and  C_19 
REMARK       I    between atoms: C_22  and  N_20 
ROOT
ATOM      1  C   LIG d   1      -1.249  75.257 115.124  0.00  0.00     0.161 C 
ATOM      2  C   LIG d   1      -0.748  74.912 116.391  0.00  0.00     0.016 C 
ATOM      3  C   LIG d   1      -0.150  75.843 117.270  0.00  0.00     0.038 C 
ATOM      4  C   LIG d   1      -0.148  77.221 117.003  0.00  0.00     0.028 C 
ATOM      5  C   LIG d   1      -0.189  77.549 115.514  0.00  0.00    -0.047 C 
ATOM      6  C   LIG d   1      -1.356  76.773 114.861  0.00  0.00     0.091 C 
ENDROOT
BRANCH   1   7
ATOM      7  O   LIG d   1      -2.525  74.620 114.914  0.00  0.00    -0.368 OA
BRANCH   7   8
ATOM      8  C   LIG d   1      -3.654  75.215 115.599  0.00  0.00     0.119 C 
BRANCH   8   9
ATOM      9  C   LIG d   1      -4.172  74.184 116.620  0.00  0.00     0.028 C 
ATOM     10  C   LIG d   1      -4.098  74.703 118.066  0.00  0.00     0.006 C 
ENDBRANCH   8   9
BRANCH   8  11
ATOM     11  C   LIG d   1      -4.823  75.457 114.639  0.00  0.00     0.028 C 
ATOM     12  C   LIG d   1      -5.668  74.196 114.399  0.00  0.00     0.006 C 
ENDBRANCH   8  11
ENDBRANCH   7   8
ENDBRANCH   1   7
BRANCH   6  13
ATOM     13  N   LIG d   1      -1.415  76.972 113.390  0.00  0.00    -0.311 N 
ATOM     14  C   LIG d   1      -2.366  77.681 112.783  0.00  0.00     0.210 C 
ATOM     15  C   LIG d   1      -2.252  77.743 111.257  0.00  0.00     0.109 C 
ATOM     16  O   LIG d   1      -3.274  78.291 113.367  0.00  0.00    -0.276 OA
ATOM     17  H   LIG d   1      -0.699  76.537 112.841  0.00  0.00     0.149 HD
ENDBRANCH   6  13
BRANCH   5  18
ATOM     18  N   LIG d   1      -0.322  79.012 115.384  0.00  0.00     0.381 N 
ATOM     19  H   LIG d   1       0.526  79.456 115.673  0.00  0.00    -0.090 HD
ATOM     20  H   LIG d   1      -1.063  79.326 115.985  0.00  0.00    -0.090 HD
ATOM     21  H   LIG d   1      -0.526  79.253 114.439  0.00  0.00    -0.090 HD
ENDBRANCH   5  18
BRANCH   3  22
ATOM     22  C   LIG d   1       0.491  75.394 118.415  0.00  0.00     0.382 C 
ATOM     23  O   LIG d   1       0.480  76.094 119.456  0.00  0.00    -0.241 OA
ATOM     24  O   LIG d   1       1.118  74.318 118.406  0.00  0.00    -0.241 OA
ENDBRANCH   3  22
TORSDOF 7
ENDMDL
MODEL 4
REMARK VINA RESULT:      -4.4      2.782      3.274
REMARK  7 active torsions:
REMARK  status: ('A' for Active; 'I' for Inactive)
REMARK    1  A    between atoms: C_2  and  C_3 
REMARK    2  A    between atoms: C_3  and  O_6 
REMARK    3  A    between atoms: C_3  and  C_4 
REMARK    4  A    between atoms: C_7  and  O_6 
REMARK    5  A    between atoms: C_9  and  C_10 
REMARK    6  A    between atoms: N_15  and  C_14 
REMARK    7  A    between atoms: N_20  and  C_19 
REMARK       I    between atoms: C_22  and  N_20 
ROOT
ATOM      1  C   LIG d   1      -3.089  78.538 115.756  0.00  0.00     0.161 C 
ATOM      2  C   LIG d   1      -3.144  79.440 114.681  0.00  0.00     0.016 C 
ATOM      3  C   LIG d   1      -2.460  79.237 113.460  0.00  0.00     0.038 C 
ATOM      4  C   LIG d   1      -1.793  78.037 113.174  0.00  0.00     0.028 C 
ATOM      5  C   LIG d   1      -1.290  77.312 114.418  0.00  0.00    -0.047 C 
ATOM      6  C   LIG d   1      -2.457  77.170 115.422  0.00  0.00     0.091 C 
ENDROOT
BRANCH   1   7
ATOM      7  O   LIG d   1      -4.408  78.358 116.310  0.00  0.00    -0.368 OA
BRANCH   7   8
ATOM      8  C   LIG d   1      -4.870  79.398 117.207  0.00  0.00     0.119 C 
BRANCH   8   9
ATOM      9  C   LIG d   1      -4.155  79.196 118.557  0.00  0.00     0.028 C 
ATOM     10  C   LIG d   1      -3.550  80.500 119.102  0.00  0.00     0.006 C 
ENDBRANCH   8   9
BRANCH   8  11
ATOM     11  C   LIG d   1      -6.363  79.248 117.512  0.00  0.00     0.028 C 
ATOM     12  C   LIG d   1      -7.068  80.598 117.719  0.00  0.00     0.006 C 
ENDBRANCH   8  11
ENDBRANCH   7   8
ENDBRANCH   1   7
BRANCH   6  13
ATOM     13  N   LIG d   1      -2.031  76.547 116.702  0.00  0.00    -0.311 N 
ATOM     14  C   LIG d   1      -2.135  75.243 116.954  0.00  0.00     0.210 C 
ATOM     15  C   LIG d   1      -1.655  74.812 118.343  0.00  0.00     0.109 C 
ATOM     16  O   LIG d   1      -2.549  74.398 116.146  0.00  0.00    -0.276 OA
ATOM     17  H   LIG d   1      -1.654  77.156 117.403  0.00  0.00     0.149 HD
ENDBRANCH   6  13
BRANCH   5  18
ATOM     18  N   LIG d   1      -0.738  76.015 113.986  0.00  0.00     0.381 N 
ATOM     19  H   LIG d   1      -0.973  75.307 114.654  0.00  0.00    -0.090 HD
ATOM     20  H   LIG d   1       0.263  76.086 113.941  0.00  0.00    -0.090 HD
ATOM     21  H   LIG d   1      -1.102  75.770 113.091  0.00  0.00    -0.090 HD
ENDBRANCH   5  18
BRANCH   3  22
ATOM     22  C   LIG d   1      -2.407  80.259 112.525  0.00  0.00     0.382 C 
ATOM     23  O   LIG d   1      -3.360  81.069 112.426  0.00  0.00    -0.241 OA
ATOM     24  O   LIG d   1      -1.438  80.355 111.748  0.00  0.00    -0.241 OA
ENDBRANCH   3  22
TORSDOF 7
ENDMDL
MODEL 5
REMARK VINA RESULT:      -4.2      2.975      5.652
REMARK  7 active torsions:
REMARK  status: ('A' for Active; 'I' for Inactive)
REMARK    1  A    between atoms: C_2  and  C_3 
REMARK    2  A    between atoms: C_3  and  O_6 
REMARK    3  A    between atoms: C_3  and  C_4 
REMARK    4  A    between atoms: C_7  and  O_6 
REMARK    5  A    between atoms: C_9  and  C_10 
REMARK    6  A    between atoms: N_15  and  C_14 
REMARK    7  A    between atoms: N_20  and  C_19 
REMARK       I    between atoms: C_22  and  N_20 
ROOT
ATOM      1  C   LIG d   1      -1.357  79.464 114.103  0.00  0.00     0.161 C 
ATOM      2  C   LIG d   1      -2.265  78.402 114.246  0.00  0.00     0.016 C 
ATOM      3  C   LIG d   1      -2.708  77.606 113.165  0.00  0.00     0.038 C 
ATOM      4  C   LIG d   1      -2.154  77.724 111.882  0.00  0.00     0.028 C 
ATOM      5  C   LIG d   1      -1.606  79.116 111.584  0.00  0.00    -0.047 C 
ATOM      6  C   LIG d   1      -0.657  79.536 112.730  0.00  0.00     0.091 C 
ENDROOT
BRANCH   1   7
ATOM      7  O   LIG d   1      -0.380  79.418 115.162  0.00  0.00    -0.368 OA
BRANCH   7   8
ATOM      8  C   LIG d   1      -0.719  78.598 116.307  0.00  0.00     0.119 C 
BRANCH   8   9
ATOM      9  C   LIG d   1      -0.780  79.525 117.537  0.00  0.00     0.028 C 
ATOM     10  C   LIG d   1      -0.620  78.756 118.860  0.00  0.00     0.006 C 
ENDBRANCH   8   9
BRANCH   8  11
ATOM     11  C   LIG d   1       0.388  77.586 116.616  0.00  0.00     0.028 C 
ATOM     12  C   LIG d   1       0.031  76.159 116.172  0.00  0.00     0.006 C 
ENDBRANCH   8  11
ENDBRANCH   7   8
ENDBRANCH   1   7
BRANCH   6  13
ATOM     13  N   LIG d   1      -0.142  80.920 112.560  0.00  0.00    -0.311 N 
ATOM     14  C   LIG d   1       0.981  81.209 111.904  0.00  0.00     0.210 C 
ATOM     15  C   LIG d   1       1.341  82.697 111.864  0.00  0.00     0.109 C 
ATOM     16  O   LIG d   1       1.695  80.377 111.325  0.00  0.00    -0.276 OA
ATOM     17  H   LIG d   1      -0.676  81.660 112.972  0.00  0.00     0.149 HD
ENDBRANCH   6  13
BRANCH   5  18
ATOM     18  N   LIG d   1      -0.937  79.060 110.271  0.00  0.00     0.381 N 
ATOM     19  H   LIG d   1      -0.996  78.132 109.900  0.00  0.00    -0.090 HD
ATOM     20  H   LIG d   1       0.034  79.289 110.390  0.00  0.00    -0.090 HD
ATOM     21  H   LIG d   1      -1.363  79.705 109.643  0.00  0.00    -0.090 HD
ENDBRANCH   5  18
BRANCH   3  22
ATOM     22  C   LIG d   1      -3.746  76.707 113.354  0.00  0.00     0.382 C 
ATOM     23  O   LIG d   1      -3.702  75.889 114.304  0.00  0.00    -0.241 OA
ATOM     24  O   LIG d   1      -4.706  76.673 112.561  0.00  0.00    -0.241 OA
ENDBRANCH   3  22
TORSDOF 7
ENDMDL
MODEL 6
REMARK VINA RESULT:      -4.2      3.279      4.525
REMARK  7 active torsions:
REMARK  status: ('A' for Active; 'I' for Inactive)
REMARK    1  A    between atoms: C_2  and  C_3 
REMARK    2  A    between atoms: C_3  and  O_6 
REMARK    3  A    between atoms: C_3  and  C_4 
REMARK    4  A    between atoms: C_7  and  O_6 
REMARK    5  A    between atoms: C_9  and  C_10 
REMARK    6  A    between atoms: N_15  and  C_14 
REMARK    7  A    between atoms: N_20  and  C_19 
REMARK       I    between atoms: C_22  and  N_20 
ROOT
ATOM      1  C   LIG d   1      -4.052  77.844 116.831  0.00  0.00     0.161 C 
ATOM      2  C   LIG d   1      -3.179  78.797 117.382  0.00  0.00     0.016 C 
ATOM      3  C   LIG d   1      -1.835  78.950 116.972  0.00  0.00     0.038 C 
ATOM      4  C   LIG d   1      -1.312  78.256 115.870  0.00  0.00     0.028 C 
ATOM      5  C   LIG d   1      -2.005  76.922 115.610  0.00  0.00    -0.047 C 
ATOM      6  C   LIG d   1      -3.533  77.154 115.553  0.00  0.00     0.091 C 
ENDROOT
BRANCH   1   7
ATOM      7  O   LIG d   1      -5.340  78.443 116.589  0.00  0.00    -0.368 OA
BRANCH   7   8
ATOM      8  C   LIG d   1      -6.362  78.181 117.582  0.00  0.00     0.119 C 
BRANCH   8   9
ATOM      9  C   LIG d   1      -7.281  77.078 117.021  0.00  0.00     0.028 C 
ATOM     10  C   LIG d   1      -7.067  75.725 117.718  0.00  0.00     0.006 C 
ENDBRANCH   8   9
BRANCH   8  11
ATOM     11  C   LIG d   1      -7.267  79.399 117.786  0.00  0.00     0.028 C 
ATOM     12  C   LIG d   1      -6.517  80.731 117.634  0.00  0.00     0.006 C 
ENDBRANCH   8  11
ENDBRANCH   7   8
ENDBRANCH   1   7
BRANCH   6  13
ATOM     13  N   LIG d   1      -4.292  75.887 115.385  0.00  0.00    -0.311 N 
ATOM     14  C   LIG d   1      -4.951  75.569 114.272  0.00  0.00     0.210 C 
ATOM     15  C   LIG d   1      -5.684  74.224 114.317  0.00  0.00     0.109 C 
ATOM     16  O   LIG d   1      -4.971  76.257 113.241  0.00  0.00    -0.276 OA
ATOM     17  H   LIG d   1      -4.303  75.256 116.162  0.00  0.00     0.149 HD
ENDBRANCH   6  13
BRANCH   5  18
ATOM     18  N   LIG d   1      -1.457  76.372 114.356  0.00  0.00     0.381 N 
ATOM     19  H   LIG d   1      -1.186  75.419 114.495  0.00  0.00    -0.090 HD
ATOM     20  H   LIG d   1      -0.640  76.898 114.100  0.00  0.00    -0.090 HD
ATOM     21  H   LIG d   1      -2.138  76.429 113.632  0.00  0.00    -0.090 HD
ENDBRANCH   5  18
BRANCH   3  22
ATOM     22  C   LIG d   1      -0.986  79.776 117.692  0.00  0.00     0.382 C 
ATOM     23  O   LIG d   1      -1.344  80.223 118.808  0.00  0.00    -0.241 OA
ATOM     24  O   LIG d   1       0.116  80.116 117.220  0.00  0.00    -0.241 OA
ENDBRANCH   3  22
TORSDOF 7
ENDMDL
MODEL 7
REMARK VINA RESULT:      -4.1      1.408      2.028
REMARK  7 active torsions:
REMARK  status: ('A' for Active; 'I' for Inactive)
REMARK    1  A    between atoms: C_2  and  C_3 
REMARK    2  A    between atoms: C_3  and  O_6 
REMARK    3  A    between atoms: C_3  and  C_4 
REMARK    4  A    between atoms: C_7  and  O_6 
REMARK    5  A    between atoms: C_9  and  C_10 
REMARK    6  A    between atoms: N_15  and  C_14 
REMARK    7  A    between atoms: N_20  and  C_19 
REMARK       I    between atoms: C_22  and  N_20 
ROOT
ATOM      1  C   LIG d   1      -3.010  76.217 115.106  0.00  0.00     0.161 C 
ATOM      2  C   LIG d   1      -3.212  77.174 114.098  0.00  0.00     0.016 C 
ATOM      3  C   LIG d   1      -2.263  78.169 113.768  0.00  0.00     0.038 C 
ATOM      4  C   LIG d   1      -0.975  78.179 114.325  0.00  0.00     0.028 C 
ATOM      5  C   LIG d   1      -0.909  77.540 115.708  0.00  0.00    -0.047 C 
ATOM      6  C   LIG d   1      -1.567  76.143 115.648  0.00  0.00     0.091 C 
ENDROOT
BRANCH   1   7
ATOM      7  O   LIG d   1      -3.438  74.921 114.641  0.00  0.00    -0.368 OA
BRANCH   7   8
ATOM      8  C   LIG d   1      -4.634  74.385 115.259  0.00  0.00     0.119 C 
BRANCH   8   9
ATOM      9  C   LIG d   1      -5.756  74.421 114.203  0.00  0.00     0.028 C 
ATOM     10  C   LIG d   1      -6.732  75.589 114.423  0.00  0.00     0.006 C 
ENDBRANCH   8   9
BRANCH   8  11
ATOM     11  C   LIG d   1      -5.122  75.283 116.400  0.00  0.00     0.028 C 
ATOM     12  C   LIG d   1      -5.271  74.528 117.730  0.00  0.00     0.006 C 
ENDBRANCH   8  11
ENDBRANCH   7   8
ENDBRANCH   1   7
BRANCH   6  13
ATOM     13  N   LIG d   1      -1.619  75.483 116.978  0.00  0.00    -0.311 N 
ATOM     14  C   LIG d   1      -1.907  76.130 118.106  0.00  0.00     0.210 C 
ATOM     15  C   LIG d   1      -1.888  75.265 119.371  0.00  0.00     0.109 C 
ATOM     16  O   LIG d   1      -2.208  77.331 118.176  0.00  0.00    -0.276 OA
ATOM     17  H   LIG d   1      -1.419  74.503 117.010  0.00  0.00     0.149 HD
ENDBRANCH   6  13
BRANCH   5  18
ATOM     18  N   LIG d   1       0.510  77.494 116.110  0.00  0.00     0.381 N 
ATOM     19  H   LIG d   1       1.040  78.138 115.557  0.00  0.00    -0.090 HD
ATOM     20  H   LIG d   1       0.865  76.569 115.943  0.00  0.00    -0.090 HD
ATOM     21  H   LIG d   1       0.599  77.722 117.075  0.00  0.00    -0.090 HD
ENDBRANCH   5  18
BRANCH   3  22
ATOM     22  C   LIG d   1      -2.613  79.192 112.900  0.00  0.00     0.382 C 
ATOM     23  O   LIG d   1      -2.145  79.215 111.736  0.00  0.00    -0.241 OA
ATOM     24  O   LIG d   1      -3.356  80.116 113.280  0.00  0.00    -0.241 OA
ENDBRANCH   3  22
TORSDOF 7
ENDMDL
MODEL 8
REMARK VINA RESULT:      -4.0      1.815      2.069
REMARK  7 active torsions:
REMARK  status: ('A' for Active; 'I' for Inactive)
REMARK    1  A    between atoms: C_2  and  C_3 
REMARK    2  A    between atoms: C_3  and  O_6 
REMARK    3  A    between atoms: C_3  and  C_4 
REMARK    4  A    between atoms: C_7  and  O_6 
REMARK    5  A    between atoms: C_9  and  C_10 
REMARK    6  A    between atoms: N_15  and  C_14 
REMARK    7  A    between atoms: N_20  and  C_19 
REMARK       I    between atoms: C_22  and  N_20 
ROOT
ATOM      1  C   LIG d   1      -3.335  76.128 115.699  0.00  0.00     0.161 C 
ATOM      2  C   LIG d   1      -3.510  77.188 114.795  0.00  0.00     0.016 C 
ATOM      3  C   LIG d   1      -2.527  77.581 113.857  0.00  0.00     0.038 C 
ATOM      4  C   LIG d   1      -1.354  76.838 113.657  0.00  0.00     0.028 C 
ATOM      5  C   LIG d   1      -0.912  76.060 114.892  0.00  0.00    -0.047 C 
ATOM      6  C   LIG d   1      -2.107  75.236 115.421  0.00  0.00     0.091 C 
ENDROOT
BRANCH   1   7
ATOM      7  O   LIG d   1      -4.534  75.328 115.752  0.00  0.00    -0.368 OA
BRANCH   7   8
ATOM      8  C   LIG d   1      -5.735  75.945 115.226  0.00  0.00     0.119 C 
BRANCH   8   9
ATOM      9  C   LIG d   1      -6.844  75.771 116.281  0.00  0.00     0.028 C 
ATOM     10  C   LIG d   1      -7.173  74.292 116.549  0.00  0.00     0.006 C 
ENDBRANCH   8   9
BRANCH   8  11
ATOM     11  C   LIG d   1      -6.240  75.209 113.981  0.00  0.00     0.028 C 
ATOM     12  C   LIG d   1      -7.282  76.018 113.194  0.00  0.00     0.006 C 
ENDBRANCH   8  11
ENDBRANCH   7   8
ENDBRANCH   1   7
BRANCH   6  13
ATOM     13  N   LIG d   1      -1.784  74.510 116.677  0.00  0.00    -0.311 N 
ATOM     14  C   LIG d   1      -1.376  75.117 117.790  0.00  0.00     0.210 C 
ATOM     15  C   LIG d   1      -1.078  74.180 118.965  0.00  0.00     0.109 C 
ATOM     16  O   LIG d   1      -1.264  76.345 117.925  0.00  0.00    -0.276 OA
ATOM     17  H   LIG d   1      -1.878  73.513 116.665  0.00  0.00     0.149 HD
ENDBRANCH   6  13
BRANCH   5  18
ATOM     18  N   LIG d   1       0.240  75.225 114.504  0.00  0.00     0.381 N 
ATOM     19  H   LIG d   1       0.710  74.893 115.323  0.00  0.00    -0.090 HD
ATOM     20  H   LIG d   1       0.886  75.786 113.976  0.00  0.00    -0.090 HD
ATOM     21  H   LIG d   1      -0.068  74.454 113.953  0.00  0.00    -0.090 HD
ENDBRANCH   5  18
BRANCH   3  22
ATOM     22  C   LIG d   1      -2.696  78.753 113.135  0.00  0.00     0.382 C 
ATOM     23  O   LIG d   1      -2.209  78.855 111.983  0.00  0.00    -0.241 OA
ATOM     24  O   LIG d   1      -3.290  79.725 113.638  0.00  0.00    -0.241 OA
ENDBRANCH   3  22
TORSDOF 7
ENDMDL
MODEL 9
REMARK VINA RESULT:      -3.9      2.254      5.032
REMARK  7 active torsions:
REMARK  status: ('A' for Active; 'I' for Inactive)
REMARK    1  A    between atoms: C_2  and  C_3 
REMARK    2  A    between atoms: C_3  and  O_6 
REMARK    3  A    between atoms: C_3  and  C_4 
REMARK    4  A    between atoms: C_7  and  O_6 
REMARK    5  A    between atoms: C_9  and  C_10 
REMARK    6  A    between atoms: N_15  and  C_14 
REMARK    7  A    between atoms: N_20  and  C_19 
REMARK       I    between atoms: C_22  and  N_20 
ROOT
ATOM      1  C   LIG d   1      -3.286  75.509 114.792  0.00  0.00     0.161 C 
ATOM      2  C   LIG d   1      -4.604  75.765 114.378  0.00  0.00     0.016 C 
ATOM      3  C   LIG d   1      -5.715  75.730 115.252  0.00  0.00     0.038 C 
ATOM      4  C   LIG d   1      -5.562  75.583 116.639  0.00  0.00     0.028 C 
ATOM      5  C   LIG d   1      -4.302  74.819 117.032  0.00  0.00    -0.047 C 
ATOM      6  C   LIG d   1      -3.087  75.456 116.321  0.00  0.00     0.091 C 
ENDROOT
BRANCH   1   7
ATOM      7  O   LIG d   1      -2.393  76.475 114.203  0.00  0.00    -0.368 OA
BRANCH   7   8
ATOM      8  C   LIG d   1      -2.801  77.862 114.298  0.00  0.00     0.119 C 
BRANCH   8   9
ATOM      9  C   LIG d   1      -2.493  78.529 112.943  0.00  0.00     0.028 C 
ATOM     10  C   LIG d   1      -2.585  77.541 111.768  0.00  0.00     0.006 C 
ENDBRANCH   8   9
BRANCH   8  11
ATOM     11  C   LIG d   1      -1.958  78.622 115.326  0.00  0.00     0.028 C 
ATOM     12  C   LIG d   1      -0.502  78.132 115.381  0.00  0.00     0.006 C 
ENDBRANCH   8  11
ENDBRANCH   7   8
ENDBRANCH   1   7
BRANCH   6  13
ATOM     13  N   LIG d   1      -1.824  74.718 116.584  0.00  0.00    -0.311 N 
ATOM     14  C   LIG d   1      -0.957  75.064 117.534  0.00  0.00     0.210 C 
ATOM     15  C   LIG d   1       0.291  74.180 117.624  0.00  0.00     0.109 C 
ATOM     16  O   LIG d   1      -1.117  76.001 118.331  0.00  0.00    -0.276 OA
ATOM     17  H   LIG d   1      -1.630  73.925 116.004  0.00  0.00     0.149 HD
ENDBRANCH   6  13
BRANCH   5  18
ATOM     18  N   LIG d   1      -4.197  74.859 118.503  0.00  0.00     0.381 N 
ATOM     19  H   LIG d   1      -4.597  74.029 118.894  0.00  0.00    -0.090 HD
ATOM     20  H   LIG d   1      -4.716  75.649 118.845  0.00  0.00    -0.090 HD
ATOM     21  H   LIG d   1      -3.242  74.937 118.775  0.00  0.00    -0.090 HD
ENDBRANCH   5  18
BRANCH   3  22
ATOM     22  C   LIG d   1      -6.999  75.802 114.735  0.00  0.00     0.382 C 
ATOM     23  O   LIG d   1      -7.984  75.528 115.462  0.00  0.00    -0.241 OA
ATOM     24  O   LIG d   1      -7.183  76.096 113.539  0.00  0.00    -0.241 OA
ENDBRANCH   3  22
TORSDOF 7
ENDMDL
