MODEL 1
REMARK VINA RESULT:      -4.9      0.000      0.000
REMARK  7 active torsions:
REMARK  status: ('A' for Active; 'I' for Inactive)
REMARK    1  A    between atoms: C_2  and  C_3 
REMARK    2  A    between atoms: C_3  and  O_6 
REMARK    3  A    between atoms: C_3  and  C_4 
REMARK    4  A    between atoms: C_7  and  O_6 
REMARK    5  A    between atoms: C_9  and  C_10 
REMARK    6  A    between atoms: N_15  and  C_14 
REMARK    7  A    between atoms: N_20  and  C_19 
REMARK       I    between atoms: C_22  and  N_20 
ROOT
ATOM      1  C   LIG d   1      -3.669  77.799 116.713  0.00  0.00     0.161 C 
ATOM      2  C   LIG d   1      -2.945  78.697 117.514  0.00  0.00     0.016 C 
ATOM      3  C   LIG d   1      -1.613  79.082 117.243  0.00  0.00     0.038 C 
ATOM      4  C   LIG d   1      -0.960  78.710 116.058  0.00  0.00     0.028 C 
ATOM      5  C   LIG d   1      -1.472  77.399 115.471  0.00  0.00    -0.047 C 
ATOM      6  C   LIG d   1      -3.012  77.468 115.356  0.00  0.00     0.091 C 
ENDROOT
BRANCH   1   7
ATOM      7  O   LIG d   1      -5.009  78.292 116.514  0.00  0.00    -0.368 OA
BRANCH   7   8
ATOM      8  C   LIG d   1      -6.028  77.736 117.380  0.00  0.00     0.119 C 
BRANCH   8   9
ATOM      9  C   LIG d   1      -6.755  76.630 116.591  0.00  0.00     0.028 C 
ATOM     10  C   LIG d   1      -6.376  75.220 117.073  0.00  0.00     0.006 C 
ENDBRANCH   8   9
BRANCH   8  11
ATOM     11  C   LIG d   1      -7.106  78.774 117.710  0.00  0.00     0.028 C 
ATOM     12  C   LIG d   1      -6.596  80.219 117.597  0.00  0.00     0.006 C 
ENDBRANCH   8  11
ENDBRANCH   7   8
ENDBRANCH   1   7
BRANCH   6  13
ATOM     13  N   LIG d   1      -3.602  76.194 114.869  0.00  0.00    -0.311 N 
ATOM     14  C   LIG d   1      -3.955  75.987 113.601  0.00  0.00     0.210 C 
ATOM     15  C   LIG d   1      -4.563  74.610 113.316  0.00  0.00     0.109 C 
ATOM     16  O   LIG d   1      -3.791  76.801 112.680  0.00  0.00    -0.276 OA
ATOM     17  H   LIG d   1      -3.741  75.468 115.544  0.00  0.00     0.149 HD
ENDBRANCH   6  13
BRANCH   5  18
ATOM     18  N   LIG d   1      -0.804  77.201 114.171  0.00  0.00     0.381 N 
ATOM     19  H   LIG d   1      -0.673  76.224 114.002  0.00  0.00    -0.090 HD
ATOM     20  H   LIG d   1       0.100  77.640 114.200  0.00  0.00    -0.090 HD
ATOM     21  H   LIG d   1      -1.352  77.602 113.441  0.00  0.00    -0.090 HD
ENDBRANCH   5  18
BRANCH   3  22
ATOM     22  C   LIG d   1      -0.905  79.817 118.181  0.00  0.00     0.382 C 
ATOM     23  O   LIG d   1      -0.130  80.731 117.808  0.00  0.00    -0.241 OA
ATOM     24  O   LIG d   1      -0.997  79.549 119.394  0.00  0.00    -0.241 OA
ENDBRANCH   3  22
TORSDOF 7
ENDMDL
MODEL 2
REMARK VINA RESULT:      -4.9      3.214      4.464
REMARK  7 active torsions:
REMARK  status: ('A' for Active; 'I' for Inactive)
REMARK    1  A    between atoms: C_2  and  C_3 
REMARK    2  A    between atoms: C_3  and  O_6 
REMARK    3  A    between atoms: C_3  and  C_4 
REMARK    4  A    between atoms: C_7  and  O_6 
REMARK    5  A    between atoms: C_9  and  C_10 
REMARK    6  A    between atoms: N_15  and  C_14 
REMARK    7  A    between atoms: N_20  and  C_19 
REMARK       I    between atoms: C_22  and  N_20 
ROOT
ATOM      1  C   LIG d   1      -2.707  77.094 114.384  0.00  0.00     0.161 C 
ATOM      2  C   LIG d   1      -2.801  78.100 113.408  0.00  0.00     0.016 C 
ATOM      3  C   LIG d   1      -1.967  79.241 113.384  0.00  0.00     0.038 C 
ATOM      4  C   LIG d   1      -0.875  79.380 114.254  0.00  0.00     0.028 C 
ATOM      5  C   LIG d   1      -1.054  78.636 115.573  0.00  0.00    -0.047 C 
ATOM      6  C   LIG d   1      -1.450  77.172 115.275  0.00  0.00     0.091 C 
ENDROOT
BRANCH   1   7
ATOM      7  O   LIG d   1      -2.799  75.798 113.760  0.00  0.00    -0.368 OA
BRANCH   7   8
ATOM      8  C   LIG d   1      -3.965  75.008 114.099  0.00  0.00     0.119 C 
BRANCH   8   9
ATOM      9  C   LIG d   1      -4.809  74.855 112.819  0.00  0.00     0.028 C 
ATOM     10  C   LIG d   1      -5.803  76.013 112.629  0.00  0.00     0.006 C 
ENDBRANCH   8   9
BRANCH   8  11
ATOM     11  C   LIG d   1      -4.867  75.745 115.094  0.00  0.00     0.028 C 
ATOM     12  C   LIG d   1      -5.115  74.943 116.381  0.00  0.00     0.006 C 
ENDBRANCH   8  11
ENDBRANCH   7   8
ENDBRANCH   1   7
BRANCH   6  13
ATOM     13  N   LIG d   1      -1.726  76.396 116.512  0.00  0.00    -0.311 N 
ATOM     14  C   LIG d   1      -1.280  75.158 116.715  0.00  0.00     0.210 C 
ATOM     15  C   LIG d   1      -1.696  74.532 118.050  0.00  0.00     0.109 C 
ATOM     16  O   LIG d   1      -0.553  74.530 115.931  0.00  0.00    -0.276 OA
ATOM     17  H   LIG d   1      -2.283  76.841 117.215  0.00  0.00     0.149 HD
ENDBRANCH   6  13
BRANCH   5  18
ATOM     18  N   LIG d   1       0.211  78.751 116.324  0.00  0.00     0.381 N 
ATOM     19  H   LIG d   1       0.443  77.869 116.734  0.00  0.00    -0.090 HD
ATOM     20  H   LIG d   1       0.090  79.420 117.064  0.00  0.00    -0.090 HD
ATOM     21  H   LIG d   1       0.943  79.046 115.716  0.00  0.00    -0.090 HD
ENDBRANCH   5  18
BRANCH   3  22
ATOM     22  C   LIG d   1      -2.247  80.279 112.508  0.00  0.00     0.382 C 
ATOM     23  O   LIG d   1      -1.365  80.684 111.713  0.00  0.00    -0.241 OA
ATOM     24  O   LIG d   1      -3.357  80.845 112.533  0.00  0.00    -0.241 OA
ENDBRANCH   3  22
TORSDOF 7
ENDMDL
MODEL 3
REMARK VINA RESULT:      -4.8      2.734      4.542
REMARK  7 active torsions:
REMARK  status: ('A' for Active; 'I' for Inactive)
REMARK    1  A    between atoms: C_2  and  C_3 
REMARK    2  A    between atoms: C_3  and  O_6 
REMARK    3  A    between atoms: C_3  and  C_4 
REMARK    4  A    between atoms: C_7  and  O_6 
REMARK    5  A    between atoms: C_9  and  C_10 
REMARK    6  A    between atoms: N_15  and  C_14 
REMARK    7  A    between atoms: N_20  and  C_19 
REMARK       I    between atoms: C_22  and  N_20 
ROOT
ATOM      1  C   LIG d   1      -2.488  76.216 116.513  0.00  0.00     0.161 C 
ATOM      2  C   LIG d   1      -2.808  77.107 115.475  0.00  0.00     0.016 C 
ATOM      3  C   LIG d   1      -2.189  77.074 114.204  0.00  0.00     0.038 C 
ATOM      4  C   LIG d   1      -1.310  76.046 113.833  0.00  0.00     0.028 C 
ATOM      5  C   LIG d   1      -0.577  75.420 115.015  0.00  0.00    -0.047 C 
ATOM      6  C   LIG d   1      -1.612  75.019 116.091  0.00  0.00     0.091 C 
ENDROOT
BRANCH   1   7
ATOM      7  O   LIG d   1      -3.696  75.754 117.150  0.00  0.00    -0.368 OA
BRANCH   7   8
ATOM      8  C   LIG d   1      -4.920  75.923 116.393  0.00  0.00     0.119 C 
BRANCH   8   9
ATOM      9  C   LIG d   1      -6.048  76.227 117.398  0.00  0.00     0.028 C 
ATOM     10  C   LIG d   1      -6.727  74.951 117.923  0.00  0.00     0.006 C 
ENDBRANCH   8   9
BRANCH   8  11
ATOM     11  C   LIG d   1      -5.333  74.619 115.703  0.00  0.00     0.028 C 
ATOM     12  C   LIG d   1      -5.137  74.662 114.180  0.00  0.00     0.006 C 
ENDBRANCH   8  11
ENDBRANCH   7   8
ENDBRANCH   1   7
BRANCH   6  13
ATOM     13  N   LIG d   1      -0.973  74.475 117.318  0.00  0.00    -0.311 N 
ATOM     14  C   LIG d   1      -0.073  75.146 118.034  0.00  0.00     0.210 C 
ATOM     15  C   LIG d   1       0.477  74.395 119.251  0.00  0.00     0.109 C 
ATOM     16  O   LIG d   1       0.299  76.305 117.796  0.00  0.00    -0.276 OA
ATOM     17  H   LIG d   1      -1.240  73.553 117.601  0.00  0.00     0.149 HD
ENDBRANCH   6  13
BRANCH   5  18
ATOM     18  N   LIG d   1       0.198  74.275 114.503  0.00  0.00     0.381 N 
ATOM     19  H   LIG d   1      -0.083  73.438 114.973  0.00  0.00    -0.090 HD
ATOM     20  H   LIG d   1       1.173  74.431 114.693  0.00  0.00    -0.090 HD
ATOM     21  H   LIG d   1       0.055  74.178 113.522  0.00  0.00    -0.090 HD
ENDBRANCH   5  18
BRANCH   3  22
ATOM     22  C   LIG d   1      -2.418  78.102 113.302  0.00  0.00     0.382 C 
ATOM     23  O   LIG d   1      -2.634  79.266 113.718  0.00  0.00    -0.241 OA
ATOM     24  O   LIG d   1      -2.456  77.872 112.078  0.00  0.00    -0.241 OA
ENDBRANCH   3  22
TORSDOF 7
ENDMDL
MODEL 4
REMARK VINA RESULT:      -4.5      2.846      4.875
REMARK  7 active torsions:
REMARK  status: ('A' for Active; 'I' for Inactive)
REMARK    1  A    between atoms: C_2  and  C_3 
REMARK    2  A    between atoms: C_3  and  O_6 
REMARK    3  A    between atoms: C_3  and  C_4 
REMARK    4  A    between atoms: C_7  and  O_6 
REMARK    5  A    between atoms: C_9  and  C_10 
REMARK    6  A    between atoms: N_15  and  C_14 
REMARK    7  A    between atoms: N_20  and  C_19 
REMARK       I    between atoms: C_22  and  N_20 
ROOT
ATOM      1  C   LIG d   1      -3.219  76.111 116.812  0.00  0.00     0.161 C 
ATOM      2  C   LIG d   1      -3.870  76.016 115.571  0.00  0.00     0.016 C 
ATOM      3  C   LIG d   1      -3.187  75.834 114.346  0.00  0.00     0.038 C 
ATOM      4  C   LIG d   1      -1.808  75.582 114.296  0.00  0.00     0.028 C 
ATOM      5  C   LIG d   1      -1.042  76.172 115.475  0.00  0.00    -0.047 C 
ATOM      6  C   LIG d   1      -1.725  75.728 116.789  0.00  0.00     0.091 C 
ENDROOT
BRANCH   1   7
ATOM      7  O   LIG d   1      -3.923  75.326 117.794  0.00  0.00    -0.368 OA
BRANCH   7   8
ATOM      8  C   LIG d   1      -4.658  76.070 118.797  0.00  0.00     0.119 C 
BRANCH   8   9
ATOM      9  C   LIG d   1      -6.157  75.789 118.576  0.00  0.00     0.028 C 
ATOM     10  C   LIG d   1      -6.415  74.372 118.036  0.00  0.00     0.006 C 
ENDBRANCH   8   9
BRANCH   8  11
ATOM     11  C   LIG d   1      -4.495  77.580 118.602  0.00  0.00     0.028 C 
ATOM     12  C   LIG d   1      -5.820  78.285 118.272  0.00  0.00     0.006 C 
ENDBRANCH   8  11
ENDBRANCH   7   8
ENDBRANCH   1   7
BRANCH   6  13
ATOM     13  N   LIG d   1      -1.088  76.329 117.990  0.00  0.00    -0.311 N 
ATOM     14  C   LIG d   1      -0.164  75.706 118.719  0.00  0.00     0.210 C 
ATOM     15  C   LIG d   1       0.348  76.497 119.928  0.00  0.00     0.109 C 
ATOM     16  O   LIG d   1       0.305  74.587 118.462  0.00  0.00    -0.276 OA
ATOM     17  H   LIG d   1      -1.386  77.248 118.253  0.00  0.00     0.149 HD
ENDBRANCH   6  13
BRANCH   5  18
ATOM     18  N   LIG d   1       0.358  75.718 115.369  0.00  0.00     0.381 N 
ATOM     19  H   LIG d   1       0.947  76.306 115.924  0.00  0.00    -0.090 HD
ATOM     20  H   LIG d   1       0.651  75.791 114.411  0.00  0.00    -0.090 HD
ATOM     21  H   LIG d   1       0.434  74.773 115.676  0.00  0.00    -0.090 HD
ENDBRANCH   5  18
BRANCH   3  22
ATOM     22  C   LIG d   1      -3.881  75.943 113.150  0.00  0.00     0.382 C 
ATOM     23  O   LIG d   1      -4.477  74.946 112.678  0.00  0.00    -0.241 OA
ATOM     24  O   LIG d   1      -3.880  77.015 112.515  0.00  0.00    -0.241 OA
ENDBRANCH   3  22
TORSDOF 7
ENDMDL
MODEL 5
REMARK VINA RESULT:      -4.5      2.627      4.270
REMARK  7 active torsions:
REMARK  status: ('A' for Active; 'I' for Inactive)
REMARK    1  A    between atoms: C_2  and  C_3 
REMARK    2  A    between atoms: C_3  and  O_6 
REMARK    3  A    between atoms: C_3  and  C_4 
REMARK    4  A    between atoms: C_7  and  O_6 
REMARK    5  A    between atoms: C_9  and  C_10 
REMARK    6  A    between atoms: N_15  and  C_14 
REMARK    7  A    between atoms: N_20  and  C_19 
REMARK       I    between atoms: C_22  and  N_20 
ROOT
ATOM      1  C   LIG d   1      -1.868  78.260 116.312  0.00  0.00     0.161 C 
ATOM      2  C   LIG d   1      -2.318  78.986 115.196  0.00  0.00     0.016 C 
ATOM      3  C   LIG d   1      -2.242  78.502 113.870  0.00  0.00     0.038 C 
ATOM      4  C   LIG d   1      -1.846  77.188 113.582  0.00  0.00     0.028 C 
ATOM      5  C   LIG d   1      -0.908  76.595 114.628  0.00  0.00    -0.047 C 
ATOM      6  C   LIG d   1      -1.536  76.780 116.028  0.00  0.00     0.091 C 
ENDROOT
BRANCH   1   7
ATOM      7  O   LIG d   1      -2.829  78.362 117.381  0.00  0.00    -0.368 OA
BRANCH   7   8
ATOM      8  C   LIG d   1      -4.224  78.319 116.991  0.00  0.00     0.119 C 
BRANCH   8   9
ATOM      9  C   LIG d   1      -4.956  79.431 117.768  0.00  0.00     0.028 C 
ATOM     10  C   LIG d   1      -4.163  79.909 118.996  0.00  0.00     0.006 C 
ENDBRANCH   8   9
BRANCH   8  11
ATOM     11  C   LIG d   1      -4.887  77.012 117.434  0.00  0.00     0.028 C 
ATOM     12  C   LIG d   1      -6.065  76.607 116.535  0.00  0.00     0.006 C 
ENDBRANCH   8  11
ENDBRANCH   7   8
ENDBRANCH   1   7
BRANCH   6  13
ATOM     13  N   LIG d   1      -0.644  76.303 117.117  0.00  0.00    -0.311 N 
ATOM     14  C   LIG d   1      -0.731  75.088 117.656  0.00  0.00     0.210 C 
ATOM     15  C   LIG d   1       0.271  74.806 118.780  0.00  0.00     0.109 C 
ATOM     16  O   LIG d   1      -1.521  74.206 117.289  0.00  0.00    -0.276 OA
ATOM     17  H   LIG d   1       0.047  76.944 117.455  0.00  0.00     0.149 HD
ENDBRANCH   6  13
BRANCH   5  18
ATOM     18  N   LIG d   1      -0.686  75.179 114.277  0.00  0.00     0.381 N 
ATOM     19  H   LIG d   1      -0.099  75.119 113.469  0.00  0.00    -0.090 HD
ATOM     20  H   LIG d   1      -1.571  74.757 114.056  0.00  0.00    -0.090 HD
ATOM     21  H   LIG d   1      -0.262  74.701 115.041  0.00  0.00    -0.090 HD
ENDBRANCH   5  18
BRANCH   3  22
ATOM     22  C   LIG d   1      -2.526  79.351 112.811  0.00  0.00     0.382 C 
ATOM     23  O   LIG d   1      -2.073  79.102 111.668  0.00  0.00    -0.241 OA
ATOM     24  O   LIG d   1      -3.193  80.387 112.994  0.00  0.00    -0.241 OA
ENDBRANCH   3  22
TORSDOF 7
ENDMDL
MODEL 6
REMARK VINA RESULT:      -4.4      2.758      3.035
REMARK  7 active torsions:
REMARK  status: ('A' for Active; 'I' for Inactive)
REMARK    1  A    between atoms: C_2  and  C_3 
REMARK    2  A    between atoms: C_3  and  O_6 
REMARK    3  A    between atoms: C_3  and  C_4 
REMARK    4  A    between atoms: C_7  and  O_6 
REMARK    5  A    between atoms: C_9  and  C_10 
REMARK    6  A    between atoms: N_15  and  C_14 
REMARK    7  A    between atoms: N_20  and  C_19 
REMARK       I    between atoms: C_22  and  N_20 
ROOT
ATOM      1  C   LIG d   1      -2.900  75.321 117.037  0.00  0.00     0.161 C 
ATOM      2  C   LIG d   1      -1.844  75.277 117.961  0.00  0.00     0.016 C 
ATOM      3  C   LIG d   1      -0.484  75.412 117.597  0.00  0.00     0.038 C 
ATOM      4  C   LIG d   1      -0.097  75.753 116.292  0.00  0.00     0.028 C 
ATOM      5  C   LIG d   1      -1.095  75.310 115.228  0.00  0.00    -0.047 C 
ATOM      6  C   LIG d   1      -2.505  75.804 115.626  0.00  0.00     0.091 C 
ENDROOT
BRANCH   1   7
ATOM      7  O   LIG d   1      -3.974  76.129 117.560  0.00  0.00    -0.368 OA
BRANCH   7   8
ATOM      8  C   LIG d   1      -5.038  75.414 118.234  0.00  0.00     0.119 C 
BRANCH   8   9
ATOM      9  C   LIG d   1      -6.126  75.107 117.187  0.00  0.00     0.028 C 
ATOM     10  C   LIG d   1      -6.719  76.382 116.565  0.00  0.00     0.006 C 
ENDBRANCH   8   9
BRANCH   8  11
ATOM     11  C   LIG d   1      -5.724  76.295 119.283  0.00  0.00     0.028 C 
ATOM     12  C   LIG d   1      -4.764  77.307 119.930  0.00  0.00     0.006 C 
ENDBRANCH   8  11
ENDBRANCH   7   8
ENDBRANCH   1   7
BRANCH   6  13
ATOM     13  N   LIG d   1      -3.555  75.341 114.681  0.00  0.00    -0.311 N 
ATOM     14  C   LIG d   1      -3.957  76.049 113.627  0.00  0.00     0.210 C 
ATOM     15  C   LIG d   1      -5.065  75.397 112.794  0.00  0.00     0.109 C 
ATOM     16  O   LIG d   1      -3.478  77.140 113.284  0.00  0.00    -0.276 OA
ATOM     17  H   LIG d   1      -3.975  74.451 114.867  0.00  0.00     0.149 HD
ENDBRANCH   6  13
BRANCH   5  18
ATOM     18  N   LIG d   1      -0.637  75.849 113.934  0.00  0.00     0.381 N 
ATOM     19  H   LIG d   1      -0.280  75.107 113.365  0.00  0.00    -0.090 HD
ATOM     20  H   LIG d   1       0.107  76.504 114.101  0.00  0.00    -0.090 HD
ATOM     21  H   LIG d   1      -1.391  76.303 113.468  0.00  0.00    -0.090 HD
ENDBRANCH   5  18
BRANCH   3  22
ATOM     22  C   LIG d   1       0.506  75.165 118.535  0.00  0.00     0.382 C 
ATOM     23  O   LIG d   1       1.515  75.909 118.593  0.00  0.00    -0.241 OA
ATOM     24  O   LIG d   1       0.426  74.180 119.294  0.00  0.00    -0.241 OA
ENDBRANCH   3  22
TORSDOF 7
ENDMDL
MODEL 7
REMARK VINA RESULT:      -4.3      1.991      4.671
REMARK  7 active torsions:
REMARK  status: ('A' for Active; 'I' for Inactive)
REMARK    1  A    between atoms: C_2  and  C_3 
REMARK    2  A    between atoms: C_3  and  O_6 
REMARK    3  A    between atoms: C_3  and  C_4 
REMARK    4  A    between atoms: C_7  and  O_6 
REMARK    5  A    between atoms: C_9  and  C_10 
REMARK    6  A    between atoms: N_15  and  C_14 
REMARK    7  A    between atoms: N_20  and  C_19 
REMARK       I    between atoms: C_22  and  N_20 
ROOT
ATOM      1  C   LIG d   1      -2.818  76.943 116.473  0.00  0.00     0.161 C 
ATOM      2  C   LIG d   1      -3.645  76.448 115.451  0.00  0.00     0.016 C 
ATOM      3  C   LIG d   1      -3.152  75.777 114.308  0.00  0.00     0.038 C 
ATOM      4  C   LIG d   1      -1.801  75.421 114.181  0.00  0.00     0.028 C 
ATOM      5  C   LIG d   1      -0.858  76.343 114.947  0.00  0.00    -0.047 C 
ATOM      6  C   LIG d   1      -1.352  76.467 116.406  0.00  0.00     0.091 C 
ENDROOT
BRANCH   1   7
ATOM      7  O   LIG d   1      -3.389  76.630 117.758  0.00  0.00    -0.368 OA
BRANCH   7   8
ATOM      8  C   LIG d   1      -3.868  77.756 118.534  0.00  0.00     0.119 C 
BRANCH   8   9
ATOM      9  C   LIG d   1      -5.318  77.444 118.955  0.00  0.00     0.028 C 
ATOM     10  C   LIG d   1      -5.665  75.953 118.804  0.00  0.00     0.006 C 
ENDBRANCH   8   9
BRANCH   8  11
ATOM     11  C   LIG d   1      -3.959  79.024 117.679  0.00  0.00     0.028 C 
ATOM     12  C   LIG d   1      -5.404  79.508 117.482  0.00  0.00     0.006 C 
ENDBRANCH   8  11
ENDBRANCH   7   8
ENDBRANCH   1   7
BRANCH   6  13
ATOM     13  N   LIG d   1      -0.533  77.418 117.203  0.00  0.00    -0.311 N 
ATOM     14  C   LIG d   1      -0.338  78.688 116.853  0.00  0.00     0.210 C 
ATOM     15  C   LIG d   1       0.555  79.491 117.805  0.00  0.00     0.109 C 
ATOM     16  O   LIG d   1      -0.846  79.236 115.863  0.00  0.00    -0.276 OA
ATOM     17  H   LIG d   1      -0.109  77.066 118.039  0.00  0.00     0.149 HD
ENDBRANCH   6  13
BRANCH   5  18
ATOM     18  N   LIG d   1       0.500  75.778 114.841  0.00  0.00     0.381 N 
ATOM     19  H   LIG d   1       0.461  74.881 114.400  0.00  0.00    -0.090 HD
ATOM     20  H   LIG d   1       0.875  75.659 115.766  0.00  0.00    -0.090 HD
ATOM     21  H   LIG d   1       1.084  76.390 114.315  0.00  0.00    -0.090 HD
ENDBRANCH   5  18
BRANCH   3  22
ATOM     22  C   LIG d   1      -4.010  75.491 113.256  0.00  0.00     0.382 C 
ATOM     23  O   LIG d   1      -4.677  76.410 112.724  0.00  0.00    -0.241 OA
ATOM     24  O   LIG d   1      -4.158  74.318 112.863  0.00  0.00    -0.241 OA
ENDBRANCH   3  22
TORSDOF 7
ENDMDL
MODEL 8
REMARK VINA RESULT:      -4.2      1.051      2.109
REMARK  7 active torsions:
REMARK  status: ('A' for Active; 'I' for Inactive)
REMARK    1  A    between atoms: C_2  and  C_3 
REMARK    2  A    between atoms: C_3  and  O_6 
REMARK    3  A    between atoms: C_3  and  C_4 
REMARK    4  A    between atoms: C_7  and  O_6 
REMARK    5  A    between atoms: C_9  and  C_10 
REMARK    6  A    between atoms: N_15  and  C_14 
REMARK    7  A    between atoms: N_20  and  C_19 
REMARK       I    between atoms: C_22  and  N_20 
ROOT
ATOM      1  C   LIG d   1      -2.756  76.664 116.905  0.00  0.00     0.161 C 
ATOM      2  C   LIG d   1      -1.992  77.602 117.620  0.00  0.00     0.016 C 
ATOM      3  C   LIG d   1      -1.170  78.571 117.000  0.00  0.00     0.038 C 
ATOM      4  C   LIG d   1      -1.173  78.766 115.610  0.00  0.00     0.028 C 
ATOM      5  C   LIG d   1      -1.541  77.512 114.823  0.00  0.00    -0.047 C 
ATOM      6  C   LIG d   1      -2.858  76.933 115.389  0.00  0.00     0.091 C 
ENDROOT
BRANCH   1   7
ATOM      7  O   LIG d   1      -4.071  76.561 117.486  0.00  0.00    -0.368 OA
BRANCH   7   8
ATOM      8  C   LIG d   1      -5.092  77.411 116.907  0.00  0.00     0.119 C 
BRANCH   8   9
ATOM      9  C   LIG d   1      -5.544  78.400 117.998  0.00  0.00     0.028 C 
ATOM     10  C   LIG d   1      -5.648  79.843 117.477  0.00  0.00     0.006 C 
ENDBRANCH   8   9
BRANCH   8  11
ATOM     11  C   LIG d   1      -6.344  76.608 116.542  0.00  0.00     0.028 C 
ATOM     12  C   LIG d   1      -6.157  75.094 116.728  0.00  0.00     0.006 C 
ENDBRANCH   8  11
ENDBRANCH   7   8
ENDBRANCH   1   7
BRANCH   6  13
ATOM     13  N   LIG d   1      -3.246  75.658 114.731  0.00  0.00    -0.311 N 
ATOM     14  C   LIG d   1      -4.048  75.596 113.670  0.00  0.00     0.210 C 
ATOM     15  C   LIG d   1      -4.336  74.180 113.160  0.00  0.00     0.109 C 
ATOM     16  O   LIG d   1      -4.523  76.579 113.083  0.00  0.00    -0.276 OA
ATOM     17  H   LIG d   1      -2.880  74.813 115.123  0.00  0.00     0.149 HD
ENDBRANCH   6  13
BRANCH   5  18
ATOM     18  N   LIG d   1      -1.641  77.892 113.402  0.00  0.00     0.381 N 
ATOM     19  H   LIG d   1      -2.576  77.749 113.077  0.00  0.00    -0.090 HD
ATOM     20  H   LIG d   1      -1.028  77.304 112.865  0.00  0.00    -0.090 HD
ATOM     21  H   LIG d   1      -1.383  78.847 113.285  0.00  0.00    -0.090 HD
ENDBRANCH   5  18
BRANCH   3  22
ATOM     22  C   LIG d   1      -0.303  79.330 117.770  0.00  0.00     0.382 C 
ATOM     23  O   LIG d   1       0.111  78.888 118.868  0.00  0.00    -0.241 OA
ATOM     24  O   LIG d   1       0.036  80.471 117.400  0.00  0.00    -0.241 OA
ENDBRANCH   3  22
TORSDOF 7
ENDMDL
MODEL 9
REMARK VINA RESULT:      -4.2      3.341      5.219
REMARK  7 active torsions:
REMARK  status: ('A' for Active; 'I' for Inactive)
REMARK    1  A    between atoms: C_2  and  C_3 
REMARK    2  A    between atoms: C_3  and  O_6 
REMARK    3  A    between atoms: C_3  and  C_4 
REMARK    4  A    between atoms: C_7  and  O_6 
REMARK    5  A    between atoms: C_9  and  C_10 
REMARK    6  A    between atoms: N_15  and  C_14 
REMARK    7  A    between atoms: N_20  and  C_19 
REMARK       I    between atoms: C_22  and  N_20 
ROOT
ATOM      1  C   LIG d   1      -1.209  78.287 115.776  0.00  0.00     0.161 C 
ATOM      2  C   LIG d   1      -1.576  79.178 114.754  0.00  0.00     0.016 C 
ATOM      3  C   LIG d   1      -2.164  78.766 113.536  0.00  0.00     0.038 C 
ATOM      4  C   LIG d   1      -2.566  77.440 113.318  0.00  0.00     0.028 C 
ATOM      5  C   LIG d   1      -1.758  76.423 114.116  0.00  0.00    -0.047 C 
ATOM      6  C   LIG d   1      -1.742  76.849 115.602  0.00  0.00     0.091 C 
ENDROOT
BRANCH   1   7
ATOM      7  O   LIG d   1      -1.609  78.818 117.055  0.00  0.00    -0.368 OA
BRANCH   7   8
ATOM      8  C   LIG d   1      -0.574  79.479 117.822  0.00  0.00     0.119 C 
BRANCH   8   9
ATOM      9  C   LIG d   1       0.053  78.427 118.757  0.00  0.00     0.028 C 
ATOM     10  C   LIG d   1       1.588  78.392 118.656  0.00  0.00     0.006 C 
ENDBRANCH   8   9
BRANCH   8  11
ATOM     11  C   LIG d   1      -1.163  80.546 118.750  0.00  0.00     0.028 C 
ATOM     12  C   LIG d   1      -0.334  81.840 118.773  0.00  0.00     0.006 C 
ENDBRANCH   8  11
ENDBRANCH   7   8
ENDBRANCH   1   7
BRANCH   6  13
ATOM     13  N   LIG d   1      -0.902  75.954 116.439  0.00  0.00    -0.311 N 
ATOM     14  C   LIG d   1      -1.390  75.194 117.418  0.00  0.00     0.210 C 
ATOM     15  C   LIG d   1      -0.348  74.361 118.171  0.00  0.00     0.109 C 
ATOM     16  O   LIG d   1      -2.591  75.107 117.714  0.00  0.00    -0.276 OA
ATOM     17  H   LIG d   1       0.081  75.939 116.247  0.00  0.00     0.149 HD
ENDBRANCH   6  13
BRANCH   5  18
ATOM     18  N   LIG d   1      -2.370  75.099 113.901  0.00  0.00     0.381 N 
ATOM     19  H   LIG d   1      -2.503  74.640 114.780  0.00  0.00    -0.090 HD
ATOM     20  H   LIG d   1      -1.749  74.539 113.344  0.00  0.00    -0.090 HD
ATOM     21  H   LIG d   1      -3.246  75.199 113.435  0.00  0.00    -0.090 HD
ENDBRANCH   5  18
BRANCH   3  22
ATOM     22  C   LIG d   1      -2.319  79.679 112.504  0.00  0.00     0.382 C 
ATOM     23  O   LIG d   1      -1.489  79.709 111.564  0.00  0.00    -0.241 OA
ATOM     24  O   LIG d   1      -3.253  80.504 112.525  0.00  0.00    -0.241 OA
ENDBRANCH   3  22
TORSDOF 7
ENDMDL
