MODEL 1
REMARK VINA RESULT:      -6.1      0.000      0.000
REMARK  7 active torsions:
REMARK  status: ('A' for Active; 'I' for Inactive)
REMARK    1  A    between atoms: C_2  and  C_3 
REMARK    2  A    between atoms: C_3  and  O_6 
REMARK    3  A    between atoms: C_3  and  C_4 
REMARK    4  A    between atoms: C_7  and  O_6 
REMARK    5  A    between atoms: C_9  and  C_10 
REMARK    6  A    between atoms: N_15  and  C_14 
REMARK    7  A    between atoms: N_20  and  C_19 
REMARK       I    between atoms: C_22  and  N_20 
ROOT
ATOM      1  C   LIG d   1       2.358  84.300 110.263  0.00  0.00     0.161 C 
ATOM      2  C   LIG d   1       1.370  85.270 110.497  0.00  0.00     0.016 C 
ATOM      3  C   LIG d   1       0.045  84.956 110.878  0.00  0.00     0.038 C 
ATOM      4  C   LIG d   1      -0.342  83.646 111.200  0.00  0.00     0.028 C 
ATOM      5  C   LIG d   1       0.484  82.578 110.491  0.00  0.00    -0.047 C 
ATOM      6  C   LIG d   1       1.985  82.874 110.717  0.00  0.00     0.091 C 
ENDROOT
BRANCH   1   7
ATOM      7  O   LIG d   1       3.599  84.711 110.871  0.00  0.00    -0.368 OA
BRANCH   7   8
ATOM      8  C   LIG d   1       3.488  85.423 112.128  0.00  0.00     0.119 C 
BRANCH   8   9
ATOM      9  C   LIG d   1       4.400  86.662 112.039  0.00  0.00     0.028 C 
ATOM     10  C   LIG d   1       4.021  87.743 113.065  0.00  0.00     0.006 C 
ENDBRANCH   8   9
BRANCH   8  11
ATOM     11  C   LIG d   1       4.044  84.593 113.289  0.00  0.00     0.028 C 
ATOM     12  C   LIG d   1       2.979  84.261 114.347  0.00  0.00     0.006 C 
ENDBRANCH   8  11
ENDBRANCH   7   8
ENDBRANCH   1   7
BRANCH   6  13
ATOM     13  N   LIG d   1       2.865  81.924 109.987  0.00  0.00    -0.311 N 
ATOM     14  C   LIG d   1       3.896  81.299 110.551  0.00  0.00     0.210 C 
ATOM     15  C   LIG d   1       4.686  80.378 109.615  0.00  0.00     0.109 C 
ATOM     16  O   LIG d   1       4.213  81.394 111.747  0.00  0.00    -0.276 OA
ATOM     17  H   LIG d   1       2.661  81.764 109.020  0.00  0.00     0.149 HD
ENDBRANCH   6  13
BRANCH   5  18
ATOM     18  N   LIG d   1       0.067  81.267 111.022  0.00  0.00     0.381 N 
ATOM     19  H   LIG d   1       0.871  80.746 111.309  0.00  0.00    -0.090 HD
ATOM     20  H   LIG d   1      -0.397  80.754 110.292  0.00  0.00    -0.090 HD
ATOM     21  H   LIG d   1      -0.550  81.392 111.794  0.00  0.00    -0.090 HD
ENDBRANCH   5  18
BRANCH   3  22
ATOM     22  C   LIG d   1      -0.919  85.952 110.902  0.00  0.00     0.382 C 
ATOM     23  O   LIG d   1      -1.445  86.341 109.831  0.00  0.00    -0.241 OA
ATOM     24  O   LIG d   1      -1.236  86.498 111.975  0.00  0.00    -0.241 OA
ENDBRANCH   3  22
TORSDOF 7
ENDMDL
MODEL 2
REMARK VINA RESULT:      -5.9      2.495      4.076
REMARK  7 active torsions:
REMARK  status: ('A' for Active; 'I' for Inactive)
REMARK    1  A    between atoms: C_2  and  C_3 
REMARK    2  A    between atoms: C_3  and  O_6 
REMARK    3  A    between atoms: C_3  and  C_4 
REMARK    4  A    between atoms: C_7  and  O_6 
REMARK    5  A    between atoms: C_9  and  C_10 
REMARK    6  A    between atoms: N_15  and  C_14 
REMARK    7  A    between atoms: N_20  and  C_19 
REMARK       I    between atoms: C_22  and  N_20 
ROOT
ATOM      1  C   LIG d   1       2.871  84.173 112.040  0.00  0.00     0.161 C 
ATOM      2  C   LIG d   1       3.287  85.375 112.635  0.00  0.00     0.016 C 
ATOM      3  C   LIG d   1       2.868  86.650 112.190  0.00  0.00     0.038 C 
ATOM      4  C   LIG d   1       1.879  86.804 111.207  0.00  0.00     0.028 C 
ATOM      5  C   LIG d   1       1.805  85.632 110.234  0.00  0.00    -0.047 C 
ATOM      6  C   LIG d   1       1.706  84.316 111.039  0.00  0.00     0.091 C 
ENDROOT
BRANCH   1   7
ATOM      7  O   LIG d   1       2.539  83.212 113.061  0.00  0.00    -0.368 OA
BRANCH   7   8
ATOM      8  C   LIG d   1       3.282  81.968 113.032  0.00  0.00     0.119 C 
BRANCH   8   9
ATOM      9  C   LIG d   1       3.641  81.609 114.487  0.00  0.00     0.028 C 
ATOM     10  C   LIG d   1       3.588  82.829 115.422  0.00  0.00     0.006 C 
ENDBRANCH   8   9
BRANCH   8  11
ATOM     11  C   LIG d   1       4.623  82.137 112.312  0.00  0.00     0.028 C 
ATOM     12  C   LIG d   1       4.710  81.319 111.014  0.00  0.00     0.006 C 
ENDBRANCH   8  11
ENDBRANCH   7   8
ENDBRANCH   1   7
BRANCH   6  13
ATOM     13  N   LIG d   1       1.714  83.115 110.164  0.00  0.00    -0.311 N 
ATOM     14  C   LIG d   1       0.856  82.105 110.298  0.00  0.00     0.210 C 
ATOM     15  C   LIG d   1       1.051  80.955 109.305  0.00  0.00     0.109 C 
ATOM     16  O   LIG d   1      -0.069  82.067 111.124  0.00  0.00    -0.276 OA
ATOM     17  H   LIG d   1       2.412  83.077 109.447  0.00  0.00     0.149 HD
ENDBRANCH   6  13
BRANCH   5  18
ATOM     18  N   LIG d   1       0.645  85.859 109.351  0.00  0.00     0.381 N 
ATOM     19  H   LIG d   1       0.118  85.013 109.261  0.00  0.00    -0.090 HD
ATOM     20  H   LIG d   1       0.976  86.123 108.440  0.00  0.00    -0.090 HD
ATOM     21  H   LIG d   1       0.068  86.580 109.725  0.00  0.00    -0.090 HD
ENDBRANCH   5  18
BRANCH   3  22
ATOM     22  C   LIG d   1       3.471  87.789 112.702  0.00  0.00     0.382 C 
ATOM     23  O   LIG d   1       4.719  87.906 112.670  0.00  0.00    -0.241 OA
ATOM     24  O   LIG d   1       2.784  88.682 113.235  0.00  0.00    -0.241 OA
ENDBRANCH   3  22
TORSDOF 7
ENDMDL
MODEL 3
REMARK VINA RESULT:      -5.7      2.986      4.917
REMARK  7 active torsions:
REMARK  status: ('A' for Active; 'I' for Inactive)
REMARK    1  A    between atoms: C_2  and  C_3 
REMARK    2  A    between atoms: C_3  and  O_6 
REMARK    3  A    between atoms: C_3  and  C_4 
REMARK    4  A    between atoms: C_7  and  O_6 
REMARK    5  A    between atoms: C_9  and  C_10 
REMARK    6  A    between atoms: N_15  and  C_14 
REMARK    7  A    between atoms: N_20  and  C_19 
REMARK       I    between atoms: C_22  and  N_20 
ROOT
ATOM      1  C   LIG d   1       3.394  85.770 112.506  0.00  0.00     0.161 C 
ATOM      2  C   LIG d   1       3.617  87.152 112.624  0.00  0.00     0.016 C 
ATOM      3  C   LIG d   1       3.901  87.792 113.852  0.00  0.00     0.038 C 
ATOM      4  C   LIG d   1       4.130  87.067 115.031  0.00  0.00     0.028 C 
ATOM      5  C   LIG d   1       3.419  85.719 115.061  0.00  0.00    -0.047 C 
ATOM      6  C   LIG d   1       3.750  84.948 113.763  0.00  0.00     0.091 C 
ENDROOT
BRANCH   1   7
ATOM      7  O   LIG d   1       4.096  85.257 111.357  0.00  0.00    -0.368 OA
BRANCH   7   8
ATOM      8  C   LIG d   1       3.272  84.833 110.243  0.00  0.00     0.119 C 
BRANCH   8   9
ATOM      9  C   LIG d   1       1.804  85.110 110.622  0.00  0.00     0.028 C 
ATOM     10  C   LIG d   1       1.007  85.735 109.464  0.00  0.00     0.006 C 
ENDBRANCH   8   9
BRANCH   8  11
ATOM     11  C   LIG d   1       3.357  83.319 110.032  0.00  0.00     0.028 C 
ATOM     12  C   LIG d   1       4.799  82.789 110.090  0.00  0.00     0.006 C 
ENDBRANCH   8  11
ENDBRANCH   7   8
ENDBRANCH   1   7
BRANCH   6  13
ATOM     13  N   LIG d   1       3.027  83.653 113.673  0.00  0.00    -0.311 N 
ATOM     14  C   LIG d   1       3.641  82.472 113.617  0.00  0.00     0.210 C 
ATOM     15  C   LIG d   1       2.708  81.262 113.507  0.00  0.00     0.109 C 
ATOM     16  O   LIG d   1       4.869  82.310 113.680  0.00  0.00    -0.276 OA
ATOM     17  H   LIG d   1       2.027  83.689 113.648  0.00  0.00     0.149 HD
ENDBRANCH   6  13
BRANCH   5  18
ATOM     18  N   LIG d   1       3.855  85.012 116.280  0.00  0.00     0.381 N 
ATOM     19  H   LIG d   1       4.252  84.127 116.035  0.00  0.00    -0.090 HD
ATOM     20  H   LIG d   1       3.054  84.847 116.864  0.00  0.00    -0.090 HD
ATOM     21  H   LIG d   1       4.526  85.561 116.771  0.00  0.00    -0.090 HD
ENDBRANCH   5  18
BRANCH   3  22
ATOM     22  C   LIG d   1       3.917  89.177 113.917  0.00  0.00     0.382 C 
ATOM     23  O   LIG d   1       4.562  89.837 113.067  0.00  0.00    -0.241 OA
ATOM     24  O   LIG d   1       3.331  89.774 114.841  0.00  0.00    -0.241 OA
ENDBRANCH   3  22
TORSDOF 7
ENDMDL
MODEL 4
REMARK VINA RESULT:      -5.6      3.002      5.003
REMARK  7 active torsions:
REMARK  status: ('A' for Active; 'I' for Inactive)
REMARK    1  A    between atoms: C_2  and  C_3 
REMARK    2  A    between atoms: C_3  and  O_6 
REMARK    3  A    between atoms: C_3  and  C_4 
REMARK    4  A    between atoms: C_7  and  O_6 
REMARK    5  A    between atoms: C_9  and  C_10 
REMARK    6  A    between atoms: N_15  and  C_14 
REMARK    7  A    between atoms: N_20  and  C_19 
REMARK       I    between atoms: C_22  and  N_20 
ROOT
ATOM      1  C   LIG d   1       2.600  85.906 112.855  0.00  0.00     0.161 C 
ATOM      2  C   LIG d   1       2.672  87.273 113.173  0.00  0.00     0.016 C 
ATOM      3  C   LIG d   1       3.282  87.767 114.348  0.00  0.00     0.038 C 
ATOM      4  C   LIG d   1       4.001  86.933 115.217  0.00  0.00     0.028 C 
ATOM      5  C   LIG d   1       3.524  85.484 115.199  0.00  0.00    -0.047 C 
ATOM      6  C   LIG d   1       3.476  84.991 113.735  0.00  0.00     0.091 C 
ENDROOT
BRANCH   1   7
ATOM      7  O   LIG d   1       2.915  85.712 111.461  0.00  0.00    -0.368 OA
BRANCH   7   8
ATOM      8  C   LIG d   1       1.908  85.035 110.669  0.00  0.00     0.119 C 
BRANCH   8   9
ATOM      9  C   LIG d   1       2.644  84.157 109.639  0.00  0.00     0.028 C 
ATOM     10  C   LIG d   1       4.080  83.818 110.074  0.00  0.00     0.006 C 
ENDBRANCH   8   9
BRANCH   8  11
ATOM     11  C   LIG d   1       1.089  86.031 109.842  0.00  0.00     0.028 C 
ATOM     12  C   LIG d   1      -0.425  85.885 110.062  0.00  0.00     0.006 C 
ENDBRANCH   8  11
ENDBRANCH   7   8
ENDBRANCH   1   7
BRANCH   6  13
ATOM     13  N   LIG d   1       2.939  83.609 113.620  0.00  0.00    -0.311 N 
ATOM     14  C   LIG d   1       3.711  82.524 113.583  0.00  0.00     0.210 C 
ATOM     15  C   LIG d   1       2.955  81.199 113.442  0.00  0.00     0.109 C 
ATOM     16  O   LIG d   1       4.946  82.531 113.686  0.00  0.00    -0.276 OA
ATOM     17  H   LIG d   1       1.945  83.510 113.563  0.00  0.00     0.149 HD
ENDBRANCH   6  13
BRANCH   5  18
ATOM     18  N   LIG d   1       4.446  84.701 116.043  0.00  0.00     0.381 N 
ATOM     19  H   LIG d   1       4.098  84.664 116.981  0.00  0.00    -0.090 HD
ATOM     20  H   LIG d   1       5.341  85.158 116.058  0.00  0.00    -0.090 HD
ATOM     21  H   LIG d   1       4.541  83.779 115.679  0.00  0.00    -0.090 HD
ENDBRANCH   5  18
BRANCH   3  22
ATOM     22  C   LIG d   1       3.143  89.105 114.685  0.00  0.00     0.382 C 
ATOM     23  O   LIG d   1       2.128  89.491 115.314  0.00  0.00    -0.241 OA
ATOM     24  O   LIG d   1       3.997  89.938 114.328  0.00  0.00    -0.241 OA
ENDBRANCH   3  22
TORSDOF 7
ENDMDL
MODEL 5
REMARK VINA RESULT:      -5.6      2.738      4.292
REMARK  7 active torsions:
REMARK  status: ('A' for Active; 'I' for Inactive)
REMARK    1  A    between atoms: C_2  and  C_3 
REMARK    2  A    between atoms: C_3  and  O_6 
REMARK    3  A    between atoms: C_3  and  C_4 
REMARK    4  A    between atoms: C_7  and  O_6 
REMARK    5  A    between atoms: C_9  and  C_10 
REMARK    6  A    between atoms: N_15  and  C_14 
REMARK    7  A    between atoms: N_20  and  C_19 
REMARK       I    between atoms: C_22  and  N_20 
ROOT
ATOM      1  C   LIG d   1       3.059  84.602 112.641  0.00  0.00     0.161 C 
ATOM      2  C   LIG d   1       3.456  85.824 113.208  0.00  0.00     0.016 C 
ATOM      3  C   LIG d   1       3.094  87.083 112.675  0.00  0.00     0.038 C 
ATOM      4  C   LIG d   1       2.178  87.206 111.620  0.00  0.00     0.028 C 
ATOM      5  C   LIG d   1       2.149  85.991 110.699  0.00  0.00    -0.047 C 
ATOM      6  C   LIG d   1       1.969  84.716 111.555  0.00  0.00     0.091 C 
ENDROOT
BRANCH   1   7
ATOM      7  O   LIG d   1       2.638  83.695 113.679  0.00  0.00    -0.368 OA
BRANCH   7   8
ATOM      8  C   LIG d   1       3.684  82.910 114.303  0.00  0.00     0.119 C 
BRANCH   8   9
ATOM      9  C   LIG d   1       3.772  81.571 113.544  0.00  0.00     0.028 C 
ATOM     10  C   LIG d   1       4.839  81.593 112.437  0.00  0.00     0.006 C 
ENDBRANCH   8   9
BRANCH   8  11
ATOM     11  C   LIG d   1       3.318  82.537 115.742  0.00  0.00     0.028 C 
ATOM     12  C   LIG d   1       3.254  81.018 115.966  0.00  0.00     0.006 C 
ENDBRANCH   8  11
ENDBRANCH   7   8
ENDBRANCH   1   7
BRANCH   6  13
ATOM     13  N   LIG d   1       2.014  83.475 110.739  0.00  0.00    -0.311 N 
ATOM     14  C   LIG d   1       1.153  82.469 110.887  0.00  0.00     0.210 C 
ATOM     15  C   LIG d   1       1.390  81.274 109.958  0.00  0.00     0.109 C 
ATOM     16  O   LIG d   1       0.196  82.467 111.676  0.00  0.00    -0.276 OA
ATOM     17  H   LIG d   1       2.740  83.406 110.053  0.00  0.00     0.149 HD
ENDBRANCH   6  13
BRANCH   5  18
ATOM     18  N   LIG d   1       1.058  86.194 109.727  0.00  0.00     0.381 N 
ATOM     19  H   LIG d   1       0.853  85.332 109.262  0.00  0.00    -0.090 HD
ATOM     20  H   LIG d   1       1.356  86.861 109.038  0.00  0.00    -0.090 HD
ATOM     21  H   LIG d   1       0.244  86.529 110.194  0.00  0.00    -0.090 HD
ENDBRANCH   5  18
BRANCH   3  22
ATOM     22  C   LIG d   1       3.682  88.235 113.175  0.00  0.00     0.382 C 
ATOM     23  O   LIG d   1       4.908  88.438 113.005  0.00  0.00    -0.241 OA
ATOM     24  O   LIG d   1       3.010  89.053 113.832  0.00  0.00    -0.241 OA
ENDBRANCH   3  22
TORSDOF 7
ENDMDL
MODEL 6
REMARK VINA RESULT:      -5.5      3.019      4.829
REMARK  7 active torsions:
REMARK  status: ('A' for Active; 'I' for Inactive)
REMARK    1  A    between atoms: C_2  and  C_3 
REMARK    2  A    between atoms: C_3  and  O_6 
REMARK    3  A    between atoms: C_3  and  C_4 
REMARK    4  A    between atoms: C_7  and  O_6 
REMARK    5  A    between atoms: C_9  and  C_10 
REMARK    6  A    between atoms: N_15  and  C_14 
REMARK    7  A    between atoms: N_20  and  C_19 
REMARK       I    between atoms: C_22  and  N_20 
ROOT
ATOM      1  C   LIG d   1       2.514  84.407 113.006  0.00  0.00     0.161 C 
ATOM      2  C   LIG d   1       2.603  85.710 112.488  0.00  0.00     0.016 C 
ATOM      3  C   LIG d   1       3.216  86.782 113.177  0.00  0.00     0.038 C 
ATOM      4  C   LIG d   1       3.920  86.587 114.374  0.00  0.00     0.028 C 
ATOM      5  C   LIG d   1       3.424  85.392 115.181  0.00  0.00    -0.047 C 
ATOM      6  C   LIG d   1       3.374  84.151 114.261  0.00  0.00     0.091 C 
ENDROOT
BRANCH   1   7
ATOM      7  O   LIG d   1       2.831  83.449 111.977  0.00  0.00    -0.368 OA
BRANCH   7   8
ATOM      8  C   LIG d   1       4.152  83.556 111.393  0.00  0.00     0.119 C 
BRANCH   8   9
ATOM      9  C   LIG d   1       3.982  83.565 109.861  0.00  0.00     0.028 C 
ATOM     10  C   LIG d   1       2.507  83.662 109.435  0.00  0.00     0.006 C 
ENDBRANCH   8   9
BRANCH   8  11
ATOM     11  C   LIG d   1       4.999  82.316 111.699  0.00  0.00     0.028 C 
ATOM     12  C   LIG d   1       5.102  81.355 110.504  0.00  0.00     0.006 C 
ENDBRANCH   8  11
ENDBRANCH   7   8
ENDBRANCH   1   7
BRANCH   6  13
ATOM     13  N   LIG d   1       2.820  82.956 114.950  0.00  0.00    -0.311 N 
ATOM     14  C   LIG d   1       3.577  81.994 115.474  0.00  0.00     0.210 C 
ATOM     15  C   LIG d   1       2.803  80.842 116.121  0.00  0.00     0.109 C 
ATOM     16  O   LIG d   1       4.817  82.002 115.492  0.00  0.00    -0.276 OA
ATOM     17  H   LIG d   1       1.823  82.885 115.008  0.00  0.00     0.149 HD
ENDBRANCH   6  13
BRANCH   5  18
ATOM     18  N   LIG d   1       4.333  85.223 116.331  0.00  0.00     0.381 N 
ATOM     19  H   LIG d   1       4.114  85.897 117.037  0.00  0.00    -0.090 HD
ATOM     20  H   LIG d   1       5.277  85.380 116.026  0.00  0.00    -0.090 HD
ATOM     21  H   LIG d   1       4.245  84.303 116.703  0.00  0.00    -0.090 HD
ENDBRANCH   5  18
BRANCH   3  22
ATOM     22  C   LIG d   1       3.093  88.073 112.687  0.00  0.00     0.382 C 
ATOM     23  O   LIG d   1       2.222  88.336 111.824  0.00  0.00    -0.241 OA
ATOM     24  O   LIG d   1       3.872  88.969 113.066  0.00  0.00    -0.241 OA
ENDBRANCH   3  22
TORSDOF 7
ENDMDL
MODEL 7
REMARK VINA RESULT:      -5.4      8.053      9.535
REMARK  7 active torsions:
REMARK  status: ('A' for Active; 'I' for Inactive)
REMARK    1  A    between atoms: C_2  and  C_3 
REMARK    2  A    between atoms: C_3  and  O_6 
REMARK    3  A    between atoms: C_3  and  C_4 
REMARK    4  A    between atoms: C_7  and  O_6 
REMARK    5  A    between atoms: C_9  and  C_10 
REMARK    6  A    between atoms: N_15  and  C_14 
REMARK    7  A    between atoms: N_20  and  C_19 
REMARK       I    between atoms: C_22  and  N_20 
ROOT
ATOM      1  C   LIG d   1      -2.765  78.359 115.735  0.00  0.00     0.161 C 
ATOM      2  C   LIG d   1      -2.982  79.438 114.862  0.00  0.00     0.016 C 
ATOM      3  C   LIG d   1      -2.401  79.528 113.576  0.00  0.00     0.038 C 
ATOM      4  C   LIG d   1      -1.680  78.465 113.012  0.00  0.00     0.028 C 
ATOM      5  C   LIG d   1      -1.015  77.567 114.050  0.00  0.00    -0.047 C 
ATOM      6  C   LIG d   1      -2.071  77.139 115.094  0.00  0.00     0.091 C 
ENDROOT
BRANCH   1   7
ATOM      7  O   LIG d   1      -4.011  77.964 116.343  0.00  0.00    -0.368 OA
BRANCH   7   8
ATOM      8  C   LIG d   1      -4.254  78.465 117.681  0.00  0.00     0.119 C 
BRANCH   8   9
ATOM      9  C   LIG d   1      -4.321  77.249 118.625  0.00  0.00     0.028 C 
ATOM     10  C   LIG d   1      -3.026  77.062 119.434  0.00  0.00     0.006 C 
ENDBRANCH   8   9
BRANCH   8  11
ATOM     11  C   LIG d   1      -5.628  79.135 117.784  0.00  0.00     0.028 C 
ATOM     12  C   LIG d   1      -5.540  80.668 117.844  0.00  0.00     0.006 C 
ENDBRANCH   8  11
ENDBRANCH   7   8
ENDBRANCH   1   7
BRANCH   6  13
ATOM     13  N   LIG d   1      -1.486  76.326 116.192  0.00  0.00    -0.311 N 
ATOM     14  C   LIG d   1      -1.467  74.994 116.189  0.00  0.00     0.210 C 
ATOM     15  C   LIG d   1      -0.834  74.354 117.428  0.00  0.00     0.109 C 
ATOM     16  O   LIG d   1      -1.886  74.283 115.263  0.00  0.00    -0.276 OA
ATOM     17  H   LIG d   1      -1.096  76.823 116.969  0.00  0.00     0.149 HD
ENDBRANCH   6  13
BRANCH   5  18
ATOM     18  N   LIG d   1      -0.415  76.426 113.333  0.00  0.00     0.381 N 
ATOM     19  H   LIG d   1      -0.330  75.644 113.951  0.00  0.00    -0.090 HD
ATOM     20  H   LIG d   1       0.505  76.685 113.022  0.00  0.00    -0.090 HD
ATOM     21  H   LIG d   1      -0.980  76.180 112.550  0.00  0.00    -0.090 HD
ENDBRANCH   5  18
BRANCH   3  22
ATOM     22  C   LIG d   1      -2.507  80.708 112.856  0.00  0.00     0.382 C 
ATOM     23  O   LIG d   1      -1.483  81.225 112.346  0.00  0.00    -0.241 OA
ATOM     24  O   LIG d   1      -3.605  81.286 112.747  0.00  0.00    -0.241 OA
ENDBRANCH   3  22
TORSDOF 7
ENDMDL
MODEL 8
REMARK VINA RESULT:      -5.3     12.398     14.758
REMARK  7 active torsions:
REMARK  status: ('A' for Active; 'I' for Inactive)
REMARK    1  A    between atoms: C_2  and  C_3 
REMARK    2  A    between atoms: C_3  and  O_6 
REMARK    3  A    between atoms: C_3  and  C_4 
REMARK    4  A    between atoms: C_7  and  O_6 
REMARK    5  A    between atoms: C_9  and  C_10 
REMARK    6  A    between atoms: N_15  and  C_14 
REMARK    7  A    between atoms: N_20  and  C_19 
REMARK       I    between atoms: C_22  and  N_20 
ROOT
ATOM      1  C   LIG d   1      -7.706  76.085 117.126  0.00  0.00     0.161 C 
ATOM      2  C   LIG d   1      -7.063  75.598 115.976  0.00  0.00     0.016 C 
ATOM      3  C   LIG d   1      -5.726  75.912 115.641  0.00  0.00     0.038 C 
ATOM      4  C   LIG d   1      -4.888  76.618 116.517  0.00  0.00     0.028 C 
ATOM      5  C   LIG d   1      -5.642  77.555 117.453  0.00  0.00    -0.047 C 
ATOM      6  C   LIG d   1      -6.774  76.766 118.150  0.00  0.00     0.091 C 
ENDROOT
BRANCH   1   7
ATOM      7  O   LIG d   1      -8.452  75.024 117.755  0.00  0.00    -0.368 OA
BRANCH   7   8
ATOM      8  C   LIG d   1      -9.694  74.649 117.110  0.00  0.00     0.119 C 
BRANCH   8   9
ATOM      9  C   LIG d   1     -10.834  75.392 117.833  0.00  0.00     0.028 C 
ATOM     10  C   LIG d   1     -10.611  75.474 119.353  0.00  0.00     0.006 C 
ENDBRANCH   8   9
BRANCH   8  11
ATOM     11  C   LIG d   1      -9.994  73.160 117.304  0.00  0.00     0.028 C 
ATOM     12  C   LIG d   1      -8.801  72.260 116.948  0.00  0.00     0.006 C 
ENDBRANCH   8  11
ENDBRANCH   7   8
ENDBRANCH   1   7
BRANCH   6  13
ATOM     13  N   LIG d   1      -7.614  77.628 119.020  0.00  0.00    -0.311 N 
ATOM     14  C   LIG d   1      -7.849  78.915 118.770  0.00  0.00     0.210 C 
ATOM     15  C   LIG d   1      -8.726  79.626 119.805  0.00  0.00     0.109 C 
ATOM     16  O   LIG d   1      -7.440  79.528 117.771  0.00  0.00    -0.276 OA
ATOM     17  H   LIG d   1      -8.011  77.205 119.836  0.00  0.00     0.149 HD
ENDBRANCH   6  13
BRANCH   5  18
ATOM     18  N   LIG d   1      -4.664  78.121 118.401  0.00  0.00     0.381 N 
ATOM     19  H   LIG d   1      -3.962  78.629 117.900  0.00  0.00    -0.090 HD
ATOM     20  H   LIG d   1      -4.217  77.369 118.895  0.00  0.00    -0.090 HD
ATOM     21  H   LIG d   1      -5.124  78.725 119.046  0.00  0.00    -0.090 HD
ENDBRANCH   5  18
BRANCH   3  22
ATOM     22  C   LIG d   1      -5.226  75.552 114.398  0.00  0.00     0.382 C 
ATOM     23  O   LIG d   1      -5.008  76.432 113.531  0.00  0.00    -0.241 OA
ATOM     24  O   LIG d   1      -5.033  74.354 114.118  0.00  0.00    -0.241 OA
ENDBRANCH   3  22
TORSDOF 7
ENDMDL
MODEL 9
REMARK VINA RESULT:      -5.2     13.419     15.381
REMARK  7 active torsions:
REMARK  status: ('A' for Active; 'I' for Inactive)
REMARK    1  A    between atoms: C_2  and  C_3 
REMARK    2  A    between atoms: C_3  and  O_6 
REMARK    3  A    between atoms: C_3  and  C_4 
REMARK    4  A    between atoms: C_7  and  O_6 
REMARK    5  A    between atoms: C_9  and  C_10 
REMARK    6  A    between atoms: N_15  and  C_14 
REMARK    7  A    between atoms: N_20  and  C_19 
REMARK       I    between atoms: C_22  and  N_20 
ROOT
ATOM      1  C   LIG d   1      -7.609  75.317 117.576  0.00  0.00     0.161 C 
ATOM      2  C   LIG d   1      -7.815  73.989 117.166  0.00  0.00     0.016 C 
ATOM      3  C   LIG d   1      -9.047  73.312 117.313  0.00  0.00     0.038 C 
ATOM      4  C   LIG d   1     -10.208  73.970 117.745  0.00  0.00     0.028 C 
ATOM      5  C   LIG d   1      -9.925  75.169 118.644  0.00  0.00    -0.047 C 
ATOM      6  C   LIG d   1      -8.894  76.086 117.948  0.00  0.00     0.091 C 
ENDROOT
BRANCH   1   7
ATOM      7  O   LIG d   1      -6.872  76.032 116.565  0.00  0.00    -0.368 OA
BRANCH   7   8
ATOM      8  C   LIG d   1      -5.433  76.070 116.731  0.00  0.00     0.119 C 
BRANCH   8   9
ATOM      9  C   LIG d   1      -4.978  77.524 116.502  0.00  0.00     0.028 C 
ATOM     10  C   LIG d   1      -5.023  78.363 117.790  0.00  0.00     0.006 C 
ENDBRANCH   8   9
BRANCH   8  11
ATOM     11  C   LIG d   1      -4.725  75.248 115.650  0.00  0.00     0.028 C 
ATOM     12  C   LIG d   1      -5.268  75.527 114.239  0.00  0.00     0.006 C 
ENDBRANCH   8  11
ENDBRANCH   7   8
ENDBRANCH   1   7
BRANCH   6  13
ATOM     13  N   LIG d   1      -8.498  77.240 118.796  0.00  0.00    -0.311 N 
ATOM     14  C   LIG d   1      -9.213  78.360 118.890  0.00  0.00     0.210 C 
ATOM     15  C   LIG d   1      -8.615  79.434 119.805  0.00  0.00     0.109 C 
ATOM     16  O   LIG d   1     -10.301  78.553 118.328  0.00  0.00    -0.276 OA
ATOM     17  H   LIG d   1      -7.644  77.156 119.311  0.00  0.00     0.149 HD
ENDBRANCH   6  13
BRANCH   5  18
ATOM     18  N   LIG d   1     -11.212  75.841 118.907  0.00  0.00     0.381 N 
ATOM     19  H   LIG d   1     -11.182  76.778 118.557  0.00  0.00    -0.090 HD
ATOM     20  H   LIG d   1     -11.360  75.880 119.900  0.00  0.00    -0.090 HD
ATOM     21  H   LIG d   1     -11.954  75.339 118.473  0.00  0.00    -0.090 HD
ENDBRANCH   5  18
BRANCH   3  22
ATOM     22  C   LIG d   1      -9.116  71.950 117.063  0.00  0.00     0.382 C 
ATOM     23  O   LIG d   1     -10.210  71.346 117.176  0.00  0.00    -0.241 OA
ATOM     24  O   LIG d   1      -8.090  71.308 116.769  0.00  0.00    -0.241 OA
ENDBRANCH   3  22
TORSDOF 7
ENDMDL
