MODEL 1
REMARK VINA RESULT:      -6.7      0.000      0.000
REMARK  7 active torsions:
REMARK  status: ('A' for Active; 'I' for Inactive)
REMARK    1  A    between atoms: C_2  and  C_3 
REMARK    2  A    between atoms: C_3  and  O_6 
REMARK    3  A    between atoms: C_3  and  C_4 
REMARK    4  A    between atoms: C_7  and  O_6 
REMARK    5  A    between atoms: C_9  and  C_10 
REMARK    6  A    between atoms: N_15  and  C_14 
REMARK    7  A    between atoms: N_20  and  C_19 
REMARK       I    between atoms: C_22  and  N_20 
ROOT
ATOM      1  C   LIG d   1       1.330  83.650 109.246  0.00  0.00     0.161 C 
ATOM      2  C   LIG d   1       1.059  84.965 109.659  0.00  0.00     0.016 C 
ATOM      3  C   LIG d   1       0.222  85.280 110.755  0.00  0.00     0.038 C 
ATOM      4  C   LIG d   1      -0.283  84.289 111.610  0.00  0.00     0.028 C 
ATOM      5  C   LIG d   1      -0.449  82.932 110.934  0.00  0.00    -0.047 C 
ATOM      6  C   LIG d   1       0.877  82.555 110.234  0.00  0.00     0.091 C 
ENDROOT
BRANCH   1   7
ATOM      7  O   LIG d   1       2.734  83.510 108.951  0.00  0.00    -0.368 OA
BRANCH   7   8
ATOM      8  C   LIG d   1       3.601  83.262 110.085  0.00  0.00     0.119 C 
BRANCH   8   9
ATOM      9  C   LIG d   1       4.343  84.577 110.397  0.00  0.00     0.028 C 
ATOM     10  C   LIG d   1       3.972  85.147 111.776  0.00  0.00     0.006 C 
ENDBRANCH   8   9
BRANCH   8  11
ATOM     11  C   LIG d   1       4.697  82.251 109.738  0.00  0.00     0.028 C 
ATOM     12  C   LIG d   1       4.356  81.403 108.502  0.00  0.00     0.006 C 
ENDBRANCH   8  11
ENDBRANCH   7   8
ENDBRANCH   1   7
BRANCH   6  13
ATOM     13  N   LIG d   1       0.775  81.280 109.477  0.00  0.00    -0.311 N 
ATOM     14  C   LIG d   1       1.390  80.158 109.846  0.00  0.00     0.210 C 
ATOM     15  C   LIG d   1       1.169  78.963 108.914  0.00  0.00     0.109 C 
ATOM     16  O   LIG d   1       2.072  80.030 110.874  0.00  0.00    -0.276 OA
ATOM     17  H   LIG d   1       0.217  81.286 108.646  0.00  0.00     0.149 HD
ENDBRANCH   6  13
BRANCH   5  18
ATOM     18  N   LIG d   1      -0.850  81.964 111.972  0.00  0.00     0.381 N 
ATOM     19  H   LIG d   1      -0.468  81.064 111.762  0.00  0.00    -0.090 HD
ATOM     20  H   LIG d   1      -1.852  81.887 111.975  0.00  0.00    -0.090 HD
ATOM     21  H   LIG d   1      -0.531  82.268 112.865  0.00  0.00    -0.090 HD
ENDBRANCH   5  18
BRANCH   3  22
ATOM     22  C   LIG d   1      -0.149  86.597 110.980  0.00  0.00     0.382 C 
ATOM     23  O   LIG d   1       0.730  87.475 111.155  0.00  0.00    -0.241 OA
ATOM     24  O   LIG d   1      -1.352  86.910 111.055  0.00  0.00    -0.241 OA
ENDBRANCH   3  22
TORSDOF 7
ENDMDL
MODEL 2
REMARK VINA RESULT:      -6.4      2.797      3.710
REMARK  7 active torsions:
REMARK  status: ('A' for Active; 'I' for Inactive)
REMARK    1  A    between atoms: C_2  and  C_3 
REMARK    2  A    between atoms: C_3  and  O_6 
REMARK    3  A    between atoms: C_3  and  C_4 
REMARK    4  A    between atoms: C_7  and  O_6 
REMARK    5  A    between atoms: C_9  and  C_10 
REMARK    6  A    between atoms: N_15  and  C_14 
REMARK    7  A    between atoms: N_20  and  C_19 
REMARK       I    between atoms: C_22  and  N_20 
ROOT
ATOM      1  C   LIG d   1       3.994  85.278 111.111  0.00  0.00     0.161 C 
ATOM      2  C   LIG d   1       4.158  86.316 112.044  0.00  0.00     0.016 C 
ATOM      3  C   LIG d   1       3.140  87.242 112.364  0.00  0.00     0.038 C 
ATOM      4  C   LIG d   1       1.830  87.100 111.882  0.00  0.00     0.028 C 
ATOM      5  C   LIG d   1       1.752  86.366 110.547  0.00  0.00    -0.047 C 
ATOM      6  C   LIG d   1       2.539  85.040 110.658  0.00  0.00     0.091 C 
ENDROOT
BRANCH   1   7
ATOM      7  O   LIG d   1       4.563  84.060 111.631  0.00  0.00    -0.368 OA
BRANCH   7   8
ATOM      8  C   LIG d   1       3.663  83.204 112.377  0.00  0.00     0.119 C 
BRANCH   8   9
ATOM      9  C   LIG d   1       4.146  83.188 113.840  0.00  0.00     0.028 C 
ATOM     10  C   LIG d   1       3.239  84.017 114.766  0.00  0.00     0.006 C 
ENDBRANCH   8   9
BRANCH   8  11
ATOM     11  C   LIG d   1       3.755  81.750 111.904  0.00  0.00     0.028 C 
ATOM     12  C   LIG d   1       4.761  81.560 110.757  0.00  0.00     0.006 C 
ENDBRANCH   8  11
ENDBRANCH   7   8
ENDBRANCH   1   7
BRANCH   6  13
ATOM     13  N   LIG d   1       2.584  84.299 109.370  0.00  0.00    -0.311 N 
ATOM     14  C   LIG d   1       1.780  83.276 109.084  0.00  0.00     0.210 C 
ATOM     15  C   LIG d   1       2.007  82.641 107.709  0.00  0.00     0.109 C 
ATOM     16  O   LIG d   1       0.879  82.856 109.826  0.00  0.00    -0.276 OA
ATOM     17  H   LIG d   1       3.265  84.594 108.698  0.00  0.00     0.149 HD
ENDBRANCH   6  13
BRANCH   5  18
ATOM     18  N   LIG d   1       0.325  86.167 110.231  0.00  0.00     0.381 N 
ATOM     19  H   LIG d   1      -0.225  86.862 110.696  0.00  0.00    -0.090 HD
ATOM     20  H   LIG d   1       0.041  85.263 110.565  0.00  0.00    -0.090 HD
ATOM     21  H   LIG d   1       0.183  86.225 109.246  0.00  0.00    -0.090 HD
ENDBRANCH   5  18
BRANCH   3  22
ATOM     22  C   LIG d   1       3.438  88.349 113.145  0.00  0.00     0.382 C 
ATOM     23  O   LIG d   1       4.530  88.947 112.994  0.00  0.00    -0.241 OA
ATOM     24  O   LIG d   1       2.647  88.729 114.029  0.00  0.00    -0.241 OA
ENDBRANCH   3  22
TORSDOF 7
ENDMDL
MODEL 3
REMARK VINA RESULT:      -6.3      2.424      4.684
REMARK  7 active torsions:
REMARK  status: ('A' for Active; 'I' for Inactive)
REMARK    1  A    between atoms: C_2  and  C_3 
REMARK    2  A    between atoms: C_3  and  O_6 
REMARK    3  A    between atoms: C_3  and  C_4 
REMARK    4  A    between atoms: C_7  and  O_6 
REMARK    5  A    between atoms: C_9  and  C_10 
REMARK    6  A    between atoms: N_15  and  C_14 
REMARK    7  A    between atoms: N_20  and  C_19 
REMARK       I    between atoms: C_22  and  N_20 
ROOT
ATOM      1  C   LIG d   1       1.489  81.907 111.561  0.00  0.00     0.161 C 
ATOM      2  C   LIG d   1       2.242  82.276 110.434  0.00  0.00     0.016 C 
ATOM      3  C   LIG d   1       2.081  81.680 109.162  0.00  0.00     0.038 C 
ATOM      4  C   LIG d   1       1.043  80.775 108.893  0.00  0.00     0.028 C 
ATOM      5  C   LIG d   1       0.581  80.000 110.123  0.00  0.00    -0.047 C 
ATOM      6  C   LIG d   1       0.277  81.001 111.261  0.00  0.00     0.091 C 
ENDROOT
BRANCH   1   7
ATOM      7  O   LIG d   1       1.068  83.087 112.274  0.00  0.00    -0.368 OA
BRANCH   7   8
ATOM      8  C   LIG d   1       1.010  84.312 111.502  0.00  0.00     0.119 C 
BRANCH   8   9
ATOM      9  C   LIG d   1       1.795  85.386 112.279  0.00  0.00     0.028 C 
ATOM     10  C   LIG d   1       2.990  85.932 111.480  0.00  0.00     0.006 C 
ENDBRANCH   8   9
BRANCH   8  11
ATOM     11  C   LIG d   1      -0.423  84.844 111.409  0.00  0.00     0.028 C 
ATOM     12  C   LIG d   1      -0.631  85.788 110.214  0.00  0.00     0.006 C 
ENDBRANCH   8  11
ENDBRANCH   7   8
ENDBRANCH   1   7
BRANCH   6  13
ATOM     13  N   LIG d   1      -0.100  80.320 112.528  0.00  0.00    -0.311 N 
ATOM     14  C   LIG d   1      -1.361  80.073 112.879  0.00  0.00     0.210 C 
ATOM     15  C   LIG d   1      -1.530  79.379 114.235  0.00  0.00     0.109 C 
ATOM     16  O   LIG d   1      -2.354  80.332 112.182  0.00  0.00    -0.276 OA
ATOM     17  H   LIG d   1       0.645  80.048 113.138  0.00  0.00     0.149 HD
ENDBRANCH   6  13
BRANCH   5  18
ATOM     18  N   LIG d   1      -0.592  79.198 109.729  0.00  0.00     0.381 N 
ATOM     19  H   LIG d   1      -0.630  78.362 110.278  0.00  0.00    -0.090 HD
ATOM     20  H   LIG d   1      -0.498  78.936 108.763  0.00  0.00    -0.090 HD
ATOM     21  H   LIG d   1      -1.426  79.727 109.858  0.00  0.00    -0.090 HD
ENDBRANCH   5  18
BRANCH   3  22
ATOM     22  C   LIG d   1       2.989  81.960 108.152  0.00  0.00     0.382 C 
ATOM     23  O   LIG d   1       2.639  82.658 107.170  0.00  0.00    -0.241 OA
ATOM     24  O   LIG d   1       4.140  81.487 108.189  0.00  0.00    -0.241 OA
ENDBRANCH   3  22
TORSDOF 7
ENDMDL
MODEL 4
REMARK VINA RESULT:      -6.2      2.737      4.471
REMARK  7 active torsions:
REMARK  status: ('A' for Active; 'I' for Inactive)
REMARK    1  A    between atoms: C_2  and  C_3 
REMARK    2  A    between atoms: C_3  and  O_6 
REMARK    3  A    between atoms: C_3  and  C_4 
REMARK    4  A    between atoms: C_7  and  O_6 
REMARK    5  A    between atoms: C_9  and  C_10 
REMARK    6  A    between atoms: N_15  and  C_14 
REMARK    7  A    between atoms: N_20  and  C_19 
REMARK       I    between atoms: C_22  and  N_20 
ROOT
ATOM      1  C   LIG d   1       0.246  81.843 111.220  0.00  0.00     0.161 C 
ATOM      2  C   LIG d   1      -0.891  81.669 112.026  0.00  0.00     0.016 C 
ATOM      3  C   LIG d   1      -1.517  80.418 112.229  0.00  0.00     0.038 C 
ATOM      4  C   LIG d   1      -0.955  79.223 111.758  0.00  0.00     0.028 C 
ATOM      5  C   LIG d   1      -0.087  79.409 110.518  0.00  0.00    -0.047 C 
ATOM      6  C   LIG d   1       0.939  80.534 110.788  0.00  0.00     0.091 C 
ENDROOT
BRANCH   1   7
ATOM      7  O   LIG d   1       1.186  82.712 111.883  0.00  0.00    -0.368 OA
BRANCH   7   8
ATOM      8  C   LIG d   1       1.093  84.120 111.555  0.00  0.00     0.119 C 
BRANCH   8   9
ATOM      9  C   LIG d   1       0.963  84.231 110.024  0.00  0.00     0.028 C 
ATOM     10  C   LIG d   1       0.351  85.572 109.583  0.00  0.00     0.006 C 
ENDBRANCH   8   9
BRANCH   8  11
ATOM     11  C   LIG d   1       2.387  84.860 111.906  0.00  0.00     0.028 C 
ATOM     12  C   LIG d   1       3.553  84.499 110.972  0.00  0.00     0.006 C 
ENDBRANCH   8  11
ENDBRANCH   7   8
ENDBRANCH   1   7
BRANCH   6  13
ATOM     13  N   LIG d   1       1.773  80.838 109.596  0.00  0.00    -0.311 N 
ATOM     14  C   LIG d   1       3.089  81.032 109.653  0.00  0.00     0.210 C 
ATOM     15  C   LIG d   1       3.754  81.354 108.311  0.00  0.00     0.109 C 
ATOM     16  O   LIG d   1       3.774  80.937 110.683  0.00  0.00    -0.276 OA
ATOM     17  H   LIG d   1       1.303  80.903 108.715  0.00  0.00     0.149 HD
ENDBRANCH   6  13
BRANCH   5  18
ATOM     18  N   LIG d   1       0.545  78.111 110.217  0.00  0.00     0.381 N 
ATOM     19  H   LIG d   1       0.610  77.987 109.226  0.00  0.00    -0.090 HD
ATOM     20  H   LIG d   1      -0.030  77.375 110.589  0.00  0.00    -0.090 HD
ATOM     21  H   LIG d   1       1.453  78.071 110.624  0.00  0.00    -0.090 HD
ENDBRANCH   5  18
BRANCH   3  22
ATOM     22  C   LIG d   1      -2.742  80.360 112.877  0.00  0.00     0.382 C 
ATOM     23  O   LIG d   1      -3.548  81.316 112.782  0.00  0.00    -0.241 OA
ATOM     24  O   LIG d   1      -3.032  79.382 113.592  0.00  0.00    -0.241 OA
ENDBRANCH   3  22
TORSDOF 7
ENDMDL
MODEL 5
REMARK VINA RESULT:      -6.2      2.137      5.445
REMARK  7 active torsions:
REMARK  status: ('A' for Active; 'I' for Inactive)
REMARK    1  A    between atoms: C_2  and  C_3 
REMARK    2  A    between atoms: C_3  and  O_6 
REMARK    3  A    between atoms: C_3  and  C_4 
REMARK    4  A    between atoms: C_7  and  O_6 
REMARK    5  A    between atoms: C_9  and  C_10 
REMARK    6  A    between atoms: N_15  and  C_14 
REMARK    7  A    between atoms: N_20  and  C_19 
REMARK       I    between atoms: C_22  and  N_20 
ROOT
ATOM      1  C   LIG d   1       1.515  82.475 111.313  0.00  0.00     0.161 C 
ATOM      2  C   LIG d   1       2.202  81.292 110.993  0.00  0.00     0.016 C 
ATOM      3  C   LIG d   1       2.647  80.979 109.688  0.00  0.00     0.038 C 
ATOM      4  C   LIG d   1       2.568  81.904 108.636  0.00  0.00     0.028 C 
ATOM      5  C   LIG d   1       1.430  82.908 108.797  0.00  0.00    -0.047 C 
ATOM      6  C   LIG d   1       1.518  83.545 110.202  0.00  0.00     0.091 C 
ENDROOT
BRANCH   1   7
ATOM      7  O   LIG d   1       2.035  83.025 112.540  0.00  0.00    -0.368 OA
BRANCH   7   8
ATOM      8  C   LIG d   1       3.227  83.839 112.419  0.00  0.00     0.119 C 
BRANCH   8   9
ATOM      9  C   LIG d   1       4.342  83.152 113.231  0.00  0.00     0.028 C 
ATOM     10  C   LIG d   1       5.316  82.362 112.341  0.00  0.00     0.006 C 
ENDBRANCH   8   9
BRANCH   8  11
ATOM     11  C   LIG d   1       3.035  85.210 113.073  0.00  0.00     0.028 C 
ATOM     12  C   LIG d   1       3.766  86.336 112.324  0.00  0.00     0.006 C 
ENDBRANCH   8  11
ENDBRANCH   7   8
ENDBRANCH   1   7
BRANCH   6  13
ATOM     13  N   LIG d   1       0.393  84.477 110.473  0.00  0.00    -0.311 N 
ATOM     14  C   LIG d   1       0.466  85.792 110.273  0.00  0.00     0.210 C 
ATOM     15  C   LIG d   1      -0.802  86.573 110.636  0.00  0.00     0.109 C 
ATOM     16  O   LIG d   1       1.449  86.382 109.801  0.00  0.00    -0.276 OA
ATOM     17  H   LIG d   1      -0.454  84.079 110.829  0.00  0.00     0.149 HD
ENDBRANCH   6  13
BRANCH   5  18
ATOM     18  N   LIG d   1       1.549  83.894 107.706  0.00  0.00     0.381 N 
ATOM     19  H   LIG d   1       1.228  83.491 106.849  0.00  0.00    -0.090 HD
ATOM     20  H   LIG d   1       2.517  84.141 107.595  0.00  0.00    -0.090 HD
ATOM     21  H   LIG d   1       1.014  84.706 107.921  0.00  0.00    -0.090 HD
ENDBRANCH   5  18
BRANCH   3  22
ATOM     22  C   LIG d   1       3.142  79.713 109.416  0.00  0.00     0.382 C 
ATOM     23  O   LIG d   1       2.366  78.805 109.033  0.00  0.00    -0.241 OA
ATOM     24  O   LIG d   1       4.348  79.456 109.590  0.00  0.00    -0.241 OA
ENDBRANCH   3  22
TORSDOF 7
ENDMDL
MODEL 6
REMARK VINA RESULT:      -6.0      2.398      5.245
REMARK  7 active torsions:
REMARK  status: ('A' for Active; 'I' for Inactive)
REMARK    1  A    between atoms: C_2  and  C_3 
REMARK    2  A    between atoms: C_3  and  O_6 
REMARK    3  A    between atoms: C_3  and  C_4 
REMARK    4  A    between atoms: C_7  and  O_6 
REMARK    5  A    between atoms: C_9  and  C_10 
REMARK    6  A    between atoms: N_15  and  C_14 
REMARK    7  A    between atoms: N_20  and  C_19 
REMARK       I    between atoms: C_22  and  N_20 
ROOT
ATOM      1  C   LIG d   1       2.567  83.291 110.676  0.00  0.00     0.161 C 
ATOM      2  C   LIG d   1       3.181  82.028 110.627  0.00  0.00     0.016 C 
ATOM      3  C   LIG d   1       3.362  81.298 109.430  0.00  0.00     0.038 C 
ATOM      4  C   LIG d   1       3.075  81.851 108.173  0.00  0.00     0.028 C 
ATOM      5  C   LIG d   1       1.989  82.920 108.215  0.00  0.00    -0.047 C 
ATOM      6  C   LIG d   1       2.348  83.958 109.302  0.00  0.00     0.091 C 
ENDROOT
BRANCH   1   7
ATOM      7  O   LIG d   1       3.317  84.165 111.544  0.00  0.00    -0.368 OA
BRANCH   7   8
ATOM      8  C   LIG d   1       2.710  84.465 112.825  0.00  0.00     0.119 C 
BRANCH   8   9
ATOM      9  C   LIG d   1       2.361  85.966 112.832  0.00  0.00     0.028 C 
ATOM     10  C   LIG d   1       3.338  86.800 111.987  0.00  0.00     0.006 C 
ENDBRANCH   8   9
BRANCH   8  11
ATOM     11  C   LIG d   1       3.707  84.275 113.972  0.00  0.00     0.028 C 
ATOM     12  C   LIG d   1       4.599  83.038 113.787  0.00  0.00     0.006 C 
ENDBRANCH   8  11
ENDBRANCH   7   8
ENDBRANCH   1   7
BRANCH   6  13
ATOM     13  N   LIG d   1       1.295  84.993 109.468  0.00  0.00    -0.311 N 
ATOM     14  C   LIG d   1       0.133  84.766 110.078  0.00  0.00     0.210 C 
ATOM     15  C   LIG d   1      -0.819  85.965 110.122  0.00  0.00     0.109 C 
ATOM     16  O   LIG d   1      -0.186  83.695 110.616  0.00  0.00    -0.276 OA
ATOM     17  H   LIG d   1       1.484  85.901 109.089  0.00  0.00     0.149 HD
ENDBRANCH   6  13
BRANCH   5  18
ATOM     18  N   LIG d   1       1.888  83.506 106.866  0.00  0.00     0.381 N 
ATOM     19  H   LIG d   1       2.771  83.891 106.597  0.00  0.00    -0.090 HD
ATOM     20  H   LIG d   1       1.213  84.250 106.884  0.00  0.00    -0.090 HD
ATOM     21  H   LIG d   1       1.607  82.810 106.211  0.00  0.00    -0.090 HD
ENDBRANCH   5  18
BRANCH   3  22
ATOM     22  C   LIG d   1       3.799  79.983 109.487  0.00  0.00     0.382 C 
ATOM     23  O   LIG d   1       5.020  79.733 109.632  0.00  0.00    -0.241 OA
ATOM     24  O   LIG d   1       2.993  79.043 109.351  0.00  0.00    -0.241 OA
ENDBRANCH   3  22
TORSDOF 7
ENDMDL
MODEL 7
REMARK VINA RESULT:      -5.9      2.761      3.537
REMARK  7 active torsions:
REMARK  status: ('A' for Active; 'I' for Inactive)
REMARK    1  A    between atoms: C_2  and  C_3 
REMARK    2  A    between atoms: C_3  and  O_6 
REMARK    3  A    between atoms: C_3  and  C_4 
REMARK    4  A    between atoms: C_7  and  O_6 
REMARK    5  A    between atoms: C_9  and  C_10 
REMARK    6  A    between atoms: N_15  and  C_14 
REMARK    7  A    between atoms: N_20  and  C_19 
REMARK       I    between atoms: C_22  and  N_20 
ROOT
ATOM      1  C   LIG d   1       1.674  82.950 111.398  0.00  0.00     0.161 C 
ATOM      2  C   LIG d   1       0.923  83.916 110.708  0.00  0.00     0.016 C 
ATOM      3  C   LIG d   1       0.869  85.277 111.088  0.00  0.00     0.038 C 
ATOM      4  C   LIG d   1       1.687  85.797 112.102  0.00  0.00     0.028 C 
ATOM      5  C   LIG d   1       2.081  84.764 113.152  0.00  0.00    -0.047 C 
ATOM      6  C   LIG d   1       2.660  83.520 112.439  0.00  0.00     0.091 C 
ENDROOT
BRANCH   1   7
ATOM      7  O   LIG d   1       2.370  82.108 110.458  0.00  0.00    -0.368 OA
BRANCH   7   8
ATOM      8  C   LIG d   1       3.269  82.782 109.543  0.00  0.00     0.119 C 
BRANCH   8   9
ATOM      9  C   LIG d   1       2.997  82.225 108.132  0.00  0.00     0.028 C 
ATOM     10  C   LIG d   1       1.940  83.043 107.371  0.00  0.00     0.006 C 
ENDBRANCH   8   9
BRANCH   8  11
ATOM     11  C   LIG d   1       4.730  82.435 109.841  0.00  0.00     0.028 C 
ATOM     12  C   LIG d   1       4.924  80.964 110.239  0.00  0.00     0.006 C 
ENDBRANCH   8  11
ENDBRANCH   7   8
ENDBRANCH   1   7
BRANCH   6  13
ATOM     13  N   LIG d   1       2.993  82.427 113.389  0.00  0.00    -0.311 N 
ATOM     14  C   LIG d   1       4.227  82.191 113.832  0.00  0.00     0.210 C 
ATOM     15  C   LIG d   1       4.354  81.002 114.789  0.00  0.00     0.109 C 
ATOM     16  O   LIG d   1       5.223  82.873 113.547  0.00  0.00    -0.276 OA
ATOM     17  H   LIG d   1       2.239  81.844 113.696  0.00  0.00     0.149 HD
ENDBRANCH   6  13
BRANCH   5  18
ATOM     18  N   LIG d   1       3.042  85.405 114.069  0.00  0.00     0.381 N 
ATOM     19  H   LIG d   1       3.163  86.365 113.816  0.00  0.00    -0.090 HD
ATOM     20  H   LIG d   1       3.930  84.942 113.984  0.00  0.00    -0.090 HD
ATOM     21  H   LIG d   1       2.713  85.340 115.007  0.00  0.00    -0.090 HD
ENDBRANCH   5  18
BRANCH   3  22
ATOM     22  C   LIG d   1      -0.042  86.125 110.476  0.00  0.00     0.382 C 
ATOM     23  O   LIG d   1      -0.734  86.908 111.171  0.00  0.00    -0.241 OA
ATOM     24  O   LIG d   1      -0.212  86.087 109.243  0.00  0.00    -0.241 OA
ENDBRANCH   3  22
TORSDOF 7
ENDMDL
MODEL 8
REMARK VINA RESULT:      -5.8      2.891      5.284
REMARK  7 active torsions:
REMARK  status: ('A' for Active; 'I' for Inactive)
REMARK    1  A    between atoms: C_2  and  C_3 
REMARK    2  A    between atoms: C_3  and  O_6 
REMARK    3  A    between atoms: C_3  and  C_4 
REMARK    4  A    between atoms: C_7  and  O_6 
REMARK    5  A    between atoms: C_9  and  C_10 
REMARK    6  A    between atoms: N_15  and  C_14 
REMARK    7  A    between atoms: N_20  and  C_19 
REMARK       I    between atoms: C_22  and  N_20 
ROOT
ATOM      1  C   LIG d   1       4.062  84.437 111.219  0.00  0.00     0.161 C 
ATOM      2  C   LIG d   1       3.642  84.137 109.913  0.00  0.00     0.016 C 
ATOM      3  C   LIG d   1       2.863  83.003 109.586  0.00  0.00     0.038 C 
ATOM      4  C   LIG d   1       2.319  82.168 110.574  0.00  0.00     0.028 C 
ATOM      5  C   LIG d   1       3.134  82.144 111.863  0.00  0.00    -0.047 C 
ATOM      6  C   LIG d   1       3.386  83.598 112.324  0.00  0.00     0.091 C 
ENDROOT
BRANCH   1   7
ATOM      7  O   LIG d   1       3.885  85.843 111.479  0.00  0.00    -0.368 OA
BRANCH   7   8
ATOM      8  C   LIG d   1       2.632  86.224 112.101  0.00  0.00     0.119 C 
BRANCH   8   9
ATOM      9  C   LIG d   1       1.838  87.053 111.073  0.00  0.00     0.028 C 
ATOM     10  C   LIG d   1       0.675  86.261 110.452  0.00  0.00     0.006 C 
ENDBRANCH   8   9
BRANCH   8  11
ATOM     11  C   LIG d   1       2.863  87.163 113.288  0.00  0.00     0.028 C 
ATOM     12  C   LIG d   1       4.205  87.908 113.207  0.00  0.00     0.006 C 
ENDBRANCH   8  11
ENDBRANCH   7   8
ENDBRANCH   1   7
BRANCH   6  13
ATOM     13  N   LIG d   1       4.248  83.668 113.533  0.00  0.00    -0.311 N 
ATOM     14  C   LIG d   1       3.768  83.788 114.769  0.00  0.00     0.210 C 
ATOM     15  C   LIG d   1       4.830  83.863 115.871  0.00  0.00     0.109 C 
ATOM     16  O   LIG d   1       2.563  83.808 115.062  0.00  0.00    -0.276 OA
ATOM     17  H   LIG d   1       5.238  83.627 113.390  0.00  0.00     0.149 HD
ENDBRANCH   6  13
BRANCH   5  18
ATOM     18  N   LIG d   1       2.383  81.346 112.850  0.00  0.00     0.381 N 
ATOM     19  H   LIG d   1       1.984  81.950 113.541  0.00  0.00    -0.090 HD
ATOM     20  H   LIG d   1       3.018  80.717 113.310  0.00  0.00    -0.090 HD
ATOM     21  H   LIG d   1       1.664  80.829 112.395  0.00  0.00    -0.090 HD
ENDBRANCH   5  18
BRANCH   3  22
ATOM     22  C   LIG d   1       2.653  82.673 108.256  0.00  0.00     0.382 C 
ATOM     23  O   LIG d   1       1.662  83.138 107.644  0.00  0.00    -0.241 OA
ATOM     24  O   LIG d   1       3.418  81.881 107.674  0.00  0.00    -0.241 OA
ENDBRANCH   3  22
TORSDOF 7
ENDMDL
MODEL 9
REMARK VINA RESULT:      -5.7      1.982      2.751
REMARK  7 active torsions:
REMARK  status: ('A' for Active; 'I' for Inactive)
REMARK    1  A    between atoms: C_2  and  C_3 
REMARK    2  A    between atoms: C_3  and  O_6 
REMARK    3  A    between atoms: C_3  and  C_4 
REMARK    4  A    between atoms: C_7  and  O_6 
REMARK    5  A    between atoms: C_9  and  C_10 
REMARK    6  A    between atoms: N_15  and  C_14 
REMARK    7  A    between atoms: N_20  and  C_19 
REMARK       I    between atoms: C_22  and  N_20 
ROOT
ATOM      1  C   LIG d   1       2.503  84.559 111.071  0.00  0.00     0.161 C 
ATOM      2  C   LIG d   1       1.442  85.445 111.322  0.00  0.00     0.016 C 
ATOM      3  C   LIG d   1       0.082  85.104 111.135  0.00  0.00     0.038 C 
ATOM      4  C   LIG d   1      -0.318  83.796 110.826  0.00  0.00     0.028 C 
ATOM      5  C   LIG d   1       0.742  83.000 110.072  0.00  0.00    -0.047 C 
ATOM      6  C   LIG d   1       2.080  83.093 110.840  0.00  0.00     0.091 C 
ENDROOT
BRANCH   1   7
ATOM      7  O   LIG d   1       3.469  84.640 112.136  0.00  0.00    -0.368 OA
BRANCH   7   8
ATOM      8  C   LIG d   1       3.032  84.160 113.432  0.00  0.00     0.119 C 
BRANCH   8   9
ATOM      9  C   LIG d   1       3.487  85.190 114.484  0.00  0.00     0.028 C 
ATOM     10  C   LIG d   1       2.633  86.469 114.462  0.00  0.00     0.006 C 
ENDBRANCH   8   9
BRANCH   8  11
ATOM     11  C   LIG d   1       3.738  82.855 113.810  0.00  0.00     0.028 C 
ATOM     12  C   LIG d   1       5.100  82.692 113.116  0.00  0.00     0.006 C 
ENDBRANCH   8  11
ENDBRANCH   7   8
ENDBRANCH   1   7
BRANCH   6  13
ATOM     13  N   LIG d   1       3.192  82.412 110.127  0.00  0.00    -0.311 N 
ATOM     14  C   LIG d   1       3.460  81.114 110.258  0.00  0.00     0.210 C 
ATOM     15  C   LIG d   1       4.663  80.617 109.449  0.00  0.00     0.109 C 
ATOM     16  O   LIG d   1       2.798  80.320 110.942  0.00  0.00    -0.276 OA
ATOM     17  H   LIG d   1       3.761  82.975 109.526  0.00  0.00     0.149 HD
ENDBRANCH   6  13
BRANCH   5  18
ATOM     18  N   LIG d   1       0.248  81.616 109.937  0.00  0.00     0.381 N 
ATOM     19  H   LIG d   1      -0.389  81.558 109.168  0.00  0.00    -0.090 HD
ATOM     20  H   LIG d   1      -0.245  81.364 110.775  0.00  0.00    -0.090 HD
ATOM     21  H   LIG d   1       1.013  80.994 109.792  0.00  0.00    -0.090 HD
ENDBRANCH   5  18
BRANCH   3  22
ATOM     22  C   LIG d   1      -0.891  86.088 111.218  0.00  0.00     0.382 C 
ATOM     23  O   LIG d   1      -1.388  86.568 110.170  0.00  0.00    -0.241 OA
ATOM     24  O   LIG d   1      -1.246  86.534 112.325  0.00  0.00    -0.241 OA
ENDBRANCH   3  22
TORSDOF 7
ENDMDL
