MODEL 1
REMARK VINA RESULT:      -7.0      0.000      0.000
REMARK  7 active torsions:
REMARK  status: ('A' for Active; 'I' for Inactive)
REMARK    1  A    between atoms: C_2  and  C_3 
REMARK    2  A    between atoms: C_3  and  O_6 
REMARK    3  A    between atoms: C_3  and  C_4 
REMARK    4  A    between atoms: C_7  and  O_6 
REMARK    5  A    between atoms: C_9  and  C_10 
REMARK    6  A    between atoms: N_15  and  C_14 
REMARK    7  A    between atoms: N_20  and  C_19 
REMARK       I    between atoms: C_22  and  N_20 
ROOT
ATOM      1  C   LIG d   1       1.065  84.172 109.406  0.00  0.00     0.161 C 
ATOM      2  C   LIG d   1       0.749  85.488 109.783  0.00  0.00     0.016 C 
ATOM      3  C   LIG d   1       0.023  85.808 110.953  0.00  0.00     0.038 C 
ATOM      4  C   LIG d   1      -0.308  84.837 111.910  0.00  0.00     0.028 C 
ATOM      5  C   LIG d   1      -0.451  83.436 111.326  0.00  0.00    -0.047 C 
ATOM      6  C   LIG d   1       0.810  83.108 110.494  0.00  0.00     0.091 C 
ENDROOT
BRANCH   1   7
ATOM      7  O   LIG d   1       2.433  84.109 108.955  0.00  0.00    -0.368 OA
BRANCH   7   8
ATOM      8  C   LIG d   1       3.428  83.841 109.973  0.00  0.00     0.119 C 
BRANCH   8   9
ATOM      9  C   LIG d   1       3.972  85.199 110.457  0.00  0.00     0.028 C 
ATOM     10  C   LIG d   1       3.786  85.399 111.971  0.00  0.00     0.006 C 
ENDBRANCH   8   9
BRANCH   8  11
ATOM     11  C   LIG d   1       4.638  83.104 109.390  0.00  0.00     0.028 C 
ATOM     12  C   LIG d   1       4.282  82.258 108.157  0.00  0.00     0.006 C 
ENDBRANCH   8  11
ENDBRANCH   7   8
ENDBRANCH   1   7
BRANCH   6  13
ATOM     13  N   LIG d   1       0.715  81.788 109.818  0.00  0.00    -0.311 N 
ATOM     14  C   LIG d   1       1.492  80.750 110.125  0.00  0.00     0.210 C 
ATOM     15  C   LIG d   1       1.243  79.488 109.293  0.00  0.00     0.109 C 
ATOM     16  O   LIG d   1       2.341  80.745 111.028  0.00  0.00    -0.276 OA
ATOM     17  H   LIG d   1       0.031  81.694 109.093  0.00  0.00     0.149 HD
ENDBRANCH   6  13
BRANCH   5  18
ATOM     18  N   LIG d   1      -0.659  82.504 112.450  0.00  0.00     0.381 N 
ATOM     19  H   LIG d   1      -1.585  82.126 112.410  0.00  0.00    -0.090 HD
ATOM     20  H   LIG d   1      -0.562  83.009 113.314  0.00  0.00    -0.090 HD
ATOM     21  H   LIG d   1       0.010  81.767 112.411  0.00  0.00    -0.090 HD
ENDBRANCH   5  18
BRANCH   3  22
ATOM     22  C   LIG d   1      -0.416  87.108 111.155  0.00  0.00     0.382 C 
ATOM     23  O   LIG d   1       0.411  88.014 111.420  0.00  0.00    -0.241 OA
ATOM     24  O   LIG d   1      -1.631  87.378 111.120  0.00  0.00    -0.241 OA
ENDBRANCH   3  22
TORSDOF 7
ENDMDL
MODEL 2
REMARK VINA RESULT:      -6.7      1.824      3.022
REMARK  7 active torsions:
REMARK  status: ('A' for Active; 'I' for Inactive)
REMARK    1  A    between atoms: C_2  and  C_3 
REMARK    2  A    between atoms: C_3  and  O_6 
REMARK    3  A    between atoms: C_3  and  C_4 
REMARK    4  A    between atoms: C_7  and  O_6 
REMARK    5  A    between atoms: C_9  and  C_10 
REMARK    6  A    between atoms: N_15  and  C_14 
REMARK    7  A    between atoms: N_20  and  C_19 
REMARK       I    between atoms: C_22  and  N_20 
ROOT
ATOM      1  C   LIG d   1       2.516  85.722 110.397  0.00  0.00     0.161 C 
ATOM      2  C   LIG d   1       1.472  86.404 111.044  0.00  0.00     0.016 C 
ATOM      3  C   LIG d   1       0.236  85.802 111.375  0.00  0.00     0.038 C 
ATOM      4  C   LIG d   1       0.016  84.426 111.215  0.00  0.00     0.028 C 
ATOM      5  C   LIG d   1       0.854  83.803 110.104  0.00  0.00    -0.047 C 
ATOM      6  C   LIG d   1       2.335  84.192 110.316  0.00  0.00     0.091 C 
ENDROOT
BRANCH   1   7
ATOM      7  O   LIG d   1       3.773  86.046 111.024  0.00  0.00    -0.368 OA
BRANCH   7   8
ATOM      8  C   LIG d   1       3.715  86.384 112.432  0.00  0.00     0.119 C 
BRANCH   8   9
ATOM      9  C   LIG d   1       4.671  87.570 112.662  0.00  0.00     0.028 C 
ATOM     10  C   LIG d   1       3.922  88.899 112.860  0.00  0.00     0.006 C 
ENDBRANCH   8   9
BRANCH   8  11
ATOM     11  C   LIG d   1       4.261  85.248 113.301  0.00  0.00     0.028 C 
ATOM     12  C   LIG d   1       3.151  84.382 113.917  0.00  0.00     0.006 C 
ENDBRANCH   8  11
ENDBRANCH   7   8
ENDBRANCH   1   7
BRANCH   6  13
ATOM     13  N   LIG d   1       3.214  83.693 109.225  0.00  0.00    -0.311 N 
ATOM     14  C   LIG d   1       3.915  82.564 109.307  0.00  0.00     0.210 C 
ATOM     15  C   LIG d   1       4.772  82.244 108.078  0.00  0.00     0.109 C 
ATOM     16  O   LIG d   1       3.884  81.781 110.268  0.00  0.00    -0.276 OA
ATOM     17  H   LIG d   1       3.273  84.252 108.396  0.00  0.00     0.149 HD
ENDBRANCH   6  13
BRANCH   5  18
ATOM     18  N   LIG d   1       0.629  82.346 110.139  0.00  0.00     0.381 N 
ATOM     19  H   LIG d   1      -0.327  82.146 109.921  0.00  0.00    -0.090 HD
ATOM     20  H   LIG d   1       0.818  82.009 111.067  0.00  0.00    -0.090 HD
ATOM     21  H   LIG d   1       1.228  81.892 109.485  0.00  0.00    -0.090 HD
ENDBRANCH   5  18
BRANCH   3  22
ATOM     22  C   LIG d   1      -0.810  86.588 111.835  0.00  0.00     0.382 C 
ATOM     23  O   LIG d   1      -1.158  86.526 113.038  0.00  0.00    -0.241 OA
ATOM     24  O   LIG d   1      -1.439  87.324 111.051  0.00  0.00    -0.241 OA
ENDBRANCH   3  22
TORSDOF 7
ENDMDL
MODEL 3
REMARK VINA RESULT:      -6.3      2.491      4.623
REMARK  7 active torsions:
REMARK  status: ('A' for Active; 'I' for Inactive)
REMARK    1  A    between atoms: C_2  and  C_3 
REMARK    2  A    between atoms: C_3  and  O_6 
REMARK    3  A    between atoms: C_3  and  C_4 
REMARK    4  A    between atoms: C_7  and  O_6 
REMARK    5  A    between atoms: C_9  and  C_10 
REMARK    6  A    between atoms: N_15  and  C_14 
REMARK    7  A    between atoms: N_20  and  C_19 
REMARK       I    between atoms: C_22  and  N_20 
ROOT
ATOM      1  C   LIG d   1       2.194  83.492 111.261  0.00  0.00     0.161 C 
ATOM      2  C   LIG d   1       1.141  82.564 111.330  0.00  0.00     0.016 C 
ATOM      3  C   LIG d   1      -0.109  82.848 111.927  0.00  0.00     0.038 C 
ATOM      4  C   LIG d   1      -0.446  84.138 112.363  0.00  0.00     0.028 C 
ATOM      5  C   LIG d   1       0.762  84.975 112.771  0.00  0.00    -0.047 C 
ATOM      6  C   LIG d   1       1.806  84.939 111.632  0.00  0.00     0.091 C 
ENDROOT
BRANCH   1   7
ATOM      7  O   LIG d   1       2.793  83.454 109.950  0.00  0.00    -0.368 OA
BRANCH   7   8
ATOM      8  C   LIG d   1       2.743  82.180 109.263  0.00  0.00     0.119 C 
BRANCH   8   9
ATOM      9  C   LIG d   1       4.193  81.688 109.094  0.00  0.00     0.028 C 
ATOM     10  C   LIG d   1       5.148  82.813 108.660  0.00  0.00     0.006 C 
ENDBRANCH   8   9
BRANCH   8  11
ATOM     11  C   LIG d   1       2.198  82.335 107.840  0.00  0.00     0.028 C 
ATOM     12  C   LIG d   1       1.592  83.724 107.582  0.00  0.00     0.006 C 
ENDBRANCH   8  11
ENDBRANCH   7   8
ENDBRANCH   1   7
BRANCH   6  13
ATOM     13  N   LIG d   1       3.055  85.663 111.984  0.00  0.00    -0.311 N 
ATOM     14  C   LIG d   1       3.290  86.928 111.641  0.00  0.00     0.210 C 
ATOM     15  C   LIG d   1       4.649  87.477 112.087  0.00  0.00     0.109 C 
ATOM     16  O   LIG d   1       2.489  87.658 111.038  0.00  0.00    -0.276 OA
ATOM     17  H   LIG d   1       3.747  85.155 112.500  0.00  0.00     0.149 HD
ENDBRANCH   6  13
BRANCH   5  18
ATOM     18  N   LIG d   1       0.281  86.336 113.072  0.00  0.00     0.381 N 
ATOM     19  H   LIG d   1       0.386  86.919 112.265  0.00  0.00    -0.090 HD
ATOM     20  H   LIG d   1       0.838  86.722 113.814  0.00  0.00    -0.090 HD
ATOM     21  H   LIG d   1      -0.677  86.307 113.346  0.00  0.00    -0.090 HD
ENDBRANCH   5  18
BRANCH   3  22
ATOM     22  C   LIG d   1      -1.023  81.825 112.128  0.00  0.00     0.382 C 
ATOM     23  O   LIG d   1      -0.759  80.663 111.736  0.00  0.00    -0.241 OA
ATOM     24  O   LIG d   1      -2.126  82.059 112.657  0.00  0.00    -0.241 OA
ENDBRANCH   3  22
TORSDOF 7
ENDMDL
MODEL 4
REMARK VINA RESULT:      -6.0      2.629      4.904
REMARK  7 active torsions:
REMARK  status: ('A' for Active; 'I' for Inactive)
REMARK    1  A    between atoms: C_2  and  C_3 
REMARK    2  A    between atoms: C_3  and  O_6 
REMARK    3  A    between atoms: C_3  and  C_4 
REMARK    4  A    between atoms: C_7  and  O_6 
REMARK    5  A    between atoms: C_9  and  C_10 
REMARK    6  A    between atoms: N_15  and  C_14 
REMARK    7  A    between atoms: N_20  and  C_19 
REMARK       I    between atoms: C_22  and  N_20 
ROOT
ATOM      1  C   LIG d   1       1.236  81.571 112.174  0.00  0.00     0.161 C 
ATOM      2  C   LIG d   1       2.272  82.130 111.407  0.00  0.00     0.016 C 
ATOM      3  C   LIG d   1       2.383  81.960 110.008  0.00  0.00     0.038 C 
ATOM      4  C   LIG d   1       1.375  81.340 109.254  0.00  0.00     0.028 C 
ATOM      5  C   LIG d   1       0.563  80.323 110.049  0.00  0.00    -0.047 C 
ATOM      6  C   LIG d   1       0.067  80.986 111.354  0.00  0.00     0.091 C 
ENDROOT
BRANCH   1   7
ATOM      7  O   LIG d   1       0.748  82.544 113.119  0.00  0.00    -0.368 OA
BRANCH   7   8
ATOM      8  C   LIG d   1       0.891  83.934 112.734  0.00  0.00     0.119 C 
BRANCH   8   9
ATOM      9  C   LIG d   1       1.238  84.732 114.005  0.00  0.00     0.028 C 
ATOM     10  C   LIG d   1       2.072  85.988 113.700  0.00  0.00     0.006 C 
ENDBRANCH   8   9
BRANCH   8  11
ATOM     11  C   LIG d   1      -0.437  84.515 112.239  0.00  0.00     0.028 C 
ATOM     12  C   LIG d   1      -0.428  84.825 110.734  0.00  0.00     0.006 C 
ENDBRANCH   8  11
ENDBRANCH   7   8
ENDBRANCH   1   7
BRANCH   6  13
ATOM     13  N   LIG d   1      -0.665  80.034 112.230  0.00  0.00    -0.311 N 
ATOM     14  C   LIG d   1      -1.823  80.324 112.821  0.00  0.00     0.210 C 
ATOM     15  C   LIG d   1      -2.398  79.208 113.698  0.00  0.00     0.109 C 
ATOM     16  O   LIG d   1      -2.444  81.387 112.675  0.00  0.00    -0.276 OA
ATOM     17  H   LIG d   1      -0.247  79.136 112.378  0.00  0.00     0.149 HD
ENDBRANCH   6  13
BRANCH   5  18
ATOM     18  N   LIG d   1      -0.537  79.857 109.183  0.00  0.00     0.381 N 
ATOM     19  H   LIG d   1      -0.793  78.923 109.434  0.00  0.00    -0.090 HD
ATOM     20  H   LIG d   1      -0.220  79.851 108.230  0.00  0.00    -0.090 HD
ATOM     21  H   LIG d   1      -1.323  80.461 109.276  0.00  0.00    -0.090 HD
ENDBRANCH   5  18
BRANCH   3  22
ATOM     22  C   LIG d   1       3.532  82.378 109.354  0.00  0.00     0.382 C 
ATOM     23  O   LIG d   1       4.451  82.938 109.998  0.00  0.00    -0.241 OA
ATOM     24  O   LIG d   1       3.642  82.241 108.121  0.00  0.00    -0.241 OA
ENDBRANCH   3  22
TORSDOF 7
ENDMDL
MODEL 5
REMARK VINA RESULT:      -5.9      2.180      3.270
REMARK  7 active torsions:
REMARK  status: ('A' for Active; 'I' for Inactive)
REMARK    1  A    between atoms: C_2  and  C_3 
REMARK    2  A    between atoms: C_3  and  O_6 
REMARK    3  A    between atoms: C_3  and  C_4 
REMARK    4  A    between atoms: C_7  and  O_6 
REMARK    5  A    between atoms: C_9  and  C_10 
REMARK    6  A    between atoms: N_15  and  C_14 
REMARK    7  A    between atoms: N_20  and  C_19 
REMARK       I    between atoms: C_22  and  N_20 
ROOT
ATOM      1  C   LIG d   1       2.178  83.911 110.716  0.00  0.00     0.161 C 
ATOM      2  C   LIG d   1       2.887  85.123 110.674  0.00  0.00     0.016 C 
ATOM      3  C   LIG d   1       3.025  85.983 111.787  0.00  0.00     0.038 C 
ATOM      4  C   LIG d   1       2.588  85.614 113.068  0.00  0.00     0.028 C 
ATOM      5  C   LIG d   1       1.425  84.628 113.050  0.00  0.00    -0.047 C 
ATOM      6  C   LIG d   1       1.789  83.439 112.133  0.00  0.00     0.091 C 
ENDROOT
BRANCH   1   7
ATOM      7  O   LIG d   1       2.924  82.884 110.033  0.00  0.00    -0.368 OA
BRANCH   7   8
ATOM      8  C   LIG d   1       2.394  82.456 108.754  0.00  0.00     0.119 C 
BRANCH   8   9
ATOM      9  C   LIG d   1       1.727  81.083 108.966  0.00  0.00     0.028 C 
ATOM     10  C   LIG d   1       2.552  80.164 109.883  0.00  0.00     0.006 C 
ENDBRANCH   8   9
BRANCH   8  11
ATOM     11  C   LIG d   1       3.515  82.209 107.741  0.00  0.00     0.028 C 
ATOM     12  C   LIG d   1       4.904  82.579 108.287  0.00  0.00     0.006 C 
ENDBRANCH   8  11
ENDBRANCH   7   8
ENDBRANCH   1   7
BRANCH   6  13
ATOM     13  N   LIG d   1       0.672  82.468 111.993  0.00  0.00    -0.311 N 
ATOM     14  C   LIG d   1       0.541  81.386 112.758  0.00  0.00     0.210 C 
ATOM     15  C   LIG d   1      -0.671  80.508 112.433  0.00  0.00     0.109 C 
ATOM     16  O   LIG d   1       1.296  81.087 113.695  0.00  0.00    -0.276 OA
ATOM     17  H   LIG d   1      -0.004  82.651 111.277  0.00  0.00     0.149 HD
ENDBRANCH   6  13
BRANCH   5  18
ATOM     18  N   LIG d   1       1.162  84.224 114.444  0.00  0.00     0.381 N 
ATOM     19  H   LIG d   1       1.995  84.326 114.989  0.00  0.00    -0.090 HD
ATOM     20  H   LIG d   1       0.893  83.256 114.457  0.00  0.00    -0.090 HD
ATOM     21  H   LIG d   1       0.434  84.784 114.830  0.00  0.00    -0.090 HD
ENDBRANCH   5  18
BRANCH   3  22
ATOM     22  C   LIG d   1       3.571  87.246 111.616  0.00  0.00     0.382 C 
ATOM     23  O   LIG d   1       4.817  87.395 111.609  0.00  0.00    -0.241 OA
ATOM     24  O   LIG d   1       2.834  88.245 111.513  0.00  0.00    -0.241 OA
ENDBRANCH   3  22
TORSDOF 7
ENDMDL
MODEL 6
REMARK VINA RESULT:      -5.8      3.336      4.893
REMARK  7 active torsions:
REMARK  status: ('A' for Active; 'I' for Inactive)
REMARK    1  A    between atoms: C_2  and  C_3 
REMARK    2  A    between atoms: C_3  and  O_6 
REMARK    3  A    between atoms: C_3  and  C_4 
REMARK    4  A    between atoms: C_7  and  O_6 
REMARK    5  A    between atoms: C_9  and  C_10 
REMARK    6  A    between atoms: N_15  and  C_14 
REMARK    7  A    between atoms: N_20  and  C_19 
REMARK       I    between atoms: C_22  and  N_20 
ROOT
ATOM      1  C   LIG d   1       2.200  87.153 112.154  0.00  0.00     0.161 C 
ATOM      2  C   LIG d   1       2.532  88.514 112.251  0.00  0.00     0.016 C 
ATOM      3  C   LIG d   1       3.358  89.043 113.269  0.00  0.00     0.038 C 
ATOM      4  C   LIG d   1       4.035  88.217 114.178  0.00  0.00     0.028 C 
ATOM      5  C   LIG d   1       3.331  86.888 114.430  0.00  0.00    -0.047 C 
ATOM      6  C   LIG d   1       3.019  86.220 113.071  0.00  0.00     0.091 C 
ENDROOT
BRANCH   1   7
ATOM      7  O   LIG d   1       2.301  86.721 110.783  0.00  0.00    -0.368 OA
BRANCH   7   8
ATOM      8  C   LIG d   1       1.072  86.744 110.015  0.00  0.00     0.119 C 
BRANCH   8   9
ATOM      9  C   LIG d   1      -0.048  86.192 110.918  0.00  0.00     0.028 C 
ATOM     10  C   LIG d   1      -1.188  87.204 111.122  0.00  0.00     0.006 C 
ENDBRANCH   8   9
BRANCH   8  11
ATOM     11  C   LIG d   1       1.142  85.785 108.823  0.00  0.00     0.028 C 
ATOM     12  C   LIG d   1       1.391  84.328 109.244  0.00  0.00     0.006 C 
ENDBRANCH   8  11
ENDBRANCH   7   8
ENDBRANCH   1   7
BRANCH   6  13
ATOM     13  N   LIG d   1       2.255  84.955 113.224  0.00  0.00    -0.311 N 
ATOM     14  C   LIG d   1       2.605  83.812 112.637  0.00  0.00     0.210 C 
ATOM     15  C   LIG d   1       1.668  82.631 112.910  0.00  0.00     0.109 C 
ATOM     16  O   LIG d   1       3.620  83.655 111.943  0.00  0.00    -0.276 OA
ATOM     17  H   LIG d   1       1.434  84.984 113.796  0.00  0.00     0.149 HD
ENDBRANCH   6  13
BRANCH   5  18
ATOM     18  N   LIG d   1       4.212  86.072 115.287  0.00  0.00     0.381 N 
ATOM     19  H   LIG d   1       4.607  85.324 114.752  0.00  0.00    -0.090 HD
ATOM     20  H   LIG d   1       3.665  85.674 116.030  0.00  0.00    -0.090 HD
ATOM     21  H   LIG d   1       4.939  86.638 115.666  0.00  0.00    -0.090 HD
ENDBRANCH   5  18
BRANCH   3  22
ATOM     22  C   LIG d   1       3.481  90.417 113.409  0.00  0.00     0.382 C 
ATOM     23  O   LIG d   1       3.966  90.899 114.461  0.00  0.00    -0.241 OA
ATOM     24  O   LIG d   1       3.073  91.183 112.515  0.00  0.00    -0.241 OA
ENDBRANCH   3  22
TORSDOF 7
ENDMDL
MODEL 7
REMARK VINA RESULT:      -5.8      2.039      2.753
REMARK  7 active torsions:
REMARK  status: ('A' for Active; 'I' for Inactive)
REMARK    1  A    between atoms: C_2  and  C_3 
REMARK    2  A    between atoms: C_3  and  O_6 
REMARK    3  A    between atoms: C_3  and  C_4 
REMARK    4  A    between atoms: C_7  and  O_6 
REMARK    5  A    between atoms: C_9  and  C_10 
REMARK    6  A    between atoms: N_15  and  C_14 
REMARK    7  A    between atoms: N_20  and  C_19 
REMARK       I    between atoms: C_22  and  N_20 
ROOT
ATOM      1  C   LIG d   1       0.706  83.283 110.611  0.00  0.00     0.161 C 
ATOM      2  C   LIG d   1       0.879  84.653 110.351  0.00  0.00     0.016 C 
ATOM      3  C   LIG d   1       1.165  85.605 111.356  0.00  0.00     0.038 C 
ATOM      4  C   LIG d   1       1.448  85.227 112.677  0.00  0.00     0.028 C 
ATOM      5  C   LIG d   1       0.788  83.914 113.086  0.00  0.00    -0.047 C 
ATOM      6  C   LIG d   1       1.120  82.836 112.029  0.00  0.00     0.091 C 
ENDROOT
BRANCH   1   7
ATOM      7  O   LIG d   1       1.401  82.505 109.618  0.00  0.00    -0.368 OA
BRANCH   7   8
ATOM      8  C   LIG d   1       2.818  82.301 109.844  0.00  0.00     0.119 C 
BRANCH   8   9
ATOM      9  C   LIG d   1       3.575  82.981 108.687  0.00  0.00     0.028 C 
ATOM     10  C   LIG d   1       4.890  82.263 108.344  0.00  0.00     0.006 C 
ENDBRANCH   8   9
BRANCH   8  11
ATOM     11  C   LIG d   1       3.188  80.817 109.755  0.00  0.00     0.028 C 
ATOM     12  C   LIG d   1       1.981  79.919 109.443  0.00  0.00     0.006 C 
ENDBRANCH   8  11
ENDBRANCH   7   8
ENDBRANCH   1   7
BRANCH   6  13
ATOM     13  N   LIG d   1       0.444  81.542 112.308  0.00  0.00    -0.311 N 
ATOM     14  C   LIG d   1      -0.873  81.422 112.466  0.00  0.00     0.210 C 
ATOM     15  C   LIG d   1      -1.361  80.001 112.766  0.00  0.00     0.109 C 
ATOM     16  O   LIG d   1      -1.687  82.351 112.353  0.00  0.00    -0.276 OA
ATOM     17  H   LIG d   1       1.026  80.731 112.385  0.00  0.00     0.149 HD
ENDBRANCH   6  13
BRANCH   5  18
ATOM     18  N   LIG d   1       1.277  83.571 114.435  0.00  0.00     0.381 N 
ATOM     19  H   LIG d   1       1.961  84.240 114.728  0.00  0.00    -0.090 HD
ATOM     20  H   LIG d   1       1.714  82.667 114.402  0.00  0.00    -0.090 HD
ATOM     21  H   LIG d   1       0.518  83.558 115.079  0.00  0.00    -0.090 HD
ENDBRANCH   5  18
BRANCH   3  22
ATOM     22  C   LIG d   1       1.131  86.957 111.051  0.00  0.00     0.382 C 
ATOM     23  O   LIG d   1       2.082  87.483 110.424  0.00  0.00    -0.241 OA
ATOM     24  O   LIG d   1       0.182  87.668 111.433  0.00  0.00    -0.241 OA
ENDBRANCH   3  22
TORSDOF 7
ENDMDL
MODEL 8
REMARK VINA RESULT:      -5.5      2.741      3.894
REMARK  7 active torsions:
REMARK  status: ('A' for Active; 'I' for Inactive)
REMARK    1  A    between atoms: C_2  and  C_3 
REMARK    2  A    between atoms: C_3  and  O_6 
REMARK    3  A    between atoms: C_3  and  C_4 
REMARK    4  A    between atoms: C_7  and  O_6 
REMARK    5  A    between atoms: C_9  and  C_10 
REMARK    6  A    between atoms: N_15  and  C_14 
REMARK    7  A    between atoms: N_20  and  C_19 
REMARK       I    between atoms: C_22  and  N_20 
ROOT
ATOM      1  C   LIG d   1       1.425  83.109 111.936  0.00  0.00     0.161 C 
ATOM      2  C   LIG d   1       0.993  83.933 110.884  0.00  0.00     0.016 C 
ATOM      3  C   LIG d   1       0.621  85.286 111.057  0.00  0.00     0.038 C 
ATOM      4  C   LIG d   1       0.801  85.953 112.278  0.00  0.00     0.028 C 
ATOM      5  C   LIG d   1       0.758  85.026 113.488  0.00  0.00    -0.047 C 
ATOM      6  C   LIG d   1       1.734  83.850 113.253  0.00  0.00     0.091 C 
ENDROOT
BRANCH   1   7
ATOM      7  O   LIG d   1       2.568  82.338 111.515  0.00  0.00    -0.368 OA
BRANCH   7   8
ATOM      8  C   LIG d   1       2.542  81.852 110.151  0.00  0.00     0.119 C 
BRANCH   8   9
ATOM      9  C   LIG d   1       1.988  80.414 110.182  0.00  0.00     0.028 C 
ATOM     10  C   LIG d   1       0.700  80.263 109.356  0.00  0.00     0.006 C 
ENDBRANCH   8   9
BRANCH   8  11
ATOM     11  C   LIG d   1       3.956  81.730 109.575  0.00  0.00     0.028 C 
ATOM     12  C   LIG d   1       4.524  83.077 109.100  0.00  0.00     0.006 C 
ENDBRANCH   8  11
ENDBRANCH   7   8
ENDBRANCH   1   7
BRANCH   6  13
ATOM     13  N   LIG d   1       1.692  82.851 114.353  0.00  0.00    -0.311 N 
ATOM     14  C   LIG d   1       2.553  82.843 115.369  0.00  0.00     0.210 C 
ATOM     15  C   LIG d   1       2.344  81.714 116.384  0.00  0.00     0.109 C 
ATOM     16  O   LIG d   1       3.449  83.682 115.544  0.00  0.00    -0.276 OA
ATOM     17  H   LIG d   1       0.976  82.152 114.307  0.00  0.00     0.149 HD
ENDBRANCH   6  13
BRANCH   5  18
ATOM     18  N   LIG d   1       1.097  85.830 114.677  0.00  0.00     0.381 N 
ATOM     19  H   LIG d   1       1.918  85.461 115.113  0.00  0.00    -0.090 HD
ATOM     20  H   LIG d   1       0.338  85.774 115.334  0.00  0.00    -0.090 HD
ATOM     21  H   LIG d   1       1.249  86.779 114.415  0.00  0.00    -0.090 HD
ENDBRANCH   5  18
BRANCH   3  22
ATOM     22  C   LIG d   1       0.024  85.974 110.012  0.00  0.00     0.382 C 
ATOM     23  O   LIG d   1      -1.195  86.268 110.069  0.00  0.00    -0.241 OA
ATOM     24  O   LIG d   1       0.678  86.265 108.993  0.00  0.00    -0.241 OA
ENDBRANCH   3  22
TORSDOF 7
ENDMDL
MODEL 9
REMARK VINA RESULT:      -5.4      2.856      4.473
REMARK  7 active torsions:
REMARK  status: ('A' for Active; 'I' for Inactive)
REMARK    1  A    between atoms: C_2  and  C_3 
REMARK    2  A    between atoms: C_3  and  O_6 
REMARK    3  A    between atoms: C_3  and  C_4 
REMARK    4  A    between atoms: C_7  and  O_6 
REMARK    5  A    between atoms: C_9  and  C_10 
REMARK    6  A    between atoms: N_15  and  C_14 
REMARK    7  A    between atoms: N_20  and  C_19 
REMARK       I    between atoms: C_22  and  N_20 
ROOT
ATOM      1  C   LIG d   1       1.510  82.678 111.576  0.00  0.00     0.161 C 
ATOM      2  C   LIG d   1       0.322  82.317 112.234  0.00  0.00     0.016 C 
ATOM      3  C   LIG d   1      -0.455  81.192 111.875  0.00  0.00     0.038 C 
ATOM      4  C   LIG d   1      -0.015  80.259 110.925  0.00  0.00     0.028 C 
ATOM      5  C   LIG d   1       0.929  80.853 109.885  0.00  0.00    -0.047 C 
ATOM      6  C   LIG d   1       2.064  81.609 110.611  0.00  0.00     0.091 C 
ENDROOT
BRANCH   1   7
ATOM      7  O   LIG d   1       2.512  83.046 112.544  0.00  0.00    -0.368 OA
BRANCH   7   8
ATOM      8  C   LIG d   1       2.586  84.453 112.881  0.00  0.00     0.119 C 
BRANCH   8   9
ATOM      9  C   LIG d   1       2.414  85.252 111.575  0.00  0.00     0.028 C 
ATOM     10  C   LIG d   1       3.758  85.570 110.900  0.00  0.00     0.006 C 
ENDBRANCH   8   9
BRANCH   8  11
ATOM     11  C   LIG d   1       3.975  84.829 113.406  0.00  0.00     0.028 C 
ATOM     12  C   LIG d   1       3.993  85.069 114.924  0.00  0.00     0.006 C 
ENDBRANCH   8  11
ENDBRANCH   7   8
ENDBRANCH   1   7
BRANCH   6  13
ATOM     13  N   LIG d   1       2.986  82.292 109.665  0.00  0.00    -0.311 N 
ATOM     14  C   LIG d   1       4.080  81.720 109.166  0.00  0.00     0.210 C 
ATOM     15  C   LIG d   1       4.901  82.606 108.224  0.00  0.00     0.109 C 
ATOM     16  O   LIG d   1       4.431  80.551 109.388  0.00  0.00    -0.276 OA
ATOM     17  H   LIG d   1       2.759  83.232 109.407  0.00  0.00     0.149 HD
ENDBRANCH   6  13
BRANCH   5  18
ATOM     18  N   LIG d   1       1.418  79.745 109.042  0.00  0.00     0.381 N 
ATOM     19  H   LIG d   1       1.168  78.869 109.456  0.00  0.00    -0.090 HD
ATOM     20  H   LIG d   1       2.420  79.795 108.990  0.00  0.00    -0.090 HD
ATOM     21  H   LIG d   1       1.026  79.812 108.129  0.00  0.00    -0.090 HD
ENDBRANCH   5  18
BRANCH   3  22
ATOM     22  C   LIG d   1      -1.708  81.014 112.442  0.00  0.00     0.382 C 
ATOM     23  O   LIG d   1      -2.183  79.859 112.563  0.00  0.00    -0.241 OA
ATOM     24  O   LIG d   1      -2.389  81.997 112.792  0.00  0.00    -0.241 OA
ENDBRANCH   3  22
TORSDOF 7
ENDMDL
