MODEL 1
REMARK VINA RESULT:      -6.7      0.000      0.000
REMARK  7 active torsions:
REMARK  status: ('A' for Active; 'I' for Inactive)
REMARK    1  A    between atoms: C_2  and  C_3 
REMARK    2  A    between atoms: C_3  and  O_6 
REMARK    3  A    between atoms: C_3  and  C_4 
REMARK    4  A    between atoms: C_7  and  O_6 
REMARK    5  A    between atoms: C_9  and  C_10 
REMARK    6  A    between atoms: N_15  and  C_14 
REMARK    7  A    between atoms: N_20  and  C_19 
REMARK       I    between atoms: C_22  and  N_20 
ROOT
ATOM      1  C   LIG d   1       1.027  83.993 109.271  0.00  0.00     0.161 C 
ATOM      2  C   LIG d   1       0.732  85.314 109.647  0.00  0.00     0.016 C 
ATOM      3  C   LIG d   1      -0.133  85.644 110.716  0.00  0.00     0.038 C 
ATOM      4  C   LIG d   1      -0.645  84.668 111.584  0.00  0.00     0.028 C 
ATOM      5  C   LIG d   1      -0.779  83.293 110.937  0.00  0.00    -0.047 C 
ATOM      6  C   LIG d   1       0.566  82.916 110.275  0.00  0.00     0.091 C 
ENDROOT
BRANCH   1   7
ATOM      7  O   LIG d   1       2.439  83.864 109.011  0.00  0.00    -0.368 OA
BRANCH   7   8
ATOM      8  C   LIG d   1       3.274  83.567 110.157  0.00  0.00     0.119 C 
BRANCH   8   9
ATOM      9  C   LIG d   1       3.916  84.889 110.618  0.00  0.00     0.028 C 
ATOM     10  C   LIG d   1       3.580  85.226 112.081  0.00  0.00     0.006 C 
ENDBRANCH   8   9
BRANCH   8  11
ATOM     11  C   LIG d   1       4.446  82.660 109.772  0.00  0.00     0.028 C 
ATOM     12  C   LIG d   1       4.320  82.094 108.349  0.00  0.00     0.006 C 
ENDBRANCH   8  11
ENDBRANCH   7   8
ENDBRANCH   1   7
BRANCH   6  13
ATOM     13  N   LIG d   1       0.497  81.623 109.547  0.00  0.00    -0.311 N 
ATOM     14  C   LIG d   1       1.188  80.542 109.906  0.00  0.00     0.210 C 
ATOM     15  C   LIG d   1       0.986  79.318 109.006  0.00  0.00     0.109 C 
ATOM     16  O   LIG d   1       1.923  80.471 110.902  0.00  0.00    -0.276 OA
ATOM     17  H   LIG d   1      -0.100  81.583 108.744  0.00  0.00     0.149 HD
ENDBRANCH   6  13
BRANCH   5  18
ATOM     18  N   LIG d   1      -1.192  82.344 111.988  0.00  0.00     0.381 N 
ATOM     19  H   LIG d   1      -0.386  82.004 112.473  0.00  0.00    -0.090 HD
ATOM     20  H   LIG d   1      -1.654  81.563 111.558  0.00  0.00    -0.090 HD
ATOM     21  H   LIG d   1      -1.809  82.793 112.629  0.00  0.00    -0.090 HD
ENDBRANCH   5  18
BRANCH   3  22
ATOM     22  C   LIG d   1      -0.525  86.961 110.902  0.00  0.00     0.382 C 
ATOM     23  O   LIG d   1       0.324  87.830 111.212  0.00  0.00    -0.241 OA
ATOM     24  O   LIG d   1      -1.725  87.282 110.806  0.00  0.00    -0.241 OA
ENDBRANCH   3  22
TORSDOF 7
ENDMDL
MODEL 2
REMARK VINA RESULT:      -6.3      1.776      2.752
REMARK  7 active torsions:
REMARK  status: ('A' for Active; 'I' for Inactive)
REMARK    1  A    between atoms: C_2  and  C_3 
REMARK    2  A    between atoms: C_3  and  O_6 
REMARK    3  A    between atoms: C_3  and  C_4 
REMARK    4  A    between atoms: C_7  and  O_6 
REMARK    5  A    between atoms: C_9  and  C_10 
REMARK    6  A    between atoms: N_15  and  C_14 
REMARK    7  A    between atoms: N_20  and  C_19 
REMARK       I    between atoms: C_22  and  N_20 
ROOT
ATOM      1  C   LIG d   1       2.381  84.466 110.192  0.00  0.00     0.161 C 
ATOM      2  C   LIG d   1       1.346  85.401 110.360  0.00  0.00     0.016 C 
ATOM      3  C   LIG d   1       0.015  85.042 110.672  0.00  0.00     0.038 C 
ATOM      4  C   LIG d   1      -0.342  83.722 110.989  0.00  0.00     0.028 C 
ATOM      5  C   LIG d   1       0.561  82.678 110.340  0.00  0.00    -0.047 C 
ATOM      6  C   LIG d   1       2.035  83.031 110.643  0.00  0.00     0.091 C 
ENDROOT
BRANCH   1   7
ATOM      7  O   LIG d   1       3.571  84.928 110.862  0.00  0.00    -0.368 OA
BRANCH   7   8
ATOM      8  C   LIG d   1       3.362  85.749 112.037  0.00  0.00     0.119 C 
BRANCH   8   9
ATOM      9  C   LIG d   1       4.357  86.924 111.963  0.00  0.00     0.028 C 
ATOM     10  C   LIG d   1       4.373  87.761 113.254  0.00  0.00     0.006 C 
ENDBRANCH   8   9
BRANCH   8  11
ATOM     11  C   LIG d   1       3.724  84.991 113.318  0.00  0.00     0.028 C 
ATOM     12  C   LIG d   1       2.495  84.405 114.030  0.00  0.00     0.006 C 
ENDBRANCH   8  11
ENDBRANCH   7   8
ENDBRANCH   1   7
BRANCH   6  13
ATOM     13  N   LIG d   1       2.988  82.107 109.975  0.00  0.00    -0.311 N 
ATOM     14  C   LIG d   1       3.958  81.461 110.620  0.00  0.00     0.210 C 
ATOM     15  C   LIG d   1       4.841  80.574 109.738  0.00  0.00     0.109 C 
ATOM     16  O   LIG d   1       4.150  81.515 111.844  0.00  0.00    -0.276 OA
ATOM     17  H   LIG d   1       2.884  81.982 108.987  0.00  0.00     0.149 HD
ENDBRANCH   6  13
BRANCH   5  18
ATOM     18  N   LIG d   1       0.163  81.358 110.863  0.00  0.00     0.381 N 
ATOM     19  H   LIG d   1       0.822  80.665 110.571  0.00  0.00    -0.090 HD
ATOM     20  H   LIG d   1      -0.737  81.116 110.486  0.00  0.00    -0.090 HD
ATOM     21  H   LIG d   1       0.118  81.385 111.858  0.00  0.00    -0.090 HD
ENDBRANCH   5  18
BRANCH   3  22
ATOM     22  C   LIG d   1      -0.984  86.002 110.630  0.00  0.00     0.382 C 
ATOM     23  O   LIG d   1      -1.509  86.408 111.695  0.00  0.00    -0.241 OA
ATOM     24  O   LIG d   1      -1.398  86.436 109.538  0.00  0.00    -0.241 OA
ENDBRANCH   3  22
TORSDOF 7
ENDMDL
MODEL 3
REMARK VINA RESULT:      -6.0      2.689      4.298
REMARK  7 active torsions:
REMARK  status: ('A' for Active; 'I' for Inactive)
REMARK    1  A    between atoms: C_2  and  C_3 
REMARK    2  A    between atoms: C_3  and  O_6 
REMARK    3  A    between atoms: C_3  and  C_4 
REMARK    4  A    between atoms: C_7  and  O_6 
REMARK    5  A    between atoms: C_9  and  C_10 
REMARK    6  A    between atoms: N_15  and  C_14 
REMARK    7  A    between atoms: N_20  and  C_19 
REMARK       I    between atoms: C_22  and  N_20 
ROOT
ATOM      1  C   LIG d   1       0.223  82.210 111.235  0.00  0.00     0.161 C 
ATOM      2  C   LIG d   1      -0.898  82.105 112.076  0.00  0.00     0.016 C 
ATOM      3  C   LIG d   1      -1.582  80.890 112.311  0.00  0.00     0.038 C 
ATOM      4  C   LIG d   1      -1.097  79.662 111.837  0.00  0.00     0.028 C 
ATOM      5  C   LIG d   1      -0.258  79.790 110.571  0.00  0.00    -0.047 C 
ATOM      6  C   LIG d   1       0.833  80.862 110.798  0.00  0.00     0.091 C 
ENDROOT
BRANCH   1   7
ATOM      7  O   LIG d   1       1.226  83.035 111.860  0.00  0.00    -0.368 OA
BRANCH   7   8
ATOM      8  C   LIG d   1       1.230  84.433 111.479  0.00  0.00     0.119 C 
BRANCH   8   9
ATOM      9  C   LIG d   1       0.861  84.506 109.984  0.00  0.00     0.028 C 
ATOM     10  C   LIG d   1       0.061  85.773 109.639  0.00  0.00     0.006 C 
ENDBRANCH   8   9
BRANCH   8  11
ATOM     11  C   LIG d   1       2.635  85.034 111.579  0.00  0.00     0.028 C 
ATOM     12  C   LIG d   1       3.550  84.606 110.421  0.00  0.00     0.006 C 
ENDBRANCH   8  11
ENDBRANCH   7   8
ENDBRANCH   1   7
BRANCH   6  13
ATOM     13  N   LIG d   1       1.646  81.111 109.579  0.00  0.00    -0.311 N 
ATOM     14  C   LIG d   1       2.978  81.111 109.574  0.00  0.00     0.210 C 
ATOM     15  C   LIG d   1       3.619  81.409 108.215  0.00  0.00     0.109 C 
ATOM     16  O   LIG d   1       3.689  80.862 110.559  0.00  0.00    -0.276 OA
ATOM     17  H   LIG d   1       1.150  81.291 108.728  0.00  0.00     0.149 HD
ENDBRANCH   6  13
BRANCH   5  18
ATOM     18  N   LIG d   1       0.296  78.457 110.266  0.00  0.00     0.381 N 
ATOM     19  H   LIG d   1       0.884  78.511 109.458  0.00  0.00    -0.090 HD
ATOM     20  H   LIG d   1      -0.461  77.829 110.064  0.00  0.00    -0.090 HD
ATOM     21  H   LIG d   1       0.819  78.120 111.044  0.00  0.00    -0.090 HD
ENDBRANCH   5  18
BRANCH   3  22
ATOM     22  C   LIG d   1      -2.788  80.902 112.995  0.00  0.00     0.382 C 
ATOM     23  O   LIG d   1      -3.536  81.907 112.930  0.00  0.00    -0.241 OA
ATOM     24  O   LIG d   1      -3.117  79.938 113.712  0.00  0.00    -0.241 OA
ENDBRANCH   3  22
TORSDOF 7
ENDMDL
MODEL 4
REMARK VINA RESULT:      -6.0      2.561      4.674
REMARK  7 active torsions:
REMARK  status: ('A' for Active; 'I' for Inactive)
REMARK    1  A    between atoms: C_2  and  C_3 
REMARK    2  A    between atoms: C_3  and  O_6 
REMARK    3  A    between atoms: C_3  and  C_4 
REMARK    4  A    between atoms: C_7  and  O_6 
REMARK    5  A    between atoms: C_9  and  C_10 
REMARK    6  A    between atoms: N_15  and  C_14 
REMARK    7  A    between atoms: N_20  and  C_19 
REMARK       I    between atoms: C_22  and  N_20 
ROOT
ATOM      1  C   LIG d   1       1.888  83.337 111.193  0.00  0.00     0.161 C 
ATOM      2  C   LIG d   1       0.813  82.433 111.221  0.00  0.00     0.016 C 
ATOM      3  C   LIG d   1      -0.418  82.708 111.859  0.00  0.00     0.038 C 
ATOM      4  C   LIG d   1      -0.714  83.973 112.387  0.00  0.00     0.028 C 
ATOM      5  C   LIG d   1       0.523  84.749 112.827  0.00  0.00    -0.047 C 
ATOM      6  C   LIG d   1       1.545  84.764 111.668  0.00  0.00     0.091 C 
ENDROOT
BRANCH   1   7
ATOM      7  O   LIG d   1       2.463  83.372 109.872  0.00  0.00    -0.368 OA
BRANCH   7   8
ATOM      8  C   LIG d   1       3.025  82.128 109.388  0.00  0.00     0.119 C 
BRANCH   8   9
ATOM      9  C   LIG d   1       4.557  82.227 109.526  0.00  0.00     0.028 C 
ATOM     10  C   LIG d   1       5.188  80.915 110.023  0.00  0.00     0.006 C 
ENDBRANCH   8   9
BRANCH   8  11
ATOM     11  C   LIG d   1       2.765  81.944 107.890  0.00  0.00     0.028 C 
ATOM     12  C   LIG d   1       1.835  83.022 107.310  0.00  0.00     0.006 C 
ENDBRANCH   8  11
ENDBRANCH   7   8
ENDBRANCH   1   7
BRANCH   6  13
ATOM     13  N   LIG d   1       2.819  85.432 112.044  0.00  0.00    -0.311 N 
ATOM     14  C   LIG d   1       3.080  86.712 111.785  0.00  0.00     0.210 C 
ATOM     15  C   LIG d   1       4.461  87.195 112.240  0.00  0.00     0.109 C 
ATOM     16  O   LIG d   1       2.287  87.501 111.250  0.00  0.00    -0.276 OA
ATOM     17  H   LIG d   1       3.507  84.872 112.509  0.00  0.00     0.149 HD
ENDBRANCH   6  13
BRANCH   5  18
ATOM     18  N   LIG d   1       0.083  86.099 113.227  0.00  0.00     0.381 N 
ATOM     19  H   LIG d   1      -0.843  86.056 113.604  0.00  0.00    -0.090 HD
ATOM     20  H   LIG d   1       0.065  86.690 112.414  0.00  0.00    -0.090 HD
ATOM     21  H   LIG d   1       0.708  86.475 113.906  0.00  0.00    -0.090 HD
ENDBRANCH   5  18
BRANCH   3  22
ATOM     22  C   LIG d   1      -1.355  81.697 112.008  0.00  0.00     0.382 C 
ATOM     23  O   LIG d   1      -2.524  81.973 112.372  0.00  0.00    -0.241 OA
ATOM     24  O   LIG d   1      -1.035  80.507 111.827  0.00  0.00    -0.241 OA
ENDBRANCH   3  22
TORSDOF 7
ENDMDL
MODEL 5
REMARK VINA RESULT:      -6.0      1.991      2.849
REMARK  7 active torsions:
REMARK  status: ('A' for Active; 'I' for Inactive)
REMARK    1  A    between atoms: C_2  and  C_3 
REMARK    2  A    between atoms: C_3  and  O_6 
REMARK    3  A    between atoms: C_3  and  C_4 
REMARK    4  A    between atoms: C_7  and  O_6 
REMARK    5  A    between atoms: C_9  and  C_10 
REMARK    6  A    between atoms: N_15  and  C_14 
REMARK    7  A    between atoms: N_20  and  C_19 
REMARK       I    between atoms: C_22  and  N_20 
ROOT
ATOM      1  C   LIG d   1       2.559  83.873 110.850  0.00  0.00     0.161 C 
ATOM      2  C   LIG d   1       2.905  85.223 111.022  0.00  0.00     0.016 C 
ATOM      3  C   LIG d   1       2.145  86.129 111.798  0.00  0.00     0.038 C 
ATOM      4  C   LIG d   1       1.063  85.705 112.583  0.00  0.00     0.028 C 
ATOM      5  C   LIG d   1       0.376  84.455 112.043  0.00  0.00    -0.047 C 
ATOM      6  C   LIG d   1       1.443  83.367 111.788  0.00  0.00     0.091 C 
ENDROOT
BRANCH   1   7
ATOM      7  O   LIG d   1       3.733  83.047 110.977  0.00  0.00    -0.368 OA
BRANCH   7   8
ATOM      8  C   LIG d   1       3.873  81.984 110.002  0.00  0.00     0.119 C 
BRANCH   8   9
ATOM      9  C   LIG d   1       5.250  81.329 110.227  0.00  0.00     0.028 C 
ATOM     10  C   LIG d   1       5.273  79.851 109.802  0.00  0.00     0.006 C 
ENDBRANCH   8   9
BRANCH   8  11
ATOM     11  C   LIG d   1       3.916  82.538 108.575  0.00  0.00     0.028 C 
ATOM     12  C   LIG d   1       2.666  82.175 107.758  0.00  0.00     0.006 C 
ENDBRANCH   8  11
ENDBRANCH   7   8
ENDBRANCH   1   7
BRANCH   6  13
ATOM     13  N   LIG d   1       0.867  82.139 111.180  0.00  0.00    -0.311 N 
ATOM     14  C   LIG d   1       0.490  81.077 111.889  0.00  0.00     0.210 C 
ATOM     15  C   LIG d   1      -0.060  79.910 111.063  0.00  0.00     0.109 C 
ATOM     16  O   LIG d   1       0.530  81.002 113.126  0.00  0.00    -0.276 OA
ATOM     17  H   LIG d   1       0.770  82.126 110.183  0.00  0.00     0.149 HD
ENDBRANCH   6  13
BRANCH   5  18
ATOM     18  N   LIG d   1      -0.643  84.046 113.028  0.00  0.00     0.381 N 
ATOM     19  H   LIG d   1      -0.954  84.844 113.545  0.00  0.00    -0.090 HD
ATOM     20  H   LIG d   1      -0.230  83.395 113.672  0.00  0.00    -0.090 HD
ATOM     21  H   LIG d   1      -1.415  83.620 112.564  0.00  0.00    -0.090 HD
ENDBRANCH   5  18
BRANCH   3  22
ATOM     22  C   LIG d   1       2.443  87.482 111.763  0.00  0.00     0.382 C 
ATOM     23  O   LIG d   1       1.530  88.320 111.568  0.00  0.00    -0.241 OA
ATOM     24  O   LIG d   1       3.620  87.874 111.879  0.00  0.00    -0.241 OA
ENDBRANCH   3  22
TORSDOF 7
ENDMDL
MODEL 6
REMARK VINA RESULT:      -5.9      2.474      3.537
REMARK  7 active torsions:
REMARK  status: ('A' for Active; 'I' for Inactive)
REMARK    1  A    between atoms: C_2  and  C_3 
REMARK    2  A    between atoms: C_3  and  O_6 
REMARK    3  A    between atoms: C_3  and  C_4 
REMARK    4  A    between atoms: C_7  and  O_6 
REMARK    5  A    between atoms: C_9  and  C_10 
REMARK    6  A    between atoms: N_15  and  C_14 
REMARK    7  A    between atoms: N_20  and  C_19 
REMARK       I    between atoms: C_22  and  N_20 
ROOT
ATOM      1  C   LIG d   1       3.564  84.602 111.771  0.00  0.00     0.161 C 
ATOM      2  C   LIG d   1       2.819  85.782 111.928  0.00  0.00     0.016 C 
ATOM      3  C   LIG d   1       1.681  86.093 111.149  0.00  0.00     0.038 C 
ATOM      4  C   LIG d   1       1.119  85.169 110.255  0.00  0.00     0.028 C 
ATOM      5  C   LIG d   1       2.130  84.171 109.701  0.00  0.00    -0.047 C 
ATOM      6  C   LIG d   1       2.901  83.532 110.878  0.00  0.00     0.091 C 
ENDROOT
BRANCH   1   7
ATOM      7  O   LIG d   1       3.882  84.049 113.064  0.00  0.00    -0.368 OA
BRANCH   7   8
ATOM      8  C   LIG d   1       2.755  83.761 113.928  0.00  0.00     0.119 C 
BRANCH   8   9
ATOM      9  C   LIG d   1       3.003  84.483 115.267  0.00  0.00     0.028 C 
ATOM     10  C   LIG d   1       1.886  85.484 115.610  0.00  0.00     0.006 C 
ENDBRANCH   8   9
BRANCH   8  11
ATOM     11  C   LIG d   1       2.686  82.272 114.278  0.00  0.00     0.028 C 
ATOM     12  C   LIG d   1       3.991  81.524 113.959  0.00  0.00     0.006 C 
ENDBRANCH   8  11
ENDBRANCH   7   8
ENDBRANCH   1   7
BRANCH   6  13
ATOM     13  N   LIG d   1       3.968  82.605 110.420  0.00  0.00    -0.311 N 
ATOM     14  C   LIG d   1       3.799  81.288 110.313  0.00  0.00     0.210 C 
ATOM     15  C   LIG d   1       5.034  80.513 109.841  0.00  0.00     0.109 C 
ATOM     16  O   LIG d   1       2.734  80.691 110.534  0.00  0.00    -0.276 OA
ATOM     17  H   LIG d   1       4.855  83.008 110.190  0.00  0.00     0.149 HD
ENDBRANCH   6  13
BRANCH   5  18
ATOM     18  N   LIG d   1       1.386  83.185 108.894  0.00  0.00     0.381 N 
ATOM     19  H   LIG d   1       0.987  83.634 108.094  0.00  0.00    -0.090 HD
ATOM     20  H   LIG d   1       0.638  82.809 109.450  0.00  0.00    -0.090 HD
ATOM     21  H   LIG d   1       1.995  82.452 108.604  0.00  0.00    -0.090 HD
ENDBRANCH   5  18
BRANCH   3  22
ATOM     22  C   LIG d   1       1.117  87.357 111.231  0.00  0.00     0.382 C 
ATOM     23  O   LIG d   1      -0.114  87.508 111.039  0.00  0.00    -0.241 OA
ATOM     24  O   LIG d   1       1.830  88.354 111.450  0.00  0.00    -0.241 OA
ENDBRANCH   3  22
TORSDOF 7
ENDMDL
MODEL 7
REMARK VINA RESULT:      -5.9      2.980      4.094
REMARK  7 active torsions:
REMARK  status: ('A' for Active; 'I' for Inactive)
REMARK    1  A    between atoms: C_2  and  C_3 
REMARK    2  A    between atoms: C_3  and  O_6 
REMARK    3  A    between atoms: C_3  and  C_4 
REMARK    4  A    between atoms: C_7  and  O_6 
REMARK    5  A    between atoms: C_9  and  C_10 
REMARK    6  A    between atoms: N_15  and  C_14 
REMARK    7  A    between atoms: N_20  and  C_19 
REMARK       I    between atoms: C_22  and  N_20 
ROOT
ATOM      1  C   LIG d   1       3.833  85.505 111.811  0.00  0.00     0.161 C 
ATOM      2  C   LIG d   1       3.937  86.610 112.672  0.00  0.00     0.016 C 
ATOM      3  C   LIG d   1       2.992  87.661 112.707  0.00  0.00     0.038 C 
ATOM      4  C   LIG d   1       1.791  87.603 111.985  0.00  0.00     0.028 C 
ATOM      5  C   LIG d   1       1.883  86.749 110.725  0.00  0.00    -0.047 C 
ATOM      6  C   LIG d   1       2.473  85.369 111.096  0.00  0.00     0.091 C 
ENDROOT
BRANCH   1   7
ATOM      7  O   LIG d   1       4.145  84.295 112.529  0.00  0.00    -0.368 OA
BRANCH   7   8
ATOM      8  C   LIG d   1       3.013  83.541 113.029  0.00  0.00     0.119 C 
BRANCH   8   9
ATOM      9  C   LIG d   1       3.030  83.645 114.566  0.00  0.00     0.028 C 
ATOM     10  C   LIG d   1       1.954  84.605 115.101  0.00  0.00     0.006 C 
ENDBRANCH   8   9
BRANCH   8  11
ATOM     11  C   LIG d   1       3.159  82.048 112.722  0.00  0.00     0.028 C 
ATOM     12  C   LIG d   1       4.308  81.750 111.746  0.00  0.00     0.006 C 
ENDBRANCH   8  11
ENDBRANCH   7   8
ENDBRANCH   1   7
BRANCH   6  13
ATOM     13  N   LIG d   1       2.675  84.501 109.906  0.00  0.00    -0.311 N 
ATOM     14  C   LIG d   1       1.787  83.596 109.500  0.00  0.00     0.210 C 
ATOM     15  C   LIG d   1       2.201  82.793 108.263  0.00  0.00     0.109 C 
ATOM     16  O   LIG d   1       0.680  83.404 110.027  0.00  0.00    -0.276 OA
ATOM     17  H   LIG d   1       3.532  84.611 109.401  0.00  0.00     0.149 HD
ENDBRANCH   6  13
BRANCH   5  18
ATOM     18  N   LIG d   1       0.529  86.662 110.145  0.00  0.00     0.381 N 
ATOM     19  H   LIG d   1       0.515  87.110 109.250  0.00  0.00    -0.090 HD
ATOM     20  H   LIG d   1      -0.114  87.143 110.749  0.00  0.00    -0.090 HD
ATOM     21  H   LIG d   1       0.259  85.708 110.051  0.00  0.00    -0.090 HD
ENDBRANCH   5  18
BRANCH   3  22
ATOM     22  C   LIG d   1       3.264  88.806 113.441  0.00  0.00     0.382 C 
ATOM     23  O   LIG d   1       2.628  89.039 114.497  0.00  0.00    -0.241 OA
ATOM     24  O   LIG d   1       4.106  89.630 113.037  0.00  0.00    -0.241 OA
ENDBRANCH   3  22
TORSDOF 7
ENDMDL
MODEL 8
REMARK VINA RESULT:      -5.9      1.738      2.032
REMARK  7 active torsions:
REMARK  status: ('A' for Active; 'I' for Inactive)
REMARK    1  A    between atoms: C_2  and  C_3 
REMARK    2  A    between atoms: C_3  and  O_6 
REMARK    3  A    between atoms: C_3  and  C_4 
REMARK    4  A    between atoms: C_7  and  O_6 
REMARK    5  A    between atoms: C_9  and  C_10 
REMARK    6  A    between atoms: N_15  and  C_14 
REMARK    7  A    between atoms: N_20  and  C_19 
REMARK       I    between atoms: C_22  and  N_20 
ROOT
ATOM      1  C   LIG d   1       2.709  84.194 110.274  0.00  0.00     0.161 C 
ATOM      2  C   LIG d   1       2.832  85.470 110.850  0.00  0.00     0.016 C 
ATOM      3  C   LIG d   1       1.827  86.065 111.647  0.00  0.00     0.038 C 
ATOM      4  C   LIG d   1       0.685  85.357 112.049  0.00  0.00     0.028 C 
ATOM      5  C   LIG d   1       0.284  84.251 111.079  0.00  0.00    -0.047 C 
ATOM      6  C   LIG d   1       1.517  83.363 110.793  0.00  0.00     0.091 C 
ENDROOT
BRANCH   1   7
ATOM      7  O   LIG d   1       3.939  83.462 110.439  0.00  0.00    -0.368 OA
BRANCH   7   8
ATOM      8  C   LIG d   1       3.961  82.484 111.508  0.00  0.00     0.119 C 
BRANCH   8   9
ATOM      9  C   LIG d   1       4.862  83.042 112.627  0.00  0.00     0.028 C 
ATOM     10  C   LIG d   1       4.052  83.652 113.783  0.00  0.00     0.006 C 
ENDBRANCH   8   9
BRANCH   8  11
ATOM     11  C   LIG d   1       4.631  81.183 111.058  0.00  0.00     0.028 C 
ATOM     12  C   LIG d   1       4.700  81.045 109.529  0.00  0.00     0.006 C 
ENDBRANCH   8  11
ENDBRANCH   7   8
ENDBRANCH   1   7
BRANCH   6  13
ATOM     13  N   LIG d   1       1.233  82.306 109.788  0.00  0.00    -0.311 N 
ATOM     14  C   LIG d   1       0.902  81.057 110.110  0.00  0.00     0.210 C 
ATOM     15  C   LIG d   1       0.672  80.122 108.919  0.00  0.00     0.109 C 
ATOM     16  O   LIG d   1       0.746  80.644 111.269  0.00  0.00    -0.276 OA
ATOM     17  H   LIG d   1       1.306  82.564 108.823  0.00  0.00     0.149 HD
ENDBRANCH   6  13
BRANCH   5  18
ATOM     18  N   LIG d   1      -0.836  83.508 111.687  0.00  0.00     0.381 N 
ATOM     19  H   LIG d   1      -1.706  83.878 111.360  0.00  0.00    -0.090 HD
ATOM     20  H   LIG d   1      -0.798  83.624 112.685  0.00  0.00    -0.090 HD
ATOM     21  H   LIG d   1      -0.770  82.541 111.455  0.00  0.00    -0.090 HD
ENDBRANCH   5  18
BRANCH   3  22
ATOM     22  C   LIG d   1       1.942  87.396 112.017  0.00  0.00     0.382 C 
ATOM     23  O   LIG d   1       2.179  87.696 113.212  0.00  0.00    -0.241 OA
ATOM     24  O   LIG d   1       1.767  88.302 111.180  0.00  0.00    -0.241 OA
ENDBRANCH   3  22
TORSDOF 7
ENDMDL
MODEL 9
REMARK VINA RESULT:      -5.9      2.013      2.706
REMARK  7 active torsions:
REMARK  status: ('A' for Active; 'I' for Inactive)
REMARK    1  A    between atoms: C_2  and  C_3 
REMARK    2  A    between atoms: C_3  and  O_6 
REMARK    3  A    between atoms: C_3  and  C_4 
REMARK    4  A    between atoms: C_7  and  O_6 
REMARK    5  A    between atoms: C_9  and  C_10 
REMARK    6  A    between atoms: N_15  and  C_14 
REMARK    7  A    between atoms: N_20  and  C_19 
REMARK       I    between atoms: C_22  and  N_20 
ROOT
ATOM      1  C   LIG d   1       2.380  83.838 110.948  0.00  0.00     0.161 C 
ATOM      2  C   LIG d   1       2.766  85.183 111.067  0.00  0.00     0.016 C 
ATOM      3  C   LIG d   1       2.027  86.143 111.795  0.00  0.00     0.038 C 
ATOM      4  C   LIG d   1       0.924  85.787 112.585  0.00  0.00     0.028 C 
ATOM      5  C   LIG d   1       0.204  84.536 112.091  0.00  0.00    -0.047 C 
ATOM      6  C   LIG d   1       1.240  83.406 111.894  0.00  0.00     0.091 C 
ENDROOT
BRANCH   1   7
ATOM      7  O   LIG d   1       3.527  82.983 111.123  0.00  0.00    -0.368 OA
BRANCH   7   8
ATOM      8  C   LIG d   1       4.185  82.542 109.910  0.00  0.00     0.119 C 
BRANCH   8   9
ATOM      9  C   LIG d   1       3.184  81.662 109.135  0.00  0.00     0.028 C 
ATOM     10  C   LIG d   1       2.758  82.295 107.800  0.00  0.00     0.006 C 
ENDBRANCH   8   9
BRANCH   8  11
ATOM     11  C   LIG d   1       5.373  81.627 110.221  0.00  0.00     0.028 C 
ATOM     12  C   LIG d   1       5.103  80.157 109.862  0.00  0.00     0.006 C 
ENDBRANCH   8  11
ENDBRANCH   7   8
ENDBRANCH   1   7
BRANCH   6  13
ATOM     13  N   LIG d   1       0.633  82.172 111.332  0.00  0.00    -0.311 N 
ATOM     14  C   LIG d   1       0.443  81.060 112.041  0.00  0.00     0.210 C 
ATOM     15  C   LIG d   1      -0.181  79.896 111.263  0.00  0.00     0.109 C 
ATOM     16  O   LIG d   1       0.701  80.937 113.247  0.00  0.00    -0.276 OA
ATOM     17  H   LIG d   1       0.364  82.193 110.368  0.00  0.00     0.149 HD
ENDBRANCH   6  13
BRANCH   5  18
ATOM     18  N   LIG d   1      -0.837  84.200 113.081  0.00  0.00     0.381 N 
ATOM     19  H   LIG d   1      -1.613  84.823 112.981  0.00  0.00    -0.090 HD
ATOM     20  H   LIG d   1      -0.457  84.316 114.004  0.00  0.00    -0.090 HD
ATOM     21  H   LIG d   1      -1.138  83.259 112.953  0.00  0.00    -0.090 HD
ENDBRANCH   5  18
BRANCH   3  22
ATOM     22  C   LIG d   1       2.366  87.485 111.705  0.00  0.00     0.382 C 
ATOM     23  O   LIG d   1       3.561  87.840 111.845  0.00  0.00    -0.241 OA
ATOM     24  O   LIG d   1       1.486  88.349 111.531  0.00  0.00    -0.241 OA
ENDBRANCH   3  22
TORSDOF 7
ENDMDL
