MODEL 1
REMARK VINA RESULT:      -7.2      0.000      0.000
REMARK  7 active torsions:
REMARK  status: ('A' for Active; 'I' for Inactive)
REMARK    1  A    between atoms: C_2  and  C_3 
REMARK    2  A    between atoms: C_3  and  O_6 
REMARK    3  A    between atoms: C_3  and  C_4 
REMARK    4  A    between atoms: C_7  and  O_6 
REMARK    5  A    between atoms: C_9  and  C_10 
REMARK    6  A    between atoms: N_15  and  C_14 
REMARK    7  A    between atoms: N_20  and  C_19 
REMARK       I    between atoms: C_22  and  N_20 
ROOT
ATOM      1  C   LIG d   1       0.795  83.992 109.369  0.00  0.00     0.161 C 
ATOM      2  C   LIG d   1       0.567  85.242 109.967  0.00  0.00     0.016 C 
ATOM      3  C   LIG d   1      -0.173  85.411 111.160  0.00  0.00     0.038 C 
ATOM      4  C   LIG d   1      -0.610  84.317 111.923  0.00  0.00     0.028 C 
ATOM      5  C   LIG d   1      -0.839  83.056 111.097  0.00  0.00    -0.047 C 
ATOM      6  C   LIG d   1       0.421  82.778 110.246  0.00  0.00     0.091 C 
ENDROOT
BRANCH   1   7
ATOM      7  O   LIG d   1       2.168  83.897 108.943  0.00  0.00    -0.368 OA
BRANCH   7   8
ATOM      8  C   LIG d   1       3.120  83.468 109.947  0.00  0.00     0.119 C 
BRANCH   8   9
ATOM      9  C   LIG d   1       3.649  84.731 110.654  0.00  0.00     0.028 C 
ATOM     10  C   LIG d   1       3.532  84.640 112.184  0.00  0.00     0.006 C 
ENDBRANCH   8   9
BRANCH   8  11
ATOM     11  C   LIG d   1       4.349  82.816 109.307  0.00  0.00     0.028 C 
ATOM     12  C   LIG d   1       4.006  82.005 108.047  0.00  0.00     0.006 C 
ENDBRANCH   8  11
ENDBRANCH   7   8
ENDBRANCH   1   7
BRANCH   6  13
ATOM     13  N   LIG d   1       0.250  81.608 109.345  0.00  0.00    -0.311 N 
ATOM     14  C   LIG d   1       1.013  80.518 109.406  0.00  0.00     0.210 C 
ATOM     15  C   LIG d   1       0.680  79.438 108.372  0.00  0.00     0.109 C 
ATOM     16  O   LIG d   1       1.912  80.330 110.239  0.00  0.00    -0.276 OA
ATOM     17  H   LIG d   1      -0.477  81.664 108.659  0.00  0.00     0.149 HD
ENDBRANCH   6  13
BRANCH   5  18
ATOM     18  N   LIG d   1      -1.157  81.961 112.034  0.00  0.00     0.381 N 
ATOM     19  H   LIG d   1      -2.140  81.947 112.217  0.00  0.00    -0.090 HD
ATOM     20  H   LIG d   1      -0.677  82.126 112.901  0.00  0.00    -0.090 HD
ATOM     21  H   LIG d   1      -0.871  81.088 111.648  0.00  0.00    -0.090 HD
ENDBRANCH   5  18
BRANCH   3  22
ATOM     22  C   LIG d   1      -0.518  86.686 111.581  0.00  0.00     0.382 C 
ATOM     23  O   LIG d   1      -1.702  87.085 111.470  0.00  0.00    -0.241 OA
ATOM     24  O   LIG d   1       0.350  87.459 112.029  0.00  0.00    -0.241 OA
ENDBRANCH   3  22
TORSDOF 7
ENDMDL
MODEL 2
REMARK VINA RESULT:      -6.7      2.560      4.890
REMARK  7 active torsions:
REMARK  status: ('A' for Active; 'I' for Inactive)
REMARK    1  A    between atoms: C_2  and  C_3 
REMARK    2  A    between atoms: C_3  and  O_6 
REMARK    3  A    between atoms: C_3  and  C_4 
REMARK    4  A    between atoms: C_7  and  O_6 
REMARK    5  A    between atoms: C_9  and  C_10 
REMARK    6  A    between atoms: N_15  and  C_14 
REMARK    7  A    between atoms: N_20  and  C_19 
REMARK       I    between atoms: C_22  and  N_20 
ROOT
ATOM      1  C   LIG d   1       1.189  81.330 111.875  0.00  0.00     0.161 C 
ATOM      2  C   LIG d   1       2.318  81.850 111.221  0.00  0.00     0.016 C 
ATOM      3  C   LIG d   1       2.533  81.733 109.828  0.00  0.00     0.038 C 
ATOM      4  C   LIG d   1       1.553  81.216 108.968  0.00  0.00     0.028 C 
ATOM      5  C   LIG d   1       0.615  80.223 109.645  0.00  0.00    -0.047 C 
ATOM      6  C   LIG d   1       0.057  80.861 110.938  0.00  0.00     0.091 C 
ENDROOT
BRANCH   1   7
ATOM      7  O   LIG d   1       0.688  82.293 112.824  0.00  0.00    -0.368 OA
BRANCH   7   8
ATOM      8  C   LIG d   1       0.856  83.687 112.466  0.00  0.00     0.119 C 
BRANCH   8   9
ATOM      9  C   LIG d   1       1.251  84.448 113.747  0.00  0.00     0.028 C 
ATOM     10  C   LIG d   1       0.694  85.881 113.772  0.00  0.00     0.006 C 
ENDBRANCH   8   9
BRANCH   8  11
ATOM     11  C   LIG d   1      -0.468  84.310 112.016  0.00  0.00     0.028 C 
ATOM     12  C   LIG d   1      -0.547  84.507 110.494  0.00  0.00     0.006 C 
ENDBRANCH   8  11
ENDBRANCH   7   8
ENDBRANCH   1   7
BRANCH   6  13
ATOM     13  N   LIG d   1      -0.804  79.925 111.706  0.00  0.00    -0.311 N 
ATOM     14  C   LIG d   1      -1.916  80.301 112.336  0.00  0.00     0.210 C 
ATOM     15  C   LIG d   1      -2.645  79.181 113.085  0.00  0.00     0.109 C 
ATOM     16  O   LIG d   1      -2.385  81.449 112.319  0.00  0.00    -0.276 OA
ATOM     17  H   LIG d   1      -0.515  78.967 111.746  0.00  0.00     0.149 HD
ENDBRANCH   6  13
BRANCH   5  18
ATOM     18  N   LIG d   1      -0.437  79.870 108.674  0.00  0.00     0.381 N 
ATOM     19  H   LIG d   1      -0.078  79.945 107.743  0.00  0.00    -0.090 HD
ATOM     20  H   LIG d   1      -1.200  80.517 108.771  0.00  0.00    -0.090 HD
ATOM     21  H   LIG d   1      -0.757  78.941 108.839  0.00  0.00    -0.090 HD
ENDBRANCH   5  18
BRANCH   3  22
ATOM     22  C   LIG d   1       3.757  82.099 109.289  0.00  0.00     0.382 C 
ATOM     23  O   LIG d   1       3.867  82.285 108.053  0.00  0.00    -0.241 OA
ATOM     24  O   LIG d   1       4.763  82.202 110.016  0.00  0.00    -0.241 OA
ENDBRANCH   3  22
TORSDOF 7
ENDMDL
MODEL 3
REMARK VINA RESULT:      -6.4      2.642      4.316
REMARK  7 active torsions:
REMARK  status: ('A' for Active; 'I' for Inactive)
REMARK    1  A    between atoms: C_2  and  C_3 
REMARK    2  A    between atoms: C_3  and  O_6 
REMARK    3  A    between atoms: C_3  and  C_4 
REMARK    4  A    between atoms: C_7  and  O_6 
REMARK    5  A    between atoms: C_9  and  C_10 
REMARK    6  A    between atoms: N_15  and  C_14 
REMARK    7  A    between atoms: N_20  and  C_19 
REMARK       I    between atoms: C_22  and  N_20 
ROOT
ATOM      1  C   LIG d   1       0.110  82.318 111.170  0.00  0.00     0.161 C 
ATOM      2  C   LIG d   1      -0.973  81.962 111.990  0.00  0.00     0.016 C 
ATOM      3  C   LIG d   1      -1.548  80.670 112.002  0.00  0.00     0.038 C 
ATOM      4  C   LIG d   1      -0.978  79.598 111.300  0.00  0.00     0.028 C 
ATOM      5  C   LIG d   1      -0.188  80.031 110.070  0.00  0.00    -0.047 C 
ATOM      6  C   LIG d   1       0.816  81.132 110.480  0.00  0.00     0.091 C 
ENDROOT
BRANCH   1   7
ATOM      7  O   LIG d   1       1.060  83.096 111.926  0.00  0.00    -0.368 OA
BRANCH   7   8
ATOM      8  C   LIG d   1       1.129  84.506 111.603  0.00  0.00     0.119 C 
BRANCH   8   9
ATOM      9  C   LIG d   1       0.043  84.794 110.548  0.00  0.00     0.028 C 
ATOM     10  C   LIG d   1       0.638  85.226 109.197  0.00  0.00     0.006 C 
ENDBRANCH   8   9
BRANCH   8  11
ATOM     11  C   LIG d   1       2.457  84.859 110.926  0.00  0.00     0.028 C 
ATOM     12  C   LIG d   1       3.679  84.468 111.771  0.00  0.00     0.006 C 
ENDBRANCH   8  11
ENDBRANCH   7   8
ENDBRANCH   1   7
BRANCH   6  13
ATOM     13  N   LIG d   1       1.572  81.672 109.319  0.00  0.00    -0.311 N 
ATOM     14  C   LIG d   1       2.902  81.689 109.254  0.00  0.00     0.210 C 
ATOM     15  C   LIG d   1       3.478  82.308 107.977  0.00  0.00     0.109 C 
ATOM     16  O   LIG d   1       3.658  81.221 110.118  0.00  0.00    -0.276 OA
ATOM     17  H   LIG d   1       1.036  82.044 108.559  0.00  0.00     0.149 HD
ENDBRANCH   6  13
BRANCH   5  18
ATOM     18  N   LIG d   1       0.465  78.831 109.514  0.00  0.00     0.381 N 
ATOM     19  H   LIG d   1       0.606  78.947 108.530  0.00  0.00    -0.090 HD
ATOM     20  H   LIG d   1      -0.137  78.039 109.654  0.00  0.00    -0.090 HD
ATOM     21  H   LIG d   1       1.339  78.678 109.966  0.00  0.00    -0.090 HD
ENDBRANCH   5  18
BRANCH   3  22
ATOM     22  C   LIG d   1      -2.731  80.451 112.691  0.00  0.00     0.382 C 
ATOM     23  O   LIG d   1      -3.102  79.280 112.944  0.00  0.00    -0.241 OA
ATOM     24  O   LIG d   1      -3.455  81.409 113.025  0.00  0.00    -0.241 OA
ENDBRANCH   3  22
TORSDOF 7
ENDMDL
MODEL 4
REMARK VINA RESULT:      -6.3      2.254      3.499
REMARK  7 active torsions:
REMARK  status: ('A' for Active; 'I' for Inactive)
REMARK    1  A    between atoms: C_2  and  C_3 
REMARK    2  A    between atoms: C_3  and  O_6 
REMARK    3  A    between atoms: C_3  and  C_4 
REMARK    4  A    between atoms: C_7  and  O_6 
REMARK    5  A    between atoms: C_9  and  C_10 
REMARK    6  A    between atoms: N_15  and  C_14 
REMARK    7  A    between atoms: N_20  and  C_19 
REMARK       I    between atoms: C_22  and  N_20 
ROOT
ATOM      1  C   LIG d   1       1.120  82.603 110.363  0.00  0.00     0.161 C 
ATOM      2  C   LIG d   1       1.682  83.885 110.241  0.00  0.00     0.016 C 
ATOM      3  C   LIG d   1       2.414  84.515 111.274  0.00  0.00     0.038 C 
ATOM      4  C   LIG d   1       2.765  83.839 112.453  0.00  0.00     0.028 C 
ATOM      5  C   LIG d   1       1.791  82.726 112.825  0.00  0.00    -0.047 C 
ATOM      6  C   LIG d   1       1.587  81.807 111.599  0.00  0.00     0.091 C 
ENDROOT
BRANCH   1   7
ATOM      7  O   LIG d   1       1.363  81.848 109.160  0.00  0.00    -0.368 OA
BRANCH   7   8
ATOM      8  C   LIG d   1       2.313  80.759 109.271  0.00  0.00     0.119 C 
BRANCH   8   9
ATOM      9  C   LIG d   1       3.552  81.139 108.437  0.00  0.00     0.028 C 
ATOM     10  C   LIG d   1       4.589  81.928 109.254  0.00  0.00     0.006 C 
ENDBRANCH   8   9
BRANCH   8  11
ATOM     11  C   LIG d   1       1.770  79.478 108.630  0.00  0.00     0.028 C 
ATOM     12  C   LIG d   1       0.255  79.534 108.376  0.00  0.00     0.006 C 
ENDBRANCH   8  11
ENDBRANCH   7   8
ENDBRANCH   1   7
BRANCH   6  13
ATOM     13  N   LIG d   1       0.584  80.740 111.852  0.00  0.00    -0.311 N 
ATOM     14  C   LIG d   1      -0.718  80.979 112.005  0.00  0.00     0.210 C 
ATOM     15  C   LIG d   1      -1.575  79.739 112.277  0.00  0.00     0.109 C 
ATOM     16  O   LIG d   1      -1.248  82.096 111.910  0.00  0.00    -0.276 OA
ATOM     17  H   LIG d   1       0.923  79.800 111.913  0.00  0.00     0.149 HD
ENDBRANCH   6  13
BRANCH   5  18
ATOM     18  N   LIG d   1       2.350  82.018 113.992  0.00  0.00     0.381 N 
ATOM     19  H   LIG d   1       1.988  81.086 114.028  0.00  0.00    -0.090 HD
ATOM     20  H   LIG d   1       2.068  82.498 114.829  0.00  0.00    -0.090 HD
ATOM     21  H   LIG d   1       3.344  81.994 113.933  0.00  0.00    -0.090 HD
ENDBRANCH   5  18
BRANCH   3  22
ATOM     22  C   LIG d   1       2.769  85.849 111.149  0.00  0.00     0.382 C 
ATOM     23  O   LIG d   1       3.940  86.214 111.416  0.00  0.00    -0.241 OA
ATOM     24  O   LIG d   1       1.923  86.700 110.816  0.00  0.00    -0.241 OA
ENDBRANCH   3  22
TORSDOF 7
ENDMDL
MODEL 5
REMARK VINA RESULT:      -5.9      2.455      4.380
REMARK  7 active torsions:
REMARK  status: ('A' for Active; 'I' for Inactive)
REMARK    1  A    between atoms: C_2  and  C_3 
REMARK    2  A    between atoms: C_3  and  O_6 
REMARK    3  A    between atoms: C_3  and  C_4 
REMARK    4  A    between atoms: C_7  and  O_6 
REMARK    5  A    between atoms: C_9  and  C_10 
REMARK    6  A    between atoms: N_15  and  C_14 
REMARK    7  A    between atoms: N_20  and  C_19 
REMARK       I    between atoms: C_22  and  N_20 
ROOT
ATOM      1  C   LIG d   1      -0.221  82.377 111.407  0.00  0.00     0.161 C 
ATOM      2  C   LIG d   1      -0.657  83.588 111.970  0.00  0.00     0.016 C 
ATOM      3  C   LIG d   1      -0.508  84.841 111.333  0.00  0.00     0.038 C 
ATOM      4  C   LIG d   1      -0.044  84.951 110.013  0.00  0.00     0.028 C 
ATOM      5  C   LIG d   1       0.877  83.809 109.598  0.00  0.00    -0.047 C 
ATOM      6  C   LIG d   1       0.186  82.464 109.921  0.00  0.00     0.091 C 
ENDROOT
BRANCH   1   7
ATOM      7  O   LIG d   1      -1.227  81.362 111.593  0.00  0.00    -0.368 OA
BRANCH   7   8
ATOM      8  C   LIG d   1      -0.759  80.085 112.092  0.00  0.00     0.119 C 
BRANCH   8   9
ATOM      9  C   LIG d   1      -1.930  79.089 111.986  0.00  0.00     0.028 C 
ATOM     10  C   LIG d   1      -1.784  78.136 110.787  0.00  0.00     0.006 C 
ENDBRANCH   8   9
BRANCH   8  11
ATOM     11  C   LIG d   1      -0.423  80.159 113.584  0.00  0.00     0.028 C 
ATOM     12  C   LIG d   1      -1.186  79.118 114.419  0.00  0.00     0.006 C 
ENDBRANCH   8  11
ENDBRANCH   7   8
ENDBRANCH   1   7
BRANCH   6  13
ATOM     13  N   LIG d   1       1.054  81.295 109.623  0.00  0.00    -0.311 N 
ATOM     14  C   LIG d   1       0.666  80.268 108.870  0.00  0.00     0.210 C 
ATOM     15  C   LIG d   1       1.709  79.157 108.705  0.00  0.00     0.109 C 
ATOM     16  O   LIG d   1      -0.430  80.185 108.297  0.00  0.00    -0.276 OA
ATOM     17  H   LIG d   1       1.972  81.295 110.023  0.00  0.00     0.149 HD
ENDBRANCH   6  13
BRANCH   5  18
ATOM     18  N   LIG d   1       1.173  83.976 108.162  0.00  0.00     0.381 N 
ATOM     19  H   LIG d   1       1.978  83.434 107.918  0.00  0.00    -0.090 HD
ATOM     20  H   LIG d   1       1.377  84.943 107.983  0.00  0.00    -0.090 HD
ATOM     21  H   LIG d   1       0.391  83.687 107.617  0.00  0.00    -0.090 HD
ENDBRANCH   5  18
BRANCH   3  22
ATOM     22  C   LIG d   1      -0.787  86.006 112.032  0.00  0.00     0.382 C 
ATOM     23  O   LIG d   1      -1.759  86.723 111.694  0.00  0.00    -0.241 OA
ATOM     24  O   LIG d   1      -0.052  86.371 112.969  0.00  0.00    -0.241 OA
ENDBRANCH   3  22
TORSDOF 7
ENDMDL
MODEL 6
REMARK VINA RESULT:      -5.6      2.375      5.824
REMARK  7 active torsions:
REMARK  status: ('A' for Active; 'I' for Inactive)
REMARK    1  A    between atoms: C_2  and  C_3 
REMARK    2  A    between atoms: C_3  and  O_6 
REMARK    3  A    between atoms: C_3  and  C_4 
REMARK    4  A    between atoms: C_7  and  O_6 
REMARK    5  A    between atoms: C_9  and  C_10 
REMARK    6  A    between atoms: N_15  and  C_14 
REMARK    7  A    between atoms: N_20  and  C_19 
REMARK       I    between atoms: C_22  and  N_20 
ROOT
ATOM      1  C   LIG d   1       0.799  82.974 109.731  0.00  0.00     0.161 C 
ATOM      2  C   LIG d   1       1.833  82.176 109.215  0.00  0.00     0.016 C 
ATOM      3  C   LIG d   1       3.204  82.489 109.360  0.00  0.00     0.038 C 
ATOM      4  C   LIG d   1       3.641  83.551 110.166  0.00  0.00     0.028 C 
ATOM      5  C   LIG d   1       2.620  84.677 110.289  0.00  0.00    -0.047 C 
ATOM      6  C   LIG d   1       1.258  84.077 110.708  0.00  0.00     0.091 C 
ENDROOT
BRANCH   1   7
ATOM      7  O   LIG d   1      -0.200  82.140 110.351  0.00  0.00    -0.368 OA
BRANCH   7   8
ATOM      8  C   LIG d   1       0.267  80.877 110.885  0.00  0.00     0.119 C 
BRANCH   8   9
ATOM      9  C   LIG d   1      -0.591  79.763 110.255  0.00  0.00     0.028 C 
ATOM     10  C   LIG d   1      -0.225  79.502 108.784  0.00  0.00     0.006 C 
ENDBRANCH   8   9
BRANCH   8  11
ATOM     11  C   LIG d   1       0.012  80.781 112.392  0.00  0.00     0.028 C 
ATOM     12  C   LIG d   1      -1.133  79.818 112.743  0.00  0.00     0.006 C 
ENDBRANCH   8  11
ENDBRANCH   7   8
ENDBRANCH   1   7
BRANCH   6  13
ATOM     13  N   LIG d   1       0.182  85.100 110.770  0.00  0.00    -0.311 N 
ATOM     14  C   LIG d   1      -0.136  85.763 111.880  0.00  0.00     0.210 C 
ATOM     15  C   LIG d   1      -1.290  86.760 111.730  0.00  0.00     0.109 C 
ATOM     16  O   LIG d   1       0.448  85.643 112.967  0.00  0.00    -0.276 OA
ATOM     17  H   LIG d   1      -0.323  85.283 109.925  0.00  0.00     0.149 HD
ENDBRANCH   6  13
BRANCH   5  18
ATOM     18  N   LIG d   1       3.146  85.651 111.264  0.00  0.00     0.381 N 
ATOM     19  H   LIG d   1       3.084  85.273 112.188  0.00  0.00    -0.090 HD
ATOM     20  H   LIG d   1       2.586  86.484 111.227  0.00  0.00    -0.090 HD
ATOM     21  H   LIG d   1       4.094  85.870 111.050  0.00  0.00    -0.090 HD
ENDBRANCH   5  18
BRANCH   3  22
ATOM     22  C   LIG d   1       4.153  81.759 108.661  0.00  0.00     0.382 C 
ATOM     23  O   LIG d   1       4.781  80.836 109.234  0.00  0.00    -0.241 OA
ATOM     24  O   LIG d   1       4.422  82.041 107.478  0.00  0.00    -0.241 OA
ENDBRANCH   3  22
TORSDOF 7
ENDMDL
MODEL 7
REMARK VINA RESULT:      -5.4      2.471      4.652
REMARK  7 active torsions:
REMARK  status: ('A' for Active; 'I' for Inactive)
REMARK    1  A    between atoms: C_2  and  C_3 
REMARK    2  A    between atoms: C_3  and  O_6 
REMARK    3  A    between atoms: C_3  and  C_4 
REMARK    4  A    between atoms: C_7  and  O_6 
REMARK    5  A    between atoms: C_9  and  C_10 
REMARK    6  A    between atoms: N_15  and  C_14 
REMARK    7  A    between atoms: N_20  and  C_19 
REMARK       I    between atoms: C_22  and  N_20 
ROOT
ATOM      1  C   LIG d   1       1.445  81.742 111.184  0.00  0.00     0.161 C 
ATOM      2  C   LIG d   1       0.408  80.823 111.418  0.00  0.00     0.016 C 
ATOM      3  C   LIG d   1      -0.853  81.190 111.942  0.00  0.00     0.038 C 
ATOM      4  C   LIG d   1      -1.217  82.531 112.128  0.00  0.00     0.028 C 
ATOM      5  C   LIG d   1      -0.029  83.453 112.381  0.00  0.00    -0.047 C 
ATOM      6  C   LIG d   1       1.027  83.225 111.275  0.00  0.00     0.091 C 
ENDROOT
BRANCH   1   7
ATOM      7  O   LIG d   1       2.058  81.472 109.907  0.00  0.00    -0.368 OA
BRANCH   7   8
ATOM      8  C   LIG d   1       3.283  80.699 109.940  0.00  0.00     0.119 C 
BRANCH   8   9
ATOM      9  C   LIG d   1       4.386  81.553 109.286  0.00  0.00     0.028 C 
ATOM     10  C   LIG d   1       3.818  82.612 108.326  0.00  0.00     0.006 C 
ENDBRANCH   8   9
BRANCH   8  11
ATOM     11  C   LIG d   1       3.173  79.444 109.070  0.00  0.00     0.028 C 
ATOM     12  C   LIG d   1       1.794  79.297 108.406  0.00  0.00     0.006 C 
ENDBRANCH   8  11
ENDBRANCH   7   8
ENDBRANCH   1   7
BRANCH   6  13
ATOM     13  N   LIG d   1       2.259  84.026 111.494  0.00  0.00    -0.311 N 
ATOM     14  C   LIG d   1       2.449  85.237 110.971  0.00  0.00     0.210 C 
ATOM     15  C   LIG d   1       3.798  85.881 111.305  0.00  0.00     0.109 C 
ATOM     16  O   LIG d   1       1.615  85.851 110.290  0.00  0.00    -0.276 OA
ATOM     17  H   LIG d   1       2.975  83.616 112.061  0.00  0.00     0.149 HD
ENDBRANCH   6  13
BRANCH   5  18
ATOM     18  N   LIG d   1      -0.537  84.837 112.418  0.00  0.00     0.381 N 
ATOM     19  H   LIG d   1      -1.504  84.849 112.160  0.00  0.00    -0.090 HD
ATOM     20  H   LIG d   1      -0.026  85.389 111.752  0.00  0.00    -0.090 HD
ATOM     21  H   LIG d   1      -0.425  85.217 113.332  0.00  0.00    -0.090 HD
ENDBRANCH   5  18
BRANCH   3  22
ATOM     22  C   LIG d   1      -1.750  80.204 112.325  0.00  0.00     0.382 C 
ATOM     23  O   LIG d   1      -2.974  80.468 112.404  0.00  0.00    -0.241 OA
ATOM     24  O   LIG d   1      -1.346  79.068 112.635  0.00  0.00    -0.241 OA
ENDBRANCH   3  22
TORSDOF 7
ENDMDL
MODEL 8
REMARK VINA RESULT:      -5.3      2.481      3.569
REMARK  7 active torsions:
REMARK  status: ('A' for Active; 'I' for Inactive)
REMARK    1  A    between atoms: C_2  and  C_3 
REMARK    2  A    between atoms: C_3  and  O_6 
REMARK    3  A    between atoms: C_3  and  C_4 
REMARK    4  A    between atoms: C_7  and  O_6 
REMARK    5  A    between atoms: C_9  and  C_10 
REMARK    6  A    between atoms: N_15  and  C_14 
REMARK    7  A    between atoms: N_20  and  C_19 
REMARK       I    between atoms: C_22  and  N_20 
ROOT
ATOM      1  C   LIG d   1       0.337  83.669 112.290  0.00  0.00     0.161 C 
ATOM      2  C   LIG d   1       0.995  84.855 112.657  0.00  0.00     0.016 C 
ATOM      3  C   LIG d   1       2.112  84.888 113.523  0.00  0.00     0.038 C 
ATOM      4  C   LIG d   1       2.745  83.716 113.963  0.00  0.00     0.028 C 
ATOM      5  C   LIG d   1       1.812  82.511 114.025  0.00  0.00    -0.047 C 
ATOM      6  C   LIG d   1       1.080  82.372 112.671  0.00  0.00     0.091 C 
ENDROOT
BRANCH   1   7
ATOM      7  O   LIG d   1       0.051  83.687 110.877  0.00  0.00    -0.368 OA
BRANCH   7   8
ATOM      8  C   LIG d   1       1.036  84.335 110.036  0.00  0.00     0.119 C 
BRANCH   8   9
ATOM      9  C   LIG d   1       0.280  85.281 109.082  0.00  0.00     0.028 C 
ATOM     10  C   LIG d   1      -1.076  85.729 109.653  0.00  0.00     0.006 C 
ENDBRANCH   8   9
BRANCH   8  11
ATOM     11  C   LIG d   1       1.745  83.326 109.127  0.00  0.00     0.028 C 
ATOM     12  C   LIG d   1       1.420  83.532 107.640  0.00  0.00     0.006 C 
ENDBRANCH   8  11
ENDBRANCH   7   8
ENDBRANCH   1   7
BRANCH   6  13
ATOM     13  N   LIG d   1       0.085  81.268 112.675  0.00  0.00    -0.311 N 
ATOM     14  C   LIG d   1      -0.125  80.466 111.632  0.00  0.00     0.210 C 
ATOM     15  C   LIG d   1      -1.210  79.406 111.840  0.00  0.00     0.109 C 
ATOM     16  O   LIG d   1       0.507  80.513 110.566  0.00  0.00    -0.276 OA
ATOM     17  H   LIG d   1      -0.450  81.139 113.511  0.00  0.00     0.149 HD
ENDBRANCH   6  13
BRANCH   5  18
ATOM     18  N   LIG d   1       2.629  81.331 114.365  0.00  0.00     0.381 N 
ATOM     19  H   LIG d   1       2.768  80.769 113.549  0.00  0.00    -0.090 HD
ATOM     20  H   LIG d   1       2.138  80.781 115.048  0.00  0.00    -0.090 HD
ATOM     21  H   LIG d   1       3.509  81.620 114.731  0.00  0.00    -0.090 HD
ENDBRANCH   5  18
BRANCH   3  22
ATOM     22  C   LIG d   1       2.584  86.106 113.989  0.00  0.00     0.382 C 
ATOM     23  O   LIG d   1       3.702  86.170 114.555  0.00  0.00    -0.241 OA
ATOM     24  O   LIG d   1       1.886  87.133 113.891  0.00  0.00    -0.241 OA
ENDBRANCH   3  22
TORSDOF 7
ENDMDL
MODEL 9
REMARK VINA RESULT:      -5.1      2.380      3.029
REMARK  7 active torsions:
REMARK  status: ('A' for Active; 'I' for Inactive)
REMARK    1  A    between atoms: C_2  and  C_3 
REMARK    2  A    between atoms: C_3  and  O_6 
REMARK    3  A    between atoms: C_3  and  C_4 
REMARK    4  A    between atoms: C_7  and  O_6 
REMARK    5  A    between atoms: C_9  and  C_10 
REMARK    6  A    between atoms: N_15  and  C_14 
REMARK    7  A    between atoms: N_20  and  C_19 
REMARK       I    between atoms: C_22  and  N_20 
ROOT
ATOM      1  C   LIG d   1       0.862  82.699 110.810  0.00  0.00     0.161 C 
ATOM      2  C   LIG d   1       1.181  84.049 111.036  0.00  0.00     0.016 C 
ATOM      3  C   LIG d   1       1.622  84.546 112.284  0.00  0.00     0.038 C 
ATOM      4  C   LIG d   1       1.920  83.695 113.358  0.00  0.00     0.028 C 
ATOM      5  C   LIG d   1       1.133  82.389 113.332  0.00  0.00    -0.047 C 
ATOM      6  C   LIG d   1       1.287  81.737 111.939  0.00  0.00     0.091 C 
ENDROOT
BRANCH   1   7
ATOM      7  O   LIG d   1       1.417  82.270 109.551  0.00  0.00    -0.368 OA
BRANCH   7   8
ATOM      8  C   LIG d   1       2.584  82.993 109.089  0.00  0.00     0.119 C 
BRANCH   8   9
ATOM      9  C   LIG d   1       2.601  82.910 107.550  0.00  0.00     0.028 C 
ATOM     10  C   LIG d   1       1.427  83.669 106.909  0.00  0.00     0.006 C 
ENDBRANCH   8   9
BRANCH   8  11
ATOM     11  C   LIG d   1       3.878  82.313 109.546  0.00  0.00     0.028 C 
ATOM     12  C   LIG d   1       4.177  81.020 108.771  0.00  0.00     0.006 C 
ENDBRANCH   8  11
ENDBRANCH   7   8
ENDBRANCH   1   7
BRANCH   6  13
ATOM     13  N   LIG d   1       0.480  80.497 111.801  0.00  0.00    -0.311 N 
ATOM     14  C   LIG d   1      -0.835  80.452 112.004  0.00  0.00     0.210 C 
ATOM     15  C   LIG d   1      -1.470  79.069 111.828  0.00  0.00     0.109 C 
ATOM     16  O   LIG d   1      -1.542  81.432 112.282  0.00  0.00    -0.276 OA
ATOM     17  H   LIG d   1       0.969  79.661 111.547  0.00  0.00     0.149 HD
ENDBRANCH   6  13
BRANCH   5  18
ATOM     18  N   LIG d   1       1.640  81.541 114.427  0.00  0.00     0.381 N 
ATOM     19  H   LIG d   1       1.848  82.107 115.226  0.00  0.00    -0.090 HD
ATOM     20  H   LIG d   1       2.489  81.096 114.127  0.00  0.00    -0.090 HD
ATOM     21  H   LIG d   1       0.962  80.852 114.667  0.00  0.00    -0.090 HD
ENDBRANCH   5  18
BRANCH   3  22
ATOM     22  C   LIG d   1       1.730  85.915 112.478  0.00  0.00     0.382 C 
ATOM     23  O   LIG d   1       2.775  86.517 112.132  0.00  0.00    -0.241 OA
ATOM     24  O   LIG d   1       0.814  86.548 113.037  0.00  0.00    -0.241 OA
ENDBRANCH   3  22
TORSDOF 7
ENDMDL
