MODEL 1
REMARK VINA RESULT:      -5.6      0.000      0.000
REMARK  7 active torsions:
REMARK  status: ('A' for Active; 'I' for Inactive)
REMARK    1  A    between atoms: C_2  and  C_3 
REMARK    2  A    between atoms: C_3  and  O_6 
REMARK    3  A    between atoms: C_3  and  C_4 
REMARK    4  A    between atoms: C_7  and  O_6 
REMARK    5  A    between atoms: C_9  and  C_10 
REMARK    6  A    between atoms: N_15  and  C_14 
REMARK    7  A    between atoms: N_20  and  C_19 
REMARK       I    between atoms: C_22  and  N_20 
ROOT
ATOM      1  C   LIG d   1       2.072  85.087 110.658  0.00  0.00     0.161 C 
ATOM      2  C   LIG d   1       1.081  85.944 111.167  0.00  0.00     0.016 C 
ATOM      3  C   LIG d   1      -0.095  85.483 111.803  0.00  0.00     0.038 C 
ATOM      4  C   LIG d   1      -0.290  84.128 112.109  0.00  0.00     0.028 C 
ATOM      5  C   LIG d   1       0.446  83.182 111.165  0.00  0.00    -0.047 C 
ATOM      6  C   LIG d   1       1.929  83.610 111.081  0.00  0.00     0.091 C 
ENDROOT
BRANCH   1   7
ATOM      7  O   LIG d   1       3.377  85.586 111.011  0.00  0.00    -0.368 OA
BRANCH   7   8
ATOM      8  C   LIG d   1       3.472  86.287 112.275  0.00  0.00     0.119 C 
BRANCH   8   9
ATOM      9  C   LIG d   1       4.575  87.353 112.132  0.00  0.00     0.028 C 
ATOM     10  C   LIG d   1       4.330  88.576 113.032  0.00  0.00     0.006 C 
ENDBRANCH   8   9
BRANCH   8  11
ATOM     11  C   LIG d   1       3.950  85.356 113.394  0.00  0.00     0.028 C 
ATOM     12  C   LIG d   1       3.026  85.377 114.622  0.00  0.00     0.006 C 
ENDBRANCH   8  11
ENDBRANCH   7   8
ENDBRANCH   1   7
BRANCH   6  13
ATOM     13  N   LIG d   1       2.703  82.789 110.114  0.00  0.00    -0.311 N 
ATOM     14  C   LIG d   1       3.349  81.674 110.451  0.00  0.00     0.210 C 
ATOM     15  C   LIG d   1       4.100  80.990 109.305  0.00  0.00     0.109 C 
ATOM     16  O   LIG d   1       3.344  81.169 111.584  0.00  0.00    -0.276 OA
ATOM     17  H   LIG d   1       2.733  83.109 109.166  0.00  0.00     0.149 HD
ENDBRANCH   6  13
BRANCH   5  18
ATOM     18  N   LIG d   1       0.269  81.811 111.681  0.00  0.00     0.381 N 
ATOM     19  H   LIG d   1      -0.641  81.473 111.437  0.00  0.00    -0.090 HD
ATOM     20  H   LIG d   1       0.340  81.829 112.683  0.00  0.00    -0.090 HD
ATOM     21  H   LIG d   1       0.967  81.211 111.301  0.00  0.00    -0.090 HD
ENDBRANCH   5  18
BRANCH   3  22
ATOM     22  C   LIG d   1      -1.110  86.378 112.103  0.00  0.00     0.382 C 
ATOM     23  O   LIG d   1      -1.593  86.413 113.261  0.00  0.00    -0.241 OA
ATOM     24  O   LIG d   1      -1.578  87.122 111.221  0.00  0.00    -0.241 OA
ENDBRANCH   3  22
TORSDOF 7
ENDMDL
MODEL 2
REMARK VINA RESULT:      -5.6      2.464      3.998
REMARK  7 active torsions:
REMARK  status: ('A' for Active; 'I' for Inactive)
REMARK    1  A    between atoms: C_2  and  C_3 
REMARK    2  A    between atoms: C_3  and  O_6 
REMARK    3  A    between atoms: C_3  and  C_4 
REMARK    4  A    between atoms: C_7  and  O_6 
REMARK    5  A    between atoms: C_9  and  C_10 
REMARK    6  A    between atoms: N_15  and  C_14 
REMARK    7  A    between atoms: N_20  and  C_19 
REMARK       I    between atoms: C_22  and  N_20 
ROOT
ATOM      1  C   LIG d   1       3.726  84.878 112.082  0.00  0.00     0.161 C 
ATOM      2  C   LIG d   1       4.075  86.135 112.603  0.00  0.00     0.016 C 
ATOM      3  C   LIG d   1       3.410  87.333 112.255  0.00  0.00     0.038 C 
ATOM      4  C   LIG d   1       2.246  87.335 111.472  0.00  0.00     0.028 C 
ATOM      5  C   LIG d   1       2.156  86.150 110.517  0.00  0.00    -0.047 C 
ATOM      6  C   LIG d   1       2.388  84.845 111.313  0.00  0.00     0.091 C 
ENDROOT
BRANCH   1   7
ATOM      7  O   LIG d   1       3.721  83.896 113.137  0.00  0.00    -0.368 OA
BRANCH   7   8
ATOM      8  C   LIG d   1       2.450  83.672 113.794  0.00  0.00     0.119 C 
BRANCH   8   9
ATOM      9  C   LIG d   1       2.619  84.062 115.275  0.00  0.00     0.028 C 
ATOM     10  C   LIG d   1       2.097  85.478 115.573  0.00  0.00     0.006 C 
ENDBRANCH   8   9
BRANCH   8  11
ATOM     11  C   LIG d   1       2.082  82.185 113.806  0.00  0.00     0.028 C 
ATOM     12  C   LIG d   1       2.479  81.484 115.114  0.00  0.00     0.006 C 
ENDBRANCH   8  11
ENDBRANCH   7   8
ENDBRANCH   1   7
BRANCH   6  13
ATOM     13  N   LIG d   1       2.401  83.643 110.440  0.00  0.00    -0.311 N 
ATOM     14  C   LIG d   1       1.328  82.883 110.222  0.00  0.00     0.210 C 
ATOM     15  C   LIG d   1       1.564  81.679 109.305  0.00  0.00     0.109 C 
ATOM     16  O   LIG d   1       0.197  83.111 110.676  0.00  0.00    -0.276 OA
ATOM     17  H   LIG d   1       3.271  83.403 110.006  0.00  0.00     0.149 HD
ENDBRANCH   6  13
BRANCH   5  18
ATOM     18  N   LIG d   1       0.834  86.202 109.865  0.00  0.00     0.381 N 
ATOM     19  H   LIG d   1       0.927  86.570 108.939  0.00  0.00    -0.090 HD
ATOM     20  H   LIG d   1       0.237  86.815 110.390  0.00  0.00    -0.090 HD
ATOM     21  H   LIG d   1       0.436  85.289 109.828  0.00  0.00    -0.090 HD
ENDBRANCH   5  18
BRANCH   3  22
ATOM     22  C   LIG d   1       3.934  88.552 112.659  0.00  0.00     0.382 C 
ATOM     23  O   LIG d   1       5.176  88.722 112.687  0.00  0.00    -0.241 OA
ATOM     24  O   LIG d   1       3.181  89.469 113.038  0.00  0.00    -0.241 OA
ENDBRANCH   3  22
TORSDOF 7
ENDMDL
MODEL 3
REMARK VINA RESULT:      -5.4      2.964      5.179
REMARK  7 active torsions:
REMARK  status: ('A' for Active; 'I' for Inactive)
REMARK    1  A    between atoms: C_2  and  C_3 
REMARK    2  A    between atoms: C_3  and  O_6 
REMARK    3  A    between atoms: C_3  and  C_4 
REMARK    4  A    between atoms: C_7  and  O_6 
REMARK    5  A    between atoms: C_9  and  C_10 
REMARK    6  A    between atoms: N_15  and  C_14 
REMARK    7  A    between atoms: N_20  and  C_19 
REMARK       I    between atoms: C_22  and  N_20 
ROOT
ATOM      1  C   LIG d   1       3.363  84.754 112.810  0.00  0.00     0.161 C 
ATOM      2  C   LIG d   1       3.668  86.057 112.379  0.00  0.00     0.016 C 
ATOM      3  C   LIG d   1       4.044  87.098 113.258  0.00  0.00     0.038 C 
ATOM      4  C   LIG d   1       4.289  86.867 114.620  0.00  0.00     0.028 C 
ATOM      5  C   LIG d   1       3.506  85.686 115.184  0.00  0.00    -0.047 C 
ATOM      6  C   LIG d   1       3.732  84.455 114.278  0.00  0.00     0.091 C 
ENDROOT
BRANCH   1   7
ATOM      7  O   LIG d   1       3.981  83.793 111.932  0.00  0.00    -0.368 OA
BRANCH   7   8
ATOM      8  C   LIG d   1       3.574  83.845 110.542  0.00  0.00     0.119 C 
BRANCH   8   9
ATOM      9  C   LIG d   1       2.116  83.351 110.467  0.00  0.00     0.028 C 
ATOM     10  C   LIG d   1       1.239  84.242 109.572  0.00  0.00     0.006 C 
ENDBRANCH   8   9
BRANCH   8  11
ATOM     11  C   LIG d   1       4.380  82.861 109.688  0.00  0.00     0.028 C 
ATOM     12  C   LIG d   1       3.794  81.441 109.703  0.00  0.00     0.006 C 
ENDBRANCH   8  11
ENDBRANCH   7   8
ENDBRANCH   1   7
BRANCH   6  13
ATOM     13  N   LIG d   1       2.935  83.278 114.711  0.00  0.00    -0.311 N 
ATOM     14  C   LIG d   1       3.410  82.326 115.512  0.00  0.00     0.210 C 
ATOM     15  C   LIG d   1       2.429  81.191 115.819  0.00  0.00     0.109 C 
ATOM     16  O   LIG d   1       4.539  82.331 116.024  0.00  0.00    -0.276 OA
ATOM     17  H   LIG d   1       1.997  83.211 114.367  0.00  0.00     0.149 HD
ENDBRANCH   6  13
BRANCH   5  18
ATOM     18  N   LIG d   1       3.959  85.474 116.572  0.00  0.00     0.381 N 
ATOM     19  H   LIG d   1       4.329  84.549 116.670  0.00  0.00    -0.090 HD
ATOM     20  H   LIG d   1       3.172  85.565 117.189  0.00  0.00    -0.090 HD
ATOM     21  H   LIG d   1       4.657  86.144 116.810  0.00  0.00    -0.090 HD
ENDBRANCH   5  18
BRANCH   3  22
ATOM     22  C   LIG d   1       4.140  88.397 112.783  0.00  0.00     0.382 C 
ATOM     23  O   LIG d   1       5.257  88.863 112.453  0.00  0.00    -0.241 OA
ATOM     24  O   LIG d   1       3.130  89.124 112.722  0.00  0.00    -0.241 OA
ENDBRANCH   3  22
TORSDOF 7
ENDMDL
MODEL 4
REMARK VINA RESULT:      -5.2      2.748      5.073
REMARK  7 active torsions:
REMARK  status: ('A' for Active; 'I' for Inactive)
REMARK    1  A    between atoms: C_2  and  C_3 
REMARK    2  A    between atoms: C_3  and  O_6 
REMARK    3  A    between atoms: C_3  and  C_4 
REMARK    4  A    between atoms: C_7  and  O_6 
REMARK    5  A    between atoms: C_9  and  C_10 
REMARK    6  A    between atoms: N_15  and  C_14 
REMARK    7  A    between atoms: N_20  and  C_19 
REMARK       I    between atoms: C_22  and  N_20 
ROOT
ATOM      1  C   LIG d   1       1.435  83.682 112.943  0.00  0.00     0.161 C 
ATOM      2  C   LIG d   1       1.494  84.733 112.013  0.00  0.00     0.016 C 
ATOM      3  C   LIG d   1       2.336  85.858 112.162  0.00  0.00     0.038 C 
ATOM      4  C   LIG d   1       3.295  85.937 113.183  0.00  0.00     0.028 C 
ATOM      5  C   LIG d   1       2.921  85.138 114.427  0.00  0.00    -0.047 C 
ATOM      6  C   LIG d   1       2.554  83.697 114.006  0.00  0.00     0.091 C 
ENDROOT
BRANCH   1   7
ATOM      7  O   LIG d   1       1.418  82.417 112.252  0.00  0.00    -0.368 OA
BRANCH   7   8
ATOM      8  C   LIG d   1       1.757  82.456 110.844  0.00  0.00     0.119 C 
BRANCH   8   9
ATOM      9  C   LIG d   1       0.768  81.533 110.105  0.00  0.00     0.028 C 
ATOM     10  C   LIG d   1       1.425  80.223 109.639  0.00  0.00     0.006 C 
ENDBRANCH   8   9
BRANCH   8  11
ATOM     11  C   LIG d   1       3.142  81.854 110.588  0.00  0.00     0.028 C 
ATOM     12  C   LIG d   1       4.186  82.910 110.191  0.00  0.00     0.006 C 
ENDBRANCH   8  11
ENDBRANCH   7   8
ENDBRANCH   1   7
BRANCH   6  13
ATOM     13  N   LIG d   1       2.094  82.871 115.154  0.00  0.00    -0.311 N 
ATOM     14  C   LIG d   1       2.902  82.079 115.856  0.00  0.00     0.210 C 
ATOM     15  C   LIG d   1       2.221  81.299 116.986  0.00  0.00     0.109 C 
ATOM     16  O   LIG d   1       4.124  81.971 115.671  0.00  0.00    -0.276 OA
ATOM     17  H   LIG d   1       1.123  82.922 115.392  0.00  0.00     0.149 HD
ENDBRANCH   6  13
BRANCH   5  18
ATOM     18  N   LIG d   1       4.067  85.196 115.354  0.00  0.00     0.381 N 
ATOM     19  H   LIG d   1       4.492  86.101 115.312  0.00  0.00    -0.090 HD
ATOM     20  H   LIG d   1       4.749  84.514 115.071  0.00  0.00    -0.090 HD
ATOM     21  H   LIG d   1       3.763  85.006 116.284  0.00  0.00    -0.090 HD
ENDBRANCH   5  18
BRANCH   3  22
ATOM     22  C   LIG d   1       2.197  86.939 111.305  0.00  0.00     0.382 C 
ATOM     23  O   LIG d   1       2.061  86.749 110.072  0.00  0.00    -0.241 OA
ATOM     24  O   LIG d   1       2.249  88.104 111.743  0.00  0.00    -0.241 OA
ENDBRANCH   3  22
TORSDOF 7
ENDMDL
MODEL 5
REMARK VINA RESULT:      -5.2      2.532      4.683
REMARK  7 active torsions:
REMARK  status: ('A' for Active; 'I' for Inactive)
REMARK    1  A    between atoms: C_2  and  C_3 
REMARK    2  A    between atoms: C_3  and  O_6 
REMARK    3  A    between atoms: C_3  and  C_4 
REMARK    4  A    between atoms: C_7  and  O_6 
REMARK    5  A    between atoms: C_9  and  C_10 
REMARK    6  A    between atoms: N_15  and  C_14 
REMARK    7  A    between atoms: N_20  and  C_19 
REMARK       I    between atoms: C_22  and  N_20 
ROOT
ATOM      1  C   LIG d   1       0.833  83.315 112.484  0.00  0.00     0.161 C 
ATOM      2  C   LIG d   1       0.169  84.100 111.527  0.00  0.00     0.016 C 
ATOM      3  C   LIG d   1       0.089  85.510 111.597  0.00  0.00     0.038 C 
ATOM      4  C   LIG d   1       0.801  86.246 112.555  0.00  0.00     0.028 C 
ATOM      5  C   LIG d   1       1.072  85.468 113.839  0.00  0.00    -0.047 C 
ATOM      6  C   LIG d   1       1.710  84.108 113.475  0.00  0.00     0.091 C 
ENDROOT
BRANCH   1   7
ATOM      7  O   LIG d   1       1.614  82.299 111.825  0.00  0.00    -0.368 OA
BRANCH   7   8
ATOM      8  C   LIG d   1       1.490  82.234 110.383  0.00  0.00     0.119 C 
BRANCH   8   9
ATOM      9  C   LIG d   1       0.986  80.823 110.025  0.00  0.00     0.028 C 
ATOM     10  C   LIG d   1       2.101  79.928 109.458  0.00  0.00     0.006 C 
ENDBRANCH   8   9
BRANCH   8  11
ATOM     11  C   LIG d   1       2.855  82.363 109.700  0.00  0.00     0.028 C 
ATOM     12  C   LIG d   1       3.627  83.615 110.144  0.00  0.00     0.006 C 
ENDBRANCH   8  11
ENDBRANCH   7   8
ENDBRANCH   1   7
BRANCH   6  13
ATOM     13  N   LIG d   1       1.930  83.248 114.668  0.00  0.00    -0.311 N 
ATOM     14  C   LIG d   1       3.109  83.127 115.277  0.00  0.00     0.210 C 
ATOM     15  C   LIG d   1       3.122  82.174 116.476  0.00  0.00     0.109 C 
ATOM     16  O   LIG d   1       4.137  83.743 114.957  0.00  0.00    -0.276 OA
ATOM     17  H   LIG d   1       1.142  82.737 115.013  0.00  0.00     0.149 HD
ENDBRANCH   6  13
BRANCH   5  18
ATOM     18  N   LIG d   1       1.939  86.303 114.692  0.00  0.00     0.381 N 
ATOM     19  H   LIG d   1       2.639  86.747 114.132  0.00  0.00    -0.090 HD
ATOM     20  H   LIG d   1       2.398  85.714 115.364  0.00  0.00    -0.090 HD
ATOM     21  H   LIG d   1       1.393  86.992 115.161  0.00  0.00    -0.090 HD
ENDBRANCH   5  18
BRANCH   3  22
ATOM     22  C   LIG d   1      -0.744  86.195 110.726  0.00  0.00     0.382 C 
ATOM     23  O   LIG d   1      -1.618  86.974 111.176  0.00  0.00    -0.241 OA
ATOM     24  O   LIG d   1      -0.661  86.011 109.497  0.00  0.00    -0.241 OA
ENDBRANCH   3  22
TORSDOF 7
ENDMDL
MODEL 6
REMARK VINA RESULT:      -5.1      3.410      5.564
REMARK  7 active torsions:
REMARK  status: ('A' for Active; 'I' for Inactive)
REMARK    1  A    between atoms: C_2  and  C_3 
REMARK    2  A    between atoms: C_3  and  O_6 
REMARK    3  A    between atoms: C_3  and  C_4 
REMARK    4  A    between atoms: C_7  and  O_6 
REMARK    5  A    between atoms: C_9  and  C_10 
REMARK    6  A    between atoms: N_15  and  C_14 
REMARK    7  A    between atoms: N_20  and  C_19 
REMARK       I    between atoms: C_22  and  N_20 
ROOT
ATOM      1  C   LIG d   1       2.647  86.479 114.082  0.00  0.00     0.161 C 
ATOM      2  C   LIG d   1       3.051  87.789 113.774  0.00  0.00     0.016 C 
ATOM      3  C   LIG d   1       4.182  88.411 114.352  0.00  0.00     0.038 C 
ATOM      4  C   LIG d   1       5.078  87.707 115.169  0.00  0.00     0.028 C 
ATOM      5  C   LIG d   1       4.435  86.537 115.906  0.00  0.00    -0.047 C 
ATOM      6  C   LIG d   1       3.676  85.658 114.886  0.00  0.00     0.091 C 
ENDROOT
BRANCH   1   7
ATOM      7  O   LIG d   1       2.285  85.783 112.873  0.00  0.00    -0.368 OA
BRANCH   7   8
ATOM      8  C   LIG d   1       2.570  86.472 111.631  0.00  0.00     0.119 C 
BRANCH   8   9
ATOM      9  C   LIG d   1       1.235  86.644 110.880  0.00  0.00     0.028 C 
ATOM     10  C   LIG d   1       1.200  85.857 109.558  0.00  0.00     0.006 C 
ENDBRANCH   8   9
BRANCH   8  11
ATOM     11  C   LIG d   1       3.447  85.619 110.709  0.00  0.00     0.028 C 
ATOM     12  C   LIG d   1       3.960  84.341 111.391  0.00  0.00     0.006 C 
ENDBRANCH   8  11
ENDBRANCH   7   8
ENDBRANCH   1   7
BRANCH   6  13
ATOM     13  N   LIG d   1       2.947  84.537 115.536  0.00  0.00    -0.311 N 
ATOM     14  C   LIG d   1       3.481  83.332 115.733  0.00  0.00     0.210 C 
ATOM     15  C   LIG d   1       2.551  82.315 116.402  0.00  0.00     0.109 C 
ATOM     16  O   LIG d   1       4.646  83.019 115.446  0.00  0.00    -0.276 OA
ATOM     17  H   LIG d   1       2.006  84.713 115.828  0.00  0.00     0.149 HD
ENDBRANCH   6  13
BRANCH   5  18
ATOM     18  N   LIG d   1       5.509  85.810 116.610  0.00  0.00     0.381 N 
ATOM     19  H   LIG d   1       6.302  86.408 116.729  0.00  0.00    -0.090 HD
ATOM     20  H   LIG d   1       5.788  85.022 116.052  0.00  0.00    -0.090 HD
ATOM     21  H   LIG d   1       5.183  85.497 117.498  0.00  0.00    -0.090 HD
ENDBRANCH   5  18
BRANCH   3  22
ATOM     22  C   LIG d   1       4.402  89.764 114.145  0.00  0.00     0.382 C 
ATOM     23  O   LIG d   1       4.113  90.285 113.041  0.00  0.00    -0.241 OA
ATOM     24  O   LIG d   1       4.929  90.461 115.033  0.00  0.00    -0.241 OA
ENDBRANCH   3  22
TORSDOF 7
ENDMDL
MODEL 7
REMARK VINA RESULT:      -5.0     10.077     12.257
REMARK  7 active torsions:
REMARK  status: ('A' for Active; 'I' for Inactive)
REMARK    1  A    between atoms: C_2  and  C_3 
REMARK    2  A    between atoms: C_3  and  O_6 
REMARK    3  A    between atoms: C_3  and  C_4 
REMARK    4  A    between atoms: C_7  and  O_6 
REMARK    5  A    between atoms: C_9  and  C_10 
REMARK    6  A    between atoms: N_15  and  C_14 
REMARK    7  A    between atoms: N_20  and  C_19 
REMARK       I    between atoms: C_22  and  N_20 
ROOT
ATOM      1  C   LIG d   1      -4.424  76.426 117.930  0.00  0.00     0.161 C 
ATOM      2  C   LIG d   1      -5.593  77.183 117.748  0.00  0.00     0.016 C 
ATOM      3  C   LIG d   1      -5.589  78.528 117.311  0.00  0.00     0.038 C 
ATOM      4  C   LIG d   1      -4.415  79.164 116.880  0.00  0.00     0.028 C 
ATOM      5  C   LIG d   1      -3.151  78.604 117.523  0.00  0.00    -0.047 C 
ATOM      6  C   LIG d   1      -3.142  77.067 117.358  0.00  0.00     0.091 C 
ENDROOT
BRANCH   1   7
ATOM      7  O   LIG d   1      -4.608  75.104 117.386  0.00  0.00    -0.368 OA
BRANCH   7   8
ATOM      8  C   LIG d   1      -5.786  74.912 116.563  0.00  0.00     0.119 C 
BRANCH   8   9
ATOM      9  C   LIG d   1      -6.479  73.621 117.042  0.00  0.00     0.028 C 
ATOM     10  C   LIG d   1      -6.143  72.411 116.155  0.00  0.00     0.006 C 
ENDBRANCH   8   9
BRANCH   8  11
ATOM     11  C   LIG d   1      -5.408  74.651 115.102  0.00  0.00     0.028 C 
ATOM     12  C   LIG d   1      -5.732  75.839 114.182  0.00  0.00     0.006 C 
ENDBRANCH   8  11
ENDBRANCH   7   8
ENDBRANCH   1   7
BRANCH   6  13
ATOM     13  N   LIG d   1      -1.981  76.431 118.033  0.00  0.00    -0.311 N 
ATOM     14  C   LIG d   1      -0.828  76.172 117.419  0.00  0.00     0.210 C 
ATOM     15  C   LIG d   1       0.232  75.494 118.293  0.00  0.00     0.109 C 
ATOM     16  O   LIG d   1      -0.570  76.468 116.243  0.00  0.00    -0.276 OA
ATOM     17  H   LIG d   1      -2.092  76.185 118.997  0.00  0.00     0.149 HD
ENDBRANCH   6  13
BRANCH   5  18
ATOM     18  N   LIG d   1      -1.996  79.261 116.883  0.00  0.00     0.381 N 
ATOM     19  H   LIG d   1      -2.278  80.139 116.494  0.00  0.00    -0.090 HD
ATOM     20  H   LIG d   1      -1.663  78.678 116.136  0.00  0.00    -0.090 HD
ATOM     21  H   LIG d   1      -1.271  79.403 117.551  0.00  0.00    -0.090 HD
ENDBRANCH   5  18
BRANCH   3  22
ATOM     22  C   LIG d   1      -6.763  79.264 117.342  0.00  0.00     0.382 C 
ATOM     23  O   LIG d   1      -7.859  78.688 117.549  0.00  0.00    -0.241 OA
ATOM     24  O   LIG d   1      -6.747  80.490 117.121  0.00  0.00    -0.241 OA
ENDBRANCH   3  22
TORSDOF 7
ENDMDL
MODEL 8
REMARK VINA RESULT:      -5.0      3.182      5.680
REMARK  7 active torsions:
REMARK  status: ('A' for Active; 'I' for Inactive)
REMARK    1  A    between atoms: C_2  and  C_3 
REMARK    2  A    between atoms: C_3  and  O_6 
REMARK    3  A    between atoms: C_3  and  C_4 
REMARK    4  A    between atoms: C_7  and  O_6 
REMARK    5  A    between atoms: C_9  and  C_10 
REMARK    6  A    between atoms: N_15  and  C_14 
REMARK    7  A    between atoms: N_20  and  C_19 
REMARK       I    between atoms: C_22  and  N_20 
ROOT
ATOM      1  C   LIG d   1       3.893  85.413 113.193  0.00  0.00     0.161 C 
ATOM      2  C   LIG d   1       3.486  84.084 113.400  0.00  0.00     0.016 C 
ATOM      3  C   LIG d   1       2.559  83.701 114.395  0.00  0.00     0.038 C 
ATOM      4  C   LIG d   1       1.856  84.646 115.158  0.00  0.00     0.028 C 
ATOM      5  C   LIG d   1       2.606  85.963 115.331  0.00  0.00    -0.047 C 
ATOM      6  C   LIG d   1       3.055  86.470 113.941  0.00  0.00     0.091 C 
ENDROOT
BRANCH   1   7
ATOM      7  O   LIG d   1       3.920  85.702 111.781  0.00  0.00    -0.368 OA
BRANCH   7   8
ATOM      8  C   LIG d   1       2.854  85.119 110.991  0.00  0.00     0.119 C 
BRANCH   8   9
ATOM      9  C   LIG d   1       3.508  84.360 109.820  0.00  0.00     0.028 C 
ATOM     10  C   LIG d   1       3.607  82.848 110.083  0.00  0.00     0.006 C 
ENDBRANCH   8   9
BRANCH   8  11
ATOM     11  C   LIG d   1       1.988  86.201 110.340  0.00  0.00     0.028 C 
ATOM     12  C   LIG d   1       0.979  85.629 109.331  0.00  0.00     0.006 C 
ENDBRANCH   8  11
ENDBRANCH   7   8
ENDBRANCH   1   7
BRANCH   6  13
ATOM     13  N   LIG d   1       3.868  87.711 114.027  0.00  0.00    -0.311 N 
ATOM     14  C   LIG d   1       3.644  88.788 113.277  0.00  0.00     0.210 C 
ATOM     15  C   LIG d   1       4.612  89.952 113.509  0.00  0.00     0.109 C 
ATOM     16  O   LIG d   1       2.714  88.902 112.463  0.00  0.00    -0.276 OA
ATOM     17  H   LIG d   1       4.624  87.717 114.684  0.00  0.00     0.149 HD
ENDBRANCH   6  13
BRANCH   5  18
ATOM     18  N   LIG d   1       1.705  86.901 116.026  0.00  0.00     0.381 N 
ATOM     19  H   LIG d   1       2.232  87.668 116.393  0.00  0.00    -0.090 HD
ATOM     20  H   LIG d   1       1.267  86.423 116.793  0.00  0.00    -0.090 HD
ATOM     21  H   LIG d   1       1.010  87.237 115.395  0.00  0.00    -0.090 HD
ENDBRANCH   5  18
BRANCH   3  22
ATOM     22  C   LIG d   1       2.355  82.356 114.663  0.00  0.00     0.382 C 
ATOM     23  O   LIG d   1       1.907  82.000 115.780  0.00  0.00    -0.241 OA
ATOM     24  O   LIG d   1       2.656  81.491 113.819  0.00  0.00    -0.241 OA
ENDBRANCH   3  22
TORSDOF 7
ENDMDL
MODEL 9
REMARK VINA RESULT:      -4.9      2.789      5.029
REMARK  7 active torsions:
REMARK  status: ('A' for Active; 'I' for Inactive)
REMARK    1  A    between atoms: C_2  and  C_3 
REMARK    2  A    between atoms: C_3  and  O_6 
REMARK    3  A    between atoms: C_3  and  C_4 
REMARK    4  A    between atoms: C_7  and  O_6 
REMARK    5  A    between atoms: C_9  and  C_10 
REMARK    6  A    between atoms: N_15  and  C_14 
REMARK    7  A    between atoms: N_20  and  C_19 
REMARK       I    between atoms: C_22  and  N_20 
ROOT
ATOM      1  C   LIG d   1       1.472  84.573 113.614  0.00  0.00     0.161 C 
ATOM      2  C   LIG d   1       1.849  85.660 112.808  0.00  0.00     0.016 C 
ATOM      3  C   LIG d   1       3.136  86.244 112.842  0.00  0.00     0.038 C 
ATOM      4  C   LIG d   1       4.187  85.680 113.580  0.00  0.00     0.028 C 
ATOM      5  C   LIG d   1       3.717  84.886 114.794  0.00  0.00    -0.047 C 
ATOM      6  C   LIG d   1       2.638  83.874 114.344  0.00  0.00     0.091 C 
ENDROOT
BRANCH   1   7
ATOM      7  O   LIG d   1       0.728  83.619 112.831  0.00  0.00    -0.368 OA
BRANCH   7   8
ATOM      8  C   LIG d   1       0.985  83.626 111.405  0.00  0.00     0.119 C 
BRANCH   8   9
ATOM      9  C   LIG d   1      -0.368  83.806 110.691  0.00  0.00     0.028 C 
ATOM     10  C   LIG d   1      -0.507  85.190 110.036  0.00  0.00     0.006 C 
ENDBRANCH   8   9
BRANCH   8  11
ATOM     11  C   LIG d   1       1.518  82.271 110.928  0.00  0.00     0.028 C 
ATOM     12  C   LIG d   1       3.054  82.216 110.887  0.00  0.00     0.006 C 
ENDBRANCH   8  11
ENDBRANCH   7   8
ENDBRANCH   1   7
BRANCH   6  13
ATOM     13  N   LIG d   1       2.064  83.114 115.485  0.00  0.00    -0.311 N 
ATOM     14  C   LIG d   1       2.553  81.951 115.912  0.00  0.00     0.210 C 
ATOM     15  C   LIG d   1       1.799  81.325 117.089  0.00  0.00     0.109 C 
ATOM     16  O   LIG d   1       3.560  81.394 115.448  0.00  0.00    -0.276 OA
ATOM     17  H   LIG d   1       1.264  83.508 115.939  0.00  0.00     0.149 HD
ENDBRANCH   6  13
BRANCH   5  18
ATOM     18  N   LIG d   1       4.902  84.241 115.391  0.00  0.00     0.381 N 
ATOM     19  H   LIG d   1       4.613  83.534 116.037  0.00  0.00    -0.090 HD
ATOM     20  H   LIG d   1       5.429  84.932 115.894  0.00  0.00    -0.090 HD
ATOM     21  H   LIG d   1       5.466  83.837 114.676  0.00  0.00    -0.090 HD
ENDBRANCH   5  18
BRANCH   3  22
ATOM     22  C   LIG d   1       3.370  87.429 112.162  0.00  0.00     0.382 C 
ATOM     23  O   LIG d   1       2.442  88.260 112.011  0.00  0.00    -0.241 OA
ATOM     24  O   LIG d   1       4.486  87.659 111.659  0.00  0.00    -0.241 OA
ENDBRANCH   3  22
TORSDOF 7
ENDMDL
