MODEL 1
REMARK VINA RESULT:      -6.3      0.000      0.000
REMARK  7 active torsions:
REMARK  status: ('A' for Active; 'I' for Inactive)
REMARK    1  A    between atoms: C_2  and  C_3 
REMARK    2  A    between atoms: C_3  and  O_6 
REMARK    3  A    between atoms: C_3  and  C_4 
REMARK    4  A    between atoms: C_7  and  O_6 
REMARK    5  A    between atoms: C_9  and  C_10 
REMARK    6  A    between atoms: N_15  and  C_14 
REMARK    7  A    between atoms: N_20  and  C_19 
REMARK       I    between atoms: C_22  and  N_20 
ROOT
ATOM      1  C   LIG d   1       1.566  83.396 109.401  0.00  0.00     0.161 C 
ATOM      2  C   LIG d   1       1.736  84.722 109.832  0.00  0.00     0.016 C 
ATOM      3  C   LIG d   1       1.170  85.232 111.023  0.00  0.00     0.038 C 
ATOM      4  C   LIG d   1       0.517  84.403 111.947  0.00  0.00     0.028 C 
ATOM      5  C   LIG d   1      -0.113  83.167 111.313  0.00  0.00    -0.047 C 
ATOM      6  C   LIG d   1       0.950  82.448 110.451  0.00  0.00     0.091 C 
ENDROOT
BRANCH   1   7
ATOM      7  O   LIG d   1       2.823  82.872 108.928  0.00  0.00    -0.368 OA
BRANCH   7   8
ATOM      8  C   LIG d   1       3.530  81.995 109.839  0.00  0.00     0.119 C 
BRANCH   8   9
ATOM      9  C   LIG d   1       4.696  82.800 110.445  0.00  0.00     0.028 C 
ATOM     10  C   LIG d   1       4.468  83.135 111.929  0.00  0.00     0.006 C 
ENDBRANCH   8   9
BRANCH   8  11
ATOM     11  C   LIG d   1       4.187  80.829 109.093  0.00  0.00     0.028 C 
ATOM     12  C   LIG d   1       3.894  79.467 109.740  0.00  0.00     0.006 C 
ENDBRANCH   8  11
ENDBRANCH   7   8
ENDBRANCH   1   7
BRANCH   6  13
ATOM     13  N   LIG d   1       0.395  81.275 109.727  0.00  0.00    -0.311 N 
ATOM     14  C   LIG d   1       0.378  80.043 110.232  0.00  0.00     0.210 C 
ATOM     15  C   LIG d   1      -0.222  78.975 109.312  0.00  0.00     0.109 C 
ATOM     16  O   LIG d   1       0.774  79.738 111.367  0.00  0.00    -0.276 OA
ATOM     17  H   LIG d   1       0.024  81.438 108.811  0.00  0.00     0.149 HD
ENDBRANCH   6  13
BRANCH   5  18
ATOM     18  N   LIG d   1      -0.638  82.324 112.404  0.00  0.00     0.381 N 
ATOM     19  H   LIG d   1      -0.210  82.585 113.270  0.00  0.00    -0.090 HD
ATOM     20  H   LIG d   1      -0.407  81.365 112.214  0.00  0.00    -0.090 HD
ATOM     21  H   LIG d   1      -1.627  82.429 112.470  0.00  0.00    -0.090 HD
ENDBRANCH   5  18
BRANCH   3  22
ATOM     22  C   LIG d   1       1.220  86.593 111.281  0.00  0.00     0.382 C 
ATOM     23  O   LIG d   1       2.323  87.191 111.280  0.00  0.00    -0.241 OA
ATOM     24  O   LIG d   1       0.181  87.223 111.557  0.00  0.00    -0.241 OA
ENDBRANCH   3  22
TORSDOF 7
ENDMDL
MODEL 2
REMARK VINA RESULT:      -6.3      2.405      4.827
REMARK  7 active torsions:
REMARK  status: ('A' for Active; 'I' for Inactive)
REMARK    1  A    between atoms: C_2  and  C_3 
REMARK    2  A    between atoms: C_3  and  O_6 
REMARK    3  A    between atoms: C_3  and  C_4 
REMARK    4  A    between atoms: C_7  and  O_6 
REMARK    5  A    between atoms: C_9  and  C_10 
REMARK    6  A    between atoms: N_15  and  C_14 
REMARK    7  A    between atoms: N_20  and  C_19 
REMARK       I    between atoms: C_22  and  N_20 
ROOT
ATOM      1  C   LIG d   1       0.448  82.560 111.449  0.00  0.00     0.161 C 
ATOM      2  C   LIG d   1      -0.708  82.319 112.209  0.00  0.00     0.016 C 
ATOM      3  C   LIG d   1      -1.246  81.029 112.419  0.00  0.00     0.038 C 
ATOM      4  C   LIG d   1      -0.574  79.869 112.006  0.00  0.00     0.028 C 
ATOM      5  C   LIG d   1       0.333  80.092 110.800  0.00  0.00    -0.047 C 
ATOM      6  C   LIG d   1       1.257  81.298 111.083  0.00  0.00     0.091 C 
ENDROOT
BRANCH   1   7
ATOM      7  O   LIG d   1       1.289  83.515 112.127  0.00  0.00    -0.368 OA
BRANCH   7   8
ATOM      8  C   LIG d   1       1.425  84.810 111.492  0.00  0.00     0.119 C 
BRANCH   8   9
ATOM      9  C   LIG d   1       0.443  84.848 110.304  0.00  0.00     0.028 C 
ATOM     10  C   LIG d   1      -0.602  85.968 110.443  0.00  0.00     0.006 C 
ENDBRANCH   8   9
BRANCH   8  11
ATOM     11  C   LIG d   1       2.815  84.984 110.874  0.00  0.00     0.028 C 
ATOM     12  C   LIG d   1       3.925  84.322 111.707  0.00  0.00     0.006 C 
ENDBRANCH   8  11
ENDBRANCH   7   8
ENDBRANCH   1   7
BRANCH   6  13
ATOM     13  N   LIG d   1       2.119  81.637 109.921  0.00  0.00    -0.311 N 
ATOM     14  C   LIG d   1       3.351  81.157 109.757  0.00  0.00     0.210 C 
ATOM     15  C   LIG d   1       4.074  81.649 108.500  0.00  0.00     0.109 C 
ATOM     16  O   LIG d   1       3.901  80.346 110.517  0.00  0.00    -0.276 OA
ATOM     17  H   LIG d   1       1.740  82.264 109.239  0.00  0.00     0.149 HD
ENDBRANCH   6  13
BRANCH   5  18
ATOM     18  N   LIG d   1       1.074  78.839 110.563  0.00  0.00     0.381 N 
ATOM     19  H   LIG d   1       2.039  79.043 110.396  0.00  0.00    -0.090 HD
ATOM     20  H   LIG d   1       0.701  78.390 109.745  0.00  0.00    -0.090 HD
ATOM     21  H   LIG d   1       0.986  78.236 111.351  0.00  0.00    -0.090 HD
ENDBRANCH   5  18
BRANCH   3  22
ATOM     22  C   LIG d   1      -2.491  80.892 113.015  0.00  0.00     0.382 C 
ATOM     23  O   LIG d   1      -2.661  80.044 113.924  0.00  0.00    -0.241 OA
ATOM     24  O   LIG d   1      -3.457  81.574 112.624  0.00  0.00    -0.241 OA
ENDBRANCH   3  22
TORSDOF 7
ENDMDL
MODEL 3
REMARK VINA RESULT:      -5.9      2.296      4.664
REMARK  7 active torsions:
REMARK  status: ('A' for Active; 'I' for Inactive)
REMARK    1  A    between atoms: C_2  and  C_3 
REMARK    2  A    between atoms: C_3  and  O_6 
REMARK    3  A    between atoms: C_3  and  C_4 
REMARK    4  A    between atoms: C_7  and  O_6 
REMARK    5  A    between atoms: C_9  and  C_10 
REMARK    6  A    between atoms: N_15  and  C_14 
REMARK    7  A    between atoms: N_20  and  C_19 
REMARK       I    between atoms: C_22  and  N_20 
ROOT
ATOM      1  C   LIG d   1       1.486  81.924 112.060  0.00  0.00     0.161 C 
ATOM      2  C   LIG d   1       2.539  82.262 111.193  0.00  0.00     0.016 C 
ATOM      3  C   LIG d   1       2.637  81.786 109.865  0.00  0.00     0.038 C 
ATOM      4  C   LIG d   1       1.603  81.055 109.261  0.00  0.00     0.028 C 
ATOM      5  C   LIG d   1       0.756  80.268 110.256  0.00  0.00    -0.047 C 
ATOM      6  C   LIG d   1       0.292  81.218 111.383  0.00  0.00     0.091 C 
ENDROOT
BRANCH   1   7
ATOM      7  O   LIG d   1       1.039  83.098 112.767  0.00  0.00    -0.368 OA
BRANCH   7   8
ATOM      8  C   LIG d   1       1.099  84.345 112.032  0.00  0.00     0.119 C 
BRANCH   8   9
ATOM      9  C   LIG d   1       1.922  85.339 112.874  0.00  0.00     0.028 C 
ATOM     10  C   LIG d   1       3.162  85.857 112.126  0.00  0.00     0.006 C 
ENDBRANCH   8   9
BRANCH   8  11
ATOM     11  C   LIG d   1      -0.289  84.980 111.898  0.00  0.00     0.028 C 
ATOM     12  C   LIG d   1      -0.481  85.714 110.561  0.00  0.00     0.006 C 
ENDBRANCH   8  11
ENDBRANCH   7   8
ENDBRANCH   1   7
BRANCH   6  13
ATOM     13  N   LIG d   1      -0.471  80.510 112.443  0.00  0.00    -0.311 N 
ATOM     14  C   LIG d   1      -1.612  80.969 112.956  0.00  0.00     0.210 C 
ATOM     15  C   LIG d   1      -2.226  80.094 114.053  0.00  0.00     0.109 C 
ATOM     16  O   LIG d   1      -2.191  82.001 112.583  0.00  0.00    -0.276 OA
ATOM     17  H   LIG d   1      -0.090  79.649 112.782  0.00  0.00     0.149 HD
ENDBRANCH   6  13
BRANCH   5  18
ATOM     18  N   LIG d   1      -0.364  79.666 109.509  0.00  0.00     0.381 N 
ATOM     19  H   LIG d   1      -0.782  78.938 110.054  0.00  0.00    -0.090 HD
ATOM     20  H   LIG d   1      -0.010  79.261 108.661  0.00  0.00    -0.090 HD
ATOM     21  H   LIG d   1      -1.044  80.362 109.295  0.00  0.00    -0.090 HD
ENDBRANCH   5  18
BRANCH   3  22
ATOM     22  C   LIG d   1       3.798  82.006 109.140  0.00  0.00     0.382 C 
ATOM     23  O   LIG d   1       4.159  81.180 108.268  0.00  0.00    -0.241 OA
ATOM     24  O   LIG d   1       4.512  82.998 109.378  0.00  0.00    -0.241 OA
ENDBRANCH   3  22
TORSDOF 7
ENDMDL
MODEL 4
REMARK VINA RESULT:      -5.7      2.495      6.013
REMARK  7 active torsions:
REMARK  status: ('A' for Active; 'I' for Inactive)
REMARK    1  A    between atoms: C_2  and  C_3 
REMARK    2  A    between atoms: C_3  and  O_6 
REMARK    3  A    between atoms: C_3  and  C_4 
REMARK    4  A    between atoms: C_7  and  O_6 
REMARK    5  A    between atoms: C_9  and  C_10 
REMARK    6  A    between atoms: N_15  and  C_14 
REMARK    7  A    between atoms: N_20  and  C_19 
REMARK       I    between atoms: C_22  and  N_20 
ROOT
ATOM      1  C   LIG d   1       0.381  81.292 110.515  0.00  0.00     0.161 C 
ATOM      2  C   LIG d   1       1.011  80.051 110.322  0.00  0.00     0.016 C 
ATOM      3  C   LIG d   1       2.394  79.912 110.064  0.00  0.00     0.038 C 
ATOM      4  C   LIG d   1       3.274  81.002 110.133  0.00  0.00     0.028 C 
ATOM      5  C   LIG d   1       2.608  82.339 109.825  0.00  0.00    -0.047 C 
ATOM      6  C   LIG d   1       1.344  82.483 110.703  0.00  0.00     0.091 C 
ENDROOT
BRANCH   1   7
ATOM      7  O   LIG d   1      -0.535  81.208 111.624  0.00  0.00    -0.368 OA
BRANCH   7   8
ATOM      8  C   LIG d   1      -0.606  79.926 112.297  0.00  0.00     0.119 C 
BRANCH   8   9
ATOM      9  C   LIG d   1      -2.078  79.472 112.275  0.00  0.00     0.028 C 
ATOM     10  C   LIG d   1      -2.328  78.339 111.266  0.00  0.00     0.006 C 
ENDBRANCH   8   9
BRANCH   8  11
ATOM     11  C   LIG d   1      -0.243  80.054 113.779  0.00  0.00     0.028 C 
ATOM     12  C   LIG d   1       1.182  80.586 114.000  0.00  0.00     0.006 C 
ENDBRANCH   8  11
ENDBRANCH   7   8
ENDBRANCH   1   7
BRANCH   6  13
ATOM     13  N   LIG d   1       0.585  83.726 110.404  0.00  0.00    -0.311 N 
ATOM     14  C   LIG d   1       0.171  84.575 111.343  0.00  0.00     0.210 C 
ATOM     15  C   LIG d   1      -0.612  85.784 110.821  0.00  0.00     0.109 C 
ATOM     16  O   LIG d   1       0.407  84.460 112.555  0.00  0.00    -0.276 OA
ATOM     17  H   LIG d   1       0.378  83.914 109.443  0.00  0.00     0.149 HD
ENDBRANCH   6  13
BRANCH   5  18
ATOM     18  N   LIG d   1       3.604  83.399 110.066  0.00  0.00     0.381 N 
ATOM     19  H   LIG d   1       3.138  84.266 110.249  0.00  0.00    -0.090 HD
ATOM     20  H   LIG d   1       4.166  83.511 109.241  0.00  0.00    -0.090 HD
ATOM     21  H   LIG d   1       4.181  83.155 110.840  0.00  0.00    -0.090 HD
ENDBRANCH   5  18
BRANCH   3  22
ATOM     22  C   LIG d   1       2.904  78.676 109.695  0.00  0.00     0.382 C 
ATOM     23  O   LIG d   1       2.131  77.701 109.538  0.00  0.00    -0.241 OA
ATOM     24  O   LIG d   1       4.131  78.514 109.561  0.00  0.00    -0.241 OA
ENDBRANCH   3  22
TORSDOF 7
ENDMDL
MODEL 5
REMARK VINA RESULT:      -5.7      2.256      5.445
REMARK  7 active torsions:
REMARK  status: ('A' for Active; 'I' for Inactive)
REMARK    1  A    between atoms: C_2  and  C_3 
REMARK    2  A    between atoms: C_3  and  O_6 
REMARK    3  A    between atoms: C_3  and  C_4 
REMARK    4  A    between atoms: C_7  and  O_6 
REMARK    5  A    between atoms: C_9  and  C_10 
REMARK    6  A    between atoms: N_15  and  C_14 
REMARK    7  A    between atoms: N_20  and  C_19 
REMARK       I    between atoms: C_22  and  N_20 
ROOT
ATOM      1  C   LIG d   1       1.092  81.650 111.484  0.00  0.00     0.161 C 
ATOM      2  C   LIG d   1       1.713  80.411 111.252  0.00  0.00     0.016 C 
ATOM      3  C   LIG d   1       2.350  80.076 110.035  0.00  0.00     0.038 C 
ATOM      4  C   LIG d   1       2.542  81.019 109.014  0.00  0.00     0.028 C 
ATOM      5  C   LIG d   1       1.492  82.124 109.005  0.00  0.00    -0.047 C 
ATOM      6  C   LIG d   1       1.389  82.731 110.423  0.00  0.00     0.091 C 
ENDROOT
BRANCH   1   7
ATOM      7  O   LIG d   1       1.437  82.131 112.798  0.00  0.00    -0.368 OA
BRANCH   7   8
ATOM      8  C   LIG d   1       2.852  82.247 113.084  0.00  0.00     0.119 C 
BRANCH   8   9
ATOM      9  C   LIG d   1       3.113  81.542 114.429  0.00  0.00     0.028 C 
ATOM     10  C   LIG d   1       4.430  80.748 114.429  0.00  0.00     0.006 C 
ENDBRANCH   8   9
BRANCH   8  11
ATOM     11  C   LIG d   1       3.257  83.707 113.306  0.00  0.00     0.028 C 
ATOM     12  C   LIG d   1       4.182  84.244 112.202  0.00  0.00     0.006 C 
ENDBRANCH   8  11
ENDBRANCH   7   8
ENDBRANCH   1   7
BRANCH   6  13
ATOM     13  N   LIG d   1       0.324  83.763 110.522  0.00  0.00    -0.311 N 
ATOM     14  C   LIG d   1       0.546  85.064 110.348  0.00  0.00     0.210 C 
ATOM     15  C   LIG d   1      -0.687  85.958 110.514  0.00  0.00     0.109 C 
ATOM     16  O   LIG d   1       1.640  85.560 110.041  0.00  0.00    -0.276 OA
ATOM     17  H   LIG d   1      -0.601  83.445 110.738  0.00  0.00     0.149 HD
ENDBRANCH   6  13
BRANCH   5  18
ATOM     18  N   LIG d   1       1.891  83.109 107.982  0.00  0.00     0.381 N 
ATOM     19  H   LIG d   1       1.203  83.833 107.922  0.00  0.00    -0.090 HD
ATOM     20  H   LIG d   1       1.943  82.649 107.090  0.00  0.00    -0.090 HD
ATOM     21  H   LIG d   1       2.777  83.502 108.214  0.00  0.00    -0.090 HD
ENDBRANCH   5  18
BRANCH   3  22
ATOM     22  C   LIG d   1       2.767  78.772 109.815  0.00  0.00     0.382 C 
ATOM     23  O   LIG d   1       3.989  78.518 109.689  0.00  0.00    -0.241 OA
ATOM     24  O   LIG d   1       1.934  77.854 109.695  0.00  0.00    -0.241 OA
ENDBRANCH   3  22
TORSDOF 7
ENDMDL
MODEL 6
REMARK VINA RESULT:      -5.4      2.159      4.944
REMARK  7 active torsions:
REMARK  status: ('A' for Active; 'I' for Inactive)
REMARK    1  A    between atoms: C_2  and  C_3 
REMARK    2  A    between atoms: C_3  and  O_6 
REMARK    3  A    between atoms: C_3  and  C_4 
REMARK    4  A    between atoms: C_7  and  O_6 
REMARK    5  A    between atoms: C_9  and  C_10 
REMARK    6  A    between atoms: N_15  and  C_14 
REMARK    7  A    between atoms: N_20  and  C_19 
REMARK       I    between atoms: C_22  and  N_20 
ROOT
ATOM      1  C   LIG d   1       2.489  81.892 111.973  0.00  0.00     0.161 C 
ATOM      2  C   LIG d   1       1.532  80.870 112.086  0.00  0.00     0.016 C 
ATOM      3  C   LIG d   1       0.138  81.106 112.083  0.00  0.00     0.038 C 
ATOM      4  C   LIG d   1      -0.399  82.373 111.812  0.00  0.00     0.028 C 
ATOM      5  C   LIG d   1       0.532  83.519 112.194  0.00  0.00    -0.047 C 
ATOM      6  C   LIG d   1       1.921  83.268 111.566  0.00  0.00     0.091 C 
ENDROOT
BRANCH   1   7
ATOM      7  O   LIG d   1       3.529  81.488 111.060  0.00  0.00    -0.368 OA
BRANCH   7   8
ATOM      8  C   LIG d   1       3.088  80.894 109.814  0.00  0.00     0.119 C 
BRANCH   8   9
ATOM      9  C   LIG d   1       3.698  79.482 109.734  0.00  0.00     0.028 C 
ATOM     10  C   LIG d   1       2.626  78.386 109.605  0.00  0.00     0.006 C 
ENDBRANCH   8   9
BRANCH   8  11
ATOM     11  C   LIG d   1       3.652  81.649 108.607  0.00  0.00     0.028 C 
ATOM     12  C   LIG d   1       4.813  82.585 108.979  0.00  0.00     0.006 C 
ENDBRANCH   8  11
ENDBRANCH   7   8
ENDBRANCH   1   7
BRANCH   6  13
ATOM     13  N   LIG d   1       2.917  84.299 111.959  0.00  0.00    -0.311 N 
ATOM     14  C   LIG d   1       3.085  85.444 111.300  0.00  0.00     0.210 C 
ATOM     15  C   LIG d   1       4.178  86.359 111.861  0.00  0.00     0.109 C 
ATOM     16  O   LIG d   1       2.410  85.804 110.324  0.00  0.00    -0.276 OA
ATOM     17  H   LIG d   1       3.485  84.103 112.759  0.00  0.00     0.149 HD
ENDBRANCH   6  13
BRANCH   5  18
ATOM     18  N   LIG d   1      -0.093  84.774 111.732  0.00  0.00     0.381 N 
ATOM     19  H   LIG d   1       0.306  85.550 112.220  0.00  0.00    -0.090 HD
ATOM     20  H   LIG d   1      -1.076  84.742 111.937  0.00  0.00    -0.090 HD
ATOM     21  H   LIG d   1       0.045  84.882 110.751  0.00  0.00    -0.090 HD
ENDBRANCH   5  18
BRANCH   3  22
ATOM     22  C   LIG d   1      -0.735  80.074 112.391  0.00  0.00     0.382 C 
ATOM     23  O   LIG d   1      -0.627  79.468 113.485  0.00  0.00    -0.241 OA
ATOM     24  O   LIG d   1      -1.600  79.711 111.572  0.00  0.00    -0.241 OA
ENDBRANCH   3  22
TORSDOF 7
ENDMDL
MODEL 7
REMARK VINA RESULT:      -5.4      2.292      3.687
REMARK  7 active torsions:
REMARK  status: ('A' for Active; 'I' for Inactive)
REMARK    1  A    between atoms: C_2  and  C_3 
REMARK    2  A    between atoms: C_3  and  O_6 
REMARK    3  A    between atoms: C_3  and  C_4 
REMARK    4  A    between atoms: C_7  and  O_6 
REMARK    5  A    between atoms: C_9  and  C_10 
REMARK    6  A    between atoms: N_15  and  C_14 
REMARK    7  A    between atoms: N_20  and  C_19 
REMARK       I    between atoms: C_22  and  N_20 
ROOT
ATOM      1  C   LIG d   1       2.986  81.768 111.012  0.00  0.00     0.161 C 
ATOM      2  C   LIG d   1       3.256  83.023 111.583  0.00  0.00     0.016 C 
ATOM      3  C   LIG d   1       2.978  84.249 110.935  0.00  0.00     0.038 C 
ATOM      4  C   LIG d   1       2.269  84.305 109.727  0.00  0.00     0.028 C 
ATOM      5  C   LIG d   1       2.425  83.050 108.874  0.00  0.00    -0.047 C 
ATOM      6  C   LIG d   1       2.110  81.811 109.742  0.00  0.00     0.091 C 
ENDROOT
BRANCH   1   7
ATOM      7  O   LIG d   1       2.396  80.899 111.999  0.00  0.00    -0.368 OA
BRANCH   7   8
ATOM      8  C   LIG d   1       1.452  81.516 112.909  0.00  0.00     0.119 C 
BRANCH   8   9
ATOM      9  C   LIG d   1       1.533  80.754 114.246  0.00  0.00     0.028 C 
ATOM     10  C   LIG d   1       0.263  79.936 114.533  0.00  0.00     0.006 C 
ENDBRANCH   8   9
BRANCH   8  11
ATOM     11  C   LIG d   1       0.011  81.334 112.425  0.00  0.00     0.028 C 
ATOM     12  C   LIG d   1      -0.604  82.633 111.880  0.00  0.00     0.006 C 
ENDBRANCH   8  11
ENDBRANCH   7   8
ENDBRANCH   1   7
BRANCH   6  13
ATOM     13  N   LIG d   1       2.321  80.536 109.008  0.00  0.00    -0.311 N 
ATOM     14  C   LIG d   1       1.371  79.617 108.846  0.00  0.00     0.210 C 
ATOM     15  C   LIG d   1       1.804  78.367 108.075  0.00  0.00     0.109 C 
ATOM     16  O   LIG d   1       0.201  79.733 109.241  0.00  0.00    -0.276 OA
ATOM     17  H   LIG d   1       3.233  80.374 108.627  0.00  0.00     0.149 HD
ENDBRANCH   6  13
BRANCH   5  18
ATOM     18  N   LIG d   1       1.526  83.186 107.712  0.00  0.00     0.381 N 
ATOM     19  H   LIG d   1       0.592  83.360 108.026  0.00  0.00    -0.090 HD
ATOM     20  H   LIG d   1       1.530  82.324 107.196  0.00  0.00    -0.090 HD
ATOM     21  H   LIG d   1       1.833  83.933 107.129  0.00  0.00    -0.090 HD
ENDBRANCH   5  18
BRANCH   3  22
ATOM     22  C   LIG d   1       3.449  85.435 111.479  0.00  0.00     0.382 C 
ATOM     23  O   LIG d   1       2.920  86.526 111.155  0.00  0.00    -0.241 OA
ATOM     24  O   LIG d   1       4.423  85.432 112.254  0.00  0.00    -0.241 OA
ENDBRANCH   3  22
TORSDOF 7
ENDMDL
MODEL 8
REMARK VINA RESULT:      -5.4      2.257      5.171
REMARK  7 active torsions:
REMARK  status: ('A' for Active; 'I' for Inactive)
REMARK    1  A    between atoms: C_2  and  C_3 
REMARK    2  A    between atoms: C_3  and  O_6 
REMARK    3  A    between atoms: C_3  and  C_4 
REMARK    4  A    between atoms: C_7  and  O_6 
REMARK    5  A    between atoms: C_9  and  C_10 
REMARK    6  A    between atoms: N_15  and  C_14 
REMARK    7  A    between atoms: N_20  and  C_19 
REMARK       I    between atoms: C_22  and  N_20 
ROOT
ATOM      1  C   LIG d   1       1.071  82.729 110.188  0.00  0.00     0.161 C 
ATOM      2  C   LIG d   1       2.118  81.975 109.635  0.00  0.00     0.016 C 
ATOM      3  C   LIG d   1       3.473  82.376 109.678  0.00  0.00     0.038 C 
ATOM      4  C   LIG d   1       3.893  83.492 110.417  0.00  0.00     0.028 C 
ATOM      5  C   LIG d   1       2.814  84.559 110.568  0.00  0.00    -0.047 C 
ATOM      6  C   LIG d   1       1.521  83.894 111.094  0.00  0.00     0.091 C 
ENDROOT
BRANCH   1   7
ATOM      7  O   LIG d   1       0.167  81.861 110.901  0.00  0.00    -0.368 OA
BRANCH   7   8
ATOM      8  C   LIG d   1       0.734  80.627 111.406  0.00  0.00     0.119 C 
BRANCH   8   9
ATOM      9  C   LIG d   1      -0.320  79.520 111.210  0.00  0.00     0.028 C 
ATOM     10  C   LIG d   1      -0.160  78.790 109.865  0.00  0.00     0.006 C 
ENDBRANCH   8   9
BRANCH   8  11
ATOM     11  C   LIG d   1       0.969  80.700 112.917  0.00  0.00     0.028 C 
ATOM     12  C   LIG d   1       2.437  80.976 113.279  0.00  0.00     0.006 C 
ENDBRANCH   8  11
ENDBRANCH   7   8
ENDBRANCH   1   7
BRANCH   6  13
ATOM     13  N   LIG d   1       0.390  84.853 111.191  0.00  0.00    -0.311 N 
ATOM     14  C   LIG d   1       0.089  85.523 112.302  0.00  0.00     0.210 C 
ATOM     15  C   LIG d   1      -1.129  86.445 112.192  0.00  0.00     0.109 C 
ATOM     16  O   LIG d   1       0.735  85.465 113.359  0.00  0.00    -0.276 OA
ATOM     17  H   LIG d   1      -0.168  84.984 110.370  0.00  0.00     0.149 HD
ENDBRANCH   6  13
BRANCH   5  18
ATOM     18  N   LIG d   1       3.339  85.600 111.472  0.00  0.00     0.381 N 
ATOM     19  H   LIG d   1       4.307  85.430 111.657  0.00  0.00    -0.090 HD
ATOM     20  H   LIG d   1       2.838  85.556 112.342  0.00  0.00    -0.090 HD
ATOM     21  H   LIG d   1       3.225  86.499 111.059  0.00  0.00    -0.090 HD
ENDBRANCH   5  18
BRANCH   3  22
ATOM     22  C   LIG d   1       4.420  81.678 108.945  0.00  0.00     0.382 C 
ATOM     23  O   LIG d   1       4.447  80.424 108.987  0.00  0.00    -0.241 OA
ATOM     24  O   LIG d   1       5.276  82.287 108.276  0.00  0.00    -0.241 OA
ENDBRANCH   3  22
TORSDOF 7
ENDMDL
MODEL 9
REMARK VINA RESULT:      -5.2      2.307      3.549
REMARK  7 active torsions:
REMARK  status: ('A' for Active; 'I' for Inactive)
REMARK    1  A    between atoms: C_2  and  C_3 
REMARK    2  A    between atoms: C_3  and  O_6 
REMARK    3  A    between atoms: C_3  and  C_4 
REMARK    4  A    between atoms: C_7  and  O_6 
REMARK    5  A    between atoms: C_9  and  C_10 
REMARK    6  A    between atoms: N_15  and  C_14 
REMARK    7  A    between atoms: N_20  and  C_19 
REMARK       I    between atoms: C_22  and  N_20 
ROOT
ATOM      1  C   LIG d   1       1.316  83.067 111.565  0.00  0.00     0.161 C 
ATOM      2  C   LIG d   1       0.399  83.998 111.049  0.00  0.00     0.016 C 
ATOM      3  C   LIG d   1       0.222  85.295 111.583  0.00  0.00     0.038 C 
ATOM      4  C   LIG d   1       1.064  85.805 112.583  0.00  0.00     0.028 C 
ATOM      5  C   LIG d   1       1.668  84.727 113.475  0.00  0.00    -0.047 C 
ATOM      6  C   LIG d   1       2.320  83.645 112.584  0.00  0.00     0.091 C 
ENDROOT
BRANCH   1   7
ATOM      7  O   LIG d   1       2.015  82.419 110.484  0.00  0.00    -0.368 OA
BRANCH   7   8
ATOM      8  C   LIG d   1       1.938  80.973 110.450  0.00  0.00     0.119 C 
BRANCH   8   9
ATOM      9  C   LIG d   1       3.154  80.462 109.654  0.00  0.00     0.028 C 
ATOM     10  C   LIG d   1       4.104  81.599 109.240  0.00  0.00     0.006 C 
ENDBRANCH   8   9
BRANCH   8  11
ATOM     11  C   LIG d   1       0.711  80.499 109.665  0.00  0.00     0.028 C 
ATOM     12  C   LIG d   1       0.959  79.183 108.911  0.00  0.00     0.006 C 
ENDBRANCH   8  11
ENDBRANCH   7   8
ENDBRANCH   1   7
BRANCH   6  13
ATOM     13  N   LIG d   1       2.862  82.509 113.375  0.00  0.00    -0.311 N 
ATOM     14  C   LIG d   1       4.118  82.080 113.275  0.00  0.00     0.210 C 
ATOM     15  C   LIG d   1       4.465  80.883 114.166  0.00  0.00     0.109 C 
ATOM     16  O   LIG d   1       4.987  82.596 112.556  0.00  0.00    -0.276 OA
ATOM     17  H   LIG d   1       2.233  82.052 114.006  0.00  0.00     0.149 HD
ENDBRANCH   6  13
BRANCH   5  18
ATOM     18  N   LIG d   1       2.629  85.385 114.381  0.00  0.00     0.381 N 
ATOM     19  H   LIG d   1       2.226  86.223 114.750  0.00  0.00    -0.090 HD
ATOM     20  H   LIG d   1       3.451  85.632 113.860  0.00  0.00    -0.090 HD
ATOM     21  H   LIG d   1       2.872  84.769 115.126  0.00  0.00    -0.090 HD
ENDBRANCH   5  18
BRANCH   3  22
ATOM     22  C   LIG d   1      -0.832  86.081 111.144  0.00  0.00     0.382 C 
ATOM     23  O   LIG d   1      -1.451  86.810 111.956  0.00  0.00    -0.241 OA
ATOM     24  O   LIG d   1      -1.200  86.038 109.955  0.00  0.00    -0.241 OA
ENDBRANCH   3  22
TORSDOF 7
ENDMDL
