MODEL 1
REMARK VINA RESULT:      -6.7      0.000      0.000
REMARK  7 active torsions:
REMARK  status: ('A' for Active; 'I' for Inactive)
REMARK    1  A    between atoms: C_2  and  C_3 
REMARK    2  A    between atoms: C_3  and  O_6 
REMARK    3  A    between atoms: C_3  and  C_4 
REMARK    4  A    between atoms: C_7  and  O_6 
REMARK    5  A    between atoms: C_9  and  C_10 
REMARK    6  A    between atoms: N_15  and  C_14 
REMARK    7  A    between atoms: N_20  and  C_19 
REMARK       I    between atoms: C_22  and  N_20 
ROOT
ATOM      1  C   LIG d   1       1.036  83.637 109.599  0.00  0.00     0.161 C 
ATOM      2  C   LIG d   1       0.778  84.939 110.060  0.00  0.00     0.016 C 
ATOM      3  C   LIG d   1       0.003  85.219 111.209  0.00  0.00     0.038 C 
ATOM      4  C   LIG d   1      -0.443  84.203 112.067  0.00  0.00     0.028 C 
ATOM      5  C   LIG d   1      -0.635  82.861 111.370  0.00  0.00    -0.047 C 
ATOM      6  C   LIG d   1       0.651  82.515 110.585  0.00  0.00     0.091 C 
ENDROOT
BRANCH   1   7
ATOM      7  O   LIG d   1       2.422  83.519 109.221  0.00  0.00    -0.368 OA
BRANCH   7   8
ATOM      8  C   LIG d   1       3.360  83.287 110.301  0.00  0.00     0.119 C 
BRANCH   8   9
ATOM      9  C   LIG d   1       4.045  84.631 110.616  0.00  0.00     0.028 C 
ATOM     10  C   LIG d   1       3.820  85.078 112.070  0.00  0.00     0.006 C 
ENDBRANCH   8   9
BRANCH   8  11
ATOM     11  C   LIG d   1       4.489  82.348 109.867  0.00  0.00     0.028 C 
ATOM     12  C   LIG d   1       4.228  81.694 108.501  0.00  0.00     0.006 C 
ENDBRANCH   8  11
ENDBRANCH   7   8
ENDBRANCH   1   7
BRANCH   6  13
ATOM     13  N   LIG d   1       0.518  81.257 109.805  0.00  0.00    -0.311 N 
ATOM     14  C   LIG d   1       1.232  80.160 110.054  0.00  0.00     0.210 C 
ATOM     15  C   LIG d   1       0.953  78.981 109.118  0.00  0.00     0.109 C 
ATOM     16  O   LIG d   1       2.046  80.042 110.982  0.00  0.00    -0.276 OA
ATOM     17  H   LIG d   1      -0.143  81.255 109.053  0.00  0.00     0.149 HD
ENDBRANCH   6  13
BRANCH   5  18
ATOM     18  N   LIG d   1      -0.967  81.864 112.405  0.00  0.00     0.381 N 
ATOM     19  H   LIG d   1      -0.169  81.700 112.986  0.00  0.00    -0.090 HD
ATOM     20  H   LIG d   1      -1.214  81.000 111.956  0.00  0.00    -0.090 HD
ATOM     21  H   LIG d   1      -1.729  82.189 112.959  0.00  0.00    -0.090 HD
ENDBRANCH   5  18
BRANCH   3  22
ATOM     22  C   LIG d   1      -0.367  86.526 111.487  0.00  0.00     0.382 C 
ATOM     23  O   LIG d   1       0.511  87.414 111.609  0.00  0.00    -0.241 OA
ATOM     24  O   LIG d   1      -1.565  86.821 111.660  0.00  0.00    -0.241 OA
ENDBRANCH   3  22
TORSDOF 7
ENDMDL
MODEL 2
REMARK VINA RESULT:      -6.5      1.908      5.115
REMARK  7 active torsions:
REMARK  status: ('A' for Active; 'I' for Inactive)
REMARK    1  A    between atoms: C_2  and  C_3 
REMARK    2  A    between atoms: C_3  and  O_6 
REMARK    3  A    between atoms: C_3  and  C_4 
REMARK    4  A    between atoms: C_7  and  O_6 
REMARK    5  A    between atoms: C_9  and  C_10 
REMARK    6  A    between atoms: N_15  and  C_14 
REMARK    7  A    between atoms: N_20  and  C_19 
REMARK       I    between atoms: C_22  and  N_20 
ROOT
ATOM      1  C   LIG d   1       1.034  81.268 111.029  0.00  0.00     0.161 C 
ATOM      2  C   LIG d   1       1.100  79.955 110.534  0.00  0.00     0.016 C 
ATOM      3  C   LIG d   1       0.099  78.984 110.767  0.00  0.00     0.038 C 
ATOM      4  C   LIG d   1      -1.117  79.307 111.389  0.00  0.00     0.028 C 
ATOM      5  C   LIG d   1      -1.012  80.488 112.347  0.00  0.00    -0.047 C 
ATOM      6  C   LIG d   1      -0.336  81.670 111.615  0.00  0.00     0.091 C 
ENDROOT
BRANCH   1   7
ATOM      7  O   LIG d   1       1.433  82.198 110.002  0.00  0.00    -0.368 OA
BRANCH   7   8
ATOM      8  C   LIG d   1       2.819  82.617 110.026  0.00  0.00     0.119 C 
BRANCH   8   9
ATOM      9  C   LIG d   1       2.837  84.152 110.157  0.00  0.00     0.028 C 
ATOM     10  C   LIG d   1       3.862  84.641 111.195  0.00  0.00     0.006 C 
ENDBRANCH   8   9
BRANCH   8  11
ATOM     11  C   LIG d   1       3.515  82.316 108.695  0.00  0.00     0.028 C 
ATOM     12  C   LIG d   1       4.792  81.478 108.866  0.00  0.00     0.006 C 
ENDBRANCH   8  11
ENDBRANCH   7   8
ENDBRANCH   1   7
BRANCH   6  13
ATOM     13  N   LIG d   1      -0.118  82.839 112.506  0.00  0.00    -0.311 N 
ATOM     14  C   LIG d   1      -0.353  84.097 112.136  0.00  0.00     0.210 C 
ATOM     15  C   LIG d   1      -0.042  85.153 113.201  0.00  0.00     0.109 C 
ATOM     16  O   LIG d   1      -0.819  84.436 111.038  0.00  0.00    -0.276 OA
ATOM     17  H   LIG d   1       0.230  82.653 113.426  0.00  0.00     0.149 HD
ENDBRANCH   6  13
BRANCH   5  18
ATOM     18  N   LIG d   1      -2.374  80.803 112.818  0.00  0.00     0.381 N 
ATOM     19  H   LIG d   1      -2.897  79.958 112.930  0.00  0.00    -0.090 HD
ATOM     20  H   LIG d   1      -2.834  81.369 112.127  0.00  0.00    -0.090 HD
ATOM     21  H   LIG d   1      -2.331  81.293 113.684  0.00  0.00    -0.090 HD
ENDBRANCH   5  18
BRANCH   3  22
ATOM     22  C   LIG d   1       0.326  77.663 110.411  0.00  0.00     0.382 C 
ATOM     23  O   LIG d   1       1.446  77.319 109.962  0.00  0.00    -0.241 OA
ATOM     24  O   LIG d   1      -0.588  76.821 110.492  0.00  0.00    -0.241 OA
ENDBRANCH   3  22
TORSDOF 7
ENDMDL
MODEL 3
REMARK VINA RESULT:      -6.4      2.483      4.200
REMARK  7 active torsions:
REMARK  status: ('A' for Active; 'I' for Inactive)
REMARK    1  A    between atoms: C_2  and  C_3 
REMARK    2  A    between atoms: C_3  and  O_6 
REMARK    3  A    between atoms: C_3  and  C_4 
REMARK    4  A    between atoms: C_7  and  O_6 
REMARK    5  A    between atoms: C_9  and  C_10 
REMARK    6  A    between atoms: N_15  and  C_14 
REMARK    7  A    between atoms: N_20  and  C_19 
REMARK       I    between atoms: C_22  and  N_20 
ROOT
ATOM      1  C   LIG d   1       0.523  82.116 111.282  0.00  0.00     0.161 C 
ATOM      2  C   LIG d   1      -0.653  81.955 112.034  0.00  0.00     0.016 C 
ATOM      3  C   LIG d   1      -1.279  80.704 112.241  0.00  0.00     0.038 C 
ATOM      4  C   LIG d   1      -0.684  79.501 111.834  0.00  0.00     0.028 C 
ATOM      5  C   LIG d   1       0.245  79.660 110.635  0.00  0.00    -0.047 C 
ATOM      6  C   LIG d   1       1.247  80.801 110.924  0.00  0.00     0.091 C 
ENDROOT
BRANCH   1   7
ATOM      7  O   LIG d   1       1.421  83.012 111.966  0.00  0.00    -0.368 OA
BRANCH   7   8
ATOM      8  C   LIG d   1       1.325  84.411 111.603  0.00  0.00     0.119 C 
BRANCH   8   9
ATOM      9  C   LIG d   1       1.100  84.479 110.080  0.00  0.00     0.028 C 
ATOM     10  C   LIG d   1       0.404  85.781 109.648  0.00  0.00     0.006 C 
ENDBRANCH   8   9
BRANCH   8  11
ATOM     11  C   LIG d   1       2.647  85.143 111.851  0.00  0.00     0.028 C 
ATOM     12  C   LIG d   1       3.768  84.687 110.903  0.00  0.00     0.006 C 
ENDBRANCH   8  11
ENDBRANCH   7   8
ENDBRANCH   1   7
BRANCH   6  13
ATOM     13  N   LIG d   1       2.138  81.079 109.768  0.00  0.00    -0.311 N 
ATOM     14  C   LIG d   1       3.462  81.186 109.872  0.00  0.00     0.210 C 
ATOM     15  C   LIG d   1       4.191  81.495 108.561  0.00  0.00     0.109 C 
ATOM     16  O   LIG d   1       4.104  81.021 110.920  0.00  0.00    -0.276 OA
ATOM     17  H   LIG d   1       1.703  81.195 108.874  0.00  0.00     0.149 HD
ENDBRANCH   6  13
BRANCH   5  18
ATOM     18  N   LIG d   1       0.901  78.359 110.404  0.00  0.00     0.381 N 
ATOM     19  H   LIG d   1       1.333  78.353 109.501  0.00  0.00    -0.090 HD
ATOM     20  H   LIG d   1       0.205  77.635 110.425  0.00  0.00    -0.090 HD
ATOM     21  H   LIG d   1       1.585  78.192 111.109  0.00  0.00    -0.090 HD
ENDBRANCH   5  18
BRANCH   3  22
ATOM     22  C   LIG d   1      -2.534  80.653 112.828  0.00  0.00     0.382 C 
ATOM     23  O   LIG d   1      -3.016  79.550 113.181  0.00  0.00    -0.241 OA
ATOM     24  O   LIG d   1      -3.209  81.690 112.967  0.00  0.00    -0.241 OA
ENDBRANCH   3  22
TORSDOF 7
ENDMDL
MODEL 4
REMARK VINA RESULT:      -6.1      2.518      4.748
REMARK  7 active torsions:
REMARK  status: ('A' for Active; 'I' for Inactive)
REMARK    1  A    between atoms: C_2  and  C_3 
REMARK    2  A    between atoms: C_3  and  O_6 
REMARK    3  A    between atoms: C_3  and  C_4 
REMARK    4  A    between atoms: C_7  and  O_6 
REMARK    5  A    between atoms: C_9  and  C_10 
REMARK    6  A    between atoms: N_15  and  C_14 
REMARK    7  A    between atoms: N_20  and  C_19 
REMARK       I    between atoms: C_22  and  N_20 
ROOT
ATOM      1  C   LIG d   1       2.293  83.147 111.596  0.00  0.00     0.161 C 
ATOM      2  C   LIG d   1       1.276  82.179 111.583  0.00  0.00     0.016 C 
ATOM      3  C   LIG d   1      -0.082  82.472 111.845  0.00  0.00     0.038 C 
ATOM      4  C   LIG d   1      -0.541  83.790 111.990  0.00  0.00     0.028 C 
ATOM      5  C   LIG d   1       0.524  84.748 112.511  0.00  0.00    -0.047 C 
ATOM      6  C   LIG d   1       1.795  84.607 111.643  0.00  0.00     0.091 C 
ENDROOT
BRANCH   1   7
ATOM      7  O   LIG d   1       3.168  82.952 110.468  0.00  0.00    -0.368 OA
BRANCH   7   8
ATOM      8  C   LIG d   1       2.849  81.838 109.598  0.00  0.00     0.119 C 
BRANCH   8   9
ATOM      9  C   LIG d   1       4.108  80.955 109.496  0.00  0.00     0.028 C 
ATOM     10  C   LIG d   1       5.174  81.560 108.567  0.00  0.00     0.006 C 
ENDBRANCH   8   9
BRANCH   8  11
ATOM     11  C   LIG d   1       2.566  82.310 108.169  0.00  0.00     0.028 C 
ATOM     12  C   LIG d   1       1.399  83.306 108.090  0.00  0.00     0.006 C 
ENDBRANCH   8  11
ENDBRANCH   7   8
ENDBRANCH   1   7
BRANCH   6  13
ATOM     13  N   LIG d   1       2.916  85.449 112.136  0.00  0.00    -0.311 N 
ATOM     14  C   LIG d   1       3.109  86.710 111.755  0.00  0.00     0.210 C 
ATOM     15  C   LIG d   1       4.336  87.392 112.369  0.00  0.00     0.109 C 
ATOM     16  O   LIG d   1       2.362  87.340 110.990  0.00  0.00    -0.276 OA
ATOM     17  H   LIG d   1       3.552  85.027 112.784  0.00  0.00     0.149 HD
ENDBRANCH   6  13
BRANCH   5  18
ATOM     18  N   LIG d   1      -0.047  86.108 112.483  0.00  0.00     0.381 N 
ATOM     19  H   LIG d   1       0.644  86.759 112.168  0.00  0.00    -0.090 HD
ATOM     20  H   LIG d   1      -0.321  86.365 113.415  0.00  0.00    -0.090 HD
ATOM     21  H   LIG d   1      -0.838  86.133 111.878  0.00  0.00    -0.090 HD
ENDBRANCH   5  18
BRANCH   3  22
ATOM     22  C   LIG d   1      -0.991  81.437 112.003  0.00  0.00     0.382 C 
ATOM     23  O   LIG d   1      -0.738  80.303 111.531  0.00  0.00    -0.241 OA
ATOM     24  O   LIG d   1      -2.080  81.635 112.575  0.00  0.00    -0.241 OA
ENDBRANCH   3  22
TORSDOF 7
ENDMDL
MODEL 5
REMARK VINA RESULT:      -5.9      1.525      2.312
REMARK  7 active torsions:
REMARK  status: ('A' for Active; 'I' for Inactive)
REMARK    1  A    between atoms: C_2  and  C_3 
REMARK    2  A    between atoms: C_3  and  O_6 
REMARK    3  A    between atoms: C_3  and  C_4 
REMARK    4  A    between atoms: C_7  and  O_6 
REMARK    5  A    between atoms: C_9  and  C_10 
REMARK    6  A    between atoms: N_15  and  C_14 
REMARK    7  A    between atoms: N_20  and  C_19 
REMARK       I    between atoms: C_22  and  N_20 
ROOT
ATOM      1  C   LIG d   1       1.479  82.852 109.932  0.00  0.00     0.161 C 
ATOM      2  C   LIG d   1       1.719  84.213 110.182  0.00  0.00     0.016 C 
ATOM      3  C   LIG d   1       0.957  84.984 111.090  0.00  0.00     0.038 C 
ATOM      4  C   LIG d   1      -0.007  84.404 111.928  0.00  0.00     0.028 C 
ATOM      5  C   LIG d   1      -0.628  83.136 111.351  0.00  0.00    -0.047 C 
ATOM      6  C   LIG d   1       0.504  82.176 110.919  0.00  0.00     0.091 C 
ENDROOT
BRANCH   1   7
ATOM      7  O   LIG d   1       2.728  82.135 109.892  0.00  0.00    -0.368 OA
BRANCH   7   8
ATOM      8  C   LIG d   1       3.079  81.536 108.621  0.00  0.00     0.119 C 
BRANCH   8   9
ATOM      9  C   LIG d   1       2.741  80.035 108.707  0.00  0.00     0.028 C 
ATOM     10  C   LIG d   1       3.307  79.378 109.978  0.00  0.00     0.006 C 
ENDBRANCH   8   9
BRANCH   8  11
ATOM     11  C   LIG d   1       4.589  81.598 108.373  0.00  0.00     0.028 C 
ATOM     12  C   LIG d   1       5.257  82.799 109.062  0.00  0.00     0.006 C 
ENDBRANCH   8  11
ENDBRANCH   7   8
ENDBRANCH   1   7
BRANCH   6  13
ATOM     13  N   LIG d   1      -0.016  80.946 110.265  0.00  0.00    -0.311 N 
ATOM     14  C   LIG d   1      -0.346  79.843 110.936  0.00  0.00     0.210 C 
ATOM     15  C   LIG d   1      -0.841  78.682 110.067  0.00  0.00     0.109 C 
ATOM     16  O   LIG d   1      -0.305  79.727 112.170  0.00  0.00    -0.276 OA
ATOM     17  H   LIG d   1      -0.110  80.964 109.269  0.00  0.00     0.149 HD
ENDBRANCH   6  13
BRANCH   5  18
ATOM     18  N   LIG d   1      -1.511  82.562 112.383  0.00  0.00     0.381 N 
ATOM     19  H   LIG d   1      -2.189  83.242 112.665  0.00  0.00    -0.090 HD
ATOM     20  H   LIG d   1      -0.958  82.317 113.185  0.00  0.00    -0.090 HD
ATOM     21  H   LIG d   1      -1.970  81.753 112.027  0.00  0.00    -0.090 HD
ENDBRANCH   5  18
BRANCH   3  22
ATOM     22  C   LIG d   1       1.129  86.359 111.138  0.00  0.00     0.382 C 
ATOM     23  O   LIG d   1       2.222  86.866 110.787  0.00  0.00    -0.241 OA
ATOM     24  O   LIG d   1       0.222  87.095 111.570  0.00  0.00    -0.241 OA
ENDBRANCH   3  22
TORSDOF 7
ENDMDL
MODEL 6
REMARK VINA RESULT:      -5.9      2.395      4.876
REMARK  7 active torsions:
REMARK  status: ('A' for Active; 'I' for Inactive)
REMARK    1  A    between atoms: C_2  and  C_3 
REMARK    2  A    between atoms: C_3  and  O_6 
REMARK    3  A    between atoms: C_3  and  C_4 
REMARK    4  A    between atoms: C_7  and  O_6 
REMARK    5  A    between atoms: C_9  and  C_10 
REMARK    6  A    between atoms: N_15  and  C_14 
REMARK    7  A    between atoms: N_20  and  C_19 
REMARK       I    between atoms: C_22  and  N_20 
ROOT
ATOM      1  C   LIG d   1       1.039  81.721 111.187  0.00  0.00     0.161 C 
ATOM      2  C   LIG d   1       2.199  82.214 110.567  0.00  0.00     0.016 C 
ATOM      3  C   LIG d   1       3.044  81.422 109.756  0.00  0.00     0.038 C 
ATOM      4  C   LIG d   1       2.703  80.113 109.385  0.00  0.00     0.028 C 
ATOM      5  C   LIG d   1       1.799  79.414 110.395  0.00  0.00    -0.047 C 
ATOM      6  C   LIG d   1       0.590  80.326 110.703  0.00  0.00     0.091 C 
ENDROOT
BRANCH   1   7
ATOM      7  O   LIG d   1      -0.035  82.671 111.040  0.00  0.00    -0.368 OA
BRANCH   7   8
ATOM      8  C   LIG d   1       0.286  84.049 111.352  0.00  0.00     0.119 C 
BRANCH   8   9
ATOM      9  C   LIG d   1      -0.267  84.346 112.759  0.00  0.00     0.028 C 
ATOM     10  C   LIG d   1       0.621  85.327 113.544  0.00  0.00     0.006 C 
ENDBRANCH   8   9
BRANCH   8  11
ATOM     11  C   LIG d   1      -0.445  85.017 110.417  0.00  0.00     0.028 C 
ATOM     12  C   LIG d   1       0.506  85.999 109.714  0.00  0.00     0.006 C 
ENDBRANCH   8  11
ENDBRANCH   7   8
ENDBRANCH   1   7
BRANCH   6  13
ATOM     13  N   LIG d   1      -0.300  79.753 111.746  0.00  0.00    -0.311 N 
ATOM     14  C   LIG d   1      -1.353  78.985 111.471  0.00  0.00     0.210 C 
ATOM     15  C   LIG d   1      -2.149  78.516 112.693  0.00  0.00     0.109 C 
ATOM     16  O   LIG d   1      -1.684  78.621 110.332  0.00  0.00    -0.276 OA
ATOM     17  H   LIG d   1      -0.086  79.972 112.700  0.00  0.00     0.149 HD
ENDBRANCH   6  13
BRANCH   5  18
ATOM     18  N   LIG d   1       1.410  78.113 109.819  0.00  0.00     0.381 N 
ATOM     19  H   LIG d   1       1.757  77.371 110.393  0.00  0.00    -0.090 HD
ATOM     20  H   LIG d   1       1.823  78.025 108.907  0.00  0.00    -0.090 HD
ATOM     21  H   LIG d   1       0.418  78.053 109.750  0.00  0.00    -0.090 HD
ENDBRANCH   5  18
BRANCH   3  22
ATOM     22  C   LIG d   1       4.267  81.927 109.340  0.00  0.00     0.382 C 
ATOM     23  O   LIG d   1       4.894  81.363 108.411  0.00  0.00    -0.241 OA
ATOM     24  O   LIG d   1       4.771  82.912 109.912  0.00  0.00    -0.241 OA
ENDBRANCH   3  22
TORSDOF 7
ENDMDL
MODEL 7
REMARK VINA RESULT:      -5.6      2.378      4.080
REMARK  7 active torsions:
REMARK  status: ('A' for Active; 'I' for Inactive)
REMARK    1  A    between atoms: C_2  and  C_3 
REMARK    2  A    between atoms: C_3  and  O_6 
REMARK    3  A    between atoms: C_3  and  C_4 
REMARK    4  A    between atoms: C_7  and  O_6 
REMARK    5  A    between atoms: C_9  and  C_10 
REMARK    6  A    between atoms: N_15  and  C_14 
REMARK    7  A    between atoms: N_20  and  C_19 
REMARK       I    between atoms: C_22  and  N_20 
ROOT
ATOM      1  C   LIG d   1       1.170  82.617 111.252  0.00  0.00     0.161 C 
ATOM      2  C   LIG d   1      -0.057  82.366 111.890  0.00  0.00     0.016 C 
ATOM      3  C   LIG d   1      -0.657  81.087 111.944  0.00  0.00     0.038 C 
ATOM      4  C   LIG d   1       0.006  79.936 111.492  0.00  0.00     0.028 C 
ATOM      5  C   LIG d   1       1.022  80.217 110.390  0.00  0.00    -0.047 C 
ATOM      6  C   LIG d   1       1.961  81.355 110.850  0.00  0.00     0.091 C 
ENDROOT
BRANCH   1   7
ATOM      7  O   LIG d   1       1.982  83.476 112.077  0.00  0.00    -0.368 OA
BRANCH   7   8
ATOM      8  C   LIG d   1       2.479  84.682 111.446  0.00  0.00     0.119 C 
BRANCH   8   9
ATOM      9  C   LIG d   1       3.687  85.170 112.269  0.00  0.00     0.028 C 
ATOM     10  C   LIG d   1       4.399  86.366 111.613  0.00  0.00     0.006 C 
ENDBRANCH   8   9
BRANCH   8  11
ATOM     11  C   LIG d   1       1.452  85.815 111.523  0.00  0.00     0.028 C 
ATOM     12  C   LIG d   1       0.882  86.197 110.148  0.00  0.00     0.006 C 
ENDBRANCH   8  11
ENDBRANCH   7   8
ENDBRANCH   1   7
BRANCH   6  13
ATOM     13  N   LIG d   1       2.933  81.749 109.797  0.00  0.00    -0.311 N 
ATOM     14  C   LIG d   1       4.082  81.111 109.584  0.00  0.00     0.210 C 
ATOM     15  C   LIG d   1       4.947  81.693 108.462  0.00  0.00     0.109 C 
ATOM     16  O   LIG d   1       4.452  80.097 110.196  0.00  0.00    -0.276 OA
ATOM     17  H   LIG d   1       2.697  82.543 109.234  0.00  0.00     0.149 HD
ENDBRANCH   6  13
BRANCH   5  18
ATOM     18  N   LIG d   1       1.735  78.956 110.110  0.00  0.00     0.381 N 
ATOM     19  H   LIG d   1       1.485  78.619 109.202  0.00  0.00    -0.090 HD
ATOM     20  H   LIG d   1       1.459  78.269 110.789  0.00  0.00    -0.090 HD
ATOM     21  H   LIG d   1       2.719  79.104 110.157  0.00  0.00    -0.090 HD
ENDBRANCH   5  18
BRANCH   3  22
ATOM     22  C   LIG d   1      -1.953  80.956 112.419  0.00  0.00     0.382 C 
ATOM     23  O   LIG d   1      -2.581  81.967 112.816  0.00  0.00    -0.241 OA
ATOM     24  O   LIG d   1      -2.487  79.833 112.497  0.00  0.00    -0.241 OA
ENDBRANCH   3  22
TORSDOF 7
ENDMDL
MODEL 8
REMARK VINA RESULT:      -5.3      2.361      5.025
REMARK  7 active torsions:
REMARK  status: ('A' for Active; 'I' for Inactive)
REMARK    1  A    between atoms: C_2  and  C_3 
REMARK    2  A    between atoms: C_3  and  O_6 
REMARK    3  A    between atoms: C_3  and  C_4 
REMARK    4  A    between atoms: C_7  and  O_6 
REMARK    5  A    between atoms: C_9  and  C_10 
REMARK    6  A    between atoms: N_15  and  C_14 
REMARK    7  A    between atoms: N_20  and  C_19 
REMARK       I    between atoms: C_22  and  N_20 
ROOT
ATOM      1  C   LIG d   1       1.504  81.981 110.801  0.00  0.00     0.161 C 
ATOM      2  C   LIG d   1       1.667  80.789 110.075  0.00  0.00     0.016 C 
ATOM      3  C   LIG d   1       0.919  79.616 110.327  0.00  0.00     0.038 C 
ATOM      4  C   LIG d   1      -0.156  79.601 111.227  0.00  0.00     0.028 C 
ATOM      5  C   LIG d   1      -0.028  80.635 112.341  0.00  0.00    -0.047 C 
ATOM      6  C   LIG d   1       0.259  82.018 111.712  0.00  0.00     0.091 C 
ENDROOT
BRANCH   1   7
ATOM      7  O   LIG d   1       1.498  83.105 109.899  0.00  0.00    -0.368 OA
BRANCH   7   8
ATOM      8  C   LIG d   1       2.717  83.886 109.846  0.00  0.00     0.119 C 
BRANCH   8   9
ATOM      9  C   LIG d   1       3.856  83.005 110.395  0.00  0.00     0.028 C 
ATOM     10  C   LIG d   1       4.818  82.534 109.292  0.00  0.00     0.006 C 
ENDBRANCH   8   9
BRANCH   8  11
ATOM     11  C   LIG d   1       2.648  85.092 110.787  0.00  0.00     0.028 C 
ATOM     12  C   LIG d   1       3.951  85.312 111.571  0.00  0.00     0.006 C 
ENDBRANCH   8  11
ENDBRANCH   7   8
ENDBRANCH   1   7
BRANCH   6  13
ATOM     13  N   LIG d   1       0.482  83.071 112.736  0.00  0.00    -0.311 N 
ATOM     14  C   LIG d   1       1.528  83.081 113.562  0.00  0.00     0.210 C 
ATOM     15  C   LIG d   1       1.556  84.247 114.555  0.00  0.00     0.109 C 
ATOM     16  O   LIG d   1       2.451  82.253 113.544  0.00  0.00    -0.276 OA
ATOM     17  H   LIG d   1      -0.202  83.799 112.799  0.00  0.00     0.149 HD
ENDBRANCH   6  13
BRANCH   5  18
ATOM     18  N   LIG d   1      -1.278  80.604 113.124  0.00  0.00     0.381 N 
ATOM     19  H   LIG d   1      -1.779  79.761 112.929  0.00  0.00    -0.090 HD
ATOM     20  H   LIG d   1      -1.852  81.383 112.851  0.00  0.00    -0.090 HD
ATOM     21  H   LIG d   1      -1.072  80.659 114.097  0.00  0.00    -0.090 HD
ENDBRANCH   5  18
BRANCH   3  22
ATOM     22  C   LIG d   1       1.271  78.429 109.702  0.00  0.00     0.382 C 
ATOM     23  O   LIG d   1       1.993  78.451 108.676  0.00  0.00    -0.241 OA
ATOM     24  O   LIG d   1       0.839  77.340 110.125  0.00  0.00    -0.241 OA
ENDBRANCH   3  22
TORSDOF 7
ENDMDL
MODEL 9
REMARK VINA RESULT:      -5.1      1.975      4.137
REMARK  7 active torsions:
REMARK  status: ('A' for Active; 'I' for Inactive)
REMARK    1  A    between atoms: C_2  and  C_3 
REMARK    2  A    between atoms: C_3  and  O_6 
REMARK    3  A    between atoms: C_3  and  C_4 
REMARK    4  A    between atoms: C_7  and  O_6 
REMARK    5  A    between atoms: C_9  and  C_10 
REMARK    6  A    between atoms: N_15  and  C_14 
REMARK    7  A    between atoms: N_20  and  C_19 
REMARK       I    between atoms: C_22  and  N_20 
ROOT
ATOM      1  C   LIG d   1       1.435  82.140 111.485  0.00  0.00     0.161 C 
ATOM      2  C   LIG d   1       0.680  83.116 112.157  0.00  0.00     0.016 C 
ATOM      3  C   LIG d   1       0.122  84.245 111.515  0.00  0.00     0.038 C 
ATOM      4  C   LIG d   1       0.153  84.397 110.121  0.00  0.00     0.028 C 
ATOM      5  C   LIG d   1       1.336  83.697 109.462  0.00  0.00    -0.047 C 
ATOM      6  C   LIG d   1       1.385  82.230 109.946  0.00  0.00     0.091 C 
ENDROOT
BRANCH   1   7
ATOM      7  O   LIG d   1       1.035  80.826 111.923  0.00  0.00    -0.368 OA
BRANCH   7   8
ATOM      8  C   LIG d   1      -0.218  80.330 111.390  0.00  0.00     0.119 C 
BRANCH   8   9
ATOM      9  C   LIG d   1      -1.023  79.746 112.567  0.00  0.00     0.028 C 
ATOM     10  C   LIG d   1      -2.302  80.548 112.859  0.00  0.00     0.006 C 
ENDBRANCH   8   9
BRANCH   8  11
ATOM     11  C   LIG d   1       0.010  79.157 110.432  0.00  0.00     0.028 C 
ATOM     12  C   LIG d   1      -0.944  77.981 110.693  0.00  0.00     0.006 C 
ENDBRANCH   8  11
ENDBRANCH   7   8
ENDBRANCH   1   7
BRANCH   6  13
ATOM     13  N   LIG d   1       2.563  81.496 109.414  0.00  0.00    -0.311 N 
ATOM     14  C   LIG d   1       3.821  81.809 109.720  0.00  0.00     0.210 C 
ATOM     15  C   LIG d   1       4.886  80.938 109.047  0.00  0.00     0.109 C 
ATOM     16  O   LIG d   1       4.154  82.705 110.510  0.00  0.00    -0.276 OA
ATOM     17  H   LIG d   1       2.382  80.735 108.789  0.00  0.00     0.149 HD
ENDBRANCH   6  13
BRANCH   5  18
ATOM     18  N   LIG d   1       1.169  83.819 108.001  0.00  0.00     0.381 N 
ATOM     19  H   LIG d   1       0.196  83.797 107.769  0.00  0.00    -0.090 HD
ATOM     20  H   LIG d   1       1.618  83.038 107.556  0.00  0.00    -0.090 HD
ATOM     21  H   LIG d   1       1.575  84.671 107.682  0.00  0.00    -0.090 HD
ENDBRANCH   5  18
BRANCH   3  22
ATOM     22  C   LIG d   1      -0.442  85.259 112.276  0.00  0.00     0.382 C 
ATOM     23  O   LIG d   1      -0.837  85.021 113.442  0.00  0.00    -0.241 OA
ATOM     24  O   LIG d   1      -0.600  86.397 111.794  0.00  0.00    -0.241 OA
ENDBRANCH   3  22
TORSDOF 7
ENDMDL
