MODEL 1
REMARK VINA RESULT:      -6.8      0.000      0.000
REMARK  7 active torsions:
REMARK  status: ('A' for Active; 'I' for Inactive)
REMARK    1  A    between atoms: C_2  and  C_3 
REMARK    2  A    between atoms: C_3  and  O_6 
REMARK    3  A    between atoms: C_3  and  C_4 
REMARK    4  A    between atoms: C_7  and  O_6 
REMARK    5  A    between atoms: C_9  and  C_10 
REMARK    6  A    between atoms: N_15  and  C_14 
REMARK    7  A    between atoms: N_20  and  C_19 
REMARK       I    between atoms: C_22  and  N_20 
ROOT
ATOM      1  C   LIG d   1       1.307  84.204 109.546  0.00  0.00     0.161 C 
ATOM      2  C   LIG d   1       1.007  85.497 110.004  0.00  0.00     0.016 C 
ATOM      3  C   LIG d   1       0.072  85.761 111.032  0.00  0.00     0.038 C 
ATOM      4  C   LIG d   1      -0.518  84.731 111.780  0.00  0.00     0.028 C 
ATOM      5  C   LIG d   1      -0.628  83.415 111.017  0.00  0.00    -0.047 C 
ATOM      6  C   LIG d   1       0.756  83.061 110.425  0.00  0.00     0.091 C 
ENDROOT
BRANCH   1   7
ATOM      7  O   LIG d   1       2.731  84.063 109.377  0.00  0.00    -0.368 OA
BRANCH   7   8
ATOM      8  C   LIG d   1       3.423  83.308 110.402  0.00  0.00     0.119 C 
BRANCH   8   9
ATOM      9  C   LIG d   1       4.058  84.320 111.375  0.00  0.00     0.028 C 
ATOM     10  C   LIG d   1       3.333  84.366 112.730  0.00  0.00     0.006 C 
ENDBRANCH   8   9
BRANCH   8  11
ATOM     11  C   LIG d   1       4.597  82.518 109.815  0.00  0.00     0.028 C 
ATOM     12  C   LIG d   1       4.244  81.821 108.491  0.00  0.00     0.006 C 
ENDBRANCH   8  11
ENDBRANCH   7   8
ENDBRANCH   1   7
BRANCH   6  13
ATOM     13  N   LIG d   1       0.718  81.831 109.592  0.00  0.00    -0.311 N 
ATOM     14  C   LIG d   1       0.973  80.614 110.070  0.00  0.00     0.210 C 
ATOM     15  C   LIG d   1       0.900  79.485 109.037  0.00  0.00     0.109 C 
ATOM     16  O   LIG d   1       1.222  80.359 111.258  0.00  0.00    -0.276 OA
ATOM     17  H   LIG d   1       0.494  81.943 108.622  0.00  0.00     0.149 HD
ENDBRANCH   6  13
BRANCH   5  18
ATOM     18  N   LIG d   1      -1.132  82.396 111.957  0.00  0.00     0.381 N 
ATOM     19  H   LIG d   1      -2.132  82.410 111.967  0.00  0.00    -0.090 HD
ATOM     20  H   LIG d   1      -0.803  82.615 112.881  0.00  0.00    -0.090 HD
ATOM     21  H   LIG d   1      -0.808  81.493 111.686  0.00  0.00    -0.090 HD
ENDBRANCH   5  18
BRANCH   3  22
ATOM     22  C   LIG d   1      -0.311  87.067 111.294  0.00  0.00     0.382 C 
ATOM     23  O   LIG d   1       0.547  87.913 111.647  0.00  0.00    -0.241 OA
ATOM     24  O   LIG d   1      -1.509  87.401 111.226  0.00  0.00    -0.241 OA
ENDBRANCH   3  22
TORSDOF 7
ENDMDL
MODEL 2
REMARK VINA RESULT:      -6.2      2.813      5.395
REMARK  7 active torsions:
REMARK  status: ('A' for Active; 'I' for Inactive)
REMARK    1  A    between atoms: C_2  and  C_3 
REMARK    2  A    between atoms: C_3  and  O_6 
REMARK    3  A    between atoms: C_3  and  C_4 
REMARK    4  A    between atoms: C_7  and  O_6 
REMARK    5  A    between atoms: C_9  and  C_10 
REMARK    6  A    between atoms: N_15  and  C_14 
REMARK    7  A    between atoms: N_20  and  C_19 
REMARK       I    between atoms: C_22  and  N_20 
ROOT
ATOM      1  C   LIG d   1       0.710  80.984 111.019  0.00  0.00     0.161 C 
ATOM      2  C   LIG d   1      -0.411  80.305 111.526  0.00  0.00     0.016 C 
ATOM      3  C   LIG d   1      -0.877  79.075 111.007  0.00  0.00     0.038 C 
ATOM      4  C   LIG d   1      -0.159  78.360 110.037  0.00  0.00     0.028 C 
ATOM      5  C   LIG d   1       0.701  79.248 109.143  0.00  0.00    -0.047 C 
ATOM      6  C   LIG d   1       1.570  80.165 110.034  0.00  0.00     0.091 C 
ENDROOT
BRANCH   1   7
ATOM      7  O   LIG d   1       1.520  81.471 112.107  0.00  0.00    -0.368 OA
BRANCH   7   8
ATOM      8  C   LIG d   1       1.595  82.910 112.251  0.00  0.00     0.119 C 
BRANCH   8   9
ATOM      9  C   LIG d   1       0.790  83.534 111.095  0.00  0.00     0.028 C 
ATOM     10  C   LIG d   1      -0.433  84.324 111.590  0.00  0.00     0.006 C 
ENDBRANCH   8   9
BRANCH   8  11
ATOM     11  C   LIG d   1       3.029  83.415 112.066  0.00  0.00     0.028 C 
ATOM     12  C   LIG d   1       3.147  84.484 110.968  0.00  0.00     0.006 C 
ENDBRANCH   8  11
ENDBRANCH   7   8
ENDBRANCH   1   7
BRANCH   6  13
ATOM     13  N   LIG d   1       2.380  81.125 109.240  0.00  0.00    -0.311 N 
ATOM     14  C   LIG d   1       3.710  81.086 109.177  0.00  0.00     0.210 C 
ATOM     15  C   LIG d   1       4.349  82.180 108.317  0.00  0.00     0.109 C 
ATOM     16  O   LIG d   1       4.419  80.229 109.726  0.00  0.00    -0.276 OA
ATOM     17  H   LIG d   1       1.884  81.834 108.737  0.00  0.00     0.149 HD
ENDBRANCH   6  13
BRANCH   5  18
ATOM     18  N   LIG d   1       1.498  78.365 108.271  0.00  0.00     0.381 N 
ATOM     19  H   LIG d   1       2.370  78.803 108.052  0.00  0.00    -0.090 HD
ATOM     20  H   LIG d   1       0.996  78.216 107.414  0.00  0.00    -0.090 HD
ATOM     21  H   LIG d   1       1.660  77.493 108.725  0.00  0.00    -0.090 HD
ENDBRANCH   5  18
BRANCH   3  22
ATOM     22  C   LIG d   1      -2.095  78.567 111.432  0.00  0.00     0.382 C 
ATOM     23  O   LIG d   1      -2.382  77.365 111.218  0.00  0.00    -0.241 OA
ATOM     24  O   LIG d   1      -2.929  79.307 111.987  0.00  0.00    -0.241 OA
ENDBRANCH   3  22
TORSDOF 7
ENDMDL
MODEL 3
REMARK VINA RESULT:      -6.1      1.860      5.336
REMARK  7 active torsions:
REMARK  status: ('A' for Active; 'I' for Inactive)
REMARK    1  A    between atoms: C_2  and  C_3 
REMARK    2  A    between atoms: C_3  and  O_6 
REMARK    3  A    between atoms: C_3  and  C_4 
REMARK    4  A    between atoms: C_7  and  O_6 
REMARK    5  A    between atoms: C_9  and  C_10 
REMARK    6  A    between atoms: N_15  and  C_14 
REMARK    7  A    between atoms: N_20  and  C_19 
REMARK       I    between atoms: C_22  and  N_20 
ROOT
ATOM      1  C   LIG d   1       1.523  81.987 110.279  0.00  0.00     0.161 C 
ATOM      2  C   LIG d   1       1.750  80.731 109.691  0.00  0.00     0.016 C 
ATOM      3  C   LIG d   1       0.942  79.598 109.940  0.00  0.00     0.038 C 
ATOM      4  C   LIG d   1      -0.246  79.683 110.682  0.00  0.00     0.028 C 
ATOM      5  C   LIG d   1      -0.240  80.812 111.707  0.00  0.00    -0.047 C 
ATOM      6  C   LIG d   1       0.168  82.126 111.004  0.00  0.00     0.091 C 
ENDROOT
BRANCH   1   7
ATOM      7  O   LIG d   1       1.671  83.024 109.289  0.00  0.00    -0.368 OA
BRANCH   7   8
ATOM      8  C   LIG d   1       2.923  83.752 109.311  0.00  0.00     0.119 C 
BRANCH   8   9
ATOM      9  C   LIG d   1       3.966  82.859 110.011  0.00  0.00     0.028 C 
ATOM     10  C   LIG d   1       4.988  82.269 109.025  0.00  0.00     0.006 C 
ENDBRANCH   8   9
BRANCH   8  11
ATOM     11  C   LIG d   1       2.820  85.010 110.179  0.00  0.00     0.028 C 
ATOM     12  C   LIG d   1       3.579  84.881 111.509  0.00  0.00     0.006 C 
ENDBRANCH   8  11
ENDBRANCH   7   8
ENDBRANCH   1   7
BRANCH   6  13
ATOM     13  N   LIG d   1       0.280  83.265 111.952  0.00  0.00    -0.311 N 
ATOM     14  C   LIG d   1      -0.356  84.424 111.784  0.00  0.00     0.210 C 
ATOM     15  C   LIG d   1      -0.087  85.472 112.869  0.00  0.00     0.109 C 
ATOM     16  O   LIG d   1      -1.143  84.671 110.858  0.00  0.00    -0.276 OA
ATOM     17  H   LIG d   1       0.873  83.139 112.748  0.00  0.00     0.149 HD
ENDBRANCH   6  13
BRANCH   5  18
ATOM     18  N   LIG d   1      -1.585  80.872 112.311  0.00  0.00     0.381 N 
ATOM     19  H   LIG d   1      -1.535  80.617 113.277  0.00  0.00    -0.090 HD
ATOM     20  H   LIG d   1      -2.182  80.214 111.842  0.00  0.00    -0.090 HD
ATOM     21  H   LIG d   1      -1.958  81.792 112.221  0.00  0.00    -0.090 HD
ENDBRANCH   5  18
BRANCH   3  22
ATOM     22  C   LIG d   1       1.342  78.354 109.477  0.00  0.00     0.382 C 
ATOM     23  O   LIG d   1       0.733  77.321 109.848  0.00  0.00    -0.241 OA
ATOM     24  O   LIG d   1       2.331  78.247 108.727  0.00  0.00    -0.241 OA
ENDBRANCH   3  22
TORSDOF 7
ENDMDL
MODEL 4
REMARK VINA RESULT:      -6.1      2.139      3.144
REMARK  7 active torsions:
REMARK  status: ('A' for Active; 'I' for Inactive)
REMARK    1  A    between atoms: C_2  and  C_3 
REMARK    2  A    between atoms: C_3  and  O_6 
REMARK    3  A    between atoms: C_3  and  C_4 
REMARK    4  A    between atoms: C_7  and  O_6 
REMARK    5  A    between atoms: C_9  and  C_10 
REMARK    6  A    between atoms: N_15  and  C_14 
REMARK    7  A    between atoms: N_20  and  C_19 
REMARK       I    between atoms: C_22  and  N_20 
ROOT
ATOM      1  C   LIG d   1       3.252  84.547 111.645  0.00  0.00     0.161 C 
ATOM      2  C   LIG d   1       2.489  85.671 112.000  0.00  0.00     0.016 C 
ATOM      3  C   LIG d   1       1.438  86.182 111.204  0.00  0.00     0.038 C 
ATOM      4  C   LIG d   1       0.977  85.507 110.064  0.00  0.00     0.028 C 
ATOM      5  C   LIG d   1       2.045  84.648 109.395  0.00  0.00    -0.047 C 
ATOM      6  C   LIG d   1       2.691  83.733 110.461  0.00  0.00     0.091 C 
ENDROOT
BRANCH   1   7
ATOM      7  O   LIG d   1       3.434  83.697 112.795  0.00  0.00    -0.368 OA
BRANCH   7   8
ATOM      8  C   LIG d   1       2.237  83.078 113.327  0.00  0.00     0.119 C 
BRANCH   8   9
ATOM      9  C   LIG d   1       2.203  83.360 114.841  0.00  0.00     0.028 C 
ATOM     10  C   LIG d   1       3.426  84.162 115.316  0.00  0.00     0.006 C 
ENDBRANCH   8   9
BRANCH   8  11
ATOM     11  C   LIG d   1       2.295  81.553 113.199  0.00  0.00     0.028 C 
ATOM     12  C   LIG d   1       1.100  80.974 112.424  0.00  0.00     0.006 C 
ENDBRANCH   8  11
ENDBRANCH   7   8
ENDBRANCH   1   7
BRANCH   6  13
ATOM     13  N   LIG d   1       3.805  82.918 109.908  0.00  0.00    -0.311 N 
ATOM     14  C   LIG d   1       3.636  81.703 109.388  0.00  0.00     0.210 C 
ATOM     15  C   LIG d   1       4.919  81.029 108.893  0.00  0.00     0.109 C 
ATOM     16  O   LIG d   1       2.542  81.134 109.261  0.00  0.00    -0.276 OA
ATOM     17  H   LIG d   1       4.722  83.317 109.942  0.00  0.00     0.149 HD
ENDBRANCH   6  13
BRANCH   5  18
ATOM     18  N   LIG d   1       1.394  83.896 108.305  0.00  0.00     0.381 N 
ATOM     19  H   LIG d   1       1.455  82.914 108.488  0.00  0.00    -0.090 HD
ATOM     20  H   LIG d   1       1.878  84.087 107.445  0.00  0.00    -0.090 HD
ATOM     21  H   LIG d   1       0.439  84.169 108.226  0.00  0.00    -0.090 HD
ENDBRANCH   5  18
BRANCH   3  22
ATOM     22  C   LIG d   1       0.863  87.402 111.525  0.00  0.00     0.382 C 
ATOM     23  O   LIG d   1       1.578  88.337 111.959  0.00  0.00    -0.241 OA
ATOM     24  O   LIG d   1      -0.368  87.565 111.428  0.00  0.00    -0.241 OA
ENDBRANCH   3  22
TORSDOF 7
ENDMDL
MODEL 5
REMARK VINA RESULT:      -5.8      2.565      4.737
REMARK  7 active torsions:
REMARK  status: ('A' for Active; 'I' for Inactive)
REMARK    1  A    between atoms: C_2  and  C_3 
REMARK    2  A    between atoms: C_3  and  O_6 
REMARK    3  A    between atoms: C_3  and  C_4 
REMARK    4  A    between atoms: C_7  and  O_6 
REMARK    5  A    between atoms: C_9  and  C_10 
REMARK    6  A    between atoms: N_15  and  C_14 
REMARK    7  A    between atoms: N_20  and  C_19 
REMARK       I    between atoms: C_22  and  N_20 
ROOT
ATOM      1  C   LIG d   1       1.462  81.315 111.846  0.00  0.00     0.161 C 
ATOM      2  C   LIG d   1       2.527  81.932 111.168  0.00  0.00     0.016 C 
ATOM      3  C   LIG d   1       2.672  81.909 109.762  0.00  0.00     0.038 C 
ATOM      4  C   LIG d   1       1.674  81.393 108.922  0.00  0.00     0.028 C 
ATOM      5  C   LIG d   1       0.824  80.314 109.583  0.00  0.00    -0.047 C 
ATOM      6  C   LIG d   1       0.306  80.844 110.940  0.00  0.00     0.091 C 
ENDROOT
BRANCH   1   7
ATOM      7  O   LIG d   1       0.966  82.192 112.876  0.00  0.00    -0.368 OA
BRANCH   7   8
ATOM      8  C   LIG d   1       1.155  83.611 112.652  0.00  0.00     0.119 C 
BRANCH   8   9
ATOM      9  C   LIG d   1       1.579  84.239 113.993  0.00  0.00     0.028 C 
ATOM     10  C   LIG d   1       1.388  85.765 114.013  0.00  0.00     0.006 C 
ENDBRANCH   8   9
BRANCH   8  11
ATOM     11  C   LIG d   1      -0.163  84.297 112.281  0.00  0.00     0.028 C 
ATOM     12  C   LIG d   1      -0.318  84.513 110.768  0.00  0.00     0.006 C 
ENDBRANCH   8  11
ENDBRANCH   7   8
ENDBRANCH   1   7
BRANCH   6  13
ATOM     13  N   LIG d   1      -0.465  79.820 111.691  0.00  0.00    -0.311 N 
ATOM     14  C   LIG d   1      -1.633  80.068 112.281  0.00  0.00     0.210 C 
ATOM     15  C   LIG d   1      -2.251  78.877 113.020  0.00  0.00     0.109 C 
ATOM     16  O   LIG d   1      -2.232  81.153 112.236  0.00  0.00    -0.276 OA
ATOM     17  H   LIG d   1      -0.068  78.903 111.752  0.00  0.00     0.149 HD
ENDBRANCH   6  13
BRANCH   5  18
ATOM     18  N   LIG d   1      -0.260  79.964 108.647  0.00  0.00     0.381 N 
ATOM     19  H   LIG d   1      -1.134  80.304 108.997  0.00  0.00    -0.090 HD
ATOM     20  H   LIG d   1      -0.318  78.964 108.574  0.00  0.00    -0.090 HD
ATOM     21  H   LIG d   1      -0.078  80.360 107.750  0.00  0.00    -0.090 HD
ENDBRANCH   5  18
BRANCH   3  22
ATOM     22  C   LIG d   1       3.845  82.371 109.184  0.00  0.00     0.382 C 
ATOM     23  O   LIG d   1       4.272  83.517 109.463  0.00  0.00    -0.241 OA
ATOM     24  O   LIG d   1       4.458  81.673 108.354  0.00  0.00    -0.241 OA
ENDBRANCH   3  22
TORSDOF 7
ENDMDL
MODEL 6
REMARK VINA RESULT:      -5.4      3.032      4.099
REMARK  7 active torsions:
REMARK  status: ('A' for Active; 'I' for Inactive)
REMARK    1  A    between atoms: C_2  and  C_3 
REMARK    2  A    between atoms: C_3  and  O_6 
REMARK    3  A    between atoms: C_3  and  C_4 
REMARK    4  A    between atoms: C_7  and  O_6 
REMARK    5  A    between atoms: C_9  and  C_10 
REMARK    6  A    between atoms: N_15  and  C_14 
REMARK    7  A    between atoms: N_20  and  C_19 
REMARK       I    between atoms: C_22  and  N_20 
ROOT
ATOM      1  C   LIG d   1       1.218  83.615 112.693  0.00  0.00     0.161 C 
ATOM      2  C   LIG d   1       1.349  84.795 111.942  0.00  0.00     0.016 C 
ATOM      3  C   LIG d   1       2.097  85.914 112.375  0.00  0.00     0.038 C 
ATOM      4  C   LIG d   1       2.895  85.871 113.528  0.00  0.00     0.028 C 
ATOM      5  C   LIG d   1       2.394  84.882 114.575  0.00  0.00    -0.047 C 
ATOM      6  C   LIG d   1       2.171  83.508 113.902  0.00  0.00     0.091 C 
ENDROOT
BRANCH   1   7
ATOM      7  O   LIG d   1       1.369  82.469 111.833  0.00  0.00    -0.368 OA
BRANCH   7   8
ATOM      8  C   LIG d   1       2.449  82.534 110.868  0.00  0.00     0.119 C 
BRANCH   8   9
ATOM      9  C   LIG d   1       1.854  82.206 109.485  0.00  0.00     0.028 C 
ATOM     10  C   LIG d   1       1.920  83.401 108.519  0.00  0.00     0.006 C 
ENDBRANCH   8   9
BRANCH   8  11
ATOM     11  C   LIG d   1       3.495  81.447 111.128  0.00  0.00     0.028 C 
ATOM     12  C   LIG d   1       3.602  80.435 109.976  0.00  0.00     0.006 C 
ENDBRANCH   8  11
ENDBRANCH   7   8
ENDBRANCH   1   7
BRANCH   6  13
ATOM     13  N   LIG d   1       1.601  82.504 114.837  0.00  0.00    -0.311 N 
ATOM     14  C   LIG d   1       2.343  81.641 115.528  0.00  0.00     0.210 C 
ATOM     15  C   LIG d   1       1.554  80.678 116.420  0.00  0.00     0.109 C 
ATOM     16  O   LIG d   1       3.583  81.603 115.512  0.00  0.00    -0.276 OA
ATOM     17  H   LIG d   1       0.604  82.486 114.935  0.00  0.00     0.149 HD
ENDBRANCH   6  13
BRANCH   5  18
ATOM     18  N   LIG d   1       3.391  84.838 115.661  0.00  0.00     0.381 N 
ATOM     19  H   LIG d   1       4.200  85.365 115.399  0.00  0.00    -0.090 HD
ATOM     20  H   LIG d   1       3.670  83.884 115.808  0.00  0.00    -0.090 HD
ATOM     21  H   LIG d   1       3.000  85.211 116.498  0.00  0.00    -0.090 HD
ENDBRANCH   5  18
BRANCH   3  22
ATOM     22  C   LIG d   1       2.020  87.106 111.671  0.00  0.00     0.382 C 
ATOM     23  O   LIG d   1       2.101  87.101 110.419  0.00  0.00    -0.241 OA
ATOM     24  O   LIG d   1       1.916  88.190 112.275  0.00  0.00    -0.241 OA
ENDBRANCH   3  22
TORSDOF 7
ENDMDL
MODEL 7
REMARK VINA RESULT:      -5.3      3.028      6.032
REMARK  7 active torsions:
REMARK  status: ('A' for Active; 'I' for Inactive)
REMARK    1  A    between atoms: C_2  and  C_3 
REMARK    2  A    between atoms: C_3  and  O_6 
REMARK    3  A    between atoms: C_3  and  C_4 
REMARK    4  A    between atoms: C_7  and  O_6 
REMARK    5  A    between atoms: C_9  and  C_10 
REMARK    6  A    between atoms: N_15  and  C_14 
REMARK    7  A    between atoms: N_20  and  C_19 
REMARK       I    between atoms: C_22  and  N_20 
ROOT
ATOM      1  C   LIG d   1       2.622  84.785 111.940  0.00  0.00     0.161 C 
ATOM      2  C   LIG d   1       2.072  83.493 111.884  0.00  0.00     0.016 C 
ATOM      3  C   LIG d   1       1.837  82.697 113.029  0.00  0.00     0.038 C 
ATOM      4  C   LIG d   1       1.996  83.202 114.328  0.00  0.00     0.028 C 
ATOM      5  C   LIG d   1       3.026  84.323 114.420  0.00  0.00    -0.047 C 
ATOM      6  C   LIG d   1       2.698  85.394 113.355  0.00  0.00     0.091 C 
ENDROOT
BRANCH   1   7
ATOM      7  O   LIG d   1       1.898  85.662 111.055  0.00  0.00    -0.368 OA
BRANCH   7   8
ATOM      8  C   LIG d   1       0.790  85.068 110.334  0.00  0.00     0.119 C 
BRANCH   8   9
ATOM      9  C   LIG d   1       1.145  85.098 108.834  0.00  0.00     0.028 C 
ATOM     10  C   LIG d   1       1.741  83.767 108.346  0.00  0.00     0.006 C 
ENDBRANCH   8   9
BRANCH   8  11
ATOM     11  C   LIG d   1      -0.479  85.915 110.467  0.00  0.00     0.028 C 
ATOM     12  C   LIG d   1      -0.694  86.446 111.893  0.00  0.00     0.006 C 
ENDBRANCH   8  11
ENDBRANCH   7   8
ENDBRANCH   1   7
BRANCH   6  13
ATOM     13  N   LIG d   1       3.706  86.486 113.321  0.00  0.00    -0.311 N 
ATOM     14  C   LIG d   1       3.400  87.771 113.489  0.00  0.00     0.210 C 
ATOM     15  C   LIG d   1       4.587  88.736 113.396  0.00  0.00     0.109 C 
ATOM     16  O   LIG d   1       2.264  88.201 113.737  0.00  0.00    -0.276 OA
ATOM     17  H   LIG d   1       4.658  86.223 113.156  0.00  0.00     0.149 HD
ENDBRANCH   6  13
BRANCH   5  18
ATOM     18  N   LIG d   1       2.990  84.848 115.798  0.00  0.00     0.381 N 
ATOM     19  H   LIG d   1       3.248  84.127 116.442  0.00  0.00    -0.090 HD
ATOM     20  H   LIG d   1       2.053  85.140 116.011  0.00  0.00    -0.090 HD
ATOM     21  H   LIG d   1       3.614  85.620 115.885  0.00  0.00    -0.090 HD
ENDBRANCH   5  18
BRANCH   3  22
ATOM     22  C   LIG d   1       1.475  81.367 112.879  0.00  0.00     0.382 C 
ATOM     23  O   LIG d   1       0.942  80.751 113.833  0.00  0.00    -0.241 OA
ATOM     24  O   LIG d   1       1.715  80.763 111.816  0.00  0.00    -0.241 OA
ENDBRANCH   3  22
TORSDOF 7
ENDMDL
MODEL 8
REMARK VINA RESULT:      -5.3      2.614      3.872
REMARK  7 active torsions:
REMARK  status: ('A' for Active; 'I' for Inactive)
REMARK    1  A    between atoms: C_2  and  C_3 
REMARK    2  A    between atoms: C_3  and  O_6 
REMARK    3  A    between atoms: C_3  and  C_4 
REMARK    4  A    between atoms: C_7  and  O_6 
REMARK    5  A    between atoms: C_9  and  C_10 
REMARK    6  A    between atoms: N_15  and  C_14 
REMARK    7  A    between atoms: N_20  and  C_19 
REMARK       I    between atoms: C_22  and  N_20 
ROOT
ATOM      1  C   LIG d   1       1.183  82.337 111.793  0.00  0.00     0.161 C 
ATOM      2  C   LIG d   1       0.879  83.175 110.707  0.00  0.00     0.016 C 
ATOM      3  C   LIG d   1       0.848  84.585 110.798  0.00  0.00     0.038 C 
ATOM      4  C   LIG d   1       1.270  85.264 111.951  0.00  0.00     0.028 C 
ATOM      5  C   LIG d   1       1.102  84.449 113.229  0.00  0.00    -0.047 C 
ATOM      6  C   LIG d   1       1.755  83.062 113.029  0.00  0.00     0.091 C 
ENDROOT
BRANCH   1   7
ATOM      7  O   LIG d   1       2.079  81.291 111.367  0.00  0.00    -0.368 OA
BRANCH   7   8
ATOM      8  C   LIG d   1       2.742  81.499 110.095  0.00  0.00     0.119 C 
BRANCH   8   9
ATOM      9  C   LIG d   1       2.870  80.124 109.410  0.00  0.00     0.028 C 
ATOM     10  C   LIG d   1       1.604  79.267 109.574  0.00  0.00     0.006 C 
ENDBRANCH   8   9
BRANCH   8  11
ATOM     11  C   LIG d   1       4.179  81.990 110.289  0.00  0.00     0.028 C 
ATOM     12  C   LIG d   1       4.913  82.227 108.960  0.00  0.00     0.006 C 
ENDBRANCH   8  11
ENDBRANCH   7   8
ENDBRANCH   1   7
BRANCH   6  13
ATOM     13  N   LIG d   1       1.562  82.170 114.202  0.00  0.00    -0.311 N 
ATOM     14  C   LIG d   1       2.439  82.071 115.200  0.00  0.00     0.210 C 
ATOM     15  C   LIG d   1       2.056  81.078 116.302  0.00  0.00     0.109 C 
ATOM     16  O   LIG d   1       3.483  82.734 115.292  0.00  0.00    -0.276 OA
ATOM     17  H   LIG d   1       0.727  81.619 114.224  0.00  0.00     0.149 HD
ENDBRANCH   6  13
BRANCH   5  18
ATOM     18  N   LIG d   1       1.707  85.219 114.332  0.00  0.00     0.381 N 
ATOM     19  H   LIG d   1       2.704  85.147 114.288  0.00  0.00    -0.090 HD
ATOM     20  H   LIG d   1       1.401  84.830 115.206  0.00  0.00    -0.090 HD
ATOM     21  H   LIG d   1       1.432  86.175 114.271  0.00  0.00    -0.090 HD
ENDBRANCH   5  18
BRANCH   3  22
ATOM     22  C   LIG d   1       0.352  85.331 109.739  0.00  0.00     0.382 C 
ATOM     23  O   LIG d   1       0.991  85.390 108.661  0.00  0.00    -0.241 OA
ATOM     24  O   LIG d   1      -0.702  85.982 109.864  0.00  0.00    -0.241 OA
ENDBRANCH   3  22
TORSDOF 7
ENDMDL
MODEL 9
REMARK VINA RESULT:      -5.3      2.647      4.712
REMARK  7 active torsions:
REMARK  status: ('A' for Active; 'I' for Inactive)
REMARK    1  A    between atoms: C_2  and  C_3 
REMARK    2  A    between atoms: C_3  and  O_6 
REMARK    3  A    between atoms: C_3  and  C_4 
REMARK    4  A    between atoms: C_7  and  O_6 
REMARK    5  A    between atoms: C_9  and  C_10 
REMARK    6  A    between atoms: N_15  and  C_14 
REMARK    7  A    between atoms: N_20  and  C_19 
REMARK       I    between atoms: C_22  and  N_20 
ROOT
ATOM      1  C   LIG d   1       2.177  83.910 112.500  0.00  0.00     0.161 C 
ATOM      2  C   LIG d   1       1.256  82.893 112.202  0.00  0.00     0.016 C 
ATOM      3  C   LIG d   1      -0.055  83.143 111.734  0.00  0.00     0.038 C 
ATOM      4  C   LIG d   1      -0.485  84.432 111.388  0.00  0.00     0.028 C 
ATOM      5  C   LIG d   1       0.239  85.537 112.149  0.00  0.00    -0.047 C 
ATOM      6  C   LIG d   1       1.763  85.318 112.023  0.00  0.00     0.091 C 
ENDROOT
BRANCH   1   7
ATOM      7  O   LIG d   1       3.474  83.565 111.975  0.00  0.00    -0.368 OA
BRANCH   7   8
ATOM      8  C   LIG d   1       3.482  82.864 110.707  0.00  0.00     0.119 C 
BRANCH   8   9
ATOM      9  C   LIG d   1       3.939  81.418 110.979  0.00  0.00     0.028 C 
ATOM     10  C   LIG d   1       2.937  80.377 110.452  0.00  0.00     0.006 C 
ENDBRANCH   8   9
BRANCH   8  11
ATOM     11  C   LIG d   1       4.531  83.447 109.754  0.00  0.00     0.028 C 
ATOM     12  C   LIG d   1       4.897  82.488 108.611  0.00  0.00     0.006 C 
ENDBRANCH   8  11
ENDBRANCH   7   8
ENDBRANCH   1   7
BRANCH   6  13
ATOM     13  N   LIG d   1       2.546  86.308 112.809  0.00  0.00    -0.311 N 
ATOM     14  C   LIG d   1       3.576  86.989 112.311  0.00  0.00     0.210 C 
ATOM     15  C   LIG d   1       4.256  87.944 113.298  0.00  0.00     0.109 C 
ATOM     16  O   LIG d   1       3.972  86.917 111.138  0.00  0.00    -0.276 OA
ATOM     17  H   LIG d   1       2.273  86.451 113.761  0.00  0.00     0.149 HD
ENDBRANCH   6  13
BRANCH   5  18
ATOM     18  N   LIG d   1      -0.208  86.828 111.593  0.00  0.00     0.381 N 
ATOM     19  H   LIG d   1       0.461  87.540 111.808  0.00  0.00    -0.090 HD
ATOM     20  H   LIG d   1      -1.084  87.080 112.017  0.00  0.00    -0.090 HD
ATOM     21  H   LIG d   1      -0.319  86.754 110.605  0.00  0.00    -0.090 HD
ENDBRANCH   5  18
BRANCH   3  22
ATOM     22  C   LIG d   1      -0.964  82.099 111.648  0.00  0.00     0.382 C 
ATOM     23  O   LIG d   1      -0.648  81.040 111.054  0.00  0.00    -0.241 OA
ATOM     24  O   LIG d   1      -2.111  82.220 112.117  0.00  0.00    -0.241 OA
ENDBRANCH   3  22
TORSDOF 7
ENDMDL
