MODEL 1
REMARK VINA RESULT:      -6.9      0.000      0.000
REMARK  7 active torsions:
REMARK  status: ('A' for Active; 'I' for Inactive)
REMARK    1  A    between atoms: C_2  and  C_3 
REMARK    2  A    between atoms: C_3  and  O_6 
REMARK    3  A    between atoms: C_3  and  C_4 
REMARK    4  A    between atoms: C_7  and  O_6 
REMARK    5  A    between atoms: C_9  and  C_10 
REMARK    6  A    between atoms: N_15  and  C_14 
REMARK    7  A    between atoms: N_20  and  C_19 
REMARK       I    between atoms: C_22  and  N_20 
ROOT
ATOM      1  C   LIG d   1       1.261  83.601 109.138  0.00  0.00     0.161 C 
ATOM      2  C   LIG d   1       1.481  84.940 109.502  0.00  0.00     0.016 C 
ATOM      3  C   LIG d   1       0.940  85.528 110.668  0.00  0.00     0.038 C 
ATOM      4  C   LIG d   1       0.262  84.770 111.634  0.00  0.00     0.028 C 
ATOM      5  C   LIG d   1      -0.416  83.529 111.065  0.00  0.00    -0.047 C 
ATOM      6  C   LIG d   1       0.616  82.730 110.236  0.00  0.00     0.091 C 
ENDROOT
BRANCH   1   7
ATOM      7  O   LIG d   1       2.495  83.007 108.688  0.00  0.00    -0.368 OA
BRANCH   7   8
ATOM      8  C   LIG d   1       3.195  82.184 109.653  0.00  0.00     0.119 C 
BRANCH   8   9
ATOM      9  C   LIG d   1       4.478  82.936 110.057  0.00  0.00     0.028 C 
ATOM     10  C   LIG d   1       4.383  83.543 111.467  0.00  0.00     0.006 C 
ENDBRANCH   8   9
BRANCH   8  11
ATOM     11  C   LIG d   1       3.675  80.873 109.023  0.00  0.00     0.028 C 
ATOM     12  C   LIG d   1       4.826  80.222 109.806  0.00  0.00     0.006 C 
ENDBRANCH   8  11
ENDBRANCH   7   8
ENDBRANCH   1   7
BRANCH   6  13
ATOM     13  N   LIG d   1       0.014  81.543 109.573  0.00  0.00    -0.311 N 
ATOM     14  C   LIG d   1       0.037  80.320 110.098  0.00  0.00     0.210 C 
ATOM     15  C   LIG d   1      -0.624  79.235 109.241  0.00  0.00     0.109 C 
ATOM     16  O   LIG d   1       0.514  80.035 111.207  0.00  0.00    -0.276 OA
ATOM     17  H   LIG d   1      -0.422  81.690 108.684  0.00  0.00     0.149 HD
ENDBRANCH   6  13
BRANCH   5  18
ATOM     18  N   LIG d   1      -0.966  82.762 112.198  0.00  0.00     0.381 N 
ATOM     19  H   LIG d   1      -0.762  81.789 112.080  0.00  0.00    -0.090 HD
ATOM     20  H   LIG d   1      -1.965  82.875 112.213  0.00  0.00    -0.090 HD
ATOM     21  H   LIG d   1      -0.575  83.089 113.054  0.00  0.00    -0.090 HD
ENDBRANCH   5  18
BRANCH   3  22
ATOM     22  C   LIG d   1       1.042  86.898 110.858  0.00  0.00     0.382 C 
ATOM     23  O   LIG d   1       2.165  87.455 110.814  0.00  0.00    -0.241 OA
ATOM     24  O   LIG d   1       0.030  87.577 111.115  0.00  0.00    -0.241 OA
ENDBRANCH   3  22
TORSDOF 7
ENDMDL
MODEL 2
REMARK VINA RESULT:      -6.4      2.352      4.500
REMARK  7 active torsions:
REMARK  status: ('A' for Active; 'I' for Inactive)
REMARK    1  A    between atoms: C_2  and  C_3 
REMARK    2  A    between atoms: C_3  and  O_6 
REMARK    3  A    between atoms: C_3  and  C_4 
REMARK    4  A    between atoms: C_7  and  O_6 
REMARK    5  A    between atoms: C_9  and  C_10 
REMARK    6  A    between atoms: N_15  and  C_14 
REMARK    7  A    between atoms: N_20  and  C_19 
REMARK       I    between atoms: C_22  and  N_20 
ROOT
ATOM      1  C   LIG d   1       1.273  82.442 111.812  0.00  0.00     0.161 C 
ATOM      2  C   LIG d   1       2.321  82.941 111.020  0.00  0.00     0.016 C 
ATOM      3  C   LIG d   1       2.466  82.646 109.645  0.00  0.00     0.038 C 
ATOM      4  C   LIG d   1       1.481  81.950 108.928  0.00  0.00     0.028 C 
ATOM      5  C   LIG d   1       0.660  80.999 109.794  0.00  0.00    -0.047 C 
ATOM      6  C   LIG d   1       0.128  81.772 111.022  0.00  0.00     0.091 C 
ENDROOT
BRANCH   1   7
ATOM      7  O   LIG d   1       0.754  83.491 112.653  0.00  0.00    -0.368 OA
BRANCH   7   8
ATOM      8  C   LIG d   1       0.839  84.836 112.120  0.00  0.00     0.119 C 
BRANCH   8   9
ATOM      9  C   LIG d   1       1.304  85.758 113.264  0.00  0.00     0.028 C 
ATOM     10  C   LIG d   1       2.580  86.539 112.906  0.00  0.00     0.006 C 
ENDBRANCH   8   9
BRANCH   8  11
ATOM     11  C   LIG d   1      -0.540  85.362 111.710  0.00  0.00     0.028 C 
ATOM     12  C   LIG d   1      -0.705  85.475 110.187  0.00  0.00     0.006 C 
ENDBRANCH   8  11
ENDBRANCH   7   8
ENDBRANCH   1   7
BRANCH   6  13
ATOM     13  N   LIG d   1      -0.615  80.896 111.965  0.00  0.00    -0.311 N 
ATOM     14  C   LIG d   1      -1.749  81.259 112.563  0.00  0.00     0.210 C 
ATOM     15  C   LIG d   1      -2.342  80.213 113.512  0.00  0.00     0.109 C 
ATOM     16  O   LIG d   1      -2.337  82.334 112.372  0.00  0.00    -0.276 OA
ATOM     17  H   LIG d   1      -0.226  79.993 112.152  0.00  0.00     0.149 HD
ENDBRANCH   6  13
BRANCH   5  18
ATOM     18  N   LIG d   1      -0.415  80.445 108.950  0.00  0.00     0.381 N 
ATOM     19  H   LIG d   1      -0.514  80.997 108.121  0.00  0.00    -0.090 HD
ATOM     20  H   LIG d   1      -1.281  80.483 109.459  0.00  0.00    -0.090 HD
ATOM     21  H   LIG d   1      -0.206  79.502 108.706  0.00  0.00    -0.090 HD
ENDBRANCH   5  18
BRANCH   3  22
ATOM     22  C   LIG d   1       3.626  83.015 108.982  0.00  0.00     0.382 C 
ATOM     23  O   LIG d   1       4.096  82.277 108.083  0.00  0.00    -0.241 OA
ATOM     24  O   LIG d   1       4.233  84.055 109.301  0.00  0.00    -0.241 OA
ENDBRANCH   3  22
TORSDOF 7
ENDMDL
MODEL 3
REMARK VINA RESULT:      -6.3      2.394      5.015
REMARK  7 active torsions:
REMARK  status: ('A' for Active; 'I' for Inactive)
REMARK    1  A    between atoms: C_2  and  C_3 
REMARK    2  A    between atoms: C_3  and  O_6 
REMARK    3  A    between atoms: C_3  and  C_4 
REMARK    4  A    between atoms: C_7  and  O_6 
REMARK    5  A    between atoms: C_9  and  C_10 
REMARK    6  A    between atoms: N_15  and  C_14 
REMARK    7  A    between atoms: N_20  and  C_19 
REMARK       I    between atoms: C_22  and  N_20 
ROOT
ATOM      1  C   LIG d   1       0.212  82.730 111.159  0.00  0.00     0.161 C 
ATOM      2  C   LIG d   1      -0.915  82.450 111.948  0.00  0.00     0.016 C 
ATOM      3  C   LIG d   1      -1.378  81.140 112.207  0.00  0.00     0.038 C 
ATOM      4  C   LIG d   1      -0.652  80.006 111.815  0.00  0.00     0.028 C 
ATOM      5  C   LIG d   1       0.219  80.240 110.585  0.00  0.00    -0.047 C 
ATOM      6  C   LIG d   1       1.081  81.503 110.814  0.00  0.00     0.091 C 
ENDROOT
BRANCH   1   7
ATOM      7  O   LIG d   1       1.012  83.748 111.792  0.00  0.00    -0.368 OA
BRANCH   7   8
ATOM      8  C   LIG d   1       1.018  85.046 111.148  0.00  0.00     0.119 C 
BRANCH   8   9
ATOM      9  C   LIG d   1       0.100  84.955 109.913  0.00  0.00     0.028 C 
ATOM     10  C   LIG d   1      -0.942  86.085 109.872  0.00  0.00     0.006 C 
ENDBRANCH   8   9
BRANCH   8  11
ATOM     11  C   LIG d   1       2.406  85.388 110.597  0.00  0.00     0.028 C 
ATOM     12  C   LIG d   1       3.540  85.008 111.562  0.00  0.00     0.006 C 
ENDBRANCH   8  11
ENDBRANCH   7   8
ENDBRANCH   1   7
BRANCH   6  13
ATOM     13  N   LIG d   1       1.902  81.852 109.626  0.00  0.00    -0.311 N 
ATOM     14  C   LIG d   1       3.234  81.878 109.636  0.00  0.00     0.210 C 
ATOM     15  C   LIG d   1       3.883  82.283 108.309  0.00  0.00     0.109 C 
ATOM     16  O   LIG d   1       3.939  81.574 110.610  0.00  0.00    -0.276 OA
ATOM     17  H   LIG d   1       1.411  82.082 108.784  0.00  0.00     0.149 HD
ENDBRANCH   6  13
BRANCH   5  18
ATOM     18  N   LIG d   1       1.023  79.022 110.370  0.00  0.00     0.381 N 
ATOM     19  H   LIG d   1       1.995  79.235 110.473  0.00  0.00    -0.090 HD
ATOM     20  H   LIG d   1       0.870  78.693 109.433  0.00  0.00    -0.090 HD
ATOM     21  H   LIG d   1       0.759  78.319 111.024  0.00  0.00    -0.090 HD
ENDBRANCH   5  18
BRANCH   3  22
ATOM     22  C   LIG d   1      -2.603  80.954 112.831  0.00  0.00     0.382 C 
ATOM     23  O   LIG d   1      -3.478  81.851 112.774  0.00  0.00    -0.241 OA
ATOM     24  O   LIG d   1      -2.826  79.920 113.489  0.00  0.00    -0.241 OA
ENDBRANCH   3  22
TORSDOF 7
ENDMDL
MODEL 4
REMARK VINA RESULT:      -6.1      2.280      4.965
REMARK  7 active torsions:
REMARK  status: ('A' for Active; 'I' for Inactive)
REMARK    1  A    between atoms: C_2  and  C_3 
REMARK    2  A    between atoms: C_3  and  O_6 
REMARK    3  A    between atoms: C_3  and  C_4 
REMARK    4  A    between atoms: C_7  and  O_6 
REMARK    5  A    between atoms: C_9  and  C_10 
REMARK    6  A    between atoms: N_15  and  C_14 
REMARK    7  A    between atoms: N_20  and  C_19 
REMARK       I    between atoms: C_22  and  N_20 
ROOT
ATOM      1  C   LIG d   1       2.127  83.159 111.662  0.00  0.00     0.161 C 
ATOM      2  C   LIG d   1       1.045  82.262 111.659  0.00  0.00     0.016 C 
ATOM      3  C   LIG d   1      -0.302  82.668 111.798  0.00  0.00     0.038 C 
ATOM      4  C   LIG d   1      -0.673  84.021 111.796  0.00  0.00     0.028 C 
ATOM      5  C   LIG d   1       0.423  84.950 112.309  0.00  0.00    -0.047 C 
ATOM      6  C   LIG d   1       1.734  84.647 111.548  0.00  0.00     0.091 C 
ENDROOT
BRANCH   1   7
ATOM      7  O   LIG d   1       3.057  82.805 110.619  0.00  0.00    -0.368 OA
BRANCH   7   8
ATOM      8  C   LIG d   1       2.528  81.993 109.542  0.00  0.00     0.119 C 
BRANCH   8   9
ATOM      9  C   LIG d   1       3.429  80.750 109.414  0.00  0.00     0.028 C 
ATOM     10  C   LIG d   1       2.634  79.437 109.511  0.00  0.00     0.006 C 
ENDBRANCH   8   9
BRANCH   8  11
ATOM     11  C   LIG d   1       2.639  82.714 108.195  0.00  0.00     0.028 C 
ATOM     12  C   LIG d   1       1.491  83.708 107.955  0.00  0.00     0.006 C 
ENDBRANCH   8  11
ENDBRANCH   7   8
ENDBRANCH   1   7
BRANCH   6  13
ATOM     13  N   LIG d   1       2.878  85.453 112.046  0.00  0.00    -0.311 N 
ATOM     14  C   LIG d   1       3.139  86.691 111.630  0.00  0.00     0.210 C 
ATOM     15  C   LIG d   1       4.379  87.336 112.257  0.00  0.00     0.109 C 
ATOM     16  O   LIG d   1       2.443  87.328 110.825  0.00  0.00    -0.276 OA
ATOM     17  H   LIG d   1       3.477  85.025 112.725  0.00  0.00     0.149 HD
ENDBRANCH   6  13
BRANCH   5  18
ATOM     18  N   LIG d   1      -0.045  86.336 112.124  0.00  0.00     0.381 N 
ATOM     19  H   LIG d   1       0.730  86.930 111.908  0.00  0.00    -0.090 HD
ATOM     20  H   LIG d   1      -0.458  86.657 112.982  0.00  0.00    -0.090 HD
ATOM     21  H   LIG d   1      -0.717  86.374 111.389  0.00  0.00    -0.090 HD
ENDBRANCH   5  18
BRANCH   3  22
ATOM     22  C   LIG d   1      -1.292  81.715 111.979  0.00  0.00     0.382 C 
ATOM     23  O   LIG d   1      -1.092  80.528 111.625  0.00  0.00    -0.241 OA
ATOM     24  O   LIG d   1      -2.399  82.035 112.452  0.00  0.00    -0.241 OA
ENDBRANCH   3  22
TORSDOF 7
ENDMDL
MODEL 5
REMARK VINA RESULT:      -6.1      2.541      3.884
REMARK  7 active torsions:
REMARK  status: ('A' for Active; 'I' for Inactive)
REMARK    1  A    between atoms: C_2  and  C_3 
REMARK    2  A    between atoms: C_3  and  O_6 
REMARK    3  A    between atoms: C_3  and  C_4 
REMARK    4  A    between atoms: C_7  and  O_6 
REMARK    5  A    between atoms: C_9  and  C_10 
REMARK    6  A    between atoms: N_15  and  C_14 
REMARK    7  A    between atoms: N_20  and  C_19 
REMARK       I    between atoms: C_22  and  N_20 
ROOT
ATOM      1  C   LIG d   1       2.158  84.879 111.238  0.00  0.00     0.161 C 
ATOM      2  C   LIG d   1       2.832  86.111 111.272  0.00  0.00     0.016 C 
ATOM      3  C   LIG d   1       3.537  86.581 112.405  0.00  0.00     0.038 C 
ATOM      4  C   LIG d   1       3.743  85.778 113.536  0.00  0.00     0.028 C 
ATOM      5  C   LIG d   1       2.655  84.729 113.740  0.00  0.00    -0.047 C 
ATOM      6  C   LIG d   1       2.465  83.941 112.423  0.00  0.00     0.091 C 
ENDROOT
BRANCH   1   7
ATOM      7  O   LIG d   1       2.424  84.212 109.988  0.00  0.00    -0.368 OA
BRANCH   7   8
ATOM      8  C   LIG d   1       1.271  83.940 109.153  0.00  0.00     0.119 C 
BRANCH   8   9
ATOM      9  C   LIG d   1       1.735  83.016 108.011  0.00  0.00     0.028 C 
ATOM     10  C   LIG d   1       3.206  82.592 108.159  0.00  0.00     0.006 C 
ENDBRANCH   8   9
BRANCH   8  11
ATOM     11  C   LIG d   1       0.769  85.213 108.466  0.00  0.00     0.028 C 
ATOM     12  C   LIG d   1      -0.334  85.926 109.265  0.00  0.00     0.006 C 
ENDBRANCH   8  11
ENDBRANCH   7   8
ENDBRANCH   1   7
BRANCH   6  13
ATOM     13  N   LIG d   1       1.360  82.950 112.510  0.00  0.00    -0.311 N 
ATOM     14  C   LIG d   1       1.503  81.664 112.195  0.00  0.00     0.210 C 
ATOM     15  C   LIG d   1       0.233  80.819 112.337  0.00  0.00     0.109 C 
ATOM     16  O   LIG d   1       2.568  81.136 111.843  0.00  0.00    -0.276 OA
ATOM     17  H   LIG d   1       0.469  83.287 112.817  0.00  0.00     0.149 HD
ENDBRANCH   6  13
BRANCH   5  18
ATOM     18  N   LIG d   1       3.066  83.875 114.870  0.00  0.00     0.381 N 
ATOM     19  H   LIG d   1       4.036  84.018 115.068  0.00  0.00    -0.090 HD
ATOM     20  H   LIG d   1       2.934  82.912 114.615  0.00  0.00    -0.090 HD
ATOM     21  H   LIG d   1       2.520  84.090 115.676  0.00  0.00    -0.090 HD
ENDBRANCH   5  18
BRANCH   3  22
ATOM     22  C   LIG d   1       4.010  87.884 112.427  0.00  0.00     0.382 C 
ATOM     23  O   LIG d   1       3.208  88.840 112.561  0.00  0.00    -0.241 OA
ATOM     24  O   LIG d   1       5.223  88.119 112.271  0.00  0.00    -0.241 OA
ENDBRANCH   3  22
TORSDOF 7
ENDMDL
MODEL 6
REMARK VINA RESULT:      -6.0      2.783      3.639
REMARK  7 active torsions:
REMARK  status: ('A' for Active; 'I' for Inactive)
REMARK    1  A    between atoms: C_2  and  C_3 
REMARK    2  A    between atoms: C_3  and  O_6 
REMARK    3  A    between atoms: C_3  and  C_4 
REMARK    4  A    between atoms: C_7  and  O_6 
REMARK    5  A    between atoms: C_9  and  C_10 
REMARK    6  A    between atoms: N_15  and  C_14 
REMARK    7  A    between atoms: N_20  and  C_19 
REMARK       I    between atoms: C_22  and  N_20 
ROOT
ATOM      1  C   LIG d   1       3.969  85.403 111.003  0.00  0.00     0.161 C 
ATOM      2  C   LIG d   1       4.175  86.437 111.931  0.00  0.00     0.016 C 
ATOM      3  C   LIG d   1       3.199  87.412 112.238  0.00  0.00     0.038 C 
ATOM      4  C   LIG d   1       1.888  87.330 111.746  0.00  0.00     0.028 C 
ATOM      5  C   LIG d   1       1.786  86.592 110.416  0.00  0.00    -0.047 C 
ATOM      6  C   LIG d   1       2.508  85.231 110.539  0.00  0.00     0.091 C 
ENDROOT
BRANCH   1   7
ATOM      7  O   LIG d   1       4.476  84.162 111.534  0.00  0.00    -0.368 OA
BRANCH   7   8
ATOM      8  C   LIG d   1       3.510  83.315 112.204  0.00  0.00     0.119 C 
BRANCH   8   9
ATOM      9  C   LIG d   1       3.919  83.231 113.688  0.00  0.00     0.028 C 
ATOM     10  C   LIG d   1       4.042  81.780 114.182  0.00  0.00     0.006 C 
ENDBRANCH   8   9
BRANCH   8  11
ATOM     11  C   LIG d   1       3.575  81.876 111.684  0.00  0.00     0.028 C 
ATOM     12  C   LIG d   1       4.561  81.708 110.516  0.00  0.00     0.006 C 
ENDBRANCH   8  11
ENDBRANCH   7   8
ENDBRANCH   1   7
BRANCH   6  13
ATOM     13  N   LIG d   1       2.528  84.481 109.256  0.00  0.00    -0.311 N 
ATOM     14  C   LIG d   1       1.648  83.529 108.950  0.00  0.00     0.210 C 
ATOM     15  C   LIG d   1       1.860  82.868 107.584  0.00  0.00     0.109 C 
ATOM     16  O   LIG d   1       0.693  83.192 109.665  0.00  0.00    -0.276 OA
ATOM     17  H   LIG d   1       3.251  84.713 108.604  0.00  0.00     0.149 HD
ENDBRANCH   6  13
BRANCH   5  18
ATOM     18  N   LIG d   1       0.353  86.459 110.089  0.00  0.00     0.381 N 
ATOM     19  H   LIG d   1      -0.172  87.156 110.578  0.00  0.00    -0.090 HD
ATOM     20  H   LIG d   1       0.034  85.555 110.389  0.00  0.00    -0.090 HD
ATOM     21  H   LIG d   1       0.217  86.558 109.107  0.00  0.00    -0.090 HD
ENDBRANCH   5  18
BRANCH   3  22
ATOM     22  C   LIG d   1       3.543  88.508 113.016  0.00  0.00     0.382 C 
ATOM     23  O   LIG d   1       3.044  88.647 114.158  0.00  0.00    -0.241 OA
ATOM     24  O   LIG d   1       4.312  89.381 112.571  0.00  0.00    -0.241 OA
ENDBRANCH   3  22
TORSDOF 7
ENDMDL
MODEL 7
REMARK VINA RESULT:      -6.0      2.281      3.621
REMARK  7 active torsions:
REMARK  status: ('A' for Active; 'I' for Inactive)
REMARK    1  A    between atoms: C_2  and  C_3 
REMARK    2  A    between atoms: C_3  and  O_6 
REMARK    3  A    between atoms: C_3  and  C_4 
REMARK    4  A    between atoms: C_7  and  O_6 
REMARK    5  A    between atoms: C_9  and  C_10 
REMARK    6  A    between atoms: N_15  and  C_14 
REMARK    7  A    between atoms: N_20  and  C_19 
REMARK       I    between atoms: C_22  and  N_20 
ROOT
ATOM      1  C   LIG d   1       2.146  84.925 110.471  0.00  0.00     0.161 C 
ATOM      2  C   LIG d   1       1.188  85.823 110.969  0.00  0.00     0.016 C 
ATOM      3  C   LIG d   1      -0.151  85.461 111.243  0.00  0.00     0.038 C 
ATOM      4  C   LIG d   1      -0.586  84.129 111.179  0.00  0.00     0.028 C 
ATOM      5  C   LIG d   1       0.212  83.277 110.198  0.00  0.00    -0.047 C 
ATOM      6  C   LIG d   1       1.719  83.442 110.501  0.00  0.00     0.091 C 
ENDROOT
BRANCH   1   7
ATOM      7  O   LIG d   1       3.392  85.101 111.173  0.00  0.00    -0.368 OA
BRANCH   7   8
ATOM      8  C   LIG d   1       3.416  86.144 112.179  0.00  0.00     0.119 C 
BRANCH   8   9
ATOM      9  C   LIG d   1       4.513  87.149 111.778  0.00  0.00     0.028 C 
ATOM     10  C   LIG d   1       4.865  88.119 112.919  0.00  0.00     0.006 C 
ENDBRANCH   8   9
BRANCH   8  11
ATOM     11  C   LIG d   1       3.847  85.594 113.542  0.00  0.00     0.028 C 
ATOM     12  C   LIG d   1       2.961  84.435 114.025  0.00  0.00     0.006 C 
ENDBRANCH   8  11
ENDBRANCH   7   8
ENDBRANCH   1   7
BRANCH   6  13
ATOM     13  N   LIG d   1       2.576  82.708 109.534  0.00  0.00    -0.311 N 
ATOM     14  C   LIG d   1       3.406  81.728 109.886  0.00  0.00     0.210 C 
ATOM     15  C   LIG d   1       4.212  81.117 108.736  0.00  0.00     0.109 C 
ATOM     16  O   LIG d   1       3.527  81.284 111.038  0.00  0.00    -0.276 OA
ATOM     17  H   LIG d   1       2.517  82.983 108.573  0.00  0.00     0.149 HD
ENDBRANCH   6  13
BRANCH   5  18
ATOM     18  N   LIG d   1      -0.255  81.884 110.334  0.00  0.00     0.381 N 
ATOM     19  H   LIG d   1       0.331  81.276 109.797  0.00  0.00    -0.090 HD
ATOM     20  H   LIG d   1      -1.191  81.819 109.973  0.00  0.00    -0.090 HD
ATOM     21  H   LIG d   1      -0.241  81.611 111.292  0.00  0.00    -0.090 HD
ENDBRANCH   5  18
BRANCH   3  22
ATOM     22  C   LIG d   1      -1.081  86.443 111.546  0.00  0.00     0.382 C 
ATOM     23  O   LIG d   1      -1.496  86.572 112.723  0.00  0.00    -0.241 OA
ATOM     24  O   LIG d   1      -1.544  87.174 110.649  0.00  0.00    -0.241 OA
ENDBRANCH   3  22
TORSDOF 7
ENDMDL
MODEL 8
REMARK VINA RESULT:      -5.9      2.207      5.424
REMARK  7 active torsions:
REMARK  status: ('A' for Active; 'I' for Inactive)
REMARK    1  A    between atoms: C_2  and  C_3 
REMARK    2  A    between atoms: C_3  and  O_6 
REMARK    3  A    between atoms: C_3  and  C_4 
REMARK    4  A    between atoms: C_7  and  O_6 
REMARK    5  A    between atoms: C_9  and  C_10 
REMARK    6  A    between atoms: N_15  and  C_14 
REMARK    7  A    between atoms: N_20  and  C_19 
REMARK       I    between atoms: C_22  and  N_20 
ROOT
ATOM      1  C   LIG d   1       1.094  82.288 111.365  0.00  0.00     0.161 C 
ATOM      2  C   LIG d   1       1.728  81.065 111.087  0.00  0.00     0.016 C 
ATOM      3  C   LIG d   1       2.219  80.716 109.808  0.00  0.00     0.038 C 
ATOM      4  C   LIG d   1       2.245  81.634 108.748  0.00  0.00     0.028 C 
ATOM      5  C   LIG d   1       1.160  82.702 108.844  0.00  0.00    -0.047 C 
ATOM      6  C   LIG d   1       1.213  83.346 110.249  0.00  0.00     0.091 C 
ENDROOT
BRANCH   1   7
ATOM      7  O   LIG d   1       1.583  82.818 112.613  0.00  0.00    -0.368 OA
BRANCH   7   8
ATOM      8  C   LIG d   1       2.596  83.850 112.514  0.00  0.00     0.119 C 
BRANCH   8   9
ATOM      9  C   LIG d   1       3.949  83.206 112.873  0.00  0.00     0.028 C 
ATOM     10  C   LIG d   1       4.834  82.972 111.637  0.00  0.00     0.006 C 
ENDBRANCH   8   9
BRANCH   8  11
ATOM     11  C   LIG d   1       2.378  84.947 113.560  0.00  0.00     0.028 C 
ATOM     12  C   LIG d   1       2.748  86.346 113.042  0.00  0.00     0.006 C 
ENDBRANCH   8  11
ENDBRANCH   7   8
ENDBRANCH   1   7
BRANCH   6  13
ATOM     13  N   LIG d   1       0.130  84.343 110.456  0.00  0.00    -0.311 N 
ATOM     14  C   LIG d   1       0.285  85.648 110.243  0.00  0.00     0.210 C 
ATOM     15  C   LIG d   1      -0.952  86.502 110.538  0.00  0.00     0.109 C 
ATOM     16  O   LIG d   1       1.318  86.176 109.806  0.00  0.00    -0.276 OA
ATOM     17  H   LIG d   1      -0.752  83.997 110.780  0.00  0.00     0.149 HD
ENDBRANCH   6  13
BRANCH   5  18
ATOM     18  N   LIG d   1       1.389  83.670 107.755  0.00  0.00     0.381 N 
ATOM     19  H   LIG d   1       1.196  84.596 108.079  0.00  0.00    -0.090 HD
ATOM     20  H   LIG d   1       0.760  83.463 106.999  0.00  0.00    -0.090 HD
ATOM     21  H   LIG d   1       2.331  83.610 107.438  0.00  0.00    -0.090 HD
ENDBRANCH   5  18
BRANCH   3  22
ATOM     22  C   LIG d   1       2.655  79.422 109.569  0.00  0.00     0.382 C 
ATOM     23  O   LIG d   1       3.880  79.154 109.614  0.00  0.00    -0.241 OA
ATOM     24  O   LIG d   1       1.843  78.527 109.265  0.00  0.00    -0.241 OA
ENDBRANCH   3  22
TORSDOF 7
ENDMDL
MODEL 9
REMARK VINA RESULT:      -5.9      2.093      4.640
REMARK  7 active torsions:
REMARK  status: ('A' for Active; 'I' for Inactive)
REMARK    1  A    between atoms: C_2  and  C_3 
REMARK    2  A    between atoms: C_3  and  O_6 
REMARK    3  A    between atoms: C_3  and  C_4 
REMARK    4  A    between atoms: C_7  and  O_6 
REMARK    5  A    between atoms: C_9  and  C_10 
REMARK    6  A    between atoms: N_15  and  C_14 
REMARK    7  A    between atoms: N_20  and  C_19 
REMARK       I    between atoms: C_22  and  N_20 
ROOT
ATOM      1  C   LIG d   1       1.409  82.304 111.017  0.00  0.00     0.161 C 
ATOM      2  C   LIG d   1       2.781  82.169 110.743  0.00  0.00     0.016 C 
ATOM      3  C   LIG d   1       3.333  81.059 110.064  0.00  0.00     0.038 C 
ATOM      4  C   LIG d   1       2.526  80.074 109.475  0.00  0.00     0.028 C 
ATOM      5  C   LIG d   1       1.175  79.908 110.161  0.00  0.00    -0.047 C 
ATOM      6  C   LIG d   1       0.501  81.294 110.285  0.00  0.00     0.091 C 
ENDROOT
BRANCH   1   7
ATOM      7  O   LIG d   1       0.986  83.653 110.737  0.00  0.00    -0.368 OA
BRANCH   7   8
ATOM      8  C   LIG d   1       1.801  84.395 109.797  0.00  0.00     0.119 C 
BRANCH   8   9
ATOM      9  C   LIG d   1       1.898  85.844 110.312  0.00  0.00     0.028 C 
ATOM     10  C   LIG d   1       0.519  86.507 110.462  0.00  0.00     0.006 C 
ENDBRANCH   8   9
BRANCH   8  11
ATOM     11  C   LIG d   1       1.122  84.496 108.428  0.00  0.00     0.028 C 
ATOM     12  C   LIG d   1       1.624  83.437 107.434  0.00  0.00     0.006 C 
ENDBRANCH   8  11
ENDBRANCH   7   8
ENDBRANCH   1   7
BRANCH   6  13
ATOM     13  N   LIG d   1      -0.789  81.233 111.020  0.00  0.00    -0.311 N 
ATOM     14  C   LIG d   1      -0.879  80.965 112.322  0.00  0.00     0.210 C 
ATOM     15  C   LIG d   1      -2.306  80.932 112.878  0.00  0.00     0.109 C 
ATOM     16  O   LIG d   1       0.089  80.784 113.075  0.00  0.00    -0.276 OA
ATOM     17  H   LIG d   1      -1.623  81.399 110.492  0.00  0.00     0.149 HD
ENDBRANCH   6  13
BRANCH   5  18
ATOM     18  N   LIG d   1       0.385  78.950 109.363  0.00  0.00     0.381 N 
ATOM     19  H   LIG d   1       0.135  79.364 108.487  0.00  0.00    -0.090 HD
ATOM     20  H   LIG d   1      -0.461  78.732 109.861  0.00  0.00    -0.090 HD
ATOM     21  H   LIG d   1       0.912  78.119 109.209  0.00  0.00    -0.090 HD
ENDBRANCH   5  18
BRANCH   3  22
ATOM     22  C   LIG d   1       4.710  80.906 110.003  0.00  0.00     0.382 C 
ATOM     23  O   LIG d   1       5.460  81.890 110.212  0.00  0.00    -0.241 OA
ATOM     24  O   LIG d   1       5.210  79.807 109.698  0.00  0.00    -0.241 OA
ENDBRANCH   3  22
TORSDOF 7
ENDMDL
