MODEL 1
REMARK VINA RESULT:      -6.7      0.000      0.000
REMARK  7 active torsions:
REMARK  status: ('A' for Active; 'I' for Inactive)
REMARK    1  A    between atoms: C_2  and  C_3 
REMARK    2  A    between atoms: C_3  and  O_6 
REMARK    3  A    between atoms: C_3  and  C_4 
REMARK    4  A    between atoms: C_7  and  O_6 
REMARK    5  A    between atoms: C_9  and  C_10 
REMARK    6  A    between atoms: N_15  and  C_14 
REMARK    7  A    between atoms: N_20  and  C_19 
REMARK       I    between atoms: C_22  and  N_20 
ROOT
ATOM      1  C   LIG d   1       1.384  82.863 111.206  0.00  0.00     0.161 C 
ATOM      2  C   LIG d   1       2.379  82.611 110.248  0.00  0.00     0.016 C 
ATOM      3  C   LIG d   1       2.421  81.438 109.459  0.00  0.00     0.038 C 
ATOM      4  C   LIG d   1       1.379  80.500 109.470  0.00  0.00     0.028 C 
ATOM      5  C   LIG d   1       0.608  80.465 110.786  0.00  0.00    -0.047 C 
ATOM      6  C   LIG d   1       0.177  81.903 111.153  0.00  0.00     0.091 C 
ENDROOT
BRANCH   1   7
ATOM      7  O   LIG d   1       0.941  84.231 111.102  0.00  0.00    -0.368 OA
BRANCH   7   8
ATOM      8  C   LIG d   1       1.501  85.001 110.010  0.00  0.00     0.119 C 
BRANCH   8   9
ATOM      9  C   LIG d   1       2.015  86.330 110.597  0.00  0.00     0.028 C 
ATOM     10  C   LIG d   1       3.369  86.173 111.310  0.00  0.00     0.006 C 
ENDBRANCH   8   9
BRANCH   8  11
ATOM     11  C   LIG d   1       0.424  85.396 108.996  0.00  0.00     0.028 C 
ATOM     12  C   LIG d   1      -0.899  85.806 109.661  0.00  0.00     0.006 C 
ENDBRANCH   8  11
ENDBRANCH   7   8
ENDBRANCH   1   7
BRANCH   6  13
ATOM     13  N   LIG d   1      -0.510  81.971 112.469  0.00  0.00    -0.311 N 
ATOM     14  C   LIG d   1      -1.833  81.918 112.609  0.00  0.00     0.210 C 
ATOM     15  C   LIG d   1      -2.335  82.024 114.053  0.00  0.00     0.109 C 
ATOM     16  O   LIG d   1      -2.637  81.760 111.678  0.00  0.00    -0.276 OA
ATOM     17  H   LIG d   1       0.069  82.067 113.281  0.00  0.00     0.149 HD
ENDBRANCH   6  13
BRANCH   5  18
ATOM     18  N   LIG d   1      -0.532  79.546 110.610  0.00  0.00     0.381 N 
ATOM     19  H   LIG d   1      -1.034  79.461 111.472  0.00  0.00    -0.090 HD
ATOM     20  H   LIG d   1      -0.183  78.639 110.358  0.00  0.00    -0.090 HD
ATOM     21  H   LIG d   1      -1.138  79.887 109.897  0.00  0.00    -0.090 HD
ENDBRANCH   5  18
BRANCH   3  22
ATOM     22  C   LIG d   1       3.536  81.175 108.678  0.00  0.00     0.382 C 
ATOM     23  O   LIG d   1       4.274  80.196 108.948  0.00  0.00    -0.241 OA
ATOM     24  O   LIG d   1       3.839  81.929 107.734  0.00  0.00    -0.241 OA
ENDBRANCH   3  22
TORSDOF 7
ENDMDL
MODEL 2
REMARK VINA RESULT:      -6.2      1.559      4.908
REMARK  7 active torsions:
REMARK  status: ('A' for Active; 'I' for Inactive)
REMARK    1  A    between atoms: C_2  and  C_3 
REMARK    2  A    between atoms: C_3  and  O_6 
REMARK    3  A    between atoms: C_3  and  C_4 
REMARK    4  A    between atoms: C_7  and  O_6 
REMARK    5  A    between atoms: C_9  and  C_10 
REMARK    6  A    between atoms: N_15  and  C_14 
REMARK    7  A    between atoms: N_20  and  C_19 
REMARK       I    between atoms: C_22  and  N_20 
ROOT
ATOM      1  C   LIG d   1       0.049  82.820 111.260  0.00  0.00     0.161 C 
ATOM      2  C   LIG d   1      -1.097  82.524 112.016  0.00  0.00     0.016 C 
ATOM      3  C   LIG d   1      -1.650  81.226 112.114  0.00  0.00     0.038 C 
ATOM      4  C   LIG d   1      -1.003  80.102 111.581  0.00  0.00     0.028 C 
ATOM      5  C   LIG d   1      -0.114  80.425 110.384  0.00  0.00    -0.047 C 
ATOM      6  C   LIG d   1       0.832  81.587 110.762  0.00  0.00     0.091 C 
ENDROOT
BRANCH   1   7
ATOM      7  O   LIG d   1       0.916  83.695 112.009  0.00  0.00    -0.368 OA
BRANCH   7   8
ATOM      8  C   LIG d   1       1.100  85.026 111.467  0.00  0.00     0.119 C 
BRANCH   8   9
ATOM      9  C   LIG d   1       0.037  85.231 110.371  0.00  0.00     0.028 C 
ATOM     10  C   LIG d   1      -0.904  86.408 110.680  0.00  0.00     0.006 C 
ENDBRANCH   8   9
BRANCH   8  11
ATOM     11  C   LIG d   1       2.449  85.155 110.752  0.00  0.00     0.028 C 
ATOM     12  C   LIG d   1       3.342  86.249 111.358  0.00  0.00     0.006 C 
ENDBRANCH   8  11
ENDBRANCH   7   8
ENDBRANCH   1   7
BRANCH   6  13
ATOM     13  N   LIG d   1       1.679  82.023 109.621  0.00  0.00    -0.311 N 
ATOM     14  C   LIG d   1       2.921  81.586 109.421  0.00  0.00     0.210 C 
ATOM     15  C   LIG d   1       3.625  82.177 108.195  0.00  0.00     0.109 C 
ATOM     16  O   LIG d   1       3.495  80.741 110.123  0.00  0.00    -0.276 OA
ATOM     17  H   LIG d   1       1.280  82.684 108.983  0.00  0.00     0.149 HD
ENDBRANCH   6  13
BRANCH   5  18
ATOM     18  N   LIG d   1       0.604  79.190 110.016  0.00  0.00     0.381 N 
ATOM     19  H   LIG d   1       1.104  78.841 110.809  0.00  0.00    -0.090 HD
ATOM     20  H   LIG d   1       1.268  79.404 109.293  0.00  0.00    -0.090 HD
ATOM     21  H   LIG d   1      -0.041  78.504 109.692  0.00  0.00    -0.090 HD
ENDBRANCH   5  18
BRANCH   3  22
ATOM     22  C   LIG d   1      -2.886  81.050 112.718  0.00  0.00     0.382 C 
ATOM     23  O   LIG d   1      -3.470  79.942 112.639  0.00  0.00    -0.241 OA
ATOM     24  O   LIG d   1      -3.445  81.998 113.302  0.00  0.00    -0.241 OA
ENDBRANCH   3  22
TORSDOF 7
ENDMDL
MODEL 3
REMARK VINA RESULT:      -5.7      1.308      1.930
REMARK  7 active torsions:
REMARK  status: ('A' for Active; 'I' for Inactive)
REMARK    1  A    between atoms: C_2  and  C_3 
REMARK    2  A    between atoms: C_3  and  O_6 
REMARK    3  A    between atoms: C_3  and  C_4 
REMARK    4  A    between atoms: C_7  and  O_6 
REMARK    5  A    between atoms: C_9  and  C_10 
REMARK    6  A    between atoms: N_15  and  C_14 
REMARK    7  A    between atoms: N_20  and  C_19 
REMARK       I    between atoms: C_22  and  N_20 
ROOT
ATOM      1  C   LIG d   1       0.815  82.887 111.285  0.00  0.00     0.161 C 
ATOM      2  C   LIG d   1       1.758  82.777 110.250  0.00  0.00     0.016 C 
ATOM      3  C   LIG d   1       1.839  81.660 109.387  0.00  0.00     0.038 C 
ATOM      4  C   LIG d   1       0.878  80.638 109.405  0.00  0.00     0.028 C 
ATOM      5  C   LIG d   1       0.208  80.461 110.763  0.00  0.00    -0.047 C 
ATOM      6  C   LIG d   1      -0.311  81.833 111.249  0.00  0.00     0.091 C 
ENDROOT
BRANCH   1   7
ATOM      7  O   LIG d   1       0.258  84.216 111.299  0.00  0.00    -0.368 OA
BRANCH   7   8
ATOM      8  C   LIG d   1       0.684  85.075 112.385  0.00  0.00     0.119 C 
BRANCH   8   9
ATOM      9  C   LIG d   1       1.799  85.990 111.841  0.00  0.00     0.028 C 
ATOM     10  C   LIG d   1       1.410  86.666 110.515  0.00  0.00     0.006 C 
ENDBRANCH   8   9
BRANCH   8  11
ATOM     11  C   LIG d   1       1.336  84.268 113.511  0.00  0.00     0.028 C 
ATOM     12  C   LIG d   1       2.233  85.126 114.418  0.00  0.00     0.006 C 
ENDBRANCH   8  11
ENDBRANCH   7   8
ENDBRANCH   1   7
BRANCH   6  13
ATOM     13  N   LIG d   1      -0.906  81.765 112.609  0.00  0.00    -0.311 N 
ATOM     14  C   LIG d   1      -2.215  81.660 112.832  0.00  0.00     0.210 C 
ATOM     15  C   LIG d   1      -2.619  81.625 114.310  0.00  0.00     0.109 C 
ATOM     16  O   LIG d   1      -3.078  81.560 111.947  0.00  0.00    -0.276 OA
ATOM     17  H   LIG d   1      -0.276  81.807 113.386  0.00  0.00     0.149 HD
ENDBRANCH   6  13
BRANCH   5  18
ATOM     18  N   LIG d   1      -0.864  79.460 110.604  0.00  0.00     0.381 N 
ATOM     19  H   LIG d   1      -1.517  79.771 109.912  0.00  0.00    -0.090 HD
ATOM     20  H   LIG d   1      -1.352  79.365 111.477  0.00  0.00    -0.090 HD
ATOM     21  H   LIG d   1      -0.475  78.584 110.335  0.00  0.00    -0.090 HD
ENDBRANCH   5  18
BRANCH   3  22
ATOM     22  C   LIG d   1       2.914  81.539 108.519  0.00  0.00     0.382 C 
ATOM     23  O   LIG d   1       3.298  80.402 108.152  0.00  0.00    -0.241 OA
ATOM     24  O   LIG d   1       3.532  82.549 108.134  0.00  0.00    -0.241 OA
ENDBRANCH   3  22
TORSDOF 7
ENDMDL
MODEL 4
REMARK VINA RESULT:      -5.7      1.881      4.720
REMARK  7 active torsions:
REMARK  status: ('A' for Active; 'I' for Inactive)
REMARK    1  A    between atoms: C_2  and  C_3 
REMARK    2  A    between atoms: C_3  and  O_6 
REMARK    3  A    between atoms: C_3  and  C_4 
REMARK    4  A    between atoms: C_7  and  O_6 
REMARK    5  A    between atoms: C_9  and  C_10 
REMARK    6  A    between atoms: N_15  and  C_14 
REMARK    7  A    between atoms: N_20  and  C_19 
REMARK       I    between atoms: C_22  and  N_20 
ROOT
ATOM      1  C   LIG d   1       0.004  82.512 111.287  0.00  0.00     0.161 C 
ATOM      2  C   LIG d   1      -1.299  82.409 111.801  0.00  0.00     0.016 C 
ATOM      3  C   LIG d   1      -1.647  81.559 112.876  0.00  0.00     0.038 C 
ATOM      4  C   LIG d   1      -0.679  80.861 113.612  0.00  0.00     0.028 C 
ATOM      5  C   LIG d   1       0.579  80.543 112.811  0.00  0.00    -0.047 C 
ATOM      6  C   LIG d   1       1.094  81.842 112.150  0.00  0.00     0.091 C 
ENDROOT
BRANCH   1   7
ATOM      7  O   LIG d   1       0.330  83.896 111.055  0.00  0.00    -0.368 OA
BRANCH   7   8
ATOM      8  C   LIG d   1       0.114  84.385 109.708  0.00  0.00     0.119 C 
BRANCH   8   9
ATOM      9  C   LIG d   1       1.431  85.027 109.231  0.00  0.00     0.028 C 
ATOM     10  C   LIG d   1       2.497  85.073 110.340  0.00  0.00     0.006 C 
ENDBRANCH   8   9
BRANCH   8  11
ATOM     11  C   LIG d   1      -0.920  85.514 109.684  0.00  0.00     0.028 C 
ATOM     12  C   LIG d   1      -0.894  86.373 110.958  0.00  0.00     0.006 C 
ENDBRANCH   8  11
ENDBRANCH   7   8
ENDBRANCH   1   7
BRANCH   6  13
ATOM     13  N   LIG d   1       2.275  81.605 111.279  0.00  0.00    -0.311 N 
ATOM     14  C   LIG d   1       2.293  80.705 110.297  0.00  0.00     0.210 C 
ATOM     15  C   LIG d   1       3.617  80.607 109.534  0.00  0.00     0.109 C 
ATOM     16  O   LIG d   1       1.327  80.001 109.965  0.00  0.00    -0.276 OA
ATOM     17  H   LIG d   1       3.092  82.155 111.459  0.00  0.00     0.149 HD
ENDBRANCH   6  13
BRANCH   5  18
ATOM     18  N   LIG d   1       1.556  79.939 113.737  0.00  0.00     0.381 N 
ATOM     19  H   LIG d   1       2.484  80.202 113.470  0.00  0.00    -0.090 HD
ATOM     20  H   LIG d   1       1.483  78.938 113.679  0.00  0.00    -0.090 HD
ATOM     21  H   LIG d   1       1.373  80.239 114.669  0.00  0.00    -0.090 HD
ENDBRANCH   5  18
BRANCH   3  22
ATOM     22  C   LIG d   1      -2.983  81.369 113.197  0.00  0.00     0.382 C 
ATOM     23  O   LIG d   1      -3.300  80.955 114.338  0.00  0.00    -0.241 OA
ATOM     24  O   LIG d   1      -3.871  81.564 112.346  0.00  0.00    -0.241 OA
ENDBRANCH   3  22
TORSDOF 7
ENDMDL
MODEL 5
REMARK VINA RESULT:      -5.5      2.072      2.495
REMARK  7 active torsions:
REMARK  status: ('A' for Active; 'I' for Inactive)
REMARK    1  A    between atoms: C_2  and  C_3 
REMARK    2  A    between atoms: C_3  and  O_6 
REMARK    3  A    between atoms: C_3  and  C_4 
REMARK    4  A    between atoms: C_7  and  O_6 
REMARK    5  A    between atoms: C_9  and  C_10 
REMARK    6  A    between atoms: N_15  and  C_14 
REMARK    7  A    between atoms: N_20  and  C_19 
REMARK       I    between atoms: C_22  and  N_20 
ROOT
ATOM      1  C   LIG d   1       0.262  82.727 111.679  0.00  0.00     0.161 C 
ATOM      2  C   LIG d   1       1.525  83.237 111.335  0.00  0.00     0.016 C 
ATOM      3  C   LIG d   1       2.441  82.552 110.505  0.00  0.00     0.038 C 
ATOM      4  C   LIG d   1       2.094  81.370 109.834  0.00  0.00     0.028 C 
ATOM      5  C   LIG d   1       1.016  80.562 110.549  0.00  0.00    -0.047 C 
ATOM      6  C   LIG d   1      -0.179  81.490 110.867  0.00  0.00     0.091 C 
ENDROOT
BRANCH   1   7
ATOM      7  O   LIG d   1      -0.729  83.769 111.581  0.00  0.00    -0.368 OA
BRANCH   7   8
ATOM      8  C   LIG d   1      -0.311  85.088 112.011  0.00  0.00     0.119 C 
BRANCH   8   9
ATOM      9  C   LIG d   1      -1.033  85.392 113.339  0.00  0.00     0.028 C 
ATOM     10  C   LIG d   1      -0.211  84.962 114.565  0.00  0.00     0.006 C 
ENDBRANCH   8   9
BRANCH   8  11
ATOM     11  C   LIG d   1      -0.785  86.169 111.035  0.00  0.00     0.028 C 
ATOM     12  C   LIG d   1      -0.817  85.683 109.577  0.00  0.00     0.006 C 
ENDBRANCH   8  11
ENDBRANCH   7   8
ENDBRANCH   1   7
BRANCH   6  13
ATOM     13  N   LIG d   1      -1.243  80.800 111.641  0.00  0.00    -0.311 N 
ATOM     14  C   LIG d   1      -1.007  80.105 112.753  0.00  0.00     0.210 C 
ATOM     15  C   LIG d   1      -2.243  79.456 113.384  0.00  0.00     0.109 C 
ATOM     16  O   LIG d   1       0.103  79.991 113.294  0.00  0.00    -0.276 OA
ATOM     17  H   LIG d   1      -2.178  80.867 111.291  0.00  0.00     0.149 HD
ENDBRANCH   6  13
BRANCH   5  18
ATOM     18  N   LIG d   1       0.652  79.431 109.675  0.00  0.00     0.381 N 
ATOM     19  H   LIG d   1       0.327  79.775 108.794  0.00  0.00    -0.090 HD
ATOM     20  H   LIG d   1      -0.093  78.913 110.106  0.00  0.00    -0.090 HD
ATOM     21  H   LIG d   1       1.442  78.839 109.538  0.00  0.00    -0.090 HD
ENDBRANCH   5  18
BRANCH   3  22
ATOM     22  C   LIG d   1       3.736  83.029 110.370  0.00  0.00     0.382 C 
ATOM     23  O   LIG d   1       4.496  82.542 109.499  0.00  0.00    -0.241 OA
ATOM     24  O   LIG d   1       4.168  83.909 111.139  0.00  0.00    -0.241 OA
ENDBRANCH   3  22
TORSDOF 7
ENDMDL
MODEL 6
REMARK VINA RESULT:      -5.3      2.159      4.733
REMARK  7 active torsions:
REMARK  status: ('A' for Active; 'I' for Inactive)
REMARK    1  A    between atoms: C_2  and  C_3 
REMARK    2  A    between atoms: C_3  and  O_6 
REMARK    3  A    between atoms: C_3  and  C_4 
REMARK    4  A    between atoms: C_7  and  O_6 
REMARK    5  A    between atoms: C_9  and  C_10 
REMARK    6  A    between atoms: N_15  and  C_14 
REMARK    7  A    between atoms: N_20  and  C_19 
REMARK       I    between atoms: C_22  and  N_20 
ROOT
ATOM      1  C   LIG d   1       0.183  82.368 110.887  0.00  0.00     0.161 C 
ATOM      2  C   LIG d   1       0.033  83.666 110.371  0.00  0.00     0.016 C 
ATOM      3  C   LIG d   1      -0.422  84.761 111.141  0.00  0.00     0.038 C 
ATOM      4  C   LIG d   1      -0.615  84.664 112.527  0.00  0.00     0.028 C 
ATOM      5  C   LIG d   1      -0.960  83.254 112.993  0.00  0.00    -0.047 C 
ATOM      6  C   LIG d   1       0.084  82.267 112.423  0.00  0.00     0.091 C 
ENDROOT
BRANCH   1   7
ATOM      7  O   LIG d   1       1.426  81.801 110.426  0.00  0.00    -0.368 OA
BRANCH   7   8
ATOM      8  C   LIG d   1       1.754  82.030 109.034  0.00  0.00     0.119 C 
BRANCH   8   9
ATOM      9  C   LIG d   1       2.131  80.670 108.417  0.00  0.00     0.028 C 
ATOM     10  C   LIG d   1       1.740  79.487 109.319  0.00  0.00     0.006 C 
ENDBRANCH   8   9
BRANCH   8  11
ATOM     11  C   LIG d   1       3.007  82.900 108.893  0.00  0.00     0.028 C 
ATOM     12  C   LIG d   1       4.302  82.074 108.833  0.00  0.00     0.006 C 
ENDBRANCH   8  11
ENDBRANCH   7   8
ENDBRANCH   1   7
BRANCH   6  13
ATOM     13  N   LIG d   1      -0.227  80.854 112.762  0.00  0.00    -0.311 N 
ATOM     14  C   LIG d   1      -1.369  80.255 112.430  0.00  0.00     0.210 C 
ATOM     15  C   LIG d   1      -1.495  78.801 112.894  0.00  0.00     0.109 C 
ATOM     16  O   LIG d   1      -2.277  80.780 111.767  0.00  0.00    -0.276 OA
ATOM     17  H   LIG d   1       0.467  80.344 113.272  0.00  0.00     0.149 HD
ENDBRANCH   6  13
BRANCH   5  18
ATOM     18  N   LIG d   1      -0.998  83.269 114.467  0.00  0.00     0.381 N 
ATOM     19  H   LIG d   1      -0.681  82.389 114.823  0.00  0.00    -0.090 HD
ATOM     20  H   LIG d   1      -1.947  83.407 114.767  0.00  0.00    -0.090 HD
ATOM     21  H   LIG d   1      -0.421  84.003 114.816  0.00  0.00    -0.090 HD
ENDBRANCH   5  18
BRANCH   3  22
ATOM     22  C   LIG d   1      -0.728  85.961 110.516  0.00  0.00     0.382 C 
ATOM     23  O   LIG d   1      -0.368  87.046 111.032  0.00  0.00    -0.241 OA
ATOM     24  O   LIG d   1      -1.397  85.973 109.465  0.00  0.00    -0.241 OA
ENDBRANCH   3  22
TORSDOF 7
ENDMDL
MODEL 7
REMARK VINA RESULT:      -5.2      1.855      5.124
REMARK  7 active torsions:
REMARK  status: ('A' for Active; 'I' for Inactive)
REMARK    1  A    between atoms: C_2  and  C_3 
REMARK    2  A    between atoms: C_3  and  O_6 
REMARK    3  A    between atoms: C_3  and  C_4 
REMARK    4  A    between atoms: C_7  and  O_6 
REMARK    5  A    between atoms: C_9  and  C_10 
REMARK    6  A    between atoms: N_15  and  C_14 
REMARK    7  A    between atoms: N_20  and  C_19 
REMARK       I    between atoms: C_22  and  N_20 
ROOT
ATOM      1  C   LIG d   1      -0.320  82.774 111.607  0.00  0.00     0.161 C 
ATOM      2  C   LIG d   1      -0.993  83.175 112.774  0.00  0.00     0.016 C 
ATOM      3  C   LIG d   1      -1.626  82.270 113.656  0.00  0.00     0.038 C 
ATOM      4  C   LIG d   1      -1.500  80.881 113.511  0.00  0.00     0.028 C 
ATOM      5  C   LIG d   1      -1.257  80.442 112.071  0.00  0.00    -0.047 C 
ATOM      6  C   LIG d   1      -0.076  81.255 111.491  0.00  0.00     0.091 C 
ENDROOT
BRANCH   1   7
ATOM      7  O   LIG d   1       0.924  83.492 111.490  0.00  0.00    -0.368 OA
BRANCH   7   8
ATOM      8  C   LIG d   1       0.862  84.768 110.807  0.00  0.00     0.119 C 
BRANCH   8   9
ATOM      9  C   LIG d   1       0.209  84.526 109.432  0.00  0.00     0.028 C 
ATOM     10  C   LIG d   1       1.234  84.127 108.357  0.00  0.00     0.006 C 
ENDBRANCH   8   9
BRANCH   8  11
ATOM     11  C   LIG d   1       2.263  85.305 110.501  0.00  0.00     0.028 C 
ATOM     12  C   LIG d   1       3.346  84.691 111.402  0.00  0.00     0.006 C 
ENDBRANCH   8  11
ENDBRANCH   7   8
ENDBRANCH   1   7
BRANCH   6  13
ATOM     13  N   LIG d   1       0.174  80.947 110.059  0.00  0.00    -0.311 N 
ATOM     14  C   LIG d   1       1.325  80.454 109.605  0.00  0.00     0.210 C 
ATOM     15  C   LIG d   1       1.380  80.229 108.091  0.00  0.00     0.109 C 
ATOM     16  O   LIG d   1       2.294  80.151 110.317  0.00  0.00    -0.276 OA
ATOM     17  H   LIG d   1      -0.570  81.134 109.416  0.00  0.00     0.149 HD
ENDBRANCH   6  13
BRANCH   5  18
ATOM     18  N   LIG d   1      -1.006  78.988 112.084  0.00  0.00     0.381 N 
ATOM     19  H   LIG d   1      -0.352  78.751 111.366  0.00  0.00    -0.090 HD
ATOM     20  H   LIG d   1      -1.869  78.508 111.896  0.00  0.00    -0.090 HD
ATOM     21  H   LIG d   1      -0.651  78.711 112.973  0.00  0.00    -0.090 HD
ENDBRANCH   5  18
BRANCH   3  22
ATOM     22  C   LIG d   1      -2.430  82.755 114.677  0.00  0.00     0.382 C 
ATOM     23  O   LIG d   1      -1.909  83.205 115.726  0.00  0.00    -0.241 OA
ATOM     24  O   LIG d   1      -3.671  82.707 114.580  0.00  0.00    -0.241 OA
ENDBRANCH   3  22
TORSDOF 7
ENDMDL
MODEL 8
REMARK VINA RESULT:      -4.9     23.976     26.897
REMARK  7 active torsions:
REMARK  status: ('A' for Active; 'I' for Inactive)
REMARK    1  A    between atoms: C_2  and  C_3 
REMARK    2  A    between atoms: C_3  and  O_6 
REMARK    3  A    between atoms: C_3  and  C_4 
REMARK    4  A    between atoms: C_7  and  O_6 
REMARK    5  A    between atoms: C_9  and  C_10 
REMARK    6  A    between atoms: N_15  and  C_14 
REMARK    7  A    between atoms: N_20  and  C_19 
REMARK       I    between atoms: C_22  and  N_20 
ROOT
ATOM      1  C   LIG d   1     -25.444  85.879 113.770  0.00  0.00     0.161 C 
ATOM      2  C   LIG d   1     -24.459  86.837 114.063  0.00  0.00     0.016 C 
ATOM      3  C   LIG d   1     -23.110  86.509 114.329  0.00  0.00     0.038 C 
ATOM      4  C   LIG d   1     -22.619  85.205 114.171  0.00  0.00     0.028 C 
ATOM      5  C   LIG d   1     -23.681  84.129 114.369  0.00  0.00    -0.047 C 
ATOM      6  C   LIG d   1     -24.904  84.463 113.483  0.00  0.00     0.091 C 
ENDROOT
BRANCH   1   7
ATOM      7  O   LIG d   1     -26.259  86.336 112.672  0.00  0.00    -0.368 OA
BRANCH   7   8
ATOM      8  C   LIG d   1     -27.452  87.077 113.028  0.00  0.00     0.119 C 
BRANCH   8   9
ATOM      9  C   LIG d   1     -28.648  86.112 112.908  0.00  0.00     0.028 C 
ATOM     10  C   LIG d   1     -29.487  86.372 111.646  0.00  0.00     0.006 C 
ENDBRANCH   8   9
BRANCH   8  11
ATOM     11  C   LIG d   1     -27.733  88.198 112.024  0.00  0.00     0.028 C 
ATOM     12  C   LIG d   1     -26.531  89.135 111.826  0.00  0.00     0.006 C 
ENDBRANCH   8  11
ENDBRANCH   7   8
ENDBRANCH   1   7
BRANCH   6  13
ATOM     13  N   LIG d   1     -26.024  83.506 113.679  0.00  0.00    -0.311 N 
ATOM     14  C   LIG d   1     -26.686  82.936 112.674  0.00  0.00     0.210 C 
ATOM     15  C   LIG d   1     -27.819  81.996 113.096  0.00  0.00     0.109 C 
ATOM     16  O   LIG d   1     -26.421  83.095 111.473  0.00  0.00    -0.276 OA
ATOM     17  H   LIG d   1     -26.284  83.296 114.623  0.00  0.00     0.149 HD
ENDBRANCH   6  13
BRANCH   5  18
ATOM     18  N   LIG d   1     -23.066  82.829 114.039  0.00  0.00     0.381 N 
ATOM     19  H   LIG d   1     -22.986  82.734 113.047  0.00  0.00    -0.090 HD
ATOM     20  H   LIG d   1     -23.660  82.093 114.380  0.00  0.00    -0.090 HD
ATOM     21  H   LIG d   1     -22.166  82.762 114.461  0.00  0.00    -0.090 HD
ENDBRANCH   5  18
BRANCH   3  22
ATOM     22  C   LIG d   1     -22.245  87.486 114.798  0.00  0.00     0.382 C 
ATOM     23  O   LIG d   1     -22.624  88.283 115.691  0.00  0.00    -0.241 OA
ATOM     24  O   LIG d   1     -21.106  87.610 114.309  0.00  0.00    -0.241 OA
ENDBRANCH   3  22
TORSDOF 7
ENDMDL
MODEL 9
REMARK VINA RESULT:      -4.8      2.205      3.227
REMARK  7 active torsions:
REMARK  status: ('A' for Active; 'I' for Inactive)
REMARK    1  A    between atoms: C_2  and  C_3 
REMARK    2  A    between atoms: C_3  and  O_6 
REMARK    3  A    between atoms: C_3  and  C_4 
REMARK    4  A    between atoms: C_7  and  O_6 
REMARK    5  A    between atoms: C_9  and  C_10 
REMARK    6  A    between atoms: N_15  and  C_14 
REMARK    7  A    between atoms: N_20  and  C_19 
REMARK       I    between atoms: C_22  and  N_20 
ROOT
ATOM      1  C   LIG d   1       1.271  82.521 111.849  0.00  0.00     0.161 C 
ATOM      2  C   LIG d   1       1.742  83.015 110.621  0.00  0.00     0.016 C 
ATOM      3  C   LIG d   1       1.537  82.356 109.387  0.00  0.00     0.038 C 
ATOM      4  C   LIG d   1       0.709  81.228 109.277  0.00  0.00     0.028 C 
ATOM      5  C   LIG d   1       0.628  80.410 110.561  0.00  0.00    -0.047 C 
ATOM      6  C   LIG d   1       0.271  81.351 111.735  0.00  0.00     0.091 C 
ENDROOT
BRANCH   1   7
ATOM      7  O   LIG d   1       0.698  83.596 112.620  0.00  0.00    -0.368 OA
BRANCH   7   8
ATOM      8  C   LIG d   1       1.252  83.797 113.943  0.00  0.00     0.119 C 
BRANCH   8   9
ATOM      9  C   LIG d   1       0.080  84.113 114.893  0.00  0.00     0.028 C 
ATOM     10  C   LIG d   1      -0.142  83.007 115.938  0.00  0.00     0.006 C 
ENDBRANCH   8   9
BRANCH   8  11
ATOM     11  C   LIG d   1       2.154  85.034 113.987  0.00  0.00     0.028 C 
ATOM     12  C   LIG d   1       1.719  86.051 115.055  0.00  0.00     0.006 C 
ENDBRANCH   8  11
ENDBRANCH   7   8
ENDBRANCH   1   7
BRANCH   6  13
ATOM     13  N   LIG d   1       0.254  80.645 113.042  0.00  0.00    -0.311 N 
ATOM     14  C   LIG d   1      -0.846  80.117 113.576  0.00  0.00     0.210 C 
ATOM     15  C   LIG d   1      -0.648  79.451 114.941  0.00  0.00     0.109 C 
ATOM     16  O   LIG d   1      -1.961  80.108 113.033  0.00  0.00    -0.276 OA
ATOM     17  H   LIG d   1       1.122  80.579 113.537  0.00  0.00     0.149 HD
ENDBRANCH   6  13
BRANCH   5  18
ATOM     18  N   LIG d   1      -0.372  79.346 110.349  0.00  0.00     0.381 N 
ATOM     19  H   LIG d   1      -0.817  79.472 109.462  0.00  0.00    -0.090 HD
ATOM     20  H   LIG d   1      -1.074  79.412 111.065  0.00  0.00    -0.090 HD
ATOM     21  H   LIG d   1       0.067  78.453 110.386  0.00  0.00    -0.090 HD
ENDBRANCH   5  18
BRANCH   3  22
ATOM     22  C   LIG d   1       2.195  82.803 108.252  0.00  0.00     0.382 C 
ATOM     23  O   LIG d   1       1.592  83.523 107.420  0.00  0.00    -0.241 OA
ATOM     24  O   LIG d   1       3.371  82.458 108.027  0.00  0.00    -0.241 OA
ENDBRANCH   3  22
TORSDOF 7
ENDMDL
