MODEL 1
REMARK VINA RESULT:      -6.8      0.000      0.000
REMARK  7 active torsions:
REMARK  status: ('A' for Active; 'I' for Inactive)
REMARK    1  A    between atoms: C_2  and  C_3 
REMARK    2  A    between atoms: C_3  and  O_6 
REMARK    3  A    between atoms: C_3  and  C_4 
REMARK    4  A    between atoms: C_7  and  O_6 
REMARK    5  A    between atoms: C_9  and  C_10 
REMARK    6  A    between atoms: N_15  and  C_14 
REMARK    7  A    between atoms: N_20  and  C_19 
REMARK       I    between atoms: C_22  and  N_20 
ROOT
ATOM      1  C   LIG d   1       2.269  84.008 109.702  0.00  0.00     0.161 C 
ATOM      2  C   LIG d   1       2.239  85.285 110.288  0.00  0.00     0.016 C 
ATOM      3  C   LIG d   1       1.296  85.669 111.269  0.00  0.00     0.038 C 
ATOM      4  C   LIG d   1       0.408  84.748 111.844  0.00  0.00     0.028 C 
ATOM      5  C   LIG d   1       0.067  83.580 110.925  0.00  0.00    -0.047 C 
ATOM      6  C   LIG d   1       1.379  82.957 110.397  0.00  0.00     0.091 C 
ENDROOT
BRANCH   1   7
ATOM      7  O   LIG d   1       3.630  83.540 109.623  0.00  0.00    -0.368 OA
BRANCH   7   8
ATOM      8  C   LIG d   1       4.010  82.521 110.580  0.00  0.00     0.119 C 
BRANCH   8   9
ATOM      9  C   LIG d   1       4.607  83.237 111.806  0.00  0.00     0.028 C 
ATOM     10  C   LIG d   1       4.803  82.290 113.002  0.00  0.00     0.006 C 
ENDBRANCH   8   9
BRANCH   8  11
ATOM     11  C   LIG d   1       5.138  81.638 110.037  0.00  0.00     0.028 C 
ATOM     12  C   LIG d   1       4.657  80.234 109.639  0.00  0.00     0.006 C 
ENDBRANCH   8  11
ENDBRANCH   7   8
ENDBRANCH   1   7
BRANCH   6  13
ATOM     13  N   LIG d   1       1.135  81.860 109.424  0.00  0.00    -0.311 N 
ATOM     14  C   LIG d   1       1.029  80.580 109.774  0.00  0.00     0.210 C 
ATOM     15  C   LIG d   1       0.797  79.609 108.612  0.00  0.00     0.109 C 
ATOM     16  O   LIG d   1       1.072  80.159 110.940  0.00  0.00    -0.276 OA
ATOM     17  H   LIG d   1       1.056  82.116 108.459  0.00  0.00     0.149 HD
ENDBRANCH   6  13
BRANCH   5  18
ATOM     18  N   LIG d   1      -0.755  82.629 111.698  0.00  0.00     0.381 N 
ATOM     19  H   LIG d   1      -1.153  83.092 112.491  0.00  0.00    -0.090 HD
ATOM     20  H   LIG d   1      -0.166  81.886 112.030  0.00  0.00    -0.090 HD
ATOM     21  H   LIG d   1      -1.479  82.258 111.123  0.00  0.00    -0.090 HD
ENDBRANCH   5  18
BRANCH   3  22
ATOM     22  C   LIG d   1       1.208  86.997 111.656  0.00  0.00     0.382 C 
ATOM     23  O   LIG d   1       0.090  87.503 111.915  0.00  0.00    -0.241 OA
ATOM     24  O   LIG d   1       2.229  87.709 111.706  0.00  0.00    -0.241 OA
ENDBRANCH   3  22
TORSDOF 7
ENDMDL
MODEL 2
REMARK VINA RESULT:      -6.4      2.470      5.018
REMARK  7 active torsions:
REMARK  status: ('A' for Active; 'I' for Inactive)
REMARK    1  A    between atoms: C_2  and  C_3 
REMARK    2  A    between atoms: C_3  and  O_6 
REMARK    3  A    between atoms: C_3  and  C_4 
REMARK    4  A    between atoms: C_7  and  O_6 
REMARK    5  A    between atoms: C_9  and  C_10 
REMARK    6  A    between atoms: N_15  and  C_14 
REMARK    7  A    between atoms: N_20  and  C_19 
REMARK       I    between atoms: C_22  and  N_20 
ROOT
ATOM      1  C   LIG d   1       1.616  81.644 111.994  0.00  0.00     0.161 C 
ATOM      2  C   LIG d   1       2.723  81.892 111.165  0.00  0.00     0.016 C 
ATOM      3  C   LIG d   1       2.890  81.301 109.892  0.00  0.00     0.038 C 
ATOM      4  C   LIG d   1       1.880  80.533 109.293  0.00  0.00     0.028 C 
ATOM      5  C   LIG d   1       0.964  79.845 110.299  0.00  0.00    -0.047 C 
ATOM      6  C   LIG d   1       0.451  80.896 111.311  0.00  0.00     0.091 C 
ENDROOT
BRANCH   1   7
ATOM      7  O   LIG d   1       1.149  82.880 112.569  0.00  0.00    -0.368 OA
BRANCH   7   8
ATOM      8  C   LIG d   1       1.184  84.040 111.702  0.00  0.00     0.119 C 
BRANCH   8   9
ATOM      9  C   LIG d   1       2.071  85.100 112.383  0.00  0.00     0.028 C 
ATOM     10  C   LIG d   1       3.091  85.722 111.416  0.00  0.00     0.006 C 
ENDBRANCH   8   9
BRANCH   8  11
ATOM     11  C   LIG d   1      -0.199  84.686 111.578  0.00  0.00     0.028 C 
ATOM     12  C   LIG d   1      -0.421  85.360 110.215  0.00  0.00     0.006 C 
ENDBRANCH   8  11
ENDBRANCH   7   8
ENDBRANCH   1   7
BRANCH   6  13
ATOM     13  N   LIG d   1      -0.385  80.292 112.381  0.00  0.00    -0.311 N 
ATOM     14  C   LIG d   1      -1.545  80.808 112.784  0.00  0.00     0.210 C 
ATOM     15  C   LIG d   1      -2.236  80.039 113.914  0.00  0.00     0.109 C 
ATOM     16  O   LIG d   1      -2.082  81.811 112.290  0.00  0.00    -0.276 OA
ATOM     17  H   LIG d   1      -0.039  79.458 112.814  0.00  0.00     0.149 HD
ENDBRANCH   6  13
BRANCH   5  18
ATOM     18  N   LIG d   1      -0.121  79.194 109.542  0.00  0.00     0.381 N 
ATOM     19  H   LIG d   1       0.264  78.655 108.793  0.00  0.00    -0.090 HD
ATOM     20  H   LIG d   1      -0.713  79.904 109.147  0.00  0.00    -0.090 HD
ATOM     21  H   LIG d   1      -0.653  78.606 110.145  0.00  0.00    -0.090 HD
ENDBRANCH   5  18
BRANCH   3  22
ATOM     22  C   LIG d   1       4.094  81.444 109.221  0.00  0.00     0.382 C 
ATOM     23  O   LIG d   1       4.102  81.650 107.983  0.00  0.00    -0.241 OA
ATOM     24  O   LIG d   1       5.175  81.324 109.829  0.00  0.00    -0.241 OA
ENDBRANCH   3  22
TORSDOF 7
ENDMDL
MODEL 3
REMARK VINA RESULT:      -6.3      1.931      3.032
REMARK  7 active torsions:
REMARK  status: ('A' for Active; 'I' for Inactive)
REMARK    1  A    between atoms: C_2  and  C_3 
REMARK    2  A    between atoms: C_3  and  O_6 
REMARK    3  A    between atoms: C_3  and  C_4 
REMARK    4  A    between atoms: C_7  and  O_6 
REMARK    5  A    between atoms: C_9  and  C_10 
REMARK    6  A    between atoms: N_15  and  C_14 
REMARK    7  A    between atoms: N_20  and  C_19 
REMARK       I    between atoms: C_22  and  N_20 
ROOT
ATOM      1  C   LIG d   1       2.489  85.091 110.211  0.00  0.00     0.161 C 
ATOM      2  C   LIG d   1       1.547  85.892 110.879  0.00  0.00     0.016 C 
ATOM      3  C   LIG d   1       0.274  85.425 111.281  0.00  0.00     0.038 C 
ATOM      4  C   LIG d   1      -0.087  84.074 111.175  0.00  0.00     0.028 C 
ATOM      5  C   LIG d   1       0.635  83.340 110.050  0.00  0.00    -0.047 C 
ATOM      6  C   LIG d   1       2.155  83.585 110.186  0.00  0.00     0.091 C 
ENDROOT
BRANCH   1   7
ATOM      7  O   LIG d   1       3.798  85.305 110.773  0.00  0.00    -0.368 OA
BRANCH   7   8
ATOM      8  C   LIG d   1       3.854  85.485 112.210  0.00  0.00     0.119 C 
BRANCH   8   9
ATOM      9  C   LIG d   1       4.766  86.695 112.490  0.00  0.00     0.028 C 
ATOM     10  C   LIG d   1       4.020  87.841 113.194  0.00  0.00     0.006 C 
ENDBRANCH   8   9
BRANCH   8  11
ATOM     11  C   LIG d   1       4.536  84.297 112.894  0.00  0.00     0.028 C 
ATOM     12  C   LIG d   1       3.556  83.433 113.704  0.00  0.00     0.006 C 
ENDBRANCH   8  11
ENDBRANCH   7   8
ENDBRANCH   1   7
BRANCH   6  13
ATOM     13  N   LIG d   1       2.929  82.971 109.076  0.00  0.00    -0.311 N 
ATOM     14  C   LIG d   1       4.037  82.255 109.263  0.00  0.00     0.210 C 
ATOM     15  C   LIG d   1       4.691  81.730 107.981  0.00  0.00     0.109 C 
ATOM     16  O   LIG d   1       4.521  81.978 110.370  0.00  0.00    -0.276 OA
ATOM     17  H   LIG d   1       2.589  83.120 108.146  0.00  0.00     0.149 HD
ENDBRANCH   6  13
BRANCH   5  18
ATOM     18  N   LIG d   1       0.269  81.914 110.141  0.00  0.00     0.381 N 
ATOM     19  H   LIG d   1       0.372  81.480 109.246  0.00  0.00    -0.090 HD
ATOM     20  H   LIG d   1      -0.695  81.843 110.416  0.00  0.00    -0.090 HD
ATOM     21  H   LIG d   1       0.847  81.455 110.810  0.00  0.00    -0.090 HD
ENDBRANCH   5  18
BRANCH   3  22
ATOM     22  C   LIG d   1      -0.667  86.323 111.760  0.00  0.00     0.382 C 
ATOM     23  O   LIG d   1      -1.818  85.925 112.060  0.00  0.00    -0.241 OA
ATOM     24  O   LIG d   1      -0.394  87.535 111.853  0.00  0.00    -0.241 OA
ENDBRANCH   3  22
TORSDOF 7
ENDMDL
MODEL 4
REMARK VINA RESULT:      -6.2      2.168      2.701
REMARK  7 active torsions:
REMARK  status: ('A' for Active; 'I' for Inactive)
REMARK    1  A    between atoms: C_2  and  C_3 
REMARK    2  A    between atoms: C_3  and  O_6 
REMARK    3  A    between atoms: C_3  and  C_4 
REMARK    4  A    between atoms: C_7  and  O_6 
REMARK    5  A    between atoms: C_9  and  C_10 
REMARK    6  A    between atoms: N_15  and  C_14 
REMARK    7  A    between atoms: N_20  and  C_19 
REMARK       I    between atoms: C_22  and  N_20 
ROOT
ATOM      1  C   LIG d   1       3.852  85.176 111.225  0.00  0.00     0.161 C 
ATOM      2  C   LIG d   1       3.935  86.162 112.222  0.00  0.00     0.016 C 
ATOM      3  C   LIG d   1       2.847  86.983 112.597  0.00  0.00     0.038 C 
ATOM      4  C   LIG d   1       1.552  86.768 112.102  0.00  0.00     0.028 C 
ATOM      5  C   LIG d   1       1.530  86.116 110.724  0.00  0.00    -0.047 C 
ATOM      6  C   LIG d   1       2.419  84.852 110.753  0.00  0.00     0.091 C 
ENDROOT
BRANCH   1   7
ATOM      7  O   LIG d   1       4.517  83.976 111.669  0.00  0.00    -0.368 OA
BRANCH   7   8
ATOM      8  C   LIG d   1       3.660  82.925 112.179  0.00  0.00     0.119 C 
BRANCH   8   9
ATOM      9  C   LIG d   1       3.941  82.791 113.688  0.00  0.00     0.028 C 
ATOM     10  C   LIG d   1       2.860  83.466 114.549  0.00  0.00     0.006 C 
ENDBRANCH   8   9
BRANCH   8  11
ATOM     11  C   LIG d   1       4.026  81.566 111.576  0.00  0.00     0.028 C 
ATOM     12  C   LIG d   1       4.946  81.685 110.351  0.00  0.00     0.006 C 
ENDBRANCH   8  11
ENDBRANCH   7   8
ENDBRANCH   1   7
BRANCH   6  13
ATOM     13  N   LIG d   1       2.521  84.200 109.421  0.00  0.00    -0.311 N 
ATOM     14  C   LIG d   1       1.771  83.163 109.054  0.00  0.00     0.210 C 
ATOM     15  C   LIG d   1       2.051  82.630 107.645  0.00  0.00     0.109 C 
ATOM     16  O   LIG d   1       0.879  82.653 109.749  0.00  0.00    -0.276 OA
ATOM     17  H   LIG d   1       3.198  84.570 108.783  0.00  0.00     0.149 HD
ENDBRANCH   6  13
BRANCH   5  18
ATOM     18  N   LIG d   1       0.123  85.826 110.391  0.00  0.00     0.381 N 
ATOM     19  H   LIG d   1       0.024  85.720 109.401  0.00  0.00    -0.090 HD
ATOM     20  H   LIG d   1      -0.447  86.599 110.684  0.00  0.00    -0.090 HD
ATOM     21  H   LIG d   1      -0.172  84.993 110.852  0.00  0.00    -0.090 HD
ENDBRANCH   5  18
BRANCH   3  22
ATOM     22  C   LIG d   1       3.057  88.058 113.447  0.00  0.00     0.382 C 
ATOM     23  O   LIG d   1       3.980  88.874 113.210  0.00  0.00    -0.241 OA
ATOM     24  O   LIG d   1       2.365  88.197 114.473  0.00  0.00    -0.241 OA
ENDBRANCH   3  22
TORSDOF 7
ENDMDL
MODEL 5
REMARK VINA RESULT:      -6.2      2.653      5.010
REMARK  7 active torsions:
REMARK  status: ('A' for Active; 'I' for Inactive)
REMARK    1  A    between atoms: C_2  and  C_3 
REMARK    2  A    between atoms: C_3  and  O_6 
REMARK    3  A    between atoms: C_3  and  C_4 
REMARK    4  A    between atoms: C_7  and  O_6 
REMARK    5  A    between atoms: C_9  and  C_10 
REMARK    6  A    between atoms: N_15  and  C_14 
REMARK    7  A    between atoms: N_20  and  C_19 
REMARK       I    between atoms: C_22  and  N_20 
ROOT
ATOM      1  C   LIG d   1       0.636  81.999 111.172  0.00  0.00     0.161 C 
ATOM      2  C   LIG d   1      -0.490  81.819 111.993  0.00  0.00     0.016 C 
ATOM      3  C   LIG d   1      -1.106  80.564 112.204  0.00  0.00     0.038 C 
ATOM      4  C   LIG d   1      -0.543  79.371 111.725  0.00  0.00     0.028 C 
ATOM      5  C   LIG d   1       0.307  79.563 110.473  0.00  0.00    -0.047 C 
ATOM      6  C   LIG d   1       1.330  80.694 110.730  0.00  0.00     0.091 C 
ENDROOT
BRANCH   1   7
ATOM      7  O   LIG d   1       1.580  82.873 111.821  0.00  0.00    -0.368 OA
BRANCH   7   8
ATOM      8  C   LIG d   1       1.671  84.219 111.292  0.00  0.00     0.119 C 
BRANCH   8   9
ATOM      9  C   LIG d   1       0.793  84.279 110.027  0.00  0.00     0.028 C 
ATOM     10  C   LIG d   1      -0.255  85.403 110.094  0.00  0.00     0.006 C 
ENDBRANCH   8   9
BRANCH   8  11
ATOM     11  C   LIG d   1       3.092  84.534 110.814  0.00  0.00     0.028 C 
ATOM     12  C   LIG d   1       3.627  85.863 111.371  0.00  0.00     0.006 C 
ENDBRANCH   8  11
ENDBRANCH   7   8
ENDBRANCH   1   7
BRANCH   6  13
ATOM     13  N   LIG d   1       2.146  81.003 109.527  0.00  0.00    -0.311 N 
ATOM     14  C   LIG d   1       3.470  81.142 109.555  0.00  0.00     0.210 C 
ATOM     15  C   LIG d   1       4.114  81.481 108.207  0.00  0.00     0.109 C 
ATOM     16  O   LIG d   1       4.176  80.986 110.563  0.00  0.00    -0.276 OA
ATOM     17  H   LIG d   1       1.657  81.116 108.660  0.00  0.00     0.149 HD
ENDBRANCH   6  13
BRANCH   5  18
ATOM     18  N   LIG d   1       0.943  78.268 110.164  0.00  0.00     0.381 N 
ATOM     19  H   LIG d   1       0.548  77.889 109.326  0.00  0.00    -0.090 HD
ATOM     20  H   LIG d   1       0.759  77.628 110.916  0.00  0.00    -0.090 HD
ATOM     21  H   LIG d   1       1.925  78.389 110.052  0.00  0.00    -0.090 HD
ENDBRANCH   5  18
BRANCH   3  22
ATOM     22  C   LIG d   1      -2.321  80.498 112.869  0.00  0.00     0.382 C 
ATOM     23  O   LIG d   1      -2.761  79.391 113.261  0.00  0.00    -0.241 OA
ATOM     24  O   LIG d   1      -3.003  81.526 113.042  0.00  0.00    -0.241 OA
ENDBRANCH   3  22
TORSDOF 7
ENDMDL
MODEL 6
REMARK VINA RESULT:      -6.1      2.359      5.106
REMARK  7 active torsions:
REMARK  status: ('A' for Active; 'I' for Inactive)
REMARK    1  A    between atoms: C_2  and  C_3 
REMARK    2  A    between atoms: C_3  and  O_6 
REMARK    3  A    between atoms: C_3  and  C_4 
REMARK    4  A    between atoms: C_7  and  O_6 
REMARK    5  A    between atoms: C_9  and  C_10 
REMARK    6  A    between atoms: N_15  and  C_14 
REMARK    7  A    between atoms: N_20  and  C_19 
REMARK       I    between atoms: C_22  and  N_20 
ROOT
ATOM      1  C   LIG d   1       1.774  82.461 111.293  0.00  0.00     0.161 C 
ATOM      2  C   LIG d   1       2.105  81.114 111.074  0.00  0.00     0.016 C 
ATOM      3  C   LIG d   1       2.278  80.554 109.787  0.00  0.00     0.038 C 
ATOM      4  C   LIG d   1       2.278  81.344 108.629  0.00  0.00     0.028 C 
ATOM      5  C   LIG d   1       1.449  82.617 108.763  0.00  0.00    -0.047 C 
ATOM      6  C   LIG d   1       1.880  83.364 110.046  0.00  0.00     0.091 C 
ENDROOT
BRANCH   1   7
ATOM      7  O   LIG d   1       2.575  82.993 112.366  0.00  0.00    -0.368 OA
BRANCH   7   8
ATOM      8  C   LIG d   1       3.883  83.495 111.997  0.00  0.00     0.119 C 
BRANCH   8   9
ATOM      9  C   LIG d   1       4.932  82.539 112.597  0.00  0.00     0.028 C 
ATOM     10  C   LIG d   1       4.443  81.870 113.892  0.00  0.00     0.006 C 
ENDBRANCH   8   9
BRANCH   8  11
ATOM     11  C   LIG d   1       4.160  84.857 112.641  0.00  0.00     0.028 C 
ATOM     12  C   LIG d   1       4.050  86.021 111.643  0.00  0.00     0.006 C 
ENDBRANCH   8  11
ENDBRANCH   7   8
ENDBRANCH   1   7
BRANCH   6  13
ATOM     13  N   LIG d   1       1.060  84.577 110.298  0.00  0.00    -0.311 N 
ATOM     14  C   LIG d   1      -0.239  84.537 110.588  0.00  0.00     0.210 C 
ATOM     15  C   LIG d   1      -0.899  85.904 110.792  0.00  0.00     0.109 C 
ATOM     16  O   LIG d   1      -0.901  83.497 110.728  0.00  0.00    -0.276 OA
ATOM     17  H   LIG d   1       1.524  85.463 110.236  0.00  0.00     0.149 HD
ENDBRANCH   6  13
BRANCH   5  18
ATOM     18  N   LIG d   1       1.649  83.411 107.536  0.00  0.00     0.381 N 
ATOM     19  H   LIG d   1       2.368  82.997 106.978  0.00  0.00    -0.090 HD
ATOM     20  H   LIG d   1       1.943  84.337 107.793  0.00  0.00    -0.090 HD
ATOM     21  H   LIG d   1       0.800  83.457 107.017  0.00  0.00    -0.090 HD
ENDBRANCH   5  18
BRANCH   3  22
ATOM     22  C   LIG d   1       2.412  79.181 109.648  0.00  0.00     0.382 C 
ATOM     23  O   LIG d   1       3.545  78.679 109.453  0.00  0.00    -0.241 OA
ATOM     24  O   LIG d   1       1.409  78.442 109.670  0.00  0.00    -0.241 OA
ENDBRANCH   3  22
TORSDOF 7
ENDMDL
MODEL 7
REMARK VINA RESULT:      -6.0      2.491      4.565
REMARK  7 active torsions:
REMARK  status: ('A' for Active; 'I' for Inactive)
REMARK    1  A    between atoms: C_2  and  C_3 
REMARK    2  A    between atoms: C_3  and  O_6 
REMARK    3  A    between atoms: C_3  and  C_4 
REMARK    4  A    between atoms: C_7  and  O_6 
REMARK    5  A    between atoms: C_9  and  C_10 
REMARK    6  A    between atoms: N_15  and  C_14 
REMARK    7  A    between atoms: N_20  and  C_19 
REMARK       I    between atoms: C_22  and  N_20 
ROOT
ATOM      1  C   LIG d   1       2.783  83.928 111.099  0.00  0.00     0.161 C 
ATOM      2  C   LIG d   1       1.798  82.928 111.153  0.00  0.00     0.016 C 
ATOM      3  C   LIG d   1       0.427  83.198 111.372  0.00  0.00     0.038 C 
ATOM      4  C   LIG d   1      -0.076  84.507 111.401  0.00  0.00     0.028 C 
ATOM      5  C   LIG d   1       0.950  85.540 111.854  0.00  0.00    -0.047 C 
ATOM      6  C   LIG d   1       2.238  85.370 111.017  0.00  0.00     0.091 C 
ENDROOT
BRANCH   1   7
ATOM      7  O   LIG d   1       3.682  83.669 110.002  0.00  0.00    -0.368 OA
BRANCH   7   8
ATOM      8  C   LIG d   1       3.624  82.339 109.431  0.00  0.00     0.119 C 
BRANCH   8   9
ATOM      9  C   LIG d   1       4.966  81.646 109.735  0.00  0.00     0.028 C 
ATOM     10  C   LIG d   1       4.874  80.115 109.627  0.00  0.00     0.006 C 
ENDBRANCH   8   9
BRANCH   8  11
ATOM     11  C   LIG d   1       3.532  82.391 107.903  0.00  0.00     0.028 C 
ATOM     12  C   LIG d   1       2.109  82.685 107.402  0.00  0.00     0.006 C 
ENDBRANCH   8  11
ENDBRANCH   7   8
ENDBRANCH   1   7
BRANCH   6  13
ATOM     13  N   LIG d   1       3.323  86.286 111.453  0.00  0.00    -0.311 N 
ATOM     14  C   LIG d   1       3.876  86.244 112.664  0.00  0.00     0.210 C 
ATOM     15  C   LIG d   1       4.965  87.292 112.914  0.00  0.00     0.109 C 
ATOM     16  O   LIG d   1       3.591  85.418 113.543  0.00  0.00    -0.276 OA
ATOM     17  H   LIG d   1       3.638  86.968 110.790  0.00  0.00     0.149 HD
ENDBRANCH   6  13
BRANCH   5  18
ATOM     18  N   LIG d   1       0.336  86.873 111.705  0.00  0.00     0.381 N 
ATOM     19  H   LIG d   1       0.558  87.439 112.500  0.00  0.00    -0.090 HD
ATOM     20  H   LIG d   1      -0.662  86.768 111.662  0.00  0.00    -0.090 HD
ATOM     21  H   LIG d   1       0.667  87.310 110.874  0.00  0.00    -0.090 HD
ENDBRANCH   5  18
BRANCH   3  22
ATOM     22  C   LIG d   1      -0.450  82.150 111.605  0.00  0.00     0.382 C 
ATOM     23  O   LIG d   1      -1.570  82.373 112.125  0.00  0.00    -0.241 OA
ATOM     24  O   LIG d   1      -0.118  80.978 111.344  0.00  0.00    -0.241 OA
ENDBRANCH   3  22
TORSDOF 7
ENDMDL
MODEL 8
REMARK VINA RESULT:      -6.0      2.805      5.416
REMARK  7 active torsions:
REMARK  status: ('A' for Active; 'I' for Inactive)
REMARK    1  A    between atoms: C_2  and  C_3 
REMARK    2  A    between atoms: C_3  and  O_6 
REMARK    3  A    between atoms: C_3  and  C_4 
REMARK    4  A    between atoms: C_7  and  O_6 
REMARK    5  A    between atoms: C_9  and  C_10 
REMARK    6  A    between atoms: N_15  and  C_14 
REMARK    7  A    between atoms: N_20  and  C_19 
REMARK       I    between atoms: C_22  and  N_20 
ROOT
ATOM      1  C   LIG d   1       1.293  81.019 111.365  0.00  0.00     0.161 C 
ATOM      2  C   LIG d   1       0.177  80.329 111.868  0.00  0.00     0.016 C 
ATOM      3  C   LIG d   1      -0.412  79.221 111.217  0.00  0.00     0.038 C 
ATOM      4  C   LIG d   1       0.173  78.629 110.087  0.00  0.00     0.028 C 
ATOM      5  C   LIG d   1       1.010  79.598 109.260  0.00  0.00    -0.047 C 
ATOM      6  C   LIG d   1       2.011  80.319 110.193  0.00  0.00     0.091 C 
ENDROOT
BRANCH   1   7
ATOM      7  O   LIG d   1       2.223  81.288 112.433  0.00  0.00    -0.368 OA
BRANCH   7   8
ATOM      8  C   LIG d   1       2.362  82.677 112.822  0.00  0.00     0.119 C 
BRANCH   8   9
ATOM      9  C   LIG d   1       1.445  83.509 111.904  0.00  0.00     0.028 C 
ATOM     10  C   LIG d   1       1.372  84.985 112.329  0.00  0.00     0.006 C 
ENDBRANCH   8   9
BRANCH   8  11
ATOM     11  C   LIG d   1       3.779  83.191 112.553  0.00  0.00     0.028 C 
ATOM     12  C   LIG d   1       4.858  82.128 112.813  0.00  0.00     0.006 C 
ENDBRANCH   8  11
ENDBRANCH   7   8
ENDBRANCH   1   7
BRANCH   6  13
ATOM     13  N   LIG d   1       2.812  81.346 109.478  0.00  0.00    -0.311 N 
ATOM     14  C   LIG d   1       4.129  81.255 109.299  0.00  0.00     0.210 C 
ATOM     15  C   LIG d   1       4.763  82.433 108.553  0.00  0.00     0.109 C 
ATOM     16  O   LIG d   1       4.827  80.295 109.658  0.00  0.00    -0.276 OA
ATOM     17  H   LIG d   1       2.321  82.144 109.126  0.00  0.00     0.149 HD
ENDBRANCH   6  13
BRANCH   5  18
ATOM     18  N   LIG d   1       1.670  78.820 108.195  0.00  0.00     0.381 N 
ATOM     19  H   LIG d   1       1.352  79.133 107.300  0.00  0.00    -0.090 HD
ATOM     20  H   LIG d   1       1.421  77.852 108.297  0.00  0.00    -0.090 HD
ATOM     21  H   LIG d   1       2.659  78.924 108.259  0.00  0.00    -0.090 HD
ENDBRANCH   5  18
BRANCH   3  22
ATOM     22  C   LIG d   1      -1.621  78.718 111.673  0.00  0.00     0.382 C 
ATOM     23  O   LIG d   1      -2.429  79.472 112.267  0.00  0.00    -0.241 OA
ATOM     24  O   LIG d   1      -1.894  77.511 111.538  0.00  0.00    -0.241 OA
ENDBRANCH   3  22
TORSDOF 7
ENDMDL
MODEL 9
REMARK VINA RESULT:      -5.7      1.993      2.973
REMARK  7 active torsions:
REMARK  status: ('A' for Active; 'I' for Inactive)
REMARK    1  A    between atoms: C_2  and  C_3 
REMARK    2  A    between atoms: C_3  and  O_6 
REMARK    3  A    between atoms: C_3  and  C_4 
REMARK    4  A    between atoms: C_7  and  O_6 
REMARK    5  A    between atoms: C_9  and  C_10 
REMARK    6  A    between atoms: N_15  and  C_14 
REMARK    7  A    between atoms: N_20  and  C_19 
REMARK       I    between atoms: C_22  and  N_20 
ROOT
ATOM      1  C   LIG d   1       1.523  81.179 110.386  0.00  0.00     0.161 C 
ATOM      2  C   LIG d   1       1.521  82.515 109.953  0.00  0.00     0.016 C 
ATOM      3  C   LIG d   1       0.568  83.470 110.376  0.00  0.00     0.038 C 
ATOM      4  C   LIG d   1      -0.365  83.189 111.385  0.00  0.00     0.028 C 
ATOM      5  C   LIG d   1      -0.723  81.710 111.484  0.00  0.00    -0.047 C 
ATOM      6  C   LIG d   1       0.581  80.883 111.572  0.00  0.00     0.091 C 
ENDROOT
BRANCH   1   7
ATOM      7  O   LIG d   1       2.868  80.768 110.700  0.00  0.00    -0.368 OA
BRANCH   7   8
ATOM      8  C   LIG d   1       3.861  81.822 110.747  0.00  0.00     0.119 C 
BRANCH   8   9
ATOM      9  C   LIG d   1       4.965  81.463 109.733  0.00  0.00     0.028 C 
ATOM     10  C   LIG d   1       4.631  81.938 108.309  0.00  0.00     0.006 C 
ENDBRANCH   8   9
BRANCH   8  11
ATOM     11  C   LIG d   1       4.561  81.869 112.108  0.00  0.00     0.028 C 
ATOM     12  C   LIG d   1       4.445  83.241 112.791  0.00  0.00     0.006 C 
ENDBRANCH   8  11
ENDBRANCH   7   8
ENDBRANCH   1   7
BRANCH   6  13
ATOM     13  N   LIG d   1       0.323  79.419 111.587  0.00  0.00    -0.311 N 
ATOM     14  C   LIG d   1      -0.148  78.747 110.538  0.00  0.00     0.210 C 
ATOM     15  C   LIG d   1      -0.360  77.248 110.774  0.00  0.00     0.109 C 
ATOM     16  O   LIG d   1      -0.380  79.243 109.426  0.00  0.00    -0.276 OA
ATOM     17  H   LIG d   1       0.514  78.932 112.440  0.00  0.00     0.149 HD
ENDBRANCH   6  13
BRANCH   5  18
ATOM     18  N   LIG d   1      -1.595  81.540 112.662  0.00  0.00     0.381 N 
ATOM     19  H   LIG d   1      -1.037  81.380 113.477  0.00  0.00    -0.090 HD
ATOM     20  H   LIG d   1      -2.182  80.738 112.519  0.00  0.00    -0.090 HD
ATOM     21  H   LIG d   1      -2.157  82.353 112.790  0.00  0.00    -0.090 HD
ENDBRANCH   5  18
BRANCH   3  22
ATOM     22  C   LIG d   1       0.517  84.710 109.758  0.00  0.00     0.382 C 
ATOM     23  O   LIG d   1       1.204  84.928 108.731  0.00  0.00    -0.241 OA
ATOM     24  O   LIG d   1      -0.174  85.628 110.240  0.00  0.00    -0.241 OA
ENDBRANCH   3  22
TORSDOF 7
ENDMDL
