MODEL 1
REMARK VINA RESULT:      -6.0      0.000      0.000
REMARK  7 active torsions:
REMARK  status: ('A' for Active; 'I' for Inactive)
REMARK    1  A    between atoms: C_2  and  C_3 
REMARK    2  A    between atoms: C_3  and  O_6 
REMARK    3  A    between atoms: C_3  and  C_4 
REMARK    4  A    between atoms: C_7  and  O_6 
REMARK    5  A    between atoms: C_9  and  C_10 
REMARK    6  A    between atoms: N_15  and  C_14 
REMARK    7  A    between atoms: N_20  and  C_19 
REMARK       I    between atoms: C_22  and  N_20 
ROOT
ATOM      1  C   LIG d   1       2.546  84.466 110.162  0.00  0.00     0.161 C 
ATOM      2  C   LIG d   1       1.511  85.392 110.377  0.00  0.00     0.016 C 
ATOM      3  C   LIG d   1       0.164  85.018 110.592  0.00  0.00     0.038 C 
ATOM      4  C   LIG d   1      -0.216  83.677 110.757  0.00  0.00     0.028 C 
ATOM      5  C   LIG d   1       0.708  82.694 110.046  0.00  0.00    -0.047 C 
ATOM      6  C   LIG d   1       2.169  82.997 110.449  0.00  0.00     0.091 C 
ENDROOT
BRANCH   1   7
ATOM      7  O   LIG d   1       3.707  84.844 110.927  0.00  0.00    -0.368 OA
BRANCH   7   8
ATOM      8  C   LIG d   1       3.451  85.402 112.239  0.00  0.00     0.119 C 
BRANCH   8   9
ATOM      9  C   LIG d   1       4.388  86.613 112.418  0.00  0.00     0.028 C 
ATOM     10  C   LIG d   1       3.630  87.884 112.835  0.00  0.00     0.006 C 
ENDBRANCH   8   9
BRANCH   8  11
ATOM     11  C   LIG d   1       3.842  84.420 113.348  0.00  0.00     0.028 C 
ATOM     12  C   LIG d   1       2.624  83.795 114.047  0.00  0.00     0.006 C 
ENDBRANCH   8  11
ENDBRANCH   7   8
ENDBRANCH   1   7
BRANCH   6  13
ATOM     13  N   LIG d   1       3.145  82.135 109.733  0.00  0.00    -0.311 N 
ATOM     14  C   LIG d   1       3.550  80.950 110.189  0.00  0.00     0.210 C 
ATOM     15  C   LIG d   1       4.576  80.234 109.305  0.00  0.00     0.109 C 
ATOM     16  O   LIG d   1       3.132  80.411 111.224  0.00  0.00    -0.276 OA
ATOM     17  H   LIG d   1       3.512  82.481 108.868  0.00  0.00     0.149 HD
ENDBRANCH   6  13
BRANCH   5  18
ATOM     18  N   LIG d   1       0.277  81.332 110.414  0.00  0.00     0.381 N 
ATOM     19  H   LIG d   1       0.245  80.755 109.598  0.00  0.00    -0.090 HD
ATOM     20  H   LIG d   1      -0.647  81.378 110.805  0.00  0.00    -0.090 HD
ATOM     21  H   LIG d   1       0.908  80.943 111.080  0.00  0.00    -0.090 HD
ENDBRANCH   5  18
BRANCH   3  22
ATOM     22  C   LIG d   1      -0.825  85.989 110.603  0.00  0.00     0.382 C 
ATOM     23  O   LIG d   1      -1.593  86.113 109.619  0.00  0.00    -0.241 OA
ATOM     24  O   LIG d   1      -0.931  86.772 111.566  0.00  0.00    -0.241 OA
ENDBRANCH   3  22
TORSDOF 7
ENDMDL
MODEL 2
REMARK VINA RESULT:      -5.4      3.012      5.184
REMARK  7 active torsions:
REMARK  status: ('A' for Active; 'I' for Inactive)
REMARK    1  A    between atoms: C_2  and  C_3 
REMARK    2  A    between atoms: C_3  and  O_6 
REMARK    3  A    between atoms: C_3  and  C_4 
REMARK    4  A    between atoms: C_7  and  O_6 
REMARK    5  A    between atoms: C_9  and  C_10 
REMARK    6  A    between atoms: N_15  and  C_14 
REMARK    7  A    between atoms: N_20  and  C_19 
REMARK       I    between atoms: C_22  and  N_20 
ROOT
ATOM      1  C   LIG d   1       1.791  83.352 112.725  0.00  0.00     0.161 C 
ATOM      2  C   LIG d   1       1.865  84.401 111.793  0.00  0.00     0.016 C 
ATOM      3  C   LIG d   1       2.221  85.725 112.138  0.00  0.00     0.038 C 
ATOM      4  C   LIG d   1       2.678  86.059 113.422  0.00  0.00     0.028 C 
ATOM      5  C   LIG d   1       2.139  85.143 114.515  0.00  0.00    -0.047 C 
ATOM      6  C   LIG d   1       2.394  83.673 114.109  0.00  0.00     0.091 C 
ENDROOT
BRANCH   1   7
ATOM      7  O   LIG d   1       2.401  82.167 112.176  0.00  0.00    -0.368 OA
BRANCH   7   8
ATOM      8  C   LIG d   1       2.123  81.896 110.781  0.00  0.00     0.119 C 
BRANCH   8   9
ATOM      9  C   LIG d   1       1.217  80.650 110.722  0.00  0.00     0.028 C 
ATOM     10  C   LIG d   1       0.684  80.379 109.305  0.00  0.00     0.006 C 
ENDBRANCH   8   9
BRANCH   8  11
ATOM     11  C   LIG d   1       3.397  81.506 110.025  0.00  0.00     0.028 C 
ATOM     12  C   LIG d   1       4.092  82.710 109.369  0.00  0.00     0.006 C 
ENDBRANCH   8  11
ENDBRANCH   7   8
ENDBRANCH   1   7
BRANCH   6  13
ATOM     13  N   LIG d   1       1.822  82.709 115.084  0.00  0.00    -0.311 N 
ATOM     14  C   LIG d   1       2.532  82.143 116.059  0.00  0.00     0.210 C 
ATOM     15  C   LIG d   1       1.752  81.162 116.941  0.00  0.00     0.109 C 
ATOM     16  O   LIG d   1       3.724  82.385 116.297  0.00  0.00    -0.276 OA
ATOM     17  H   LIG d   1       0.852  82.479 114.983  0.00  0.00     0.149 HD
ENDBRANCH   6  13
BRANCH   5  18
ATOM     18  N   LIG d   1       2.802  85.518 115.778  0.00  0.00     0.381 N 
ATOM     19  H   LIG d   1       2.449  86.398 116.097  0.00  0.00    -0.090 HD
ATOM     20  H   LIG d   1       3.788  85.615 115.611  0.00  0.00    -0.090 HD
ATOM     21  H   LIG d   1       2.642  84.817 116.468  0.00  0.00    -0.090 HD
ENDBRANCH   5  18
BRANCH   3  22
ATOM     22  C   LIG d   1       2.084  86.739 111.203  0.00  0.00     0.382 C 
ATOM     23  O   LIG d   1       2.211  87.937 111.554  0.00  0.00    -0.241 OA
ATOM     24  O   LIG d   1       1.790  86.474 110.022  0.00  0.00    -0.241 OA
ENDBRANCH   3  22
TORSDOF 7
ENDMDL
MODEL 3
REMARK VINA RESULT:      -5.4     11.789     13.660
REMARK  7 active torsions:
REMARK  status: ('A' for Active; 'I' for Inactive)
REMARK    1  A    between atoms: C_2  and  C_3 
REMARK    2  A    between atoms: C_3  and  O_6 
REMARK    3  A    between atoms: C_3  and  C_4 
REMARK    4  A    between atoms: C_7  and  O_6 
REMARK    5  A    between atoms: C_9  and  C_10 
REMARK    6  A    between atoms: N_15  and  C_14 
REMARK    7  A    between atoms: N_20  and  C_19 
REMARK       I    between atoms: C_22  and  N_20 
ROOT
ATOM      1  C   LIG d   1      -6.299  75.911 117.402  0.00  0.00     0.161 C 
ATOM      2  C   LIG d   1      -7.248  74.941 117.040  0.00  0.00     0.016 C 
ATOM      3  C   LIG d   1      -8.634  75.202 116.955  0.00  0.00     0.038 C 
ATOM      4  C   LIG d   1      -9.153  76.500 117.080  0.00  0.00     0.028 C 
ATOM      5  C   LIG d   1      -8.292  77.416 117.943  0.00  0.00    -0.047 C 
ATOM      6  C   LIG d   1      -6.833  77.358 117.434  0.00  0.00     0.091 C 
ENDROOT
BRANCH   1   7
ATOM      7  O   LIG d   1      -5.151  75.820 116.535  0.00  0.00    -0.368 OA
BRANCH   7   8
ATOM      8  C   LIG d   1      -5.168  76.673 115.364  0.00  0.00     0.119 C 
BRANCH   8   9
ATOM      9  C   LIG d   1      -5.326  75.763 114.130  0.00  0.00     0.028 C 
ATOM     10  C   LIG d   1      -4.750  74.356 114.361  0.00  0.00     0.006 C 
ENDBRANCH   8   9
BRANCH   8  11
ATOM     11  C   LIG d   1      -3.825  77.384 115.174  0.00  0.00     0.028 C 
ATOM     12  C   LIG d   1      -2.900  77.247 116.393  0.00  0.00     0.006 C 
ENDBRANCH   8  11
ENDBRANCH   7   8
ENDBRANCH   1   7
BRANCH   6  13
ATOM     13  N   LIG d   1      -5.907  78.161 118.275  0.00  0.00    -0.311 N 
ATOM     14  C   LIG d   1      -5.555  79.413 117.989  0.00  0.00     0.210 C 
ATOM     15  C   LIG d   1      -4.575  80.051 118.977  0.00  0.00     0.109 C 
ATOM     16  O   LIG d   1      -5.987  80.066 117.027  0.00  0.00    -0.276 OA
ATOM     17  H   LIG d   1      -5.534  77.719 119.093  0.00  0.00     0.149 HD
ENDBRANCH   6  13
BRANCH   5  18
ATOM     18  N   LIG d   1      -8.874  78.769 117.875  0.00  0.00     0.381 N 
ATOM     19  H   LIG d   1      -8.670  79.268 118.718  0.00  0.00    -0.090 HD
ATOM     20  H   LIG d   1      -9.872  78.690 117.790  0.00  0.00    -0.090 HD
ATOM     21  H   LIG d   1      -8.505  79.261 117.092  0.00  0.00    -0.090 HD
ENDBRANCH   5  18
BRANCH   3  22
ATOM     22  C   LIG d   1      -9.523  74.152 116.781  0.00  0.00     0.382 C 
ATOM     23  O   LIG d   1     -10.750  74.382 116.660  0.00  0.00    -0.241 OA
ATOM     24  O   LIG d   1      -9.117  72.974 116.787  0.00  0.00    -0.241 OA
ENDBRANCH   3  22
TORSDOF 7
ENDMDL
MODEL 4
REMARK VINA RESULT:      -5.4     12.279     13.991
REMARK  7 active torsions:
REMARK  status: ('A' for Active; 'I' for Inactive)
REMARK    1  A    between atoms: C_2  and  C_3 
REMARK    2  A    between atoms: C_3  and  O_6 
REMARK    3  A    between atoms: C_3  and  C_4 
REMARK    4  A    between atoms: C_7  and  O_6 
REMARK    5  A    between atoms: C_9  and  C_10 
REMARK    6  A    between atoms: N_15  and  C_14 
REMARK    7  A    between atoms: N_20  and  C_19 
REMARK       I    between atoms: C_22  and  N_20 
ROOT
ATOM      1  C   LIG d   1      -6.680  75.833 117.548  0.00  0.00     0.161 C 
ATOM      2  C   LIG d   1      -7.823  76.561 117.919  0.00  0.00     0.016 C 
ATOM      3  C   LIG d   1      -7.915  77.968 117.822  0.00  0.00     0.038 C 
ATOM      4  C   LIG d   1      -6.917  78.735 117.202  0.00  0.00     0.028 C 
ATOM      5  C   LIG d   1      -5.533  78.100 117.272  0.00  0.00    -0.047 C 
ATOM      6  C   LIG d   1      -5.624  76.642 116.766  0.00  0.00     0.091 C 
ENDROOT
BRANCH   1   7
ATOM      7  O   LIG d   1      -7.067  74.662 116.803  0.00  0.00    -0.368 OA
BRANCH   7   8
ATOM      8  C   LIG d   1      -7.966  73.747 117.476  0.00  0.00     0.119 C 
BRANCH   8   9
ATOM      9  C   LIG d   1      -7.210  72.419 117.678  0.00  0.00     0.028 C 
ATOM     10  C   LIG d   1      -6.945  71.687 116.351  0.00  0.00     0.006 C 
ENDBRANCH   8   9
BRANCH   8  11
ATOM     11  C   LIG d   1      -9.169  73.398 116.594  0.00  0.00     0.028 C 
ATOM     12  C   LIG d   1     -10.284  74.453 116.662  0.00  0.00     0.006 C 
ENDBRANCH   8  11
ENDBRANCH   7   8
ENDBRANCH   1   7
BRANCH   6  13
ATOM     13  N   LIG d   1      -4.330  75.921 116.880  0.00  0.00    -0.311 N 
ATOM     14  C   LIG d   1      -3.568  75.611 115.832  0.00  0.00     0.210 C 
ATOM     15  C   LIG d   1      -2.283  74.848 116.169  0.00  0.00     0.109 C 
ATOM     16  O   LIG d   1      -3.819  75.923 114.659  0.00  0.00    -0.276 OA
ATOM     17  H   LIG d   1      -4.034  75.657 117.800  0.00  0.00     0.149 HD
ENDBRANCH   6  13
BRANCH   5  18
ATOM     18  N   LIG d   1      -4.618  78.934 116.470  0.00  0.00     0.381 N 
ATOM     19  H   LIG d   1      -3.986  79.421 117.074  0.00  0.00    -0.090 HD
ATOM     20  H   LIG d   1      -5.158  79.615 115.965  0.00  0.00    -0.090 HD
ATOM     21  H   LIG d   1      -4.108  78.364 115.832  0.00  0.00    -0.090 HD
ENDBRANCH   5  18
BRANCH   3  22
ATOM     22  C   LIG d   1      -8.997  78.627 118.386  0.00  0.00     0.382 C 
ATOM     23  O   LIG d   1     -10.126  78.080 118.399  0.00  0.00    -0.241 OA
ATOM     24  O   LIG d   1      -8.868  79.779 118.842  0.00  0.00    -0.241 OA
ENDBRANCH   3  22
TORSDOF 7
ENDMDL
MODEL 5
REMARK VINA RESULT:      -5.3      2.868      4.324
REMARK  7 active torsions:
REMARK  status: ('A' for Active; 'I' for Inactive)
REMARK    1  A    between atoms: C_2  and  C_3 
REMARK    2  A    between atoms: C_3  and  O_6 
REMARK    3  A    between atoms: C_3  and  C_4 
REMARK    4  A    between atoms: C_7  and  O_6 
REMARK    5  A    between atoms: C_9  and  C_10 
REMARK    6  A    between atoms: N_15  and  C_14 
REMARK    7  A    between atoms: N_20  and  C_19 
REMARK       I    between atoms: C_22  and  N_20 
ROOT
ATOM      1  C   LIG d   1       1.679  83.669 113.053  0.00  0.00     0.161 C 
ATOM      2  C   LIG d   1       2.362  84.885 112.880  0.00  0.00     0.016 C 
ATOM      3  C   LIG d   1       2.044  85.818 111.867  0.00  0.00     0.038 C 
ATOM      4  C   LIG d   1       0.916  85.667 111.047  0.00  0.00     0.028 C 
ATOM      5  C   LIG d   1       0.498  84.213 110.854  0.00  0.00    -0.047 C 
ATOM      6  C   LIG d   1       0.375  83.538 112.239  0.00  0.00     0.091 C 
ENDROOT
BRANCH   1   7
ATOM      7  O   LIG d   1       1.420  83.450 114.454  0.00  0.00    -0.368 OA
BRANCH   7   8
ATOM      8  C   LIG d   1       2.529  83.694 115.354  0.00  0.00     0.119 C 
BRANCH   8   9
ATOM      9  C   LIG d   1       2.781  82.394 116.142  0.00  0.00     0.028 C 
ATOM     10  C   LIG d   1       1.805  82.223 117.318  0.00  0.00     0.006 C 
ENDBRANCH   8   9
BRANCH   8  11
ATOM     11  C   LIG d   1       2.170  84.745 116.409  0.00  0.00     0.028 C 
ATOM     12  C   LIG d   1       2.892  86.083 116.187  0.00  0.00     0.006 C 
ENDBRANCH   8  11
ENDBRANCH   7   8
ENDBRANCH   1   7
BRANCH   6  13
ATOM     13  N   LIG d   1       0.052  82.091 112.138  0.00  0.00    -0.311 N 
ATOM     14  C   LIG d   1      -1.189  81.611 112.202  0.00  0.00     0.210 C 
ATOM     15  C   LIG d   1      -1.299  80.086 112.097  0.00  0.00     0.109 C 
ATOM     16  O   LIG d   1      -2.212  82.305 112.305  0.00  0.00    -0.276 OA
ATOM     17  H   LIG d   1       0.820  81.459 112.022  0.00  0.00     0.149 HD
ENDBRANCH   6  13
BRANCH   5  18
ATOM     18  N   LIG d   1      -0.767  84.210 110.095  0.00  0.00     0.381 N 
ATOM     19  H   LIG d   1      -0.833  83.374 109.550  0.00  0.00    -0.090 HD
ATOM     20  H   LIG d   1      -0.773  84.996 109.470  0.00  0.00    -0.090 HD
ATOM     21  H   LIG d   1      -1.540  84.268 110.721  0.00  0.00    -0.090 HD
ENDBRANCH   5  18
BRANCH   3  22
ATOM     22  C   LIG d   1       2.883  86.898 111.640  0.00  0.00     0.382 C 
ATOM     23  O   LIG d   1       4.035  86.711 111.180  0.00  0.00    -0.241 OA
ATOM     24  O   LIG d   1       2.518  88.053 111.930  0.00  0.00    -0.241 OA
ENDBRANCH   3  22
TORSDOF 7
ENDMDL
MODEL 6
REMARK VINA RESULT:      -5.2      3.158      5.437
REMARK  7 active torsions:
REMARK  status: ('A' for Active; 'I' for Inactive)
REMARK    1  A    between atoms: C_2  and  C_3 
REMARK    2  A    between atoms: C_3  and  O_6 
REMARK    3  A    between atoms: C_3  and  C_4 
REMARK    4  A    between atoms: C_7  and  O_6 
REMARK    5  A    between atoms: C_9  and  C_10 
REMARK    6  A    between atoms: N_15  and  C_14 
REMARK    7  A    between atoms: N_20  and  C_19 
REMARK       I    between atoms: C_22  and  N_20 
ROOT
ATOM      1  C   LIG d   1       1.438  84.677 114.033  0.00  0.00     0.161 C 
ATOM      2  C   LIG d   1       1.917  85.732 113.239  0.00  0.00     0.016 C 
ATOM      3  C   LIG d   1       3.219  86.270 113.363  0.00  0.00     0.038 C 
ATOM      4  C   LIG d   1       4.188  85.684 114.191  0.00  0.00     0.028 C 
ATOM      5  C   LIG d   1       3.595  84.933 115.379  0.00  0.00    -0.047 C 
ATOM      6  C   LIG d   1       2.517  83.952 114.865  0.00  0.00     0.091 C 
ENDROOT
BRANCH   1   7
ATOM      7  O   LIG d   1       0.721  83.734 113.212  0.00  0.00    -0.368 OA
BRANCH   7   8
ATOM      8  C   LIG d   1       1.066  83.723 111.805  0.00  0.00     0.119 C 
BRANCH   8   9
ATOM      9  C   LIG d   1      -0.247  83.605 111.007  0.00  0.00     0.028 C 
ATOM     10  C   LIG d   1      -0.710  84.956 110.435  0.00  0.00     0.006 C 
ENDBRANCH   8   9
BRANCH   8  11
ATOM     11  C   LIG d   1       1.876  82.476 111.439  0.00  0.00     0.028 C 
ATOM     12  C   LIG d   1       3.309  82.806 110.992  0.00  0.00     0.006 C 
ENDBRANCH   8  11
ENDBRANCH   7   8
ENDBRANCH   1   7
BRANCH   6  13
ATOM     13  N   LIG d   1       1.827  83.238 115.971  0.00  0.00    -0.311 N 
ATOM     14  C   LIG d   1       2.248  82.076 116.468  0.00  0.00     0.210 C 
ATOM     15  C   LIG d   1       1.379  81.501 117.592  0.00  0.00     0.109 C 
ATOM     16  O   LIG d   1       3.275  81.482 116.107  0.00  0.00    -0.276 OA
ATOM     17  H   LIG d   1       1.002  83.664 116.345  0.00  0.00     0.149 HD
ENDBRANCH   6  13
BRANCH   5  18
ATOM     18  N   LIG d   1       4.705  84.259 116.079  0.00  0.00     0.381 N 
ATOM     19  H   LIG d   1       5.000  83.460 115.554  0.00  0.00    -0.090 HD
ATOM     20  H   LIG d   1       4.380  83.944 116.976  0.00  0.00    -0.090 HD
ATOM     21  H   LIG d   1       5.467  84.889 116.196  0.00  0.00    -0.090 HD
ENDBRANCH   5  18
BRANCH   3  22
ATOM     22  C   LIG d   1       3.551  87.431 112.681  0.00  0.00     0.382 C 
ATOM     23  O   LIG d   1       2.645  88.176 112.235  0.00  0.00    -0.241 OA
ATOM     24  O   LIG d   1       4.743  87.719 112.468  0.00  0.00    -0.241 OA
ENDBRANCH   3  22
TORSDOF 7
ENDMDL
MODEL 7
REMARK VINA RESULT:      -5.1      2.786      4.826
REMARK  7 active torsions:
REMARK  status: ('A' for Active; 'I' for Inactive)
REMARK    1  A    between atoms: C_2  and  C_3 
REMARK    2  A    between atoms: C_3  and  O_6 
REMARK    3  A    between atoms: C_3  and  C_4 
REMARK    4  A    between atoms: C_7  and  O_6 
REMARK    5  A    between atoms: C_9  and  C_10 
REMARK    6  A    between atoms: N_15  and  C_14 
REMARK    7  A    between atoms: N_20  and  C_19 
REMARK       I    between atoms: C_22  and  N_20 
ROOT
ATOM      1  C   LIG d   1       3.690  84.818 112.823  0.00  0.00     0.161 C 
ATOM      2  C   LIG d   1       4.392  85.935 113.306  0.00  0.00     0.016 C 
ATOM      3  C   LIG d   1       4.082  87.266 112.945  0.00  0.00     0.038 C 
ATOM      4  C   LIG d   1       2.944  87.583 112.188  0.00  0.00     0.028 C 
ATOM      5  C   LIG d   1       2.499  86.455 111.263  0.00  0.00    -0.047 C 
ATOM      6  C   LIG d   1       2.376  85.151 112.084  0.00  0.00     0.091 C 
ENDROOT
BRANCH   1   7
ATOM      7  O   LIG d   1       3.439  83.895 113.900  0.00  0.00    -0.368 OA
BRANCH   7   8
ATOM      8  C   LIG d   1       3.423  84.460 115.234  0.00  0.00     0.119 C 
BRANCH   8   9
ATOM      9  C   LIG d   1       4.023  83.410 116.189  0.00  0.00     0.028 C 
ATOM     10  C   LIG d   1       3.031  82.282 116.519  0.00  0.00     0.006 C 
ENDBRANCH   8   9
BRANCH   8  11
ATOM     11  C   LIG d   1       1.991  84.685 115.727  0.00  0.00     0.028 C 
ATOM     12  C   LIG d   1       1.613  86.173 115.802  0.00  0.00     0.006 C 
ENDBRANCH   8  11
ENDBRANCH   7   8
ENDBRANCH   1   7
BRANCH   6  13
ATOM     13  N   LIG d   1       2.026  83.980 111.239  0.00  0.00    -0.311 N 
ATOM     14  C   LIG d   1       1.101  83.083 111.576  0.00  0.00     0.210 C 
ATOM     15  C   LIG d   1       0.910  81.942 110.572  0.00  0.00     0.109 C 
ATOM     16  O   LIG d   1       0.397  83.142 112.595  0.00  0.00    -0.276 OA
ATOM     17  H   LIG d   1       2.527  83.872 110.379  0.00  0.00     0.149 HD
ENDBRANCH   6  13
BRANCH   5  18
ATOM     18  N   LIG d   1       1.227  86.867 110.639  0.00  0.00     0.381 N 
ATOM     19  H   LIG d   1       0.528  86.169 110.802  0.00  0.00    -0.090 HD
ATOM     20  H   LIG d   1       1.364  86.951 109.647  0.00  0.00    -0.090 HD
ATOM     21  H   LIG d   1       0.929  87.739 111.016  0.00  0.00    -0.090 HD
ENDBRANCH   5  18
BRANCH   3  22
ATOM     22  C   LIG d   1       4.938  88.294 113.309  0.00  0.00     0.382 C 
ATOM     23  O   LIG d   1       4.562  89.160 114.136  0.00  0.00    -0.241 OA
ATOM     24  O   LIG d   1       6.065  88.393 112.788  0.00  0.00    -0.241 OA
ENDBRANCH   3  22
TORSDOF 7
ENDMDL
MODEL 8
REMARK VINA RESULT:      -5.0     11.303     13.126
REMARK  7 active torsions:
REMARK  status: ('A' for Active; 'I' for Inactive)
REMARK    1  A    between atoms: C_2  and  C_3 
REMARK    2  A    between atoms: C_3  and  O_6 
REMARK    3  A    between atoms: C_3  and  C_4 
REMARK    4  A    between atoms: C_7  and  O_6 
REMARK    5  A    between atoms: C_9  and  C_10 
REMARK    6  A    between atoms: N_15  and  C_14 
REMARK    7  A    between atoms: N_20  and  C_19 
REMARK       I    between atoms: C_22  and  N_20 
ROOT
ATOM      1  C   LIG d   1      -6.349  76.574 116.268  0.00  0.00     0.161 C 
ATOM      2  C   LIG d   1      -7.629  76.019 116.105  0.00  0.00     0.016 C 
ATOM      3  C   LIG d   1      -8.746  76.397 116.884  0.00  0.00     0.038 C 
ATOM      4  C   LIG d   1      -8.693  77.472 117.784  0.00  0.00     0.028 C 
ATOM      5  C   LIG d   1      -7.297  77.726 118.342  0.00  0.00    -0.047 C 
ATOM      6  C   LIG d   1      -6.297  77.827 117.168  0.00  0.00     0.091 C 
ENDROOT
BRANCH   1   7
ATOM      7  O   LIG d   1      -5.772  76.861 114.978  0.00  0.00    -0.368 OA
BRANCH   7   8
ATOM      8  C   LIG d   1      -5.898  75.819 113.978  0.00  0.00     0.119 C 
BRANCH   8   9
ATOM      9  C   LIG d   1      -4.723  74.843 114.177  0.00  0.00     0.028 C 
ATOM     10  C   LIG d   1      -3.481  75.531 114.769  0.00  0.00     0.006 C 
ENDBRANCH   8   9
BRANCH   8  11
ATOM     11  C   LIG d   1      -5.725  76.381 112.564  0.00  0.00     0.028 C 
ATOM     12  C   LIG d   1      -7.064  76.675 111.871  0.00  0.00     0.006 C 
ENDBRANCH   8  11
ENDBRANCH   7   8
ENDBRANCH   1   7
BRANCH   6  13
ATOM     13  N   LIG d   1      -4.895  77.991 117.630  0.00  0.00    -0.311 N 
ATOM     14  C   LIG d   1      -3.981  78.695 116.965  0.00  0.00     0.210 C 
ATOM     15  C   LIG d   1      -2.590  78.720 117.606  0.00  0.00     0.109 C 
ATOM     16  O   LIG d   1      -4.199  79.328 115.921  0.00  0.00    -0.276 OA
ATOM     17  H   LIG d   1      -4.640  77.536 118.485  0.00  0.00     0.149 HD
ENDBRANCH   6  13
BRANCH   5  18
ATOM     18  N   LIG d   1      -7.360  78.955 119.156  0.00  0.00     0.381 N 
ATOM     19  H   LIG d   1      -6.524  79.044 119.699  0.00  0.00    -0.090 HD
ATOM     20  H   LIG d   1      -8.140  78.888 119.786  0.00  0.00    -0.090 HD
ATOM     21  H   LIG d   1      -7.467  79.749 118.565  0.00  0.00    -0.090 HD
ENDBRANCH   5  18
BRANCH   3  22
ATOM     22  C   LIG d   1      -9.923  75.669 116.796  0.00  0.00     0.382 C 
ATOM     23  O   LIG d   1     -10.989  76.142 117.259  0.00  0.00    -0.241 OA
ATOM     24  O   LIG d   1      -9.924  74.527 116.298  0.00  0.00    -0.241 OA
ENDBRANCH   3  22
TORSDOF 7
ENDMDL
MODEL 9
REMARK VINA RESULT:      -5.0      2.743      4.728
REMARK  7 active torsions:
REMARK  status: ('A' for Active; 'I' for Inactive)
REMARK    1  A    between atoms: C_2  and  C_3 
REMARK    2  A    between atoms: C_3  and  O_6 
REMARK    3  A    between atoms: C_3  and  C_4 
REMARK    4  A    between atoms: C_7  and  O_6 
REMARK    5  A    between atoms: C_9  and  C_10 
REMARK    6  A    between atoms: N_15  and  C_14 
REMARK    7  A    between atoms: N_20  and  C_19 
REMARK       I    between atoms: C_22  and  N_20 
ROOT
ATOM      1  C   LIG d   1       1.522  84.891 112.534  0.00  0.00     0.161 C 
ATOM      2  C   LIG d   1       2.051  86.070 113.084  0.00  0.00     0.016 C 
ATOM      3  C   LIG d   1       2.600  86.145 114.385  0.00  0.00     0.038 C 
ATOM      4  C   LIG d   1       2.797  85.001 115.173  0.00  0.00     0.028 C 
ATOM      5  C   LIG d   1       1.818  83.874 114.860  0.00  0.00    -0.047 C 
ATOM      6  C   LIG d   1       1.829  83.609 113.337  0.00  0.00     0.091 C 
ENDROOT
BRANCH   1   7
ATOM      7  O   LIG d   1       1.965  84.746 111.170  0.00  0.00    -0.368 OA
BRANCH   7   8
ATOM      8  C   LIG d   1       1.023  84.134 110.255  0.00  0.00     0.119 C 
BRANCH   8   9
ATOM      9  C   LIG d   1       1.824  83.223 109.306  0.00  0.00     0.028 C 
ATOM     10  C   LIG d   1       3.315  83.156 109.676  0.00  0.00     0.006 C 
ENDBRANCH   8   9
BRANCH   8  11
ATOM     11  C   LIG d   1       0.364  85.181 109.352  0.00  0.00     0.028 C 
ATOM     12  C   LIG d   1      -0.726  85.990 110.074  0.00  0.00     0.006 C 
ENDBRANCH   8  11
ENDBRANCH   7   8
ENDBRANCH   1   7
BRANCH   6  13
ATOM     13  N   LIG d   1       0.837  82.578 112.934  0.00  0.00    -0.311 N 
ATOM     14  C   LIG d   1       1.176  81.394 112.425  0.00  0.00     0.210 C 
ATOM     15  C   LIG d   1      -0.003  80.487 112.058  0.00  0.00     0.109 C 
ATOM     16  O   LIG d   1       2.341  80.997 112.273  0.00  0.00    -0.276 OA
ATOM     17  H   LIG d   1      -0.131  82.805 113.052  0.00  0.00     0.149 HD
ENDBRANCH   6  13
BRANCH   5  18
ATOM     18  N   LIG d   1       2.223  82.699 115.654  0.00  0.00     0.381 N 
ATOM     19  H   LIG d   1       2.649  82.017 115.058  0.00  0.00    -0.090 HD
ATOM     20  H   LIG d   1       1.405  82.288 116.068  0.00  0.00    -0.090 HD
ATOM     21  H   LIG d   1       2.863  82.973 116.367  0.00  0.00    -0.090 HD
ENDBRANCH   5  18
BRANCH   3  22
ATOM     22  C   LIG d   1       2.923  87.380 114.925  0.00  0.00     0.382 C 
ATOM     23  O   LIG d   1       2.774  88.422 114.241  0.00  0.00    -0.241 OA
ATOM     24  O   LIG d   1       3.403  87.463 116.071  0.00  0.00    -0.241 OA
ENDBRANCH   3  22
TORSDOF 7
ENDMDL
