MODEL 1
REMARK  7 active torsions:
REMARK  status: ('A' for Active; 'I' for Inactive)
REMARK    1  A    between atoms: C_2  and  C_3 
REMARK    2  A    between atoms: C_3  and  O_6 
REMARK    3  A    between atoms: C_3  and  C_4 
REMARK    4  A    between atoms: C_7  and  O_6 
REMARK    5  A    between atoms: C_9  and  C_10 
REMARK    6  A    between atoms: N_15  and  C_14 
REMARK    7  A    between atoms: N_20  and  C_19 
REMARK       I    between atoms: C_22  and  N_20 
ROOT
ATOM      1  C   LIG d   1      -7.185  76.275 116.040  0.00  0.00     0.161 C 
ATOM      2  C   LIG d   1      -7.888  75.170 115.533  0.00  0.00     0.016 C 
ATOM      3  C   LIG d   1      -9.298  75.062 115.568  0.00  0.00     0.038 C 
ATOM      4  C   LIG d   1     -10.113  76.127 115.980  0.00  0.00     0.028 C 
ATOM      5  C   LIG d   1      -9.430  77.065 116.970  0.00  0.00    -0.047 C 
ATOM      6  C   LIG d   1      -8.063  77.495 116.392  0.00  0.00     0.091 C 
ENDROOT
BRANCH   1   7
ATOM      7  O   LIG d   1      -6.144  76.657 115.119  0.00  0.00    -0.368 OA
BRANCH   7   8
ATOM      8  C   LIG d   1      -4.788  76.352 115.529  0.00  0.00     0.119 C 
BRANCH   8   9
ATOM      9  C   LIG d   1      -3.918  77.581 115.202  0.00  0.00     0.028 C 
ATOM     10  C   LIG d   1      -3.873  78.592 116.361  0.00  0.00     0.006 C 
ENDBRANCH   8   9
BRANCH   8  11
ATOM     11  C   LIG d   1      -4.199  75.207 114.698  0.00  0.00     0.028 C 
ATOM     12  C   LIG d   1      -2.662  75.203 114.694  0.00  0.00     0.006 C 
ENDBRANCH   8  11
ENDBRANCH   7   8
ENDBRANCH   1   7
BRANCH   6  13
ATOM     13  N   LIG d   1      -7.292  78.347 117.335  0.00  0.00    -0.311 N 
ATOM     14  C   LIG d   1      -7.506  79.653 117.485  0.00  0.00     0.210 C 
ATOM     15  C   LIG d   1      -6.586  80.347 118.495  0.00  0.00     0.109 C 
ATOM     16  O   LIG d   1      -8.391  80.296 116.902  0.00  0.00    -0.276 OA
ATOM     17  H   LIG d   1      -6.574  77.900 117.872  0.00  0.00     0.149 HD
ENDBRANCH   6  13
BRANCH   5  18
ATOM     18  N   LIG d   1     -10.341  78.201 117.208  0.00  0.00     0.381 N 
ATOM     19  H   LIG d   1      -9.902  79.052 116.921  0.00  0.00    -0.090 HD
ATOM     20  H   LIG d   1     -10.534  78.262 118.192  0.00  0.00    -0.090 HD
ATOM     21  H   LIG d   1     -11.189  78.069 116.703  0.00  0.00    -0.090 HD
ENDBRANCH   5  18
BRANCH   3  22
ATOM     22  C   LIG d   1      -9.903  73.863 115.226  0.00  0.00     0.382 C 
ATOM     23  O   LIG d   1      -9.874  72.895 116.024  0.00  0.00    -0.241 OA
ATOM     24  O   LIG d   1     -10.441  73.722 114.111  0.00  0.00    -0.241 OA
ENDBRANCH   3  22
TORSDOF 7
ENDMDL
