MODEL 1
REMARK VINA RESULT:      -6.0      0.000      0.000
REMARK  7 active torsions:
REMARK  status: ('A' for Active; 'I' for Inactive)
REMARK    1  A    between atoms: C_2  and  C_3 
REMARK    2  A    between atoms: C_3  and  O_6 
REMARK    3  A    between atoms: C_3  and  C_4 
REMARK    4  A    between atoms: C_7  and  O_6 
REMARK    5  A    between atoms: C_9  and  C_10 
REMARK    6  A    between atoms: N_15  and  C_14 
REMARK    7  A    between atoms: N_20  and  C_19 
REMARK       I    between atoms: C_22  and  N_20 
ROOT
ATOM      1  C   LIG d   1      -6.390  74.418 117.173  0.00  0.00     0.161 C 
ATOM      2  C   LIG d   1      -5.148  73.789 116.988  0.00  0.00     0.016 C 
ATOM      3  C   LIG d   1      -3.912  74.404 117.294  0.00  0.00     0.038 C 
ATOM      4  C   LIG d   1      -3.841  75.641 117.951  0.00  0.00     0.028 C 
ATOM      5  C   LIG d   1      -5.053  76.531 117.699  0.00  0.00    -0.047 C 
ATOM      6  C   LIG d   1      -6.339  75.724 117.993  0.00  0.00     0.091 C 
ENDROOT
BRANCH   1   7
ATOM      7  O   LIG d   1      -7.323  73.492 117.765  0.00  0.00    -0.368 OA
BRANCH   7   8
ATOM      8  C   LIG d   1      -8.057  72.650 116.842  0.00  0.00     0.119 C 
BRANCH   8   9
ATOM      9  C   LIG d   1      -9.559  72.869 117.110  0.00  0.00     0.028 C 
ATOM     10  C   LIG d   1     -10.112  74.104 116.378  0.00  0.00     0.006 C 
ENDBRANCH   8   9
BRANCH   8  11
ATOM     11  C   LIG d   1      -7.808  71.165 117.123  0.00  0.00     0.028 C 
ATOM     12  C   LIG d   1      -9.107  70.373 117.335  0.00  0.00     0.006 C 
ENDBRANCH   8  11
ENDBRANCH   7   8
ENDBRANCH   1   7
BRANCH   6  13
ATOM     13  N   LIG d   1      -7.573  76.494 117.690  0.00  0.00    -0.311 N 
ATOM     14  C   LIG d   1      -8.491  76.799 118.606  0.00  0.00     0.210 C 
ATOM     15  C   LIG d   1      -9.697  77.582 118.078  0.00  0.00     0.109 C 
ATOM     16  O   LIG d   1      -8.405  76.522 119.812  0.00  0.00    -0.276 OA
ATOM     17  H   LIG d   1      -7.708  76.786 116.742  0.00  0.00     0.149 HD
ENDBRANCH   6  13
BRANCH   5  18
ATOM     18  N   LIG d   1      -4.913  77.727 118.551  0.00  0.00     0.381 N 
ATOM     19  H   LIG d   1      -5.279  78.527 118.074  0.00  0.00    -0.090 HD
ATOM     20  H   LIG d   1      -3.938  77.886 118.731  0.00  0.00    -0.090 HD
ATOM     21  H   LIG d   1      -5.399  77.592 119.410  0.00  0.00    -0.090 HD
ENDBRANCH   5  18
BRANCH   3  22
ATOM     22  C   LIG d   1      -2.728  73.796 116.905  0.00  0.00     0.382 C 
ATOM     23  O   LIG d   1      -2.319  73.918 115.725  0.00  0.00    -0.241 OA
ATOM     24  O   LIG d   1      -2.086  73.092 117.706  0.00  0.00    -0.241 OA
ENDBRANCH   3  22
TORSDOF 7
ENDMDL
MODEL 2
REMARK VINA RESULT:      -5.9      1.792      5.180
REMARK  7 active torsions:
REMARK  status: ('A' for Active; 'I' for Inactive)
REMARK    1  A    between atoms: C_2  and  C_3 
REMARK    2  A    between atoms: C_3  and  O_6 
REMARK    3  A    between atoms: C_3  and  C_4 
REMARK    4  A    between atoms: C_7  and  O_6 
REMARK    5  A    between atoms: C_9  and  C_10 
REMARK    6  A    between atoms: N_15  and  C_14 
REMARK    7  A    between atoms: N_20  and  C_19 
REMARK       I    between atoms: C_22  and  N_20 
ROOT
ATOM      1  C   LIG d   1      -7.567  75.872 117.797  0.00  0.00     0.161 C 
ATOM      2  C   LIG d   1      -8.685  76.674 118.081  0.00  0.00     0.016 C 
ATOM      3  C   LIG d   1      -8.638  78.086 118.129  0.00  0.00     0.038 C 
ATOM      4  C   LIG d   1      -7.495  78.803 117.745  0.00  0.00     0.028 C 
ATOM      5  C   LIG d   1      -6.198  78.025 117.939  0.00  0.00    -0.047 C 
ATOM      6  C   LIG d   1      -6.338  76.640 117.267  0.00  0.00     0.091 C 
ENDROOT
BRANCH   1   7
ATOM      7  O   LIG d   1      -7.938  74.824 116.880  0.00  0.00    -0.368 OA
BRANCH   7   8
ATOM      8  C   LIG d   1      -8.311  73.558 117.476  0.00  0.00     0.119 C 
BRANCH   8   9
ATOM      9  C   LIG d   1      -7.180  72.555 117.180  0.00  0.00     0.028 C 
ATOM     10  C   LIG d   1      -7.672  71.097 117.180  0.00  0.00     0.006 C 
ENDBRANCH   8   9
BRANCH   8  11
ATOM     11  C   LIG d   1      -9.558  72.972 116.805  0.00  0.00     0.028 C 
ATOM     12  C   LIG d   1     -10.534  74.054 116.315  0.00  0.00     0.006 C 
ENDBRANCH   8  11
ENDBRANCH   7   8
ENDBRANCH   1   7
BRANCH   6  13
ATOM     13  N   LIG d   1      -5.144  75.782 117.482  0.00  0.00    -0.311 N 
ATOM     14  C   LIG d   1      -4.535  75.114 116.503  0.00  0.00     0.210 C 
ATOM     15  C   LIG d   1      -3.334  74.273 116.945  0.00  0.00     0.109 C 
ATOM     16  O   LIG d   1      -4.856  75.165 115.306  0.00  0.00    -0.276 OA
ATOM     17  H   LIG d   1      -4.798  75.708 118.418  0.00  0.00     0.149 HD
ENDBRANCH   6  13
BRANCH   5  18
ATOM     18  N   LIG d   1      -5.103  78.834 117.372  0.00  0.00     0.381 N 
ATOM     19  H   LIG d   1      -4.231  78.362 117.500  0.00  0.00    -0.090 HD
ATOM     20  H   LIG d   1      -5.061  79.712 117.860  0.00  0.00    -0.090 HD
ATOM     21  H   LIG d   1      -5.264  78.993 116.402  0.00  0.00    -0.090 HD
ENDBRANCH   5  18
BRANCH   3  22
ATOM     22  C   LIG d   1      -9.731  78.795 118.604  0.00  0.00     0.382 C 
ATOM     23  O   LIG d   1     -10.205  79.741 117.930  0.00  0.00    -0.241 OA
ATOM     24  O   LIG d   1     -10.222  78.528 119.717  0.00  0.00    -0.241 OA
ENDBRANCH   3  22
TORSDOF 7
ENDMDL
MODEL 3
REMARK VINA RESULT:      -5.8     15.343     18.103
REMARK  7 active torsions:
REMARK  status: ('A' for Active; 'I' for Inactive)
REMARK    1  A    between atoms: C_2  and  C_3 
REMARK    2  A    between atoms: C_3  and  O_6 
REMARK    3  A    between atoms: C_3  and  C_4 
REMARK    4  A    between atoms: C_7  and  O_6 
REMARK    5  A    between atoms: C_9  and  C_10 
REMARK    6  A    between atoms: N_15  and  C_14 
REMARK    7  A    between atoms: N_20  and  C_19 
REMARK       I    between atoms: C_22  and  N_20 
ROOT
ATOM      1  C   LIG d   1      -5.524  92.584 117.288  0.00  0.00     0.161 C 
ATOM      2  C   LIG d   1      -6.444  91.621 116.839  0.00  0.00     0.016 C 
ATOM      3  C   LIG d   1      -6.098  90.273 116.588  0.00  0.00     0.038 C 
ATOM      4  C   LIG d   1      -4.835  89.758 116.915  0.00  0.00     0.028 C 
ATOM      5  C   LIG d   1      -3.729  90.808 116.896  0.00  0.00    -0.047 C 
ATOM      6  C   LIG d   1      -4.169  92.015 117.756  0.00  0.00     0.091 C 
ENDROOT
BRANCH   1   7
ATOM      7  O   LIG d   1      -6.121  93.380 118.331  0.00  0.00    -0.368 OA
BRANCH   7   8
ATOM      8  C   LIG d   1      -7.534  93.166 118.567  0.00  0.00     0.119 C 
BRANCH   8   9
ATOM      9  C   LIG d   1      -8.267  94.471 118.202  0.00  0.00     0.028 C 
ATOM     10  C   LIG d   1      -7.555  95.718 118.754  0.00  0.00     0.006 C 
ENDBRANCH   8   9
BRANCH   8  11
ATOM     11  C   LIG d   1      -7.823  92.940 120.054  0.00  0.00     0.028 C 
ATOM     12  C   LIG d   1      -6.753  92.080 120.745  0.00  0.00     0.006 C 
ENDBRANCH   8  11
ENDBRANCH   7   8
ENDBRANCH   1   7
BRANCH   6  13
ATOM     13  N   LIG d   1      -3.180  93.124 117.723  0.00  0.00    -0.311 N 
ATOM     14  C   LIG d   1      -2.222  93.279 118.636  0.00  0.00     0.210 C 
ATOM     15  C   LIG d   1      -1.322  94.501 118.426  0.00  0.00     0.109 C 
ATOM     16  O   LIG d   1      -2.013  92.504 119.581  0.00  0.00    -0.276 OA
ATOM     17  H   LIG d   1      -3.257  93.782 116.973  0.00  0.00     0.149 HD
ENDBRANCH   6  13
BRANCH   5  18
ATOM     18  N   LIG d   1      -2.496  90.165 117.388  0.00  0.00     0.381 N 
ATOM     19  H   LIG d   1      -2.188  89.476 116.731  0.00  0.00    -0.090 HD
ATOM     20  H   LIG d   1      -2.695  89.704 118.259  0.00  0.00    -0.090 HD
ATOM     21  H   LIG d   1      -1.785  90.850 117.521  0.00  0.00    -0.090 HD
ENDBRANCH   5  18
BRANCH   3  22
ATOM     22  C   LIG d   1      -7.011  89.434 115.966  0.00  0.00     0.382 C 
ATOM     23  O   LIG d   1      -7.030  89.347 114.714  0.00  0.00    -0.241 OA
ATOM     24  O   LIG d   1      -7.844  88.798 116.638  0.00  0.00    -0.241 OA
ENDBRANCH   3  22
TORSDOF 7
ENDMDL
MODEL 4
REMARK VINA RESULT:      -5.4      2.506      5.799
REMARK  7 active torsions:
REMARK  status: ('A' for Active; 'I' for Inactive)
REMARK    1  A    between atoms: C_2  and  C_3 
REMARK    2  A    between atoms: C_3  and  O_6 
REMARK    3  A    between atoms: C_3  and  C_4 
REMARK    4  A    between atoms: C_7  and  O_6 
REMARK    5  A    between atoms: C_9  and  C_10 
REMARK    6  A    between atoms: N_15  and  C_14 
REMARK    7  A    between atoms: N_20  and  C_19 
REMARK       I    between atoms: C_22  and  N_20 
ROOT
ATOM      1  C   LIG d   1      -7.112  76.302 117.207  0.00  0.00     0.161 C 
ATOM      2  C   LIG d   1      -8.288  75.535 117.159  0.00  0.00     0.016 C 
ATOM      3  C   LIG d   1      -8.294  74.130 117.003  0.00  0.00     0.038 C 
ATOM      4  C   LIG d   1      -7.112  73.375 117.036  0.00  0.00     0.028 C 
ATOM      5  C   LIG d   1      -5.884  74.152 116.577  0.00  0.00    -0.047 C 
ATOM      6  C   LIG d   1      -5.812  75.485 117.357  0.00  0.00     0.091 C 
ENDROOT
BRANCH   1   7
ATOM      7  O   LIG d   1      -7.211  77.283 118.259  0.00  0.00    -0.368 OA
BRANCH   7   8
ATOM      8  C   LIG d   1      -7.816  78.548 117.896  0.00  0.00     0.119 C 
BRANCH   8   9
ATOM      9  C   LIG d   1      -6.703  79.614 117.910  0.00  0.00     0.028 C 
ATOM     10  C   LIG d   1      -7.262  81.047 117.918  0.00  0.00     0.006 C 
ENDBRANCH   8   9
BRANCH   8  11
ATOM     11  C   LIG d   1      -8.829  79.005 118.950  0.00  0.00     0.028 C 
ATOM     12  C   LIG d   1     -10.163  78.247 118.862  0.00  0.00     0.006 C 
ENDBRANCH   8  11
ENDBRANCH   7   8
ENDBRANCH   1   7
BRANCH   6  13
ATOM     13  N   LIG d   1      -4.686  76.345 116.908  0.00  0.00    -0.311 N 
ATOM     14  C   LIG d   1      -4.417  76.591 115.627  0.00  0.00     0.210 C 
ATOM     15  C   LIG d   1      -3.198  77.487 115.383  0.00  0.00     0.109 C 
ATOM     16  O   LIG d   1      -5.090  76.178 114.671  0.00  0.00    -0.276 OA
ATOM     17  H   LIG d   1      -4.107  76.746 117.620  0.00  0.00     0.149 HD
ENDBRANCH   6  13
BRANCH   5  18
ATOM     18  N   LIG d   1      -4.705  73.292 116.793  0.00  0.00     0.381 N 
ATOM     19  H   LIG d   1      -3.886  73.743 116.437  0.00  0.00    -0.090 HD
ATOM     20  H   LIG d   1      -4.834  72.432 116.290  0.00  0.00    -0.090 HD
ATOM     21  H   LIG d   1      -4.594  73.103 117.765  0.00  0.00    -0.090 HD
ENDBRANCH   5  18
BRANCH   3  22
ATOM     22  C   LIG d   1      -9.491  73.469 116.771  0.00  0.00     0.382 C 
ATOM     23  O   LIG d   1     -10.568  74.114 116.744  0.00  0.00    -0.241 OA
ATOM     24  O   LIG d   1      -9.514  72.232 116.632  0.00  0.00    -0.241 OA
ENDBRANCH   3  22
TORSDOF 7
ENDMDL
MODEL 5
REMARK VINA RESULT:      -5.3      2.180      5.126
REMARK  7 active torsions:
REMARK  status: ('A' for Active; 'I' for Inactive)
REMARK    1  A    between atoms: C_2  and  C_3 
REMARK    2  A    between atoms: C_3  and  O_6 
REMARK    3  A    between atoms: C_3  and  C_4 
REMARK    4  A    between atoms: C_7  and  O_6 
REMARK    5  A    between atoms: C_9  and  C_10 
REMARK    6  A    between atoms: N_15  and  C_14 
REMARK    7  A    between atoms: N_20  and  C_19 
REMARK       I    between atoms: C_22  and  N_20 
ROOT
ATOM      1  C   LIG d   1      -7.388  75.986 116.746  0.00  0.00     0.161 C 
ATOM      2  C   LIG d   1      -8.360  74.986 116.910  0.00  0.00     0.016 C 
ATOM      3  C   LIG d   1      -8.049  73.616 117.072  0.00  0.00     0.038 C 
ATOM      4  C   LIG d   1      -6.729  73.170 117.231  0.00  0.00     0.028 C 
ATOM      5  C   LIG d   1      -5.698  74.077 116.568  0.00  0.00    -0.047 C 
ATOM      6  C   LIG d   1      -5.940  75.532 117.029  0.00  0.00     0.091 C 
ENDROOT
BRANCH   1   7
ATOM      7  O   LIG d   1      -7.721  77.130 117.556  0.00  0.00    -0.368 OA
BRANCH   7   8
ATOM      8  C   LIG d   1      -8.724  76.916 118.579  0.00  0.00     0.119 C 
BRANCH   8   9
ATOM      9  C   LIG d   1      -9.793  78.015 118.417  0.00  0.00     0.028 C 
ATOM     10  C   LIG d   1      -9.186  79.428 118.422  0.00  0.00     0.006 C 
ENDBRANCH   8   9
BRANCH   8  11
ATOM     11  C   LIG d   1      -8.143  77.120 119.981  0.00  0.00     0.028 C 
ATOM     12  C   LIG d   1      -7.426  75.870 120.516  0.00  0.00     0.006 C 
ENDBRANCH   8  11
ENDBRANCH   7   8
ENDBRANCH   1   7
BRANCH   6  13
ATOM     13  N   LIG d   1      -5.028  76.497 116.361  0.00  0.00    -0.311 N 
ATOM     14  C   LIG d   1      -3.885  76.918 116.900  0.00  0.00     0.210 C 
ATOM     15  C   LIG d   1      -3.105  77.929 116.053  0.00  0.00     0.109 C 
ATOM     16  O   LIG d   1      -3.427  76.527 117.984  0.00  0.00    -0.276 OA
ATOM     17  H   LIG d   1      -5.307  76.842 115.464  0.00  0.00     0.149 HD
ENDBRANCH   6  13
BRANCH   5  18
ATOM     18  N   LIG d   1      -4.361  73.570 116.929  0.00  0.00     0.381 N 
ATOM     19  H   LIG d   1      -4.335  72.576 116.823  0.00  0.00    -0.090 HD
ATOM     20  H   LIG d   1      -4.179  73.790 117.892  0.00  0.00    -0.090 HD
ATOM     21  H   LIG d   1      -3.669  73.992 116.349  0.00  0.00    -0.090 HD
ENDBRANCH   5  18
BRANCH   3  22
ATOM     22  C   LIG d   1      -9.064  72.672 117.034  0.00  0.00     0.382 C 
ATOM     23  O   LIG d   1     -10.227  72.987 117.381  0.00  0.00    -0.241 OA
ATOM     24  O   LIG d   1      -8.821  71.496 116.700  0.00  0.00    -0.241 OA
ENDBRANCH   3  22
TORSDOF 7
ENDMDL
MODEL 6
REMARK VINA RESULT:      -5.3      1.971      5.480
REMARK  7 active torsions:
REMARK  status: ('A' for Active; 'I' for Inactive)
REMARK    1  A    between atoms: C_2  and  C_3 
REMARK    2  A    between atoms: C_3  and  O_6 
REMARK    3  A    between atoms: C_3  and  C_4 
REMARK    4  A    between atoms: C_7  and  O_6 
REMARK    5  A    between atoms: C_9  and  C_10 
REMARK    6  A    between atoms: N_15  and  C_14 
REMARK    7  A    between atoms: N_20  and  C_19 
REMARK       I    between atoms: C_22  and  N_20 
ROOT
ATOM      1  C   LIG d   1      -5.091  74.396 117.102  0.00  0.00     0.161 C 
ATOM      2  C   LIG d   1      -5.998  73.328 117.006  0.00  0.00     0.016 C 
ATOM      3  C   LIG d   1      -7.399  73.486 117.102  0.00  0.00     0.038 C 
ATOM      4  C   LIG d   1      -8.001  74.752 117.150  0.00  0.00     0.028 C 
ATOM      5  C   LIG d   1      -7.105  75.826 117.758  0.00  0.00    -0.047 C 
ATOM      6  C   LIG d   1      -5.734  75.797 117.044  0.00  0.00     0.091 C 
ENDROOT
BRANCH   1   7
ATOM      7  O   LIG d   1      -4.075  74.268 116.088  0.00  0.00    -0.368 OA
BRANCH   7   8
ATOM      8  C   LIG d   1      -2.749  73.916 116.553  0.00  0.00     0.119 C 
BRANCH   8   9
ATOM      9  C   LIG d   1      -2.755  74.025 118.091  0.00  0.00     0.028 C 
ATOM     10  C   LIG d   1      -1.631  73.202 118.741  0.00  0.00     0.006 C 
ENDBRANCH   8   9
BRANCH   8  11
ATOM     11  C   LIG d   1      -1.704  74.930 116.078  0.00  0.00     0.028 C 
ATOM     12  C   LIG d   1      -0.562  74.279 115.283  0.00  0.00     0.006 C 
ENDBRANCH   8  11
ENDBRANCH   7   8
ENDBRANCH   1   7
BRANCH   6  13
ATOM     13  N   LIG d   1      -4.768  76.761 117.634  0.00  0.00    -0.311 N 
ATOM     14  C   LIG d   1      -4.118  77.678 116.919  0.00  0.00     0.210 C 
ATOM     15  C   LIG d   1      -3.153  78.557 117.720  0.00  0.00     0.109 C 
ATOM     16  O   LIG d   1      -4.274  77.869 115.704  0.00  0.00    -0.276 OA
ATOM     17  H   LIG d   1      -4.604  76.697 118.619  0.00  0.00     0.149 HD
ENDBRANCH   6  13
BRANCH   5  18
ATOM     18  N   LIG d   1      -7.801  77.119 117.620  0.00  0.00     0.381 N 
ATOM     19  H   LIG d   1      -7.134  77.864 117.608  0.00  0.00    -0.090 HD
ATOM     20  H   LIG d   1      -8.405  77.249 118.413  0.00  0.00    -0.090 HD
ATOM     21  H   LIG d   1      -8.337  77.129 116.780  0.00  0.00    -0.090 HD
ENDBRANCH   5  18
BRANCH   3  22
ATOM     22  C   LIG d   1      -8.213  72.366 117.190  0.00  0.00     0.382 C 
ATOM     23  O   LIG d   1      -9.372  72.469 117.659  0.00  0.00    -0.241 OA
ATOM     24  O   LIG d   1      -7.786  71.247 116.850  0.00  0.00    -0.241 OA
ENDBRANCH   3  22
TORSDOF 7
ENDMDL
MODEL 7
REMARK VINA RESULT:      -5.1     14.793     17.393
REMARK  7 active torsions:
REMARK  status: ('A' for Active; 'I' for Inactive)
REMARK    1  A    between atoms: C_2  and  C_3 
REMARK    2  A    between atoms: C_3  and  O_6 
REMARK    3  A    between atoms: C_3  and  C_4 
REMARK    4  A    between atoms: C_7  and  O_6 
REMARK    5  A    between atoms: C_9  and  C_10 
REMARK    6  A    between atoms: N_15  and  C_14 
REMARK    7  A    between atoms: N_20  and  C_19 
REMARK       I    between atoms: C_22  and  N_20 
ROOT
ATOM      1  C   LIG d   1      -3.918  90.689 118.090  0.00  0.00     0.161 C 
ATOM      2  C   LIG d   1      -4.741  89.939 117.234  0.00  0.00     0.016 C 
ATOM      3  C   LIG d   1      -5.928  90.444 116.655  0.00  0.00     0.038 C 
ATOM      4  C   LIG d   1      -6.295  91.793 116.773  0.00  0.00     0.028 C 
ATOM      5  C   LIG d   1      -5.764  92.456 118.040  0.00  0.00    -0.047 C 
ATOM      6  C   LIG d   1      -4.243  92.197 118.142  0.00  0.00     0.091 C 
ENDROOT
BRANCH   1   7
ATOM      7  O   LIG d   1      -2.535  90.487 117.740  0.00  0.00    -0.368 OA
BRANCH   7   8
ATOM      8  C   LIG d   1      -1.749  89.705 118.673  0.00  0.00     0.119 C 
BRANCH   8   9
ATOM      9  C   LIG d   1      -0.345  90.337 118.739  0.00  0.00     0.028 C 
ATOM     10  C   LIG d   1       0.044  91.041 117.429  0.00  0.00     0.006 C 
ENDBRANCH   8   9
BRANCH   8  11
ATOM     11  C   LIG d   1      -1.528  88.280 118.158  0.00  0.00     0.028 C 
ATOM     12  C   LIG d   1      -2.015  87.207 119.144  0.00  0.00     0.006 C 
ENDBRANCH   8  11
ENDBRANCH   7   8
ENDBRANCH   1   7
BRANCH   6  13
ATOM     13  N   LIG d   1      -3.659  92.740 119.396  0.00  0.00    -0.311 N 
ATOM     14  C   LIG d   1      -2.586  93.528 119.423  0.00  0.00     0.210 C 
ATOM     15  C   LIG d   1      -2.136  93.961 120.823  0.00  0.00     0.109 C 
ATOM     16  O   LIG d   1      -1.983  93.937 118.420  0.00  0.00    -0.276 OA
ATOM     17  H   LIG d   1      -4.105  92.484 120.255  0.00  0.00     0.149 HD
ENDBRANCH   6  13
BRANCH   5  18
ATOM     18  N   LIG d   1      -6.102  93.890 117.968  0.00  0.00     0.381 N 
ATOM     19  H   LIG d   1      -6.872  94.087 118.575  0.00  0.00    -0.090 HD
ATOM     20  H   LIG d   1      -6.378  94.112 117.027  0.00  0.00    -0.090 HD
ATOM     21  H   LIG d   1      -5.314  94.440 118.229  0.00  0.00    -0.090 HD
ENDBRANCH   5  18
BRANCH   3  22
ATOM     22  C   LIG d   1      -6.783  89.586 115.980  0.00  0.00     0.382 C 
ATOM     23  O   LIG d   1      -7.656  88.945 116.613  0.00  0.00    -0.241 OA
ATOM     24  O   LIG d   1      -6.663  89.411 114.753  0.00  0.00    -0.241 OA
ENDBRANCH   3  22
TORSDOF 7
ENDMDL
MODEL 8
REMARK VINA RESULT:      -5.0      2.963      5.953
REMARK  7 active torsions:
REMARK  status: ('A' for Active; 'I' for Inactive)
REMARK    1  A    between atoms: C_2  and  C_3 
REMARK    2  A    between atoms: C_3  and  O_6 
REMARK    3  A    between atoms: C_3  and  C_4 
REMARK    4  A    between atoms: C_7  and  O_6 
REMARK    5  A    between atoms: C_9  and  C_10 
REMARK    6  A    between atoms: N_15  and  C_14 
REMARK    7  A    between atoms: N_20  and  C_19 
REMARK       I    between atoms: C_22  and  N_20 
ROOT
ATOM      1  C   LIG d   1      -6.656  77.696 117.530  0.00  0.00     0.161 C 
ATOM      2  C   LIG d   1      -6.981  76.393 117.116  0.00  0.00     0.016 C 
ATOM      3  C   LIG d   1      -8.274  75.836 117.241  0.00  0.00     0.038 C 
ATOM      4  C   LIG d   1      -9.375  76.603 117.652  0.00  0.00     0.028 C 
ATOM      5  C   LIG d   1      -8.996  77.771 118.556  0.00  0.00    -0.047 C 
ATOM      6  C   LIG d   1      -7.869  78.585 117.878  0.00  0.00     0.091 C 
ENDROOT
BRANCH   1   7
ATOM      7  O   LIG d   1      -5.837  78.336 116.532  0.00  0.00    -0.368 OA
BRANCH   7   8
ATOM      8  C   LIG d   1      -4.453  78.565 116.895  0.00  0.00     0.119 C 
BRANCH   8   9
ATOM      9  C   LIG d   1      -3.597  77.539 116.127  0.00  0.00     0.028 C 
ATOM     10  C   LIG d   1      -3.146  76.368 117.017  0.00  0.00     0.006 C 
ENDBRANCH   8   9
BRANCH   8  11
ATOM     11  C   LIG d   1      -4.209  78.268 118.378  0.00  0.00     0.028 C 
ATOM     12  C   LIG d   1      -3.736  79.502 119.163  0.00  0.00     0.006 C 
ENDBRANCH   8  11
ENDBRANCH   7   8
ENDBRANCH   1   7
BRANCH   6  13
ATOM     13  N   LIG d   1      -7.380  79.698 118.733  0.00  0.00    -0.311 N 
ATOM     14  C   LIG d   1      -7.240  80.949 118.299  0.00  0.00     0.210 C 
ATOM     15  C   LIG d   1      -6.702  81.938 119.338  0.00  0.00     0.109 C 
ATOM     16  O   LIG d   1      -7.540  81.340 117.161  0.00  0.00    -0.276 OA
ATOM     17  H   LIG d   1      -7.143  79.475 119.680  0.00  0.00     0.149 HD
ENDBRANCH   6  13
BRANCH   5  18
ATOM     18  N   LIG d   1     -10.216  78.564 118.796  0.00  0.00     0.381 N 
ATOM     19  H   LIG d   1     -10.282  79.299 118.120  0.00  0.00    -0.090 HD
ATOM     20  H   LIG d   1     -10.160  78.979 119.709  0.00  0.00    -0.090 HD
ATOM     21  H   LIG d   1     -11.020  77.978 118.739  0.00  0.00    -0.090 HD
ENDBRANCH   5  18
BRANCH   3  22
ATOM     22  C   LIG d   1      -8.469  74.487 116.990  0.00  0.00     0.382 C 
ATOM     23  O   LIG d   1      -9.630  74.012 116.976  0.00  0.00    -0.241 OA
ATOM     24  O   LIG d   1      -7.495  73.729 116.822  0.00  0.00    -0.241 OA
ENDBRANCH   3  22
TORSDOF 7
ENDMDL
MODEL 9
REMARK VINA RESULT:      -4.9      2.149      5.285
REMARK  7 active torsions:
REMARK  status: ('A' for Active; 'I' for Inactive)
REMARK    1  A    between atoms: C_2  and  C_3 
REMARK    2  A    between atoms: C_3  and  O_6 
REMARK    3  A    between atoms: C_3  and  C_4 
REMARK    4  A    between atoms: C_7  and  O_6 
REMARK    5  A    between atoms: C_9  and  C_10 
REMARK    6  A    between atoms: N_15  and  C_14 
REMARK    7  A    between atoms: N_20  and  C_19 
REMARK       I    between atoms: C_22  and  N_20 
ROOT
ATOM      1  C   LIG d   1      -6.018  75.492 117.565  0.00  0.00     0.161 C 
ATOM      2  C   LIG d   1      -6.867  74.434 117.200  0.00  0.00     0.016 C 
ATOM      3  C   LIG d   1      -8.270  74.567 117.084  0.00  0.00     0.038 C 
ATOM      4  C   LIG d   1      -8.907  75.813 117.179  0.00  0.00     0.028 C 
ATOM      5  C   LIG d   1      -8.151  76.816 118.043  0.00  0.00    -0.047 C 
ATOM      6  C   LIG d   1      -6.683  76.885 117.564  0.00  0.00     0.091 C 
ENDROOT
BRANCH   1   7
ATOM      7  O   LIG d   1      -4.850  75.494 116.722  0.00  0.00    -0.368 OA
BRANCH   7   8
ATOM      8  C   LIG d   1      -3.598  75.154 117.366  0.00  0.00     0.119 C 
BRANCH   8   9
ATOM      9  C   LIG d   1      -2.622  76.323 117.128  0.00  0.00     0.028 C 
ATOM     10  C   LIG d   1      -3.096  77.265 116.010  0.00  0.00     0.006 C 
ENDBRANCH   8   9
BRANCH   8  11
ATOM     11  C   LIG d   1      -2.943  73.938 116.705  0.00  0.00     0.028 C 
ATOM     12  C   LIG d   1      -1.448  73.810 117.040  0.00  0.00     0.006 C 
ENDBRANCH   8  11
ENDBRANCH   7   8
ENDBRANCH   1   7
BRANCH   6  13
ATOM     13  N   LIG d   1      -5.852  77.781 118.410  0.00  0.00    -0.311 N 
ATOM     14  C   LIG d   1      -5.643  79.066 118.131  0.00  0.00     0.210 C 
ATOM     15  C   LIG d   1      -4.738  79.804 119.123  0.00  0.00     0.109 C 
ATOM     16  O   LIG d   1      -6.146  79.673 117.174  0.00  0.00    -0.276 OA
ATOM     17  H   LIG d   1      -5.430  77.378 119.224  0.00  0.00     0.149 HD
ENDBRANCH   6  13
BRANCH   5  18
ATOM     18  N   LIG d   1      -8.853  78.110 117.943  0.00  0.00     0.381 N 
ATOM     19  H   LIG d   1      -9.560  78.167 118.649  0.00  0.00    -0.090 HD
ATOM     20  H   LIG d   1      -9.299  78.169 117.044  0.00  0.00    -0.090 HD
ATOM     21  H   LIG d   1      -8.205  78.859 118.050  0.00  0.00    -0.090 HD
ENDBRANCH   5  18
BRANCH   3  22
ATOM     22  C   LIG d   1      -9.055  73.437 116.909  0.00  0.00     0.382 C 
ATOM     23  O   LIG d   1      -8.515  72.314 116.771  0.00  0.00    -0.241 OA
ATOM     24  O   LIG d   1     -10.295  73.534 116.845  0.00  0.00    -0.241 OA
ENDBRANCH   3  22
TORSDOF 7
ENDMDL
