MODEL 1
REMARK VINA RESULT:      -5.8      0.000      0.000
REMARK  7 active torsions:
REMARK  status: ('A' for Active; 'I' for Inactive)
REMARK    1  A    between atoms: C_2  and  C_3 
REMARK    2  A    between atoms: C_3  and  O_6 
REMARK    3  A    between atoms: C_3  and  C_4 
REMARK    4  A    between atoms: C_7  and  O_6 
REMARK    5  A    between atoms: C_9  and  C_10 
REMARK    6  A    between atoms: N_15  and  C_14 
REMARK    7  A    between atoms: N_20  and  C_19 
REMARK       I    between atoms: C_22  and  N_20 
ROOT
ATOM      1  C   LIG d   1      -7.831  76.198 117.692  0.00  0.00     0.161 C 
ATOM      2  C   LIG d   1      -8.891  76.977 118.187  0.00  0.00     0.016 C 
ATOM      3  C   LIG d   1      -8.821  78.381 118.335  0.00  0.00     0.038 C 
ATOM      4  C   LIG d   1      -7.733  79.124 117.853  0.00  0.00     0.028 C 
ATOM      5  C   LIG d   1      -6.431  78.332 117.808  0.00  0.00    -0.047 C 
ATOM      6  C   LIG d   1      -6.678  77.003 117.058  0.00  0.00     0.091 C 
ENDROOT
BRANCH   1   7
ATOM      7  O   LIG d   1      -8.336  75.224 116.757  0.00  0.00    -0.368 OA
BRANCH   7   8
ATOM      8  C   LIG d   1      -8.284  73.841 117.187  0.00  0.00     0.119 C 
BRANCH   8   9
ATOM      9  C   LIG d   1      -7.433  73.069 116.160  0.00  0.00     0.028 C 
ATOM     10  C   LIG d   1      -7.985  71.661 115.881  0.00  0.00     0.006 C 
ENDBRANCH   8   9
BRANCH   8  11
ATOM     11  C   LIG d   1      -9.669  73.190 117.138  0.00  0.00     0.028 C 
ATOM     12  C   LIG d   1     -10.807  74.217 117.030  0.00  0.00     0.006 C 
ENDBRANCH   8  11
ENDBRANCH   7   8
ENDBRANCH   1   7
BRANCH   6  13
ATOM     13  N   LIG d   1      -5.476  76.129 117.042  0.00  0.00    -0.311 N 
ATOM     14  C   LIG d   1      -4.836  75.784 115.926  0.00  0.00     0.210 C 
ATOM     15  C   LIG d   1      -3.631  74.860 116.131  0.00  0.00     0.109 C 
ATOM     16  O   LIG d   1      -5.131  76.182 114.789  0.00  0.00    -0.276 OA
ATOM     17  H   LIG d   1      -5.148  75.787 117.924  0.00  0.00     0.149 HD
ENDBRANCH   6  13
BRANCH   5  18
ATOM     18  N   LIG d   1      -5.414  79.182 117.159  0.00  0.00     0.381 N 
ATOM     19  H   LIG d   1      -4.661  79.354 117.794  0.00  0.00    -0.090 HD
ATOM     20  H   LIG d   1      -5.833  80.063 116.919  0.00  0.00    -0.090 HD
ATOM     21  H   LIG d   1      -5.070  78.735 116.338  0.00  0.00    -0.090 HD
ENDBRANCH   5  18
BRANCH   3  22
ATOM     22  C   LIG d   1      -9.831  79.053 119.007  0.00  0.00     0.382 C 
ATOM     23  O   LIG d   1     -10.042  80.267 118.771  0.00  0.00    -0.241 OA
ATOM     24  O   LIG d   1     -10.505  78.471 119.878  0.00  0.00    -0.241 OA
ENDBRANCH   3  22
TORSDOF 7
ENDMDL
MODEL 2
REMARK VINA RESULT:      -5.7      1.833      5.018
REMARK  7 active torsions:
REMARK  status: ('A' for Active; 'I' for Inactive)
REMARK    1  A    between atoms: C_2  and  C_3 
REMARK    2  A    between atoms: C_3  and  O_6 
REMARK    3  A    between atoms: C_3  and  C_4 
REMARK    4  A    between atoms: C_7  and  O_6 
REMARK    5  A    between atoms: C_9  and  C_10 
REMARK    6  A    between atoms: N_15  and  C_14 
REMARK    7  A    between atoms: N_20  and  C_19 
REMARK       I    between atoms: C_22  and  N_20 
ROOT
ATOM      1  C   LIG d   1      -6.628  75.549 116.239  0.00  0.00     0.161 C 
ATOM      2  C   LIG d   1      -5.411  74.919 115.928  0.00  0.00     0.016 C 
ATOM      3  C   LIG d   1      -4.263  74.997 116.750  0.00  0.00     0.038 C 
ATOM      4  C   LIG d   1      -4.299  75.589 118.021  0.00  0.00     0.028 C 
ATOM      5  C   LIG d   1      -5.363  76.673 118.154  0.00  0.00    -0.047 C 
ATOM      6  C   LIG d   1      -6.719  76.106 117.675  0.00  0.00     0.091 C 
ENDROOT
BRANCH   1   7
ATOM      7  O   LIG d   1      -7.724  74.649 115.980  0.00  0.00    -0.368 OA
BRANCH   7   8
ATOM      8  C   LIG d   1      -7.782  73.461 116.807  0.00  0.00     0.119 C 
BRANCH   8   9
ATOM      9  C   LIG d   1      -7.814  72.242 115.864  0.00  0.00     0.028 C 
ATOM     10  C   LIG d   1      -8.676  71.095 116.418  0.00  0.00     0.006 C 
ENDBRANCH   8   9
BRANCH   8  11
ATOM     11  C   LIG d   1      -9.092  73.397 117.598  0.00  0.00     0.028 C 
ATOM     12  C   LIG d   1     -10.154  74.376 117.072  0.00  0.00     0.006 C 
ENDBRANCH   8  11
ENDBRANCH   7   8
ENDBRANCH   1   7
BRANCH   6  13
ATOM     13  N   LIG d   1      -7.799  77.128 117.693  0.00  0.00    -0.311 N 
ATOM     14  C   LIG d   1      -8.624  77.304 118.723  0.00  0.00     0.210 C 
ATOM     15  C   LIG d   1      -9.678  78.398 118.527  0.00  0.00     0.109 C 
ATOM     16  O   LIG d   1      -8.562  76.681 119.794  0.00  0.00    -0.276 OA
ATOM     17  H   LIG d   1      -7.900  77.699 116.877  0.00  0.00     0.149 HD
ENDBRANCH   6  13
BRANCH   5  18
ATOM     18  N   LIG d   1      -5.384  77.106 119.564  0.00  0.00     0.381 N 
ATOM     19  H   LIG d   1      -5.198  78.088 119.619  0.00  0.00    -0.090 HD
ATOM     20  H   LIG d   1      -4.660  76.621 120.064  0.00  0.00    -0.090 HD
ATOM     21  H   LIG d   1      -6.271  76.905 119.970  0.00  0.00    -0.090 HD
ENDBRANCH   5  18
BRANCH   3  22
ATOM     22  C   LIG d   1      -3.050  74.512 116.283  0.00  0.00     0.382 C 
ATOM     23  O   LIG d   1      -2.319  73.823 117.034  0.00  0.00    -0.241 OA
ATOM     24  O   LIG d   1      -2.657  74.794 115.135  0.00  0.00    -0.241 OA
ENDBRANCH   3  22
TORSDOF 7
ENDMDL
MODEL 3
REMARK VINA RESULT:      -5.2     18.191     20.263
REMARK  7 active torsions:
REMARK  status: ('A' for Active; 'I' for Inactive)
REMARK    1  A    between atoms: C_2  and  C_3 
REMARK    2  A    between atoms: C_3  and  O_6 
REMARK    3  A    between atoms: C_3  and  C_4 
REMARK    4  A    between atoms: C_7  and  O_6 
REMARK    5  A    between atoms: C_9  and  C_10 
REMARK    6  A    between atoms: N_15  and  C_14 
REMARK    7  A    between atoms: N_20  and  C_19 
REMARK       I    between atoms: C_22  and  N_20 
ROOT
ATOM      1  C   LIG d   1       0.228  57.586 118.528  0.00  0.00     0.161 C 
ATOM      2  C   LIG d   1       0.228  58.509 117.469  0.00  0.00     0.016 C 
ATOM      3  C   LIG d   1      -0.937  58.879 116.759  0.00  0.00     0.038 C 
ATOM      4  C   LIG d   1      -2.215  58.461 117.161  0.00  0.00     0.028 C 
ATOM      5  C   LIG d   1      -2.210  57.133 117.910  0.00  0.00    -0.047 C 
ATOM      6  C   LIG d   1      -1.172  57.205 119.054  0.00  0.00     0.091 C 
ENDROOT
BRANCH   1   7
ATOM      7  O   LIG d   1       1.050  58.078 119.605  0.00  0.00    -0.368 OA
BRANCH   7   8
ATOM      8  C   LIG d   1       1.295  59.506 119.619  0.00  0.00     0.119 C 
BRANCH   8   9
ATOM      9  C   LIG d   1       2.812  59.715 119.791  0.00  0.00     0.028 C 
ATOM     10  C   LIG d   1       3.532  59.921 118.448  0.00  0.00     0.006 C 
ENDBRANCH   8   9
BRANCH   8  11
ATOM     11  C   LIG d   1       0.653  60.170 120.841  0.00  0.00     0.028 C 
ATOM     12  C   LIG d   1      -0.812  60.568 120.603  0.00  0.00     0.006 C 
ENDBRANCH   8  11
ENDBRANCH   7   8
ENDBRANCH   1   7
BRANCH   6  13
ATOM     13  N   LIG d   1      -1.043  55.917 119.784  0.00  0.00    -0.311 N 
ATOM     14  C   LIG d   1      -1.721  55.633 120.895  0.00  0.00     0.210 C 
ATOM     15  C   LIG d   1      -1.425  54.257 121.500  0.00  0.00     0.109 C 
ATOM     16  O   LIG d   1      -2.564  56.377 121.418  0.00  0.00    -0.276 OA
ATOM     17  H   LIG d   1      -0.403  55.243 119.411  0.00  0.00     0.149 HD
ENDBRANCH   6  13
BRANCH   5  18
ATOM     18  N   LIG d   1      -3.583  56.886 118.390  0.00  0.00     0.381 N 
ATOM     19  H   LIG d   1      -4.226  57.463 117.886  0.00  0.00    -0.090 HD
ATOM     20  H   LIG d   1      -3.636  57.131 119.363  0.00  0.00    -0.090 HD
ATOM     21  H   LIG d   1      -3.819  55.926 118.268  0.00  0.00    -0.090 HD
ENDBRANCH   5  18
BRANCH   3  22
ATOM     22  C   LIG d   1      -0.827  59.643 115.607  0.00  0.00     0.382 C 
ATOM     23  O   LIG d   1      -1.839  59.858 114.898  0.00  0.00    -0.241 OA
ATOM     24  O   LIG d   1       0.281  60.084 115.246  0.00  0.00    -0.241 OA
ENDBRANCH   3  22
TORSDOF 7
ENDMDL
MODEL 4
REMARK VINA RESULT:      -5.2      2.138      5.187
REMARK  7 active torsions:
REMARK  status: ('A' for Active; 'I' for Inactive)
REMARK    1  A    between atoms: C_2  and  C_3 
REMARK    2  A    between atoms: C_3  and  O_6 
REMARK    3  A    between atoms: C_3  and  C_4 
REMARK    4  A    between atoms: C_7  and  O_6 
REMARK    5  A    between atoms: C_9  and  C_10 
REMARK    6  A    between atoms: N_15  and  C_14 
REMARK    7  A    between atoms: N_20  and  C_19 
REMARK       I    between atoms: C_22  and  N_20 
ROOT
ATOM      1  C   LIG d   1      -7.844  75.754 117.846  0.00  0.00     0.161 C 
ATOM      2  C   LIG d   1      -8.503  74.518 117.733  0.00  0.00     0.016 C 
ATOM      3  C   LIG d   1      -8.138  73.524 116.796  0.00  0.00     0.038 C 
ATOM      4  C   LIG d   1      -6.986  73.640 116.004  0.00  0.00     0.028 C 
ATOM      5  C   LIG d   1      -6.583  75.084 115.726  0.00  0.00    -0.047 C 
ATOM      6  C   LIG d   1      -6.516  75.853 117.066  0.00  0.00     0.091 C 
ENDROOT
BRANCH   1   7
ATOM      7  O   LIG d   1      -7.634  76.071 119.236  0.00  0.00    -0.368 OA
BRANCH   7   8
ATOM      8  C   LIG d   1      -8.345  77.228 119.740  0.00  0.00     0.119 C 
BRANCH   8   9
ATOM      9  C   LIG d   1      -9.154  77.821 118.571  0.00  0.00     0.028 C 
ATOM     10  C   LIG d   1      -8.878  79.320 118.367  0.00  0.00     0.006 C 
ENDBRANCH   8   9
BRANCH   8  11
ATOM     11  C   LIG d   1      -7.376  78.335 120.166  0.00  0.00     0.028 C 
ATOM     12  C   LIG d   1      -5.991  77.796 120.559  0.00  0.00     0.006 C 
ENDBRANCH   8  11
ENDBRANCH   7   8
ENDBRANCH   1   7
BRANCH   6  13
ATOM     13  N   LIG d   1      -6.211  77.295 116.878  0.00  0.00    -0.311 N 
ATOM     14  C   LIG d   1      -4.987  77.806 116.993  0.00  0.00     0.210 C 
ATOM     15  C   LIG d   1      -4.896  79.321 116.779  0.00  0.00     0.109 C 
ATOM     16  O   LIG d   1      -3.963  77.145 117.219  0.00  0.00    -0.276 OA
ATOM     17  H   LIG d   1      -6.980  77.899 116.660  0.00  0.00     0.149 HD
ENDBRANCH   6  13
BRANCH   5  18
ATOM     18  N   LIG d   1      -5.294  75.058 115.010  0.00  0.00     0.381 N 
ATOM     19  H   LIG d   1      -5.197  75.888 114.458  0.00  0.00    -0.090 HD
ATOM     20  H   LIG d   1      -5.282  74.266 114.392  0.00  0.00    -0.090 HD
ATOM     21  H   LIG d   1      -4.543  74.993 115.661  0.00  0.00    -0.090 HD
ENDBRANCH   5  18
BRANCH   3  22
ATOM     22  C   LIG d   1      -8.953  72.417 116.616  0.00  0.00     0.382 C 
ATOM     23  O   LIG d   1     -10.080  72.373 117.164  0.00  0.00    -0.241 OA
ATOM     24  O   LIG d   1      -8.556  71.443 115.949  0.00  0.00    -0.241 OA
ENDBRANCH   3  22
TORSDOF 7
ENDMDL
MODEL 5
REMARK VINA RESULT:      -5.1      1.905      2.905
REMARK  7 active torsions:
REMARK  status: ('A' for Active; 'I' for Inactive)
REMARK    1  A    between atoms: C_2  and  C_3 
REMARK    2  A    between atoms: C_3  and  O_6 
REMARK    3  A    between atoms: C_3  and  C_4 
REMARK    4  A    between atoms: C_7  and  O_6 
REMARK    5  A    between atoms: C_9  and  C_10 
REMARK    6  A    between atoms: N_15  and  C_14 
REMARK    7  A    between atoms: N_20  and  C_19 
REMARK       I    between atoms: C_22  and  N_20 
ROOT
ATOM      1  C   LIG d   1      -6.443  77.719 117.525  0.00  0.00     0.161 C 
ATOM      2  C   LIG d   1      -7.800  77.836 117.868  0.00  0.00     0.016 C 
ATOM      3  C   LIG d   1      -8.430  79.072 118.141  0.00  0.00     0.038 C 
ATOM      4  C   LIG d   1      -7.777  80.297 117.942  0.00  0.00     0.028 C 
ATOM      5  C   LIG d   1      -6.261  80.205 118.084  0.00  0.00    -0.047 C 
ATOM      6  C   LIG d   1      -5.742  79.053 117.194  0.00  0.00     0.091 C 
ENDROOT
BRANCH   1   7
ATOM      7  O   LIG d   1      -6.293  76.790 116.433  0.00  0.00    -0.368 OA
BRANCH   7   8
ATOM      8  C   LIG d   1      -6.110  75.400 116.799  0.00  0.00     0.119 C 
BRANCH   8   9
ATOM      9  C   LIG d   1      -4.601  75.173 117.016  0.00  0.00     0.028 C 
ATOM     10  C   LIG d   1      -3.802  75.249 115.705  0.00  0.00     0.006 C 
ENDBRANCH   8   9
BRANCH   8  11
ATOM     11  C   LIG d   1      -6.499  74.465 115.650  0.00  0.00     0.028 C 
ATOM     12  C   LIG d   1      -7.346  73.270 116.115  0.00  0.00     0.006 C 
ENDBRANCH   8  11
ENDBRANCH   7   8
ENDBRANCH   1   7
BRANCH   6  13
ATOM     13  N   LIG d   1      -4.278  78.840 117.339  0.00  0.00    -0.311 N 
ATOM     14  C   LIG d   1      -3.410  79.019 116.345  0.00  0.00     0.210 C 
ATOM     15  C   LIG d   1      -1.949  78.725 116.702  0.00  0.00     0.109 C 
ATOM     16  O   LIG d   1      -3.707  79.424 115.211  0.00  0.00    -0.276 OA
ATOM     17  H   LIG d   1      -3.947  78.541 118.235  0.00  0.00     0.149 HD
ENDBRANCH   6  13
BRANCH   5  18
ATOM     18  N   LIG d   1      -5.699  81.518 117.716  0.00  0.00     0.381 N 
ATOM     19  H   LIG d   1      -4.704  81.451 117.637  0.00  0.00    -0.090 HD
ATOM     20  H   LIG d   1      -5.913  82.179 118.443  0.00  0.00    -0.090 HD
ATOM     21  H   LIG d   1      -6.088  81.826 116.852  0.00  0.00    -0.090 HD
ENDBRANCH   5  18
BRANCH   3  22
ATOM     22  C   LIG d   1      -9.717  79.088 118.658  0.00  0.00     0.382 C 
ATOM     23  O   LIG d   1     -10.473  78.101 118.488  0.00  0.00    -0.241 OA
ATOM     24  O   LIG d   1     -10.145  80.094 119.255  0.00  0.00    -0.241 OA
ENDBRANCH   3  22
TORSDOF 7
ENDMDL
MODEL 6
REMARK VINA RESULT:      -5.0      2.470      6.003
REMARK  7 active torsions:
REMARK  status: ('A' for Active; 'I' for Inactive)
REMARK    1  A    between atoms: C_2  and  C_3 
REMARK    2  A    between atoms: C_3  and  O_6 
REMARK    3  A    between atoms: C_3  and  C_4 
REMARK    4  A    between atoms: C_7  and  O_6 
REMARK    5  A    between atoms: C_9  and  C_10 
REMARK    6  A    between atoms: N_15  and  C_14 
REMARK    7  A    between atoms: N_20  and  C_19 
REMARK       I    between atoms: C_22  and  N_20 
ROOT
ATOM      1  C   LIG d   1      -7.549  74.807 117.015  0.00  0.00     0.161 C 
ATOM      2  C   LIG d   1      -7.579  73.433 116.725  0.00  0.00     0.016 C 
ATOM      3  C   LIG d   1      -8.776  72.690 116.601  0.00  0.00     0.038 C 
ATOM      4  C   LIG d   1     -10.036  73.307 116.610  0.00  0.00     0.028 C 
ATOM      5  C   LIG d   1     -10.067  74.609 117.403  0.00  0.00    -0.047 C 
ATOM      6  C   LIG d   1      -8.914  75.519 116.919  0.00  0.00     0.091 C 
ENDROOT
BRANCH   1   7
ATOM      7  O   LIG d   1      -6.581  75.463 116.173  0.00  0.00    -0.368 OA
BRANCH   7   8
ATOM      8  C   LIG d   1      -5.204  75.408 116.621  0.00  0.00     0.119 C 
BRANCH   8   9
ATOM      9  C   LIG d   1      -4.941  76.672 117.462  0.00  0.00     0.028 C 
ATOM     10  C   LIG d   1      -5.505  77.942 116.806  0.00  0.00     0.006 C 
ENDBRANCH   8   9
BRANCH   8  11
ATOM     11  C   LIG d   1      -4.230  75.495 115.442  0.00  0.00     0.028 C 
ATOM     12  C   LIG d   1      -2.873  74.839 115.740  0.00  0.00     0.006 C 
ENDBRANCH   8  11
ENDBRANCH   7   8
ENDBRANCH   1   7
BRANCH   6  13
ATOM     13  N   LIG d   1      -8.820  76.779 117.701  0.00  0.00    -0.311 N 
ATOM     14  C   LIG d   1      -8.375  76.833 118.955  0.00  0.00     0.210 C 
ATOM     15  C   LIG d   1      -8.379  78.230 119.583  0.00  0.00     0.109 C 
ATOM     16  O   LIG d   1      -7.947  75.861 119.595  0.00  0.00    -0.276 OA
ATOM     17  H   LIG d   1      -9.117  77.621 117.247  0.00  0.00     0.149 HD
ENDBRANCH   6  13
BRANCH   5  18
ATOM     18  N   LIG d   1     -11.399  75.215 117.215  0.00  0.00     0.381 N 
ATOM     19  H   LIG d   1     -11.319  76.212 117.203  0.00  0.00    -0.090 HD
ATOM     20  H   LIG d   1     -11.986  74.954 117.987  0.00  0.00    -0.090 HD
ATOM     21  H   LIG d   1     -11.800  74.896 116.361  0.00  0.00    -0.090 HD
ENDBRANCH   5  18
BRANCH   3  22
ATOM     22  C   LIG d   1      -8.721  71.308 116.505  0.00  0.00     0.382 C 
ATOM     23  O   LIG d   1      -7.908  70.766 115.717  0.00  0.00    -0.241 OA
ATOM     24  O   LIG d   1      -9.503  70.597 117.164  0.00  0.00    -0.241 OA
ENDBRANCH   3  22
TORSDOF 7
ENDMDL
MODEL 7
REMARK VINA RESULT:      -5.0      2.551      5.371
REMARK  7 active torsions:
REMARK  status: ('A' for Active; 'I' for Inactive)
REMARK    1  A    between atoms: C_2  and  C_3 
REMARK    2  A    between atoms: C_3  and  O_6 
REMARK    3  A    between atoms: C_3  and  C_4 
REMARK    4  A    between atoms: C_7  and  O_6 
REMARK    5  A    between atoms: C_9  and  C_10 
REMARK    6  A    between atoms: N_15  and  C_14 
REMARK    7  A    between atoms: N_20  and  C_19 
REMARK       I    between atoms: C_22  and  N_20 
ROOT
ATOM      1  C   LIG d   1      -5.826  74.851 116.771  0.00  0.00     0.161 C 
ATOM      2  C   LIG d   1      -6.587  73.731 116.398  0.00  0.00     0.016 C 
ATOM      3  C   LIG d   1      -7.969  73.604 116.667  0.00  0.00     0.038 C 
ATOM      4  C   LIG d   1      -8.721  74.663 117.199  0.00  0.00     0.028 C 
ATOM      5  C   LIG d   1      -7.898  75.621 118.052  0.00  0.00    -0.047 C 
ATOM      6  C   LIG d   1      -6.651  76.063 117.252  0.00  0.00     0.091 C 
ENDROOT
BRANCH   1   7
ATOM      7  O   LIG d   1      -4.957  75.235 115.686  0.00  0.00    -0.368 OA
BRANCH   7   8
ATOM      8  C   LIG d   1      -3.547  74.959 115.870  0.00  0.00     0.119 C 
BRANCH   8   9
ATOM      9  C   LIG d   1      -3.372  74.366 117.282  0.00  0.00     0.028 C 
ATOM     10  C   LIG d   1      -2.484  75.242 118.181  0.00  0.00     0.006 C 
ENDBRANCH   8   9
BRANCH   8  11
ATOM     11  C   LIG d   1      -2.722  76.249 115.867  0.00  0.00     0.028 C 
ATOM     12  C   LIG d   1      -3.092  77.191 114.711  0.00  0.00     0.006 C 
ENDBRANCH   8  11
ENDBRANCH   7   8
ENDBRANCH   1   7
BRANCH   6  13
ATOM     13  N   LIG d   1      -5.748  76.936 118.045  0.00  0.00    -0.311 N 
ATOM     14  C   LIG d   1      -5.335  78.133 117.631  0.00  0.00     0.210 C 
ATOM     15  C   LIG d   1      -4.391  78.860 118.594  0.00  0.00     0.109 C 
ATOM     16  O   LIG d   1      -5.686  78.675 116.572  0.00  0.00    -0.276 OA
ATOM     17  H   LIG d   1      -5.439  76.588 118.931  0.00  0.00     0.149 HD
ENDBRANCH   6  13
BRANCH   5  18
ATOM     18  N   LIG d   1      -8.773  76.748 118.427  0.00  0.00     0.381 N 
ATOM     19  H   LIG d   1      -9.724  76.439 118.470  0.00  0.00    -0.090 HD
ATOM     20  H   LIG d   1      -8.705  77.461 117.722  0.00  0.00    -0.090 HD
ATOM     21  H   LIG d   1      -8.496  77.117 119.310  0.00  0.00    -0.090 HD
ENDBRANCH   5  18
BRANCH   3  22
ATOM     22  C   LIG d   1      -8.605  72.393 116.442  0.00  0.00     0.382 C 
ATOM     23  O   LIG d   1      -9.743  72.182 116.926  0.00  0.00    -0.241 OA
ATOM     24  O   LIG d   1      -8.036  71.491 115.797  0.00  0.00    -0.241 OA
ENDBRANCH   3  22
TORSDOF 7
ENDMDL
MODEL 8
REMARK VINA RESULT:      -4.9     17.975     20.043
REMARK  7 active torsions:
REMARK  status: ('A' for Active; 'I' for Inactive)
REMARK    1  A    between atoms: C_2  and  C_3 
REMARK    2  A    between atoms: C_3  and  O_6 
REMARK    3  A    between atoms: C_3  and  C_4 
REMARK    4  A    between atoms: C_7  and  O_6 
REMARK    5  A    between atoms: C_9  and  C_10 
REMARK    6  A    between atoms: N_15  and  C_14 
REMARK    7  A    between atoms: N_20  and  C_19 
REMARK       I    between atoms: C_22  and  N_20 
ROOT
ATOM      1  C   LIG d   1      -2.636  57.581 118.048  0.00  0.00     0.161 C 
ATOM      2  C   LIG d   1      -1.915  58.100 116.960  0.00  0.00     0.016 C 
ATOM      3  C   LIG d   1      -1.134  59.277 117.033  0.00  0.00     0.038 C 
ATOM      4  C   LIG d   1      -0.900  59.936 118.249  0.00  0.00     0.028 C 
ATOM      5  C   LIG d   1      -2.015  59.737 119.271  0.00  0.00    -0.047 C 
ATOM      6  C   LIG d   1      -2.304  58.225 119.410  0.00  0.00     0.091 C 
ENDROOT
BRANCH   1   7
ATOM      7  O   LIG d   1      -2.462  56.152 118.113  0.00  0.00    -0.368 OA
BRANCH   7   8
ATOM      8  C   LIG d   1      -1.205  55.687 118.662  0.00  0.00     0.119 C 
BRANCH   8   9
ATOM      9  C   LIG d   1      -0.492  54.874 117.564  0.00  0.00     0.028 C 
ATOM     10  C   LIG d   1       0.782  55.567 117.054  0.00  0.00     0.006 C 
ENDBRANCH   8   9
BRANCH   8  11
ATOM     11  C   LIG d   1      -1.429  54.704 119.814  0.00  0.00     0.028 C 
ATOM     12  C   LIG d   1      -2.905  54.308 119.981  0.00  0.00     0.006 C 
ENDBRANCH   8  11
ENDBRANCH   7   8
ENDBRANCH   1   7
BRANCH   6  13
ATOM     13  N   LIG d   1      -3.439  57.947 120.328  0.00  0.00    -0.311 N 
ATOM     14  C   LIG d   1      -3.283  57.632 121.613  0.00  0.00     0.210 C 
ATOM     15  C   LIG d   1      -4.584  57.365 122.376  0.00  0.00     0.109 C 
ATOM     16  O   LIG d   1      -2.192  57.580 122.201  0.00  0.00    -0.276 OA
ATOM     17  H   LIG d   1      -4.361  57.997 119.941  0.00  0.00     0.149 HD
ENDBRANCH   6  13
BRANCH   5  18
ATOM     18  N   LIG d   1      -1.578  60.361 120.534  0.00  0.00     0.381 N 
ATOM     19  H   LIG d   1      -1.190  59.665 121.139  0.00  0.00    -0.090 HD
ATOM     20  H   LIG d   1      -2.377  60.766 120.990  0.00  0.00    -0.090 HD
ATOM     21  H   LIG d   1      -0.899  61.066 120.349  0.00  0.00    -0.090 HD
ENDBRANCH   5  18
BRANCH   3  22
ATOM     22  C   LIG d   1      -0.611  59.828 115.873  0.00  0.00     0.382 C 
ATOM     23  O   LIG d   1       0.552  60.299 115.872  0.00  0.00    -0.241 OA
ATOM     24  O   LIG d   1      -1.304  59.901 114.841  0.00  0.00    -0.241 OA
ENDBRANCH   3  22
TORSDOF 7
ENDMDL
MODEL 9
REMARK VINA RESULT:      -4.9     17.649     19.627
REMARK  7 active torsions:
REMARK  status: ('A' for Active; 'I' for Inactive)
REMARK    1  A    between atoms: C_2  and  C_3 
REMARK    2  A    between atoms: C_3  and  O_6 
REMARK    3  A    between atoms: C_3  and  C_4 
REMARK    4  A    between atoms: C_7  and  O_6 
REMARK    5  A    between atoms: C_9  and  C_10 
REMARK    6  A    between atoms: N_15  and  C_14 
REMARK    7  A    between atoms: N_20  and  C_19 
REMARK       I    between atoms: C_22  and  N_20 
ROOT
ATOM      1  C   LIG d   1      -1.091  59.010 119.485  0.00  0.00     0.161 C 
ATOM      2  C   LIG d   1      -0.690  59.671 118.312  0.00  0.00     0.016 C 
ATOM      3  C   LIG d   1      -1.077  59.259 117.016  0.00  0.00     0.038 C 
ATOM      4  C   LIG d   1      -2.022  58.242 116.812  0.00  0.00     0.028 C 
ATOM      5  C   LIG d   1      -2.064  57.220 117.943  0.00  0.00    -0.047 C 
ATOM      6  C   LIG d   1      -2.211  57.966 119.289  0.00  0.00     0.091 C 
ENDROOT
BRANCH   1   7
ATOM      7  O   LIG d   1      -1.477  59.976 120.483  0.00  0.00    -0.368 OA
BRANCH   7   8
ATOM      8  C   LIG d   1      -0.715  59.959 121.715  0.00  0.00     0.119 C 
BRANCH   8   9
ATOM      9  C   LIG d   1      -0.426  61.422 122.102  0.00  0.00     0.028 C 
ATOM     10  C   LIG d   1      -1.478  61.992 123.068  0.00  0.00     0.006 C 
ENDBRANCH   8   9
BRANCH   8  11
ATOM     11  C   LIG d   1       0.659  59.314 121.512  0.00  0.00     0.028 C 
ATOM     12  C   LIG d   1       1.798  60.345 121.452  0.00  0.00     0.006 C 
ENDBRANCH   8  11
ENDBRANCH   7   8
ENDBRANCH   1   7
BRANCH   6  13
ATOM     13  N   LIG d   1      -2.176  57.045 120.455  0.00  0.00    -0.311 N 
ATOM     14  C   LIG d   1      -3.266  56.489 120.982  0.00  0.00     0.210 C 
ATOM     15  C   LIG d   1      -3.009  55.586 122.193  0.00  0.00     0.109 C 
ATOM     16  O   LIG d   1      -4.416  56.632 120.542  0.00  0.00    -0.276 OA
ATOM     17  H   LIG d   1      -1.280  56.849 120.855  0.00  0.00     0.149 HD
ENDBRANCH   6  13
BRANCH   5  18
ATOM     18  N   LIG d   1      -3.183  56.298 117.668  0.00  0.00     0.381 N 
ATOM     19  H   LIG d   1      -2.941  55.688 116.914  0.00  0.00    -0.090 HD
ATOM     20  H   LIG d   1      -3.987  56.835 117.394  0.00  0.00    -0.090 HD
ATOM     21  H   LIG d   1      -3.393  55.765 118.483  0.00  0.00    -0.090 HD
ENDBRANCH   5  18
BRANCH   3  22
ATOM     22  C   LIG d   1      -0.487  59.842 115.905  0.00  0.00     0.382 C 
ATOM     23  O   LIG d   1       0.670  60.321 115.989  0.00  0.00    -0.241 OA
ATOM     24  O   LIG d   1      -1.113  59.935 114.833  0.00  0.00    -0.241 OA
ENDBRANCH   3  22
TORSDOF 7
ENDMDL
