MODEL 1
REMARK VINA RESULT:      -5.8      0.000      0.000
REMARK  7 active torsions:
REMARK  status: ('A' for Active; 'I' for Inactive)
REMARK    1  A    between atoms: C_2  and  C_3 
REMARK    2  A    between atoms: C_3  and  O_6 
REMARK    3  A    between atoms: C_3  and  C_4 
REMARK    4  A    between atoms: C_7  and  O_6 
REMARK    5  A    between atoms: C_9  and  C_10 
REMARK    6  A    between atoms: N_15  and  C_14 
REMARK    7  A    between atoms: N_20  and  C_19 
REMARK       I    between atoms: C_22  and  N_20 
ROOT
ATOM      1  C   LIG d   1      -6.233  76.874 117.129  0.00  0.00     0.161 C 
ATOM      2  C   LIG d   1      -7.575  77.034 117.512  0.00  0.00     0.016 C 
ATOM      3  C   LIG d   1      -8.012  78.024 118.422  0.00  0.00     0.038 C 
ATOM      4  C   LIG d   1      -7.152  79.025 118.898  0.00  0.00     0.028 C 
ATOM      5  C   LIG d   1      -5.689  78.599 118.934  0.00  0.00    -0.047 C 
ATOM      6  C   LIG d   1      -5.298  78.026 117.553  0.00  0.00     0.091 C 
ENDROOT
BRANCH   1   7
ATOM      7  O   LIG d   1      -6.152  76.661 115.706  0.00  0.00    -0.368 OA
BRANCH   7   8
ATOM      8  C   LIG d   1      -6.299  75.291 115.258  0.00  0.00     0.119 C 
BRANCH   8   9
ATOM      9  C   LIG d   1      -5.793  74.376 116.390  0.00  0.00     0.028 C 
ATOM     10  C   LIG d   1      -6.212  72.910 116.192  0.00  0.00     0.006 C 
ENDBRANCH   8   9
BRANCH   8  11
ATOM     11  C   LIG d   1      -5.389  74.995 114.062  0.00  0.00     0.028 C 
ATOM     12  C   LIG d   1      -3.897  75.157 114.394  0.00  0.00     0.006 C 
ENDBRANCH   8  11
ENDBRANCH   7   8
ENDBRANCH   1   7
BRANCH   6  13
ATOM     13  N   LIG d   1      -3.905  77.509 117.527  0.00  0.00    -0.311 N 
ATOM     14  C   LIG d   1      -3.033  77.798 116.563  0.00  0.00     0.210 C 
ATOM     15  C   LIG d   1      -1.657  77.144 116.718  0.00  0.00     0.109 C 
ATOM     16  O   LIG d   1      -3.258  78.561 115.611  0.00  0.00    -0.276 OA
ATOM     17  H   LIG d   1      -3.628  76.907 118.278  0.00  0.00     0.149 HD
ENDBRANCH   6  13
BRANCH   5  18
ATOM     18  N   LIG d   1      -4.891  79.779 119.318  0.00  0.00     0.381 N 
ATOM     19  H   LIG d   1      -5.417  80.613 119.150  0.00  0.00    -0.090 HD
ATOM     20  H   LIG d   1      -4.062  79.809 118.751  0.00  0.00    -0.090 HD
ATOM     21  H   LIG d   1      -4.641  79.723 120.281  0.00  0.00    -0.090 HD
ENDBRANCH   5  18
BRANCH   3  22
ATOM     22  C   LIG d   1      -9.315  77.994 118.895  0.00  0.00     0.382 C 
ATOM     23  O   LIG d   1     -10.229  78.567 118.254  0.00  0.00    -0.241 OA
ATOM     24  O   LIG d   1      -9.581  77.441 119.979  0.00  0.00    -0.241 OA
ENDBRANCH   3  22
TORSDOF 7
ENDMDL
MODEL 2
REMARK VINA RESULT:      -5.6      3.066      5.885
REMARK  7 active torsions:
REMARK  status: ('A' for Active; 'I' for Inactive)
REMARK    1  A    between atoms: C_2  and  C_3 
REMARK    2  A    between atoms: C_3  and  O_6 
REMARK    3  A    between atoms: C_3  and  C_4 
REMARK    4  A    between atoms: C_7  and  O_6 
REMARK    5  A    between atoms: C_9  and  C_10 
REMARK    6  A    between atoms: N_15  and  C_14 
REMARK    7  A    between atoms: N_20  and  C_19 
REMARK       I    between atoms: C_22  and  N_20 
ROOT
ATOM      1  C   LIG d   1      -2.641  77.329 116.439  0.00  0.00     0.161 C 
ATOM      2  C   LIG d   1      -2.960  78.132 115.331  0.00  0.00     0.016 C 
ATOM      3  C   LIG d   1      -2.167  78.196 114.162  0.00  0.00     0.038 C 
ATOM      4  C   LIG d   1      -1.075  77.340 113.960  0.00  0.00     0.028 C 
ATOM      5  C   LIG d   1      -0.422  76.874 115.257  0.00  0.00    -0.047 C 
ATOM      6  C   LIG d   1      -1.514  76.305 116.192  0.00  0.00     0.091 C 
ENDROOT
BRANCH   1   7
ATOM      7  O   LIG d   1      -3.827  76.663 116.916  0.00  0.00    -0.368 OA
BRANCH   7   8
ATOM      8  C   LIG d   1      -4.711  76.129 115.901  0.00  0.00     0.119 C 
BRANCH   8   9
ATOM      9  C   LIG d   1      -6.156  76.452 116.328  0.00  0.00     0.028 C 
ATOM     10  C   LIG d   1      -6.215  77.504 117.448  0.00  0.00     0.006 C 
ENDBRANCH   8   9
BRANCH   8  11
ATOM     11  C   LIG d   1      -4.637  74.600 115.846  0.00  0.00     0.028 C 
ATOM     12  C   LIG d   1      -5.960  73.924 116.240  0.00  0.00     0.006 C 
ENDBRANCH   8  11
ENDBRANCH   7   8
ENDBRANCH   1   7
BRANCH   6  13
ATOM     13  N   LIG d   1      -0.973  75.903 117.516  0.00  0.00    -0.311 N 
ATOM     14  C   LIG d   1      -0.583  74.663 117.803  0.00  0.00     0.210 C 
ATOM     15  C   LIG d   1      -0.075  74.459 119.234  0.00  0.00     0.109 C 
ATOM     16  O   LIG d   1      -0.579  73.719 116.999  0.00  0.00    -0.276 OA
ATOM     17  H   LIG d   1      -0.912  76.614 118.219  0.00  0.00     0.149 HD
ENDBRANCH   6  13
BRANCH   5  18
ATOM     18  N   LIG d   1       0.612  75.882 114.904  0.00  0.00     0.381 N 
ATOM     19  H   LIG d   1       1.183  76.238 114.164  0.00  0.00    -0.090 HD
ATOM     20  H   LIG d   1       0.161  75.044 114.581  0.00  0.00    -0.090 HD
ATOM     21  H   LIG d   1       1.175  75.680 115.701  0.00  0.00    -0.090 HD
ENDBRANCH   5  18
BRANCH   3  22
ATOM     22  C   LIG d   1      -2.442  79.153 113.197  0.00  0.00     0.382 C 
ATOM     23  O   LIG d   1      -2.765  80.316 113.540  0.00  0.00    -0.241 OA
ATOM     24  O   LIG d   1      -2.415  78.856 111.987  0.00  0.00    -0.241 OA
ENDBRANCH   3  22
TORSDOF 7
ENDMDL
MODEL 3
REMARK VINA RESULT:      -5.6     13.940     16.160
REMARK  7 active torsions:
REMARK  status: ('A' for Active; 'I' for Inactive)
REMARK    1  A    between atoms: C_2  and  C_3 
REMARK    2  A    between atoms: C_3  and  O_6 
REMARK    3  A    between atoms: C_3  and  C_4 
REMARK    4  A    between atoms: C_7  and  O_6 
REMARK    5  A    between atoms: C_9  and  C_10 
REMARK    6  A    between atoms: N_15  and  C_14 
REMARK    7  A    between atoms: N_20  and  C_19 
REMARK       I    between atoms: C_22  and  N_20 
ROOT
ATOM      1  C   LIG d   1      -5.788  92.626 117.385  0.00  0.00     0.161 C 
ATOM      2  C   LIG d   1      -6.516  91.556 116.840  0.00  0.00     0.016 C 
ATOM      3  C   LIG d   1      -5.932  90.319 116.481  0.00  0.00     0.038 C 
ATOM      4  C   LIG d   1      -4.597  90.014 116.787  0.00  0.00     0.028 C 
ATOM      5  C   LIG d   1      -3.700  91.244 116.878  0.00  0.00    -0.047 C 
ATOM      6  C   LIG d   1      -4.353  92.272 117.829  0.00  0.00     0.091 C 
ENDROOT
BRANCH   1   7
ATOM      7  O   LIG d   1      -6.522  93.208 118.481  0.00  0.00    -0.368 OA
BRANCH   7   8
ATOM      8  C   LIG d   1      -6.764  94.634 118.399  0.00  0.00     0.119 C 
BRANCH   8   9
ATOM      9  C   LIG d   1      -6.595  95.215 119.817  0.00  0.00     0.028 C 
ATOM     10  C   LIG d   1      -5.862  94.248 120.762  0.00  0.00     0.006 C 
ENDBRANCH   8   9
BRANCH   8  11
ATOM     11  C   LIG d   1      -8.215  94.931 118.010  0.00  0.00     0.028 C 
ATOM     12  C   LIG d   1      -9.145  95.056 119.228  0.00  0.00     0.006 C 
ENDBRANCH   8  11
ENDBRANCH   7   8
ENDBRANCH   1   7
BRANCH   6  13
ATOM     13  N   LIG d   1      -3.581  93.540 117.908  0.00  0.00    -0.311 N 
ATOM     14  C   LIG d   1      -2.676  93.789 118.853  0.00  0.00     0.210 C 
ATOM     15  C   LIG d   1      -2.010  95.166 118.764  0.00  0.00     0.109 C 
ATOM     16  O   LIG d   1      -2.339  92.989 119.738  0.00  0.00    -0.276 OA
ATOM     17  H   LIG d   1      -3.770  94.234 117.211  0.00  0.00     0.149 HD
ENDBRANCH   6  13
BRANCH   5  18
ATOM     18  N   LIG d   1      -2.372  90.794 117.336  0.00  0.00     0.381 N 
ATOM     19  H   LIG d   1      -2.473  90.008 117.948  0.00  0.00    -0.090 HD
ATOM     20  H   LIG d   1      -1.936  91.539 117.850  0.00  0.00    -0.090 HD
ATOM     21  H   LIG d   1      -1.807  90.544 116.554  0.00  0.00    -0.090 HD
ENDBRANCH   5  18
BRANCH   3  22
ATOM     22  C   LIG d   1      -6.675  89.387 115.773  0.00  0.00     0.382 C 
ATOM     23  O   LIG d   1      -7.544  88.700 116.363  0.00  0.00    -0.241 OA
ATOM     24  O   LIG d   1      -6.457  89.194 114.562  0.00  0.00    -0.241 OA
ENDBRANCH   3  22
TORSDOF 7
ENDMDL
MODEL 4
REMARK VINA RESULT:      -5.5     13.818     16.211
REMARK  7 active torsions:
REMARK  status: ('A' for Active; 'I' for Inactive)
REMARK    1  A    between atoms: C_2  and  C_3 
REMARK    2  A    between atoms: C_3  and  O_6 
REMARK    3  A    between atoms: C_3  and  C_4 
REMARK    4  A    between atoms: C_7  and  O_6 
REMARK    5  A    between atoms: C_9  and  C_10 
REMARK    6  A    between atoms: N_15  and  C_14 
REMARK    7  A    between atoms: N_20  and  C_19 
REMARK       I    between atoms: C_22  and  N_20 
ROOT
ATOM      1  C   LIG d   1      -5.524  91.446 118.183  0.00  0.00     0.161 C 
ATOM      2  C   LIG d   1      -5.005  90.430 117.364  0.00  0.00     0.016 C 
ATOM      3  C   LIG d   1      -5.401  90.234 116.020  0.00  0.00     0.038 C 
ATOM      4  C   LIG d   1      -6.237  91.142 115.355  0.00  0.00     0.028 C 
ATOM      5  C   LIG d   1      -7.179  91.895 116.288  0.00  0.00    -0.047 C 
ATOM      6  C   LIG d   1      -6.355  92.513 117.441  0.00  0.00     0.091 C 
ENDROOT
BRANCH   1   7
ATOM      7  O   LIG d   1      -4.457  92.068 118.925  0.00  0.00    -0.368 OA
BRANCH   7   8
ATOM      8  C   LIG d   1      -3.922  93.294 118.367  0.00  0.00     0.119 C 
BRANCH   8   9
ATOM      9  C   LIG d   1      -2.451  93.029 117.993  0.00  0.00     0.028 C 
ATOM     10  C   LIG d   1      -1.597  94.308 118.027  0.00  0.00     0.006 C 
ENDBRANCH   8   9
BRANCH   8  11
ATOM     11  C   LIG d   1      -3.880  94.411 119.414  0.00  0.00     0.028 C 
ATOM     12  C   LIG d   1      -4.469  93.982 120.767  0.00  0.00     0.006 C 
ENDBRANCH   8  11
ENDBRANCH   7   8
ENDBRANCH   1   7
BRANCH   6  13
ATOM     13  N   LIG d   1      -7.210  93.197 118.446  0.00  0.00    -0.311 N 
ATOM     14  C   LIG d   1      -7.517  94.492 118.388  0.00  0.00     0.210 C 
ATOM     15  C   LIG d   1      -8.395  95.000 119.536  0.00  0.00     0.109 C 
ATOM     16  O   LIG d   1      -7.171  95.261 117.478  0.00  0.00    -0.276 OA
ATOM     17  H   LIG d   1      -7.559  92.641 119.202  0.00  0.00     0.149 HD
ENDBRANCH   6  13
BRANCH   5  18
ATOM     18  N   LIG d   1      -7.894  92.903 115.483  0.00  0.00     0.381 N 
ATOM     19  H   LIG d   1      -7.428  93.029 114.607  0.00  0.00    -0.090 HD
ATOM     20  H   LIG d   1      -7.884  93.779 115.975  0.00  0.00    -0.090 HD
ATOM     21  H   LIG d   1      -8.834  92.612 115.328  0.00  0.00    -0.090 HD
ENDBRANCH   5  18
BRANCH   3  22
ATOM     22  C   LIG d   1      -4.989  89.098 115.341  0.00  0.00     0.382 C 
ATOM     23  O   LIG d   1      -4.173  88.308 115.876  0.00  0.00    -0.241 OA
ATOM     24  O   LIG d   1      -5.389  88.875 114.182  0.00  0.00    -0.241 OA
ENDBRANCH   3  22
TORSDOF 7
ENDMDL
MODEL 5
REMARK VINA RESULT:      -5.4     12.925     14.836
REMARK  7 active torsions:
REMARK  status: ('A' for Active; 'I' for Inactive)
REMARK    1  A    between atoms: C_2  and  C_3 
REMARK    2  A    between atoms: C_3  and  O_6 
REMARK    3  A    between atoms: C_3  and  C_4 
REMARK    4  A    between atoms: C_7  and  O_6 
REMARK    5  A    between atoms: C_9  and  C_10 
REMARK    6  A    between atoms: N_15  and  C_14 
REMARK    7  A    between atoms: N_20  and  C_19 
REMARK       I    between atoms: C_22  and  N_20 
ROOT
ATOM      1  C   LIG d   1      -3.876  91.037 117.731  0.00  0.00     0.161 C 
ATOM      2  C   LIG d   1      -4.542  90.129 116.892  0.00  0.00     0.016 C 
ATOM      3  C   LIG d   1      -5.756  90.427 116.232  0.00  0.00     0.038 C 
ATOM      4  C   LIG d   1      -6.311  91.715 116.246  0.00  0.00     0.028 C 
ATOM      5  C   LIG d   1      -5.942  92.520 117.487  0.00  0.00    -0.047 C 
ATOM      6  C   LIG d   1      -4.408  92.485 117.670  0.00  0.00     0.091 C 
ENDROOT
BRANCH   1   7
ATOM      7  O   LIG d   1      -2.461  91.011 117.454  0.00  0.00    -0.368 OA
BRANCH   7   8
ATOM      8  C   LIG d   1      -1.622  90.418 118.475  0.00  0.00     0.119 C 
BRANCH   8   9
ATOM      9  C   LIG d   1      -1.151  89.049 117.949  0.00  0.00     0.028 C 
ATOM     10  C   LIG d   1      -1.999  87.887 118.493  0.00  0.00     0.006 C 
ENDBRANCH   8   9
BRANCH   8  11
ATOM     11  C   LIG d   1      -2.422  90.111 119.744  0.00  0.00     0.028 C 
ATOM     12  C   LIG d   1      -1.921  90.893 120.968  0.00  0.00     0.006 C 
ENDBRANCH   8  11
ENDBRANCH   7   8
ENDBRANCH   1   7
BRANCH   6  13
ATOM     13  N   LIG d   1      -3.968  93.178 118.909  0.00  0.00    -0.311 N 
ATOM     14  C   LIG d   1      -2.927  94.007 118.956  0.00  0.00     0.210 C 
ATOM     15  C   LIG d   1      -2.633  94.600 120.337  0.00  0.00     0.109 C 
ATOM     16  O   LIG d   1      -2.238  94.333 117.977  0.00  0.00    -0.276 OA
ATOM     17  H   LIG d   1      -4.490  92.995 119.744  0.00  0.00     0.149 HD
ENDBRANCH   6  13
BRANCH   5  18
ATOM     18  N   LIG d   1      -6.471  93.885 117.307  0.00  0.00     0.381 N 
ATOM     19  H   LIG d   1      -7.284  94.012 117.877  0.00  0.00    -0.090 HD
ATOM     20  H   LIG d   1      -6.738  94.006 116.346  0.00  0.00    -0.090 HD
ATOM     21  H   LIG d   1      -5.776  94.556 117.553  0.00  0.00    -0.090 HD
ENDBRANCH   5  18
BRANCH   3  22
ATOM     22  C   LIG d   1      -6.449  89.419 115.579  0.00  0.00     0.382 C 
ATOM     23  O   LIG d   1      -7.300  88.739 116.202  0.00  0.00    -0.241 OA
ATOM     24  O   LIG d   1      -6.202  89.151 114.388  0.00  0.00    -0.241 OA
ENDBRANCH   3  22
TORSDOF 7
ENDMDL
MODEL 6
REMARK VINA RESULT:      -5.3     13.063     15.165
REMARK  7 active torsions:
REMARK  status: ('A' for Active; 'I' for Inactive)
REMARK    1  A    between atoms: C_2  and  C_3 
REMARK    2  A    between atoms: C_3  and  O_6 
REMARK    3  A    between atoms: C_3  and  C_4 
REMARK    4  A    between atoms: C_7  and  O_6 
REMARK    5  A    between atoms: C_9  and  C_10 
REMARK    6  A    between atoms: N_15  and  C_14 
REMARK    7  A    between atoms: N_20  and  C_19 
REMARK       I    between atoms: C_22  and  N_20 
ROOT
ATOM      1  C   LIG d   1      -4.999  91.088 118.368  0.00  0.00     0.161 C 
ATOM      2  C   LIG d   1      -4.857  90.163 117.320  0.00  0.00     0.016 C 
ATOM      3  C   LIG d   1      -5.497  90.304 116.066  0.00  0.00     0.038 C 
ATOM      4  C   LIG d   1      -6.205  91.465 115.722  0.00  0.00     0.028 C 
ATOM      5  C   LIG d   1      -6.793  92.195 116.924  0.00  0.00    -0.047 C 
ATOM      6  C   LIG d   1      -5.678  92.415 117.972  0.00  0.00     0.091 C 
ENDROOT
BRANCH   1   7
ATOM      7  O   LIG d   1      -3.715  91.342 118.971  0.00  0.00    -0.368 OA
BRANCH   7   8
ATOM      8  C   LIG d   1      -2.588  90.641 118.391  0.00  0.00     0.119 C 
BRANCH   8   9
ATOM      9  C   LIG d   1      -1.993  89.735 119.486  0.00  0.00     0.028 C 
ATOM     10  C   LIG d   1      -2.131  88.241 119.150  0.00  0.00     0.006 C 
ENDBRANCH   8   9
BRANCH   8  11
ATOM     11  C   LIG d   1      -1.464  91.610 118.012  0.00  0.00     0.028 C 
ATOM     12  C   LIG d   1      -1.960  93.053 117.821  0.00  0.00     0.006 C 
ENDBRANCH   8  11
ENDBRANCH   7   8
ENDBRANCH   1   7
BRANCH   6  13
ATOM     13  N   LIG d   1      -6.187  93.049 119.216  0.00  0.00    -0.311 N 
ATOM     14  C   LIG d   1      -5.642  94.135 119.761  0.00  0.00     0.210 C 
ATOM     15  C   LIG d   1      -6.309  94.613 121.055  0.00  0.00     0.109 C 
ATOM     16  O   LIG d   1      -4.690  94.767 119.279  0.00  0.00    -0.276 OA
ATOM     17  H   LIG d   1      -6.977  92.620 119.657  0.00  0.00     0.149 HD
ENDBRANCH   6  13
BRANCH   5  18
ATOM     18  N   LIG d   1      -7.385  93.455 116.435  0.00  0.00     0.381 N 
ATOM     19  H   LIG d   1      -6.742  94.208 116.577  0.00  0.00    -0.090 HD
ATOM     20  H   LIG d   1      -8.218  93.648 116.962  0.00  0.00    -0.090 HD
ATOM     21  H   LIG d   1      -7.605  93.374 115.467  0.00  0.00    -0.090 HD
ENDBRANCH   5  18
BRANCH   3  22
ATOM     22  C   LIG d   1      -5.463  89.258 115.157  0.00  0.00     0.382 C 
ATOM     23  O   LIG d   1      -4.621  88.338 115.290  0.00  0.00    -0.241 OA
ATOM     24  O   LIG d   1      -6.236  89.246 114.180  0.00  0.00    -0.241 OA
ENDBRANCH   3  22
TORSDOF 7
ENDMDL
MODEL 7
REMARK VINA RESULT:      -5.3      9.889     12.621
REMARK  7 active torsions:
REMARK  status: ('A' for Active; 'I' for Inactive)
REMARK    1  A    between atoms: C_2  and  C_3 
REMARK    2  A    between atoms: C_3  and  O_6 
REMARK    3  A    between atoms: C_3  and  C_4 
REMARK    4  A    between atoms: C_7  and  O_6 
REMARK    5  A    between atoms: C_9  and  C_10 
REMARK    6  A    between atoms: N_15  and  C_14 
REMARK    7  A    between atoms: N_20  and  C_19 
REMARK       I    between atoms: C_22  and  N_20 
ROOT
ATOM      1  C   LIG d   1       1.924  85.367 113.858  0.00  0.00     0.161 C 
ATOM      2  C   LIG d   1       1.165  84.315 113.318  0.00  0.00     0.016 C 
ATOM      3  C   LIG d   1      -0.170  84.044 113.696  0.00  0.00     0.038 C 
ATOM      4  C   LIG d   1      -0.892  84.906 114.535  0.00  0.00     0.028 C 
ATOM      5  C   LIG d   1      -0.009  85.696 115.496  0.00  0.00    -0.047 C 
ATOM      6  C   LIG d   1       1.117  86.384 114.692  0.00  0.00     0.091 C 
ENDROOT
BRANCH   1   7
ATOM      7  O   LIG d   1       2.644  86.040 112.807  0.00  0.00    -0.368 OA
BRANCH   7   8
ATOM      8  C   LIG d   1       4.079  85.841 112.789  0.00  0.00     0.119 C 
BRANCH   8   9
ATOM      9  C   LIG d   1       4.706  87.059 112.082  0.00  0.00     0.028 C 
ATOM     10  C   LIG d   1       5.554  87.918 113.035  0.00  0.00     0.006 C 
ENDBRANCH   8   9
BRANCH   8  11
ATOM     11  C   LIG d   1       4.464  84.632 111.931  0.00  0.00     0.028 C 
ATOM     12  C   LIG d   1       4.986  83.451 112.765  0.00  0.00     0.006 C 
ENDBRANCH   8  11
ENDBRANCH   7   8
ENDBRANCH   1   7
BRANCH   6  13
ATOM     13  N   LIG d   1       2.076  87.109 115.566  0.00  0.00    -0.311 N 
ATOM     14  C   LIG d   1       2.583  88.304 115.266  0.00  0.00     0.210 C 
ATOM     15  C   LIG d   1       3.569  88.865 116.295  0.00  0.00     0.109 C 
ATOM     16  O   LIG d   1       2.286  88.965 114.260  0.00  0.00    -0.276 OA
ATOM     17  H   LIG d   1       2.347  86.659 116.418  0.00  0.00     0.149 HD
ENDBRANCH   6  13
BRANCH   5  18
ATOM     18  N   LIG d   1      -0.875  86.652 116.213  0.00  0.00     0.381 N 
ATOM     19  H   LIG d   1      -0.682  87.583 115.902  0.00  0.00    -0.090 HD
ATOM     20  H   LIG d   1      -0.672  86.599 117.196  0.00  0.00    -0.090 HD
ATOM     21  H   LIG d   1      -1.833  86.431 116.052  0.00  0.00    -0.090 HD
ENDBRANCH   5  18
BRANCH   3  22
ATOM     22  C   LIG d   1      -0.784  82.879 113.264  0.00  0.00     0.382 C 
ATOM     23  O   LIG d   1      -0.116  82.006 112.659  0.00  0.00    -0.241 OA
ATOM     24  O   LIG d   1      -2.006  82.709 113.433  0.00  0.00    -0.241 OA
ENDBRANCH   3  22
TORSDOF 7
ENDMDL
MODEL 8
REMARK VINA RESULT:      -5.1     14.545     16.167
REMARK  7 active torsions:
REMARK  status: ('A' for Active; 'I' for Inactive)
REMARK    1  A    between atoms: C_2  and  C_3 
REMARK    2  A    between atoms: C_3  and  O_6 
REMARK    3  A    between atoms: C_3  and  C_4 
REMARK    4  A    between atoms: C_7  and  O_6 
REMARK    5  A    between atoms: C_9  and  C_10 
REMARK    6  A    between atoms: N_15  and  C_14 
REMARK    7  A    between atoms: N_20  and  C_19 
REMARK       I    between atoms: C_22  and  N_20 
ROOT
ATOM      1  C   LIG d   1      -5.832  92.773 118.055  0.00  0.00     0.161 C 
ATOM      2  C   LIG d   1      -7.088  93.397 117.982  0.00  0.00     0.016 C 
ATOM      3  C   LIG d   1      -7.328  94.718 118.425  0.00  0.00     0.038 C 
ATOM      4  C   LIG d   1      -6.286  95.563 118.835  0.00  0.00     0.028 C 
ATOM      5  C   LIG d   1      -5.085  94.813 119.400  0.00  0.00    -0.047 C 
ATOM      6  C   LIG d   1      -4.660  93.717 118.396  0.00  0.00     0.091 C 
ENDROOT
BRANCH   1   7
ATOM      7  O   LIG d   1      -5.565  92.067 116.827  0.00  0.00    -0.368 OA
BRANCH   7   8
ATOM      8  C   LIG d   1      -6.055  90.705 116.756  0.00  0.00     0.119 C 
BRANCH   8   9
ATOM      9  C   LIG d   1      -4.890  89.818 116.278  0.00  0.00     0.028 C 
ATOM     10  C   LIG d   1      -3.731  89.776 117.289  0.00  0.00     0.006 C 
ENDBRANCH   8   9
BRANCH   8  11
ATOM     11  C   LIG d   1      -7.141  90.560 115.685  0.00  0.00     0.028 C 
ATOM     12  C   LIG d   1      -6.711  91.120 114.320  0.00  0.00     0.006 C 
ENDBRANCH   8  11
ENDBRANCH   7   8
ENDBRANCH   1   7
BRANCH   6  13
ATOM     13  N   LIG d   1      -3.543  92.881 118.908  0.00  0.00    -0.311 N 
ATOM     14  C   LIG d   1      -2.267  93.083 118.582  0.00  0.00     0.210 C 
ATOM     15  C   LIG d   1      -1.277  92.094 119.205  0.00  0.00     0.109 C 
ATOM     16  O   LIG d   1      -1.858  94.006 117.862  0.00  0.00    -0.276 OA
ATOM     17  H   LIG d   1      -3.782  92.129 119.524  0.00  0.00     0.149 HD
ENDBRANCH   6  13
BRANCH   5  18
ATOM     18  N   LIG d   1      -4.022  95.804 119.658  0.00  0.00     0.381 N 
ATOM     19  H   LIG d   1      -3.955  95.980 120.641  0.00  0.00    -0.090 HD
ATOM     20  H   LIG d   1      -4.262  96.665 119.199  0.00  0.00    -0.090 HD
ATOM     21  H   LIG d   1      -3.151  95.467 119.313  0.00  0.00    -0.090 HD
ENDBRANCH   5  18
BRANCH   3  22
ATOM     22  C   LIG d   1      -8.629  95.192 118.499  0.00  0.00     0.382 C 
ATOM     23  O   LIG d   1      -9.542  94.452 118.938  0.00  0.00    -0.241 OA
ATOM     24  O   LIG d   1      -8.909  96.335 118.091  0.00  0.00    -0.241 OA
ENDBRANCH   3  22
TORSDOF 7
ENDMDL
MODEL 9
REMARK VINA RESULT:      -5.1      2.525      3.634
REMARK  7 active torsions:
REMARK  status: ('A' for Active; 'I' for Inactive)
REMARK    1  A    between atoms: C_2  and  C_3 
REMARK    2  A    between atoms: C_3  and  O_6 
REMARK    3  A    between atoms: C_3  and  C_4 
REMARK    4  A    between atoms: C_7  and  O_6 
REMARK    5  A    between atoms: C_9  and  C_10 
REMARK    6  A    between atoms: N_15  and  C_14 
REMARK    7  A    between atoms: N_20  and  C_19 
REMARK       I    between atoms: C_22  and  N_20 
ROOT
ATOM      1  C   LIG d   1      -6.956  79.272 118.383  0.00  0.00     0.161 C 
ATOM      2  C   LIG d   1      -8.106  79.933 117.922  0.00  0.00     0.016 C 
ATOM      3  C   LIG d   1      -8.470  81.237 118.328  0.00  0.00     0.038 C 
ATOM      4  C   LIG d   1      -7.622  82.033 119.113  0.00  0.00     0.028 C 
ATOM      5  C   LIG d   1      -6.692  81.224 120.011  0.00  0.00    -0.047 C 
ATOM      6  C   LIG d   1      -5.961  80.166 119.153  0.00  0.00     0.091 C 
ENDROOT
BRANCH   1   7
ATOM      7  O   LIG d   1      -6.293  78.618 117.283  0.00  0.00    -0.368 OA
BRANCH   7   8
ATOM      8  C   LIG d   1      -6.052  77.198 117.437  0.00  0.00     0.119 C 
BRANCH   8   9
ATOM      9  C   LIG d   1      -4.785  76.853 116.631  0.00  0.00     0.028 C 
ATOM     10  C   LIG d   1      -3.637  77.843 116.890  0.00  0.00     0.006 C 
ENDBRANCH   8   9
BRANCH   8  11
ATOM     11  C   LIG d   1      -7.174  76.370 116.803  0.00  0.00     0.028 C 
ATOM     12  C   LIG d   1      -6.723  75.629 115.535  0.00  0.00     0.006 C 
ENDBRANCH   8  11
ENDBRANCH   7   8
ENDBRANCH   1   7
BRANCH   6  13
ATOM     13  N   LIG d   1      -5.094  79.277 119.968  0.00  0.00    -0.311 N 
ATOM     14  C   LIG d   1      -3.807  79.523 120.205  0.00  0.00     0.210 C 
ATOM     15  C   LIG d   1      -3.091  78.467 121.053  0.00  0.00     0.109 C 
ATOM     16  O   LIG d   1      -3.198  80.532 119.819  0.00  0.00    -0.276 OA
ATOM     17  H   LIG d   1      -5.515  78.450 120.346  0.00  0.00     0.149 HD
ENDBRANCH   6  13
BRANCH   5  18
ATOM     18  N   LIG d   1      -5.773  82.172 120.668  0.00  0.00     0.381 N 
ATOM     19  H   LIG d   1      -5.905  83.089 120.291  0.00  0.00    -0.090 HD
ATOM     20  H   LIG d   1      -4.827  81.888 120.483  0.00  0.00    -0.090 HD
ATOM     21  H   LIG d   1      -5.938  82.182 121.650  0.00  0.00    -0.090 HD
ENDBRANCH   5  18
BRANCH   3  22
ATOM     22  C   LIG d   1      -9.714  81.743 117.981  0.00  0.00     0.382 C 
ATOM     23  O   LIG d   1     -10.160  82.762 118.561  0.00  0.00    -0.241 OA
ATOM     24  O   LIG d   1     -10.414  81.168 117.126  0.00  0.00    -0.241 OA
ENDBRANCH   3  22
TORSDOF 7
ENDMDL
