MODEL 1
REMARK VINA RESULT:      -6.0      0.000      0.000
REMARK  7 active torsions:
REMARK  status: ('A' for Active; 'I' for Inactive)
REMARK    1  A    between atoms: C_2  and  C_3 
REMARK    2  A    between atoms: C_3  and  O_6 
REMARK    3  A    between atoms: C_3  and  C_4 
REMARK    4  A    between atoms: C_7  and  O_6 
REMARK    5  A    between atoms: C_9  and  C_10 
REMARK    6  A    between atoms: N_15  and  C_14 
REMARK    7  A    between atoms: N_20  and  C_19 
REMARK       I    between atoms: C_22  and  N_20 
ROOT
ATOM      1  C   LIG d   1      -7.084  75.950 116.371  0.00  0.00     0.161 C 
ATOM      2  C   LIG d   1      -5.864  75.402 115.943  0.00  0.00     0.016 C 
ATOM      3  C   LIG d   1      -4.649  75.560 116.649  0.00  0.00     0.038 C 
ATOM      4  C   LIG d   1      -4.602  76.152 117.920  0.00  0.00     0.028 C 
ATOM      5  C   LIG d   1      -5.719  77.162 118.159  0.00  0.00    -0.047 C 
ATOM      6  C   LIG d   1      -7.074  76.504 117.812  0.00  0.00     0.091 C 
ENDROOT
BRANCH   1   7
ATOM      7  O   LIG d   1      -8.137  74.978 116.216  0.00  0.00    -0.368 OA
BRANCH   7   8
ATOM      8  C   LIG d   1      -8.211  73.950 117.234  0.00  0.00     0.119 C 
BRANCH   8   9
ATOM      9  C   LIG d   1      -7.568  72.676 116.653  0.00  0.00     0.028 C 
ATOM     10  C   LIG d   1      -8.450  71.431 116.852  0.00  0.00     0.006 C 
ENDBRANCH   8   9
BRANCH   8  11
ATOM     11  C   LIG d   1      -9.663  73.570 117.538  0.00  0.00     0.028 C 
ATOM     12  C   LIG d   1     -10.629  74.758 117.413  0.00  0.00     0.006 C 
ENDBRANCH   8  11
ENDBRANCH   7   8
ENDBRANCH   1   7
BRANCH   6  13
ATOM     13  N   LIG d   1      -8.213  77.451 117.937  0.00  0.00    -0.311 N 
ATOM     14  C   LIG d   1      -8.945  77.573 119.043  0.00  0.00     0.210 C 
ATOM     15  C   LIG d   1     -10.085  78.594 118.953  0.00  0.00     0.109 C 
ATOM     16  O   LIG d   1      -8.740  76.958 120.099  0.00  0.00    -0.276 OA
ATOM     17  H   LIG d   1      -8.430  78.012 117.137  0.00  0.00     0.149 HD
ENDBRANCH   6  13
BRANCH   5  18
ATOM     18  N   LIG d   1      -5.632  77.598 119.566  0.00  0.00     0.381 N 
ATOM     19  H   LIG d   1      -6.401  77.223 120.085  0.00  0.00    -0.090 HD
ATOM     20  H   LIG d   1      -5.688  78.601 119.600  0.00  0.00    -0.090 HD
ATOM     21  H   LIG d   1      -4.772  77.292 119.965  0.00  0.00    -0.090 HD
ENDBRANCH   5  18
BRANCH   3  22
ATOM     22  C   LIG d   1      -3.457  75.157 116.066  0.00  0.00     0.382 C 
ATOM     23  O   LIG d   1      -3.243  75.391 114.852  0.00  0.00    -0.241 OA
ATOM     24  O   LIG d   1      -2.613  74.524 116.727  0.00  0.00    -0.241 OA
ENDBRANCH   3  22
TORSDOF 7
ENDMDL
MODEL 2
REMARK VINA RESULT:      -5.8      1.251      2.025
REMARK  7 active torsions:
REMARK  status: ('A' for Active; 'I' for Inactive)
REMARK    1  A    between atoms: C_2  and  C_3 
REMARK    2  A    between atoms: C_3  and  O_6 
REMARK    3  A    between atoms: C_3  and  C_4 
REMARK    4  A    between atoms: C_7  and  O_6 
REMARK    5  A    between atoms: C_9  and  C_10 
REMARK    6  A    between atoms: N_15  and  C_14 
REMARK    7  A    between atoms: N_20  and  C_19 
REMARK       I    between atoms: C_22  and  N_20 
ROOT
ATOM      1  C   LIG d   1      -7.182  76.120 116.849  0.00  0.00     0.161 C 
ATOM      2  C   LIG d   1      -5.973  75.956 116.152  0.00  0.00     0.016 C 
ATOM      3  C   LIG d   1      -4.941  76.922 116.145  0.00  0.00     0.038 C 
ATOM      4  C   LIG d   1      -4.986  78.060 116.963  0.00  0.00     0.028 C 
ATOM      5  C   LIG d   1      -6.404  78.513 117.294  0.00  0.00    -0.047 C 
ATOM      6  C   LIG d   1      -7.203  77.306 117.836  0.00  0.00     0.091 C 
ENDROOT
BRANCH   1   7
ATOM      7  O   LIG d   1      -7.525  74.896 117.528  0.00  0.00    -0.368 OA
BRANCH   7   8
ATOM      8  C   LIG d   1      -8.255  73.917 116.748  0.00  0.00     0.119 C 
BRANCH   8   9
ATOM      9  C   LIG d   1      -9.517  73.538 117.546  0.00  0.00     0.028 C 
ATOM     10  C   LIG d   1     -10.624  74.601 117.435  0.00  0.00     0.006 C 
ENDBRANCH   8   9
BRANCH   8  11
ATOM     11  C   LIG d   1      -7.461  72.616 116.602  0.00  0.00     0.028 C 
ATOM     12  C   LIG d   1      -8.322  71.364 116.832  0.00  0.00     0.006 C 
ENDBRANCH   8  11
ENDBRANCH   7   8
ENDBRANCH   1   7
BRANCH   6  13
ATOM     13  N   LIG d   1      -8.625  77.642 118.106  0.00  0.00    -0.311 N 
ATOM     14  C   LIG d   1      -9.199  77.500 119.299  0.00  0.00     0.210 C 
ATOM     15  C   LIG d   1     -10.680  77.885 119.355  0.00  0.00     0.109 C 
ATOM     16  O   LIG d   1      -8.613  77.121 120.325  0.00  0.00    -0.276 OA
ATOM     17  H   LIG d   1      -9.166  77.985 117.336  0.00  0.00     0.149 HD
ENDBRANCH   6  13
BRANCH   5  18
ATOM     18  N   LIG d   1      -6.304  79.622 118.262  0.00  0.00     0.381 N 
ATOM     19  H   LIG d   1      -6.690  80.454 117.865  0.00  0.00    -0.090 HD
ATOM     20  H   LIG d   1      -5.334  79.789 118.465  0.00  0.00    -0.090 HD
ATOM     21  H   LIG d   1      -6.790  79.388 119.100  0.00  0.00    -0.090 HD
ENDBRANCH   5  18
BRANCH   3  22
ATOM     22  C   LIG d   1      -3.866  76.773 115.282  0.00  0.00     0.382 C 
ATOM     23  O   LIG d   1      -3.001  77.678 115.196  0.00  0.00    -0.241 OA
ATOM     24  O   LIG d   1      -3.774  75.765 114.556  0.00  0.00    -0.241 OA
ENDBRANCH   3  22
TORSDOF 7
ENDMDL
MODEL 3
REMARK VINA RESULT:      -5.8     15.052     17.472
REMARK  7 active torsions:
REMARK  status: ('A' for Active; 'I' for Inactive)
REMARK    1  A    between atoms: C_2  and  C_3 
REMARK    2  A    between atoms: C_3  and  O_6 
REMARK    3  A    between atoms: C_3  and  C_4 
REMARK    4  A    between atoms: C_7  and  O_6 
REMARK    5  A    between atoms: C_9  and  C_10 
REMARK    6  A    between atoms: N_15  and  C_14 
REMARK    7  A    between atoms: N_20  and  C_19 
REMARK       I    between atoms: C_22  and  N_20 
ROOT
ATOM      1  C   LIG d   1      -5.494  92.818 117.152  0.00  0.00     0.161 C 
ATOM      2  C   LIG d   1      -6.461  91.879 116.757  0.00  0.00     0.016 C 
ATOM      3  C   LIG d   1      -6.176  90.510 116.546  0.00  0.00     0.038 C 
ATOM      4  C   LIG d   1      -4.928  89.955 116.866  0.00  0.00     0.028 C 
ATOM      5  C   LIG d   1      -3.781  90.957 116.788  0.00  0.00    -0.047 C 
ATOM      6  C   LIG d   1      -4.153  92.210 117.613  0.00  0.00     0.091 C 
ENDROOT
BRANCH   1   7
ATOM      7  O   LIG d   1      -6.035  93.674 118.178  0.00  0.00    -0.368 OA
BRANCH   7   8
ATOM      8  C   LIG d   1      -7.478  93.685 118.303  0.00  0.00     0.119 C 
BRANCH   8   9
ATOM      9  C   LIG d   1      -7.954  95.126 118.034  0.00  0.00     0.028 C 
ATOM     10  C   LIG d   1      -6.861  96.169 118.322  0.00  0.00     0.006 C 
ENDBRANCH   8   9
BRANCH   8  11
ATOM     11  C   LIG d   1      -7.916  93.375 119.738  0.00  0.00     0.028 C 
ATOM     12  C   LIG d   1      -6.921  92.470 120.482  0.00  0.00     0.006 C 
ENDBRANCH   8  11
ENDBRANCH   7   8
ENDBRANCH   1   7
BRANCH   6  13
ATOM     13  N   LIG d   1      -3.120  93.275 117.521  0.00  0.00    -0.311 N 
ATOM     14  C   LIG d   1      -2.137  93.421 118.407  0.00  0.00     0.210 C 
ATOM     15  C   LIG d   1      -1.192  94.596 118.136  0.00  0.00     0.109 C 
ATOM     16  O   LIG d   1      -1.938  92.670 119.373  0.00  0.00    -0.276 OA
ATOM     17  H   LIG d   1      -3.188  93.910 116.750  0.00  0.00     0.149 HD
ENDBRANCH   6  13
BRANCH   5  18
ATOM     18  N   LIG d   1      -2.565  90.281 117.277  0.00  0.00     0.381 N 
ATOM     19  H   LIG d   1      -2.155  89.745 116.539  0.00  0.00    -0.090 HD
ATOM     20  H   LIG d   1      -2.819  89.653 118.019  0.00  0.00    -0.090 HD
ATOM     21  H   LIG d   1      -1.912  90.955 117.611  0.00  0.00    -0.090 HD
ENDBRANCH   5  18
BRANCH   3  22
ATOM     22  C   LIG d   1      -7.135  89.689 115.973  0.00  0.00     0.382 C 
ATOM     23  O   LIG d   1      -7.393  88.573 116.485  0.00  0.00    -0.241 OA
ATOM     24  O   LIG d   1      -7.714  90.031 114.924  0.00  0.00    -0.241 OA
ENDBRANCH   3  22
TORSDOF 7
ENDMDL
MODEL 4
REMARK VINA RESULT:      -5.7      2.020      4.827
REMARK  7 active torsions:
REMARK  status: ('A' for Active; 'I' for Inactive)
REMARK    1  A    between atoms: C_2  and  C_3 
REMARK    2  A    between atoms: C_3  and  O_6 
REMARK    3  A    between atoms: C_3  and  C_4 
REMARK    4  A    between atoms: C_7  and  O_6 
REMARK    5  A    between atoms: C_9  and  C_10 
REMARK    6  A    between atoms: N_15  and  C_14 
REMARK    7  A    between atoms: N_20  and  C_19 
REMARK       I    between atoms: C_22  and  N_20 
ROOT
ATOM      1  C   LIG d   1      -6.091  74.986 116.860  0.00  0.00     0.161 C 
ATOM      2  C   LIG d   1      -6.649  73.730 116.571  0.00  0.00     0.016 C 
ATOM      3  C   LIG d   1      -7.984  73.382 116.881  0.00  0.00     0.038 C 
ATOM      4  C   LIG d   1      -8.902  74.324 117.369  0.00  0.00     0.028 C 
ATOM      5  C   LIG d   1      -8.247  75.461 118.145  0.00  0.00    -0.047 C 
ATOM      6  C   LIG d   1      -7.109  76.063 117.291  0.00  0.00     0.091 C 
ENDROOT
BRANCH   1   7
ATOM      7  O   LIG d   1      -5.318  75.448 115.734  0.00  0.00    -0.368 OA
BRANCH   7   8
ATOM      8  C   LIG d   1      -3.900  75.156 115.772  0.00  0.00     0.119 C 
BRANCH   8   9
ATOM      9  C   LIG d   1      -3.500  74.989 117.251  0.00  0.00     0.028 C 
ATOM     10  C   LIG d   1      -1.975  74.941 117.445  0.00  0.00     0.006 C 
ENDBRANCH   8   9
BRANCH   8  11
ATOM     11  C   LIG d   1      -3.073  76.339 115.259  0.00  0.00     0.028 C 
ATOM     12  C   LIG d   1      -3.667  77.699 115.660  0.00  0.00     0.006 C 
ENDBRANCH   8  11
ENDBRANCH   7   8
ENDBRANCH   1   7
BRANCH   6  13
ATOM     13  N   LIG d   1      -6.361  77.127 118.010  0.00  0.00    -0.311 N 
ATOM     14  C   LIG d   1      -6.651  78.423 117.910  0.00  0.00     0.210 C 
ATOM     15  C   LIG d   1      -5.742  79.353 118.719  0.00  0.00     0.109 C 
ATOM     16  O   LIG d   1      -7.594  78.887 117.252  0.00  0.00    -0.276 OA
ATOM     17  H   LIG d   1      -5.599  76.836 118.591  0.00  0.00     0.149 HD
ENDBRANCH   6  13
BRANCH   5  18
ATOM     18  N   LIG d   1      -9.301  76.440 118.476  0.00  0.00     0.381 N 
ATOM     19  H   LIG d   1      -9.284  77.191 117.816  0.00  0.00    -0.090 HD
ATOM     20  H   LIG d   1      -9.119  76.817 119.389  0.00  0.00    -0.090 HD
ATOM     21  H   LIG d   1     -10.193  75.997 118.463  0.00  0.00    -0.090 HD
ENDBRANCH   5  18
BRANCH   3  22
ATOM     22  C   LIG d   1      -8.402  72.067 116.741  0.00  0.00     0.382 C 
ATOM     23  O   LIG d   1      -9.568  71.741 117.070  0.00  0.00    -0.241 OA
ATOM     24  O   LIG d   1      -7.613  71.194 116.332  0.00  0.00    -0.241 OA
ENDBRANCH   3  22
TORSDOF 7
ENDMDL
MODEL 5
REMARK VINA RESULT:      -5.5      2.453      6.006
REMARK  7 active torsions:
REMARK  status: ('A' for Active; 'I' for Inactive)
REMARK    1  A    between atoms: C_2  and  C_3 
REMARK    2  A    between atoms: C_3  and  O_6 
REMARK    3  A    between atoms: C_3  and  C_4 
REMARK    4  A    between atoms: C_7  and  O_6 
REMARK    5  A    between atoms: C_9  and  C_10 
REMARK    6  A    between atoms: N_15  and  C_14 
REMARK    7  A    between atoms: N_20  and  C_19 
REMARK       I    between atoms: C_22  and  N_20 
ROOT
ATOM      1  C   LIG d   1      -6.929  76.847 117.267  0.00  0.00     0.161 C 
ATOM      2  C   LIG d   1      -8.283  76.782 117.637  0.00  0.00     0.016 C 
ATOM      3  C   LIG d   1      -9.032  75.583 117.639  0.00  0.00     0.038 C 
ATOM      4  C   LIG d   1      -8.434  74.334 117.415  0.00  0.00     0.028 C 
ATOM      5  C   LIG d   1      -7.184  74.410 116.545  0.00  0.00    -0.047 C 
ATOM      6  C   LIG d   1      -6.231  75.479 117.127  0.00  0.00     0.091 C 
ENDROOT
BRANCH   1   7
ATOM      7  O   LIG d   1      -6.210  77.685 118.194  0.00  0.00    -0.368 OA
BRANCH   7   8
ATOM      8  C   LIG d   1      -7.018  78.465 119.108  0.00  0.00     0.119 C 
BRANCH   8   9
ATOM      9  C   LIG d   1      -6.744  79.953 118.814  0.00  0.00     0.028 C 
ATOM     10  C   LIG d   1      -7.674  80.518 117.728  0.00  0.00     0.006 C 
ENDBRANCH   8   9
BRANCH   8  11
ATOM     11  C   LIG d   1      -6.581  78.251 120.560  0.00  0.00     0.028 C 
ATOM     12  C   LIG d   1      -7.718  77.733 121.455  0.00  0.00     0.006 C 
ENDBRANCH   8  11
ENDBRANCH   7   8
ENDBRANCH   1   7
BRANCH   6  13
ATOM     13  N   LIG d   1      -5.020  75.676 116.288  0.00  0.00    -0.311 N 
ATOM     14  C   LIG d   1      -3.869  75.041 116.501  0.00  0.00     0.210 C 
ATOM     15  C   LIG d   1      -2.740  75.405 115.532  0.00  0.00     0.109 C 
ATOM     16  O   LIG d   1      -3.685  74.187 117.382  0.00  0.00    -0.276 OA
ATOM     17  H   LIG d   1      -5.090  76.328 115.531  0.00  0.00     0.149 HD
ENDBRANCH   6  13
BRANCH   5  18
ATOM     18  N   LIG d   1      -6.586  73.062 116.507  0.00  0.00     0.381 N 
ATOM     19  H   LIG d   1      -6.917  72.522 117.281  0.00  0.00    -0.090 HD
ATOM     20  H   LIG d   1      -5.587  73.146 116.585  0.00  0.00    -0.090 HD
ATOM     21  H   LIG d   1      -6.822  72.608 115.651  0.00  0.00    -0.090 HD
ENDBRANCH   5  18
BRANCH   3  22
ATOM     22  C   LIG d   1     -10.405  75.631 117.829  0.00  0.00     0.382 C 
ATOM     23  O   LIG d   1     -11.122  74.668 117.464  0.00  0.00    -0.241 OA
ATOM     24  O   LIG d   1     -10.940  76.643 118.319  0.00  0.00    -0.241 OA
ENDBRANCH   3  22
TORSDOF 7
ENDMDL
MODEL 6
REMARK VINA RESULT:      -5.3      2.405      5.005
REMARK  7 active torsions:
REMARK  status: ('A' for Active; 'I' for Inactive)
REMARK    1  A    between atoms: C_2  and  C_3 
REMARK    2  A    between atoms: C_3  and  O_6 
REMARK    3  A    between atoms: C_3  and  C_4 
REMARK    4  A    between atoms: C_7  and  O_6 
REMARK    5  A    between atoms: C_9  and  C_10 
REMARK    6  A    between atoms: N_15  and  C_14 
REMARK    7  A    between atoms: N_20  and  C_19 
REMARK       I    between atoms: C_22  and  N_20 
ROOT
ATOM      1  C   LIG d   1      -7.710  77.123 118.226  0.00  0.00     0.161 C 
ATOM      2  C   LIG d   1      -6.944  76.285 117.399  0.00  0.00     0.016 C 
ATOM      3  C   LIG d   1      -7.479  75.171 116.711  0.00  0.00     0.038 C 
ATOM      4  C   LIG d   1      -8.856  74.907 116.685  0.00  0.00     0.028 C 
ATOM      5  C   LIG d   1      -9.596  75.428 117.913  0.00  0.00    -0.047 C 
ATOM      6  C   LIG d   1      -9.235  76.916 118.122  0.00  0.00     0.091 C 
ENDROOT
BRANCH   1   7
ATOM      7  O   LIG d   1      -7.372  78.501 117.972  0.00  0.00    -0.368 OA
BRANCH   7   8
ATOM      8  C   LIG d   1      -6.787  79.228 119.080  0.00  0.00     0.119 C 
BRANCH   8   9
ATOM      9  C   LIG d   1      -7.211  80.703 118.941  0.00  0.00     0.028 C 
ATOM     10  C   LIG d   1      -7.874  80.998 117.585  0.00  0.00     0.006 C 
ENDBRANCH   8   9
BRANCH   8  11
ATOM     11  C   LIG d   1      -5.258  79.236 118.996  0.00  0.00     0.028 C 
ATOM     12  C   LIG d   1      -4.622  80.365 119.822  0.00  0.00     0.006 C 
ENDBRANCH   8  11
ENDBRANCH   7   8
ENDBRANCH   1   7
BRANCH   6  13
ATOM     13  N   LIG d   1      -9.851  77.482 119.351  0.00  0.00    -0.311 N 
ATOM     14  C   LIG d   1     -10.497  78.646 119.378  0.00  0.00     0.210 C 
ATOM     15  C   LIG d   1     -11.038  79.054 120.752  0.00  0.00     0.109 C 
ATOM     16  O   LIG d   1     -10.701  79.365 118.388  0.00  0.00    -0.276 OA
ATOM     17  H   LIG d   1      -9.760  76.949 120.193  0.00  0.00     0.149 HD
ENDBRANCH   6  13
BRANCH   5  18
ATOM     18  N   LIG d   1     -11.038  75.208 117.691  0.00  0.00     0.381 N 
ATOM     19  H   LIG d   1     -11.192  74.274 117.367  0.00  0.00    -0.090 HD
ATOM     20  H   LIG d   1     -11.359  75.845 116.983  0.00  0.00    -0.090 HD
ATOM     21  H   LIG d   1     -11.540  75.361 118.538  0.00  0.00    -0.090 HD
ENDBRANCH   5  18
BRANCH   3  22
ATOM     22  C   LIG d   1      -6.626  74.283 116.073  0.00  0.00     0.382 C 
ATOM     23  O   LIG d   1      -5.788  74.708 115.241  0.00  0.00    -0.241 OA
ATOM     24  O   LIG d   1      -6.715  73.059 116.284  0.00  0.00    -0.241 OA
ENDBRANCH   3  22
TORSDOF 7
ENDMDL
MODEL 7
REMARK VINA RESULT:      -5.1      1.879      5.007
REMARK  7 active torsions:
REMARK  status: ('A' for Active; 'I' for Inactive)
REMARK    1  A    between atoms: C_2  and  C_3 
REMARK    2  A    between atoms: C_3  and  O_6 
REMARK    3  A    between atoms: C_3  and  C_4 
REMARK    4  A    between atoms: C_7  and  O_6 
REMARK    5  A    between atoms: C_9  and  C_10 
REMARK    6  A    between atoms: N_15  and  C_14 
REMARK    7  A    between atoms: N_20  and  C_19 
REMARK       I    between atoms: C_22  and  N_20 
ROOT
ATOM      1  C   LIG d   1      -7.351  76.861 117.704  0.00  0.00     0.161 C 
ATOM      2  C   LIG d   1      -8.401  77.785 117.830  0.00  0.00     0.016 C 
ATOM      3  C   LIG d   1      -8.228  79.096 118.332  0.00  0.00     0.038 C 
ATOM      4  C   LIG d   1      -6.957  79.624 118.602  0.00  0.00     0.028 C 
ATOM      5  C   LIG d   1      -5.924  78.563 118.967  0.00  0.00    -0.047 C 
ATOM      6  C   LIG d   1      -5.939  77.456 117.889  0.00  0.00     0.091 C 
ENDROOT
BRANCH   1   7
ATOM      7  O   LIG d   1      -7.447  76.183 116.435  0.00  0.00    -0.368 OA
BRANCH   7   8
ATOM      8  C   LIG d   1      -8.033  74.859 116.463  0.00  0.00     0.119 C 
BRANCH   8   9
ATOM      9  C   LIG d   1      -8.822  74.729 117.780  0.00  0.00     0.028 C 
ATOM     10  C   LIG d   1     -10.334  74.569 117.545  0.00  0.00     0.006 C 
ENDBRANCH   8   9
BRANCH   8  11
ATOM     11  C   LIG d   1      -6.955  73.773 116.527  0.00  0.00     0.028 C 
ATOM     12  C   LIG d   1      -7.541  72.354 116.599  0.00  0.00     0.006 C 
ENDBRANCH   8  11
ENDBRANCH   7   8
ENDBRANCH   1   7
BRANCH   6  13
ATOM     13  N   LIG d   1      -5.018  76.336 118.213  0.00  0.00    -0.311 N 
ATOM     14  C   LIG d   1      -4.050  75.922 117.396  0.00  0.00     0.210 C 
ATOM     15  C   LIG d   1      -3.228  74.739 117.916  0.00  0.00     0.109 C 
ATOM     16  O   LIG d   1      -3.775  76.444 116.306  0.00  0.00    -0.276 OA
ATOM     17  H   LIG d   1      -5.151  75.876 119.092  0.00  0.00     0.149 HD
ENDBRANCH   6  13
BRANCH   5  18
ATOM     18  N   LIG d   1      -4.617  79.235 119.088  0.00  0.00     0.381 N 
ATOM     19  H   LIG d   1      -3.885  78.599 118.840  0.00  0.00    -0.090 HD
ATOM     20  H   LIG d   1      -4.482  79.515 120.044  0.00  0.00    -0.090 HD
ATOM     21  H   LIG d   1      -4.588  80.034 118.493  0.00  0.00    -0.090 HD
ENDBRANCH   5  18
BRANCH   3  22
ATOM     22  C   LIG d   1      -9.338  79.879 118.606  0.00  0.00     0.382 C 
ATOM     23  O   LIG d   1     -10.491  79.416 118.429  0.00  0.00    -0.241 OA
ATOM     24  O   LIG d   1      -9.202  81.057 118.987  0.00  0.00    -0.241 OA
ENDBRANCH   3  22
TORSDOF 7
ENDMDL
MODEL 8
REMARK VINA RESULT:      -4.9     15.032     17.098
REMARK  7 active torsions:
REMARK  status: ('A' for Active; 'I' for Inactive)
REMARK    1  A    between atoms: C_2  and  C_3 
REMARK    2  A    between atoms: C_3  and  O_6 
REMARK    3  A    between atoms: C_3  and  C_4 
REMARK    4  A    between atoms: C_7  and  O_6 
REMARK    5  A    between atoms: C_9  and  C_10 
REMARK    6  A    between atoms: N_15  and  C_14 
REMARK    7  A    between atoms: N_20  and  C_19 
REMARK       I    between atoms: C_22  and  N_20 
ROOT
ATOM      1  C   LIG d   1      -3.716  91.218 117.596  0.00  0.00     0.161 C 
ATOM      2  C   LIG d   1      -4.438  90.496 116.631  0.00  0.00     0.016 C 
ATOM      3  C   LIG d   1      -5.620  90.978 116.023  0.00  0.00     0.038 C 
ATOM      4  C   LIG d   1      -6.080  92.288 116.230  0.00  0.00     0.028 C 
ATOM      5  C   LIG d   1      -5.665  92.869 117.578  0.00  0.00    -0.047 C 
ATOM      6  C   LIG d   1      -4.140  92.693 117.752  0.00  0.00     0.091 C 
ENDROOT
BRANCH   1   7
ATOM      7  O   LIG d   1      -2.304  91.129 117.316  0.00  0.00    -0.368 OA
BRANCH   7   8
ATOM      8  C   LIG d   1      -1.523  90.320 118.230  0.00  0.00     0.119 C 
BRANCH   8   9
ATOM      9  C   LIG d   1      -0.324  91.171 118.691  0.00  0.00     0.028 C 
ATOM     10  C   LIG d   1       0.234  92.057 117.565  0.00  0.00     0.006 C 
ENDBRANCH   8   9
BRANCH   8  11
ATOM     11  C   LIG d   1      -0.912  89.109 117.520  0.00  0.00     0.028 C 
ATOM     12  C   LIG d   1      -0.327  88.078 118.498  0.00  0.00     0.006 C 
ENDBRANCH   8  11
ENDBRANCH   7   8
ENDBRANCH   1   7
BRANCH   6  13
ATOM     13  N   LIG d   1      -3.664  93.159 119.081  0.00  0.00    -0.311 N 
ATOM     14  C   LIG d   1      -2.678  94.041 119.238  0.00  0.00     0.210 C 
ATOM     15  C   LIG d   1      -2.331  94.370 120.693  0.00  0.00     0.109 C 
ATOM     16  O   LIG d   1      -2.080  94.606 118.310  0.00  0.00    -0.276 OA
ATOM     17  H   LIG d   1      -4.115  92.775 119.888  0.00  0.00     0.149 HD
ENDBRANCH   6  13
BRANCH   5  18
ATOM     18  N   LIG d   1      -6.091  94.281 117.604  0.00  0.00     0.381 N 
ATOM     19  H   LIG d   1      -7.027  94.346 117.952  0.00  0.00    -0.090 HD
ATOM     20  H   LIG d   1      -6.078  94.642 116.666  0.00  0.00    -0.090 HD
ATOM     21  H   LIG d   1      -5.477  94.812 118.180  0.00  0.00    -0.090 HD
ENDBRANCH   5  18
BRANCH   3  22
ATOM     22  C   LIG d   1      -6.378  90.132 115.228  0.00  0.00     0.382 C 
ATOM     23  O   LIG d   1      -7.332  90.592 114.555  0.00  0.00    -0.241 OA
ATOM     24  O   LIG d   1      -6.148  88.908 115.209  0.00  0.00    -0.241 OA
ENDBRANCH   3  22
TORSDOF 7
ENDMDL
MODEL 9
REMARK VINA RESULT:      -4.9      2.443      5.429
REMARK  7 active torsions:
REMARK  status: ('A' for Active; 'I' for Inactive)
REMARK    1  A    between atoms: C_2  and  C_3 
REMARK    2  A    between atoms: C_3  and  O_6 
REMARK    3  A    between atoms: C_3  and  C_4 
REMARK    4  A    between atoms: C_7  and  O_6 
REMARK    5  A    between atoms: C_9  and  C_10 
REMARK    6  A    between atoms: N_15  and  C_14 
REMARK    7  A    between atoms: N_20  and  C_19 
REMARK       I    between atoms: C_22  and  N_20 
ROOT
ATOM      1  C   LIG d   1      -6.735  77.892 117.799  0.00  0.00     0.161 C 
ATOM      2  C   LIG d   1      -7.909  78.653 117.924  0.00  0.00     0.016 C 
ATOM      3  C   LIG d   1      -7.961  79.901 118.587  0.00  0.00     0.038 C 
ATOM      4  C   LIG d   1      -6.802  80.547 119.043  0.00  0.00     0.028 C 
ATOM      5  C   LIG d   1      -5.669  79.586 119.388  0.00  0.00    -0.047 C 
ATOM      6  C   LIG d   1      -5.439  78.632 118.193  0.00  0.00     0.091 C 
ENDROOT
BRANCH   1   7
ATOM      7  O   LIG d   1      -6.628  77.374 116.458  0.00  0.00    -0.368 OA
BRANCH   7   8
ATOM      8  C   LIG d   1      -6.729  75.936 116.321  0.00  0.00     0.119 C 
BRANCH   8   9
ATOM      9  C   LIG d   1      -6.244  75.571 114.904  0.00  0.00     0.028 C 
ATOM     10  C   LIG d   1      -4.720  75.383 114.835  0.00  0.00     0.006 C 
ENDBRANCH   8   9
BRANCH   8  11
ATOM     11  C   LIG d   1      -8.186  75.470 116.383  0.00  0.00     0.028 C 
ATOM     12  C   LIG d   1      -8.472  74.568 117.594  0.00  0.00     0.006 C 
ENDBRANCH   8  11
ENDBRANCH   7   8
ENDBRANCH   1   7
BRANCH   6  13
ATOM     13  N   LIG d   1      -4.404  77.605 118.479  0.00  0.00    -0.311 N 
ATOM     14  C   LIG d   1      -3.359  77.377 117.685  0.00  0.00     0.210 C 
ATOM     15  C   LIG d   1      -2.422  76.260 118.154  0.00  0.00     0.109 C 
ATOM     16  O   LIG d   1      -3.102  78.016 116.653  0.00  0.00    -0.276 OA
ATOM     17  H   LIG d   1      -4.518  77.062 119.312  0.00  0.00     0.149 HD
ENDBRANCH   6  13
BRANCH   5  18
ATOM     18  N   LIG d   1      -4.481  80.397 119.716  0.00  0.00     0.381 N 
ATOM     19  H   LIG d   1      -4.010  80.663 118.875  0.00  0.00    -0.090 HD
ATOM     20  H   LIG d   1      -3.851  79.843 120.269  0.00  0.00    -0.090 HD
ATOM     21  H   LIG d   1      -4.753  81.210 120.224  0.00  0.00    -0.090 HD
ENDBRANCH   5  18
BRANCH   3  22
ATOM     22  C   LIG d   1      -9.188  80.496 118.836  0.00  0.00     0.382 C 
ATOM     23  O   LIG d   1     -10.101  80.433 117.978  0.00  0.00    -0.241 OA
ATOM     24  O   LIG d   1      -9.379  81.134 119.889  0.00  0.00    -0.241 OA
ENDBRANCH   3  22
TORSDOF 7
ENDMDL
