MODEL 1
REMARK VINA RESULT:      -5.8      0.000      0.000
REMARK  7 active torsions:
REMARK  status: ('A' for Active; 'I' for Inactive)
REMARK    1  A    between atoms: C_2  and  C_3 
REMARK    2  A    between atoms: C_3  and  O_6 
REMARK    3  A    between atoms: C_3  and  C_4 
REMARK    4  A    between atoms: C_7  and  O_6 
REMARK    5  A    between atoms: C_9  and  C_10 
REMARK    6  A    between atoms: N_15  and  C_14 
REMARK    7  A    between atoms: N_20  and  C_19 
REMARK       I    between atoms: C_22  and  N_20 
ROOT
ATOM      1  C   LIG d   1      -3.150  75.971 114.977  0.00  0.00     0.161 C 
ATOM      2  C   LIG d   1      -3.322  76.653 113.761  0.00  0.00     0.016 C 
ATOM      3  C   LIG d   1      -2.246  77.075 112.947  0.00  0.00     0.038 C 
ATOM      4  C   LIG d   1      -0.920  76.709 113.222  0.00  0.00     0.028 C 
ATOM      5  C   LIG d   1      -0.656  76.455 114.702  0.00  0.00    -0.047 C 
ATOM      6  C   LIG d   1      -1.716  75.465 115.238  0.00  0.00     0.091 C 
ENDROOT
BRANCH   1   7
ATOM      7  O   LIG d   1      -4.089  74.881 115.064  0.00  0.00    -0.368 OA
BRANCH   7   8
ATOM      8  C   LIG d   1      -5.052  74.954 116.143  0.00  0.00     0.119 C 
BRANCH   8   9
ATOM      9  C   LIG d   1      -6.112  73.864 115.892  0.00  0.00     0.028 C 
ATOM     10  C   LIG d   1      -6.805  73.409 117.188  0.00  0.00     0.006 C 
ENDBRANCH   8   9
BRANCH   8  11
ATOM     11  C   LIG d   1      -5.820  76.279 116.117  0.00  0.00     0.028 C 
ATOM     12  C   LIG d   1      -6.840  76.355 114.970  0.00  0.00     0.006 C 
ENDBRANCH   8  11
ENDBRANCH   7   8
ENDBRANCH   1   7
BRANCH   6  13
ATOM     13  N   LIG d   1      -1.581  75.227 116.699  0.00  0.00    -0.311 N 
ATOM     14  C   LIG d   1      -0.841  74.248 117.217  0.00  0.00     0.210 C 
ATOM     15  C   LIG d   1      -0.856  74.167 118.747  0.00  0.00     0.109 C 
ATOM     16  O   LIG d   1      -0.148  73.460 116.557  0.00  0.00    -0.276 OA
ATOM     17  H   LIG d   1      -2.086  75.840 117.309  0.00  0.00     0.149 HD
ENDBRANCH   6  13
BRANCH   5  18
ATOM     18  N   LIG d   1       0.724  75.949 114.828  0.00  0.00     0.381 N 
ATOM     19  H   LIG d   1       1.317  76.414 114.171  0.00  0.00    -0.090 HD
ATOM     20  H   LIG d   1       0.730  74.966 114.618  0.00  0.00    -0.090 HD
ATOM     21  H   LIG d   1       1.059  76.100 115.754  0.00  0.00    -0.090 HD
ENDBRANCH   5  18
BRANCH   3  22
ATOM     22  C   LIG d   1      -2.488  77.907 111.865  0.00  0.00     0.382 C 
ATOM     23  O   LIG d   1      -2.927  77.428 110.791  0.00  0.00    -0.241 OA
ATOM     24  O   LIG d   1      -2.232  79.124 111.934  0.00  0.00    -0.241 OA
ENDBRANCH   3  22
TORSDOF 7
ENDMDL
MODEL 2
REMARK VINA RESULT:      -5.8      7.496     10.911
REMARK  7 active torsions:
REMARK  status: ('A' for Active; 'I' for Inactive)
REMARK    1  A    between atoms: C_2  and  C_3 
REMARK    2  A    between atoms: C_3  and  O_6 
REMARK    3  A    between atoms: C_3  and  C_4 
REMARK    4  A    between atoms: C_7  and  O_6 
REMARK    5  A    between atoms: C_9  and  C_10 
REMARK    6  A    between atoms: N_15  and  C_14 
REMARK    7  A    between atoms: N_20  and  C_19 
REMARK       I    between atoms: C_22  and  N_20 
ROOT
ATOM      1  C   LIG d   1       1.934  82.671 111.699  0.00  0.00     0.161 C 
ATOM      2  C   LIG d   1       0.795  81.863 111.852  0.00  0.00     0.016 C 
ATOM      3  C   LIG d   1      -0.492  82.378 112.132  0.00  0.00     0.038 C 
ATOM      4  C   LIG d   1      -0.757  83.755 112.127  0.00  0.00     0.028 C 
ATOM      5  C   LIG d   1       0.459  84.607 112.477  0.00  0.00    -0.047 C 
ATOM      6  C   LIG d   1       1.644  84.182 111.580  0.00  0.00     0.091 C 
ENDROOT
BRANCH   1   7
ATOM      7  O   LIG d   1       2.705  82.219 110.568  0.00  0.00    -0.368 OA
BRANCH   7   8
ATOM      8  C   LIG d   1       3.892  81.446 110.874  0.00  0.00     0.119 C 
BRANCH   8   9
ATOM      9  C   LIG d   1       5.114  82.325 110.548  0.00  0.00     0.028 C 
ATOM     10  C   LIG d   1       4.892  83.203 109.305  0.00  0.00     0.006 C 
ENDBRANCH   8   9
BRANCH   8  11
ATOM     11  C   LIG d   1       4.014  80.226 109.956  0.00  0.00     0.028 C 
ATOM     12  C   LIG d   1       2.649  79.675 109.513  0.00  0.00     0.006 C 
ENDBRANCH   8  11
ENDBRANCH   7   8
ENDBRANCH   1   7
BRANCH   6  13
ATOM     13  N   LIG d   1       2.897  84.908 111.915  0.00  0.00    -0.311 N 
ATOM     14  C   LIG d   1       3.244  86.067 111.358  0.00  0.00     0.210 C 
ATOM     15  C   LIG d   1       4.586  86.636 111.831  0.00  0.00     0.109 C 
ATOM     16  O   LIG d   1       2.552  86.695 110.542  0.00  0.00    -0.276 OA
ATOM     17  H   LIG d   1       3.502  84.485 112.591  0.00  0.00     0.149 HD
ENDBRANCH   6  13
BRANCH   5  18
ATOM     18  N   LIG d   1       0.078  86.021 112.301  0.00  0.00     0.381 N 
ATOM     19  H   LIG d   1       0.620  86.428 111.565  0.00  0.00    -0.090 HD
ATOM     20  H   LIG d   1       0.275  86.519 113.151  0.00  0.00    -0.090 HD
ATOM     21  H   LIG d   1      -0.892  86.088 112.085  0.00  0.00    -0.090 HD
ENDBRANCH   5  18
BRANCH   3  22
ATOM     22  C   LIG d   1      -1.522  81.510 112.459  0.00  0.00     0.382 C 
ATOM     23  O   LIG d   1      -1.365  80.272 112.328  0.00  0.00    -0.241 OA
ATOM     24  O   LIG d   1      -2.623  81.951 112.842  0.00  0.00    -0.241 OA
ENDBRANCH   3  22
TORSDOF 7
ENDMDL
MODEL 3
REMARK VINA RESULT:      -5.7      1.578      1.937
REMARK  7 active torsions:
REMARK  status: ('A' for Active; 'I' for Inactive)
REMARK    1  A    between atoms: C_2  and  C_3 
REMARK    2  A    between atoms: C_3  and  O_6 
REMARK    3  A    between atoms: C_3  and  C_4 
REMARK    4  A    between atoms: C_7  and  O_6 
REMARK    5  A    between atoms: C_9  and  C_10 
REMARK    6  A    between atoms: N_15  and  C_14 
REMARK    7  A    between atoms: N_20  and  C_19 
REMARK       I    between atoms: C_22  and  N_20 
ROOT
ATOM      1  C   LIG d   1      -3.011  77.360 116.077  0.00  0.00     0.161 C 
ATOM      2  C   LIG d   1      -3.249  78.330 115.089  0.00  0.00     0.016 C 
ATOM      3  C   LIG d   1      -2.380  78.558 113.997  0.00  0.00     0.038 C 
ATOM      4  C   LIG d   1      -1.283  77.723 113.735  0.00  0.00     0.028 C 
ATOM      5  C   LIG d   1      -0.722  77.050 114.984  0.00  0.00    -0.047 C 
ATOM      6  C   LIG d   1      -1.879  76.365 115.747  0.00  0.00     0.091 C 
ENDROOT
BRANCH   1   7
ATOM      7  O   LIG d   1      -4.232  76.651 116.369  0.00  0.00    -0.368 OA
BRANCH   7   8
ATOM      8  C   LIG d   1      -5.407  77.078 115.638  0.00  0.00     0.119 C 
BRANCH   8   9
ATOM      9  C   LIG d   1      -6.500  77.411 116.672  0.00  0.00     0.028 C 
ATOM     10  C   LIG d   1      -7.617  76.354 116.707  0.00  0.00     0.006 C 
ENDBRANCH   8   9
BRANCH   8  11
ATOM     11  C   LIG d   1      -5.983  75.937 114.793  0.00  0.00     0.028 C 
ATOM     12  C   LIG d   1      -4.979  74.795 114.571  0.00  0.00     0.006 C 
ENDBRANCH   8  11
ENDBRANCH   7   8
ENDBRANCH   1   7
BRANCH   6  13
ATOM     13  N   LIG d   1      -1.430  75.754 117.026  0.00  0.00    -0.311 N 
ATOM     14  C   LIG d   1      -0.970  74.508 117.121  0.00  0.00     0.210 C 
ATOM     15  C   LIG d   1      -0.580  74.070 118.536  0.00  0.00     0.109 C 
ATOM     16  O   LIG d   1      -0.818  73.735 116.164  0.00  0.00    -0.276 OA
ATOM     17  H   LIG d   1      -1.491  76.322 117.848  0.00  0.00     0.149 HD
ENDBRANCH   6  13
BRANCH   5  18
ATOM     18  N   LIG d   1       0.324  76.106 114.549  0.00  0.00     0.381 N 
ATOM     19  H   LIG d   1      -0.100  75.284 114.167  0.00  0.00    -0.090 HD
ATOM     20  H   LIG d   1       0.871  75.836 115.348  0.00  0.00    -0.090 HD
ATOM     21  H   LIG d   1       0.908  76.535 113.866  0.00  0.00    -0.090 HD
ENDBRANCH   5  18
BRANCH   3  22
ATOM     22  C   LIG d   1      -2.582  79.657 113.176  0.00  0.00     0.382 C 
ATOM     23  O   LIG d   1      -1.929  79.772 112.111  0.00  0.00    -0.241 OA
ATOM     24  O   LIG d   1      -3.376  80.556 113.508  0.00  0.00    -0.241 OA
ENDBRANCH   3  22
TORSDOF 7
ENDMDL
MODEL 4
REMARK VINA RESULT:      -5.6      9.427     11.967
REMARK  7 active torsions:
REMARK  status: ('A' for Active; 'I' for Inactive)
REMARK    1  A    between atoms: C_2  and  C_3 
REMARK    2  A    between atoms: C_3  and  O_6 
REMARK    3  A    between atoms: C_3  and  C_4 
REMARK    4  A    between atoms: C_7  and  O_6 
REMARK    5  A    between atoms: C_9  and  C_10 
REMARK    6  A    between atoms: N_15  and  C_14 
REMARK    7  A    between atoms: N_20  and  C_19 
REMARK       I    between atoms: C_22  and  N_20 
ROOT
ATOM      1  C   LIG d   1       2.489  84.627 112.724  0.00  0.00     0.161 C 
ATOM      2  C   LIG d   1       1.307  84.286 112.046  0.00  0.00     0.016 C 
ATOM      3  C   LIG d   1       0.491  85.229 111.381  0.00  0.00     0.038 C 
ATOM      4  C   LIG d   1       0.884  86.566 111.219  0.00  0.00     0.028 C 
ATOM      5  C   LIG d   1       1.820  87.060 112.317  0.00  0.00    -0.047 C 
ATOM      6  C   LIG d   1       2.992  86.063 112.463  0.00  0.00     0.091 C 
ENDROOT
BRANCH   1   7
ATOM      7  O   LIG d   1       3.523  83.671 112.416  0.00  0.00    -0.368 OA
BRANCH   7   8
ATOM      8  C   LIG d   1       3.342  82.906 111.199  0.00  0.00     0.119 C 
BRANCH   8   9
ATOM      9  C   LIG d   1       3.281  81.418 111.592  0.00  0.00     0.028 C 
ATOM     10  C   LIG d   1       2.206  80.647 110.808  0.00  0.00     0.006 C 
ENDBRANCH   8   9
BRANCH   8  11
ATOM     11  C   LIG d   1       4.557  83.033 110.276  0.00  0.00     0.028 C 
ATOM     12  C   LIG d   1       5.831  82.424 110.881  0.00  0.00     0.006 C 
ENDBRANCH   8  11
ENDBRANCH   7   8
ENDBRANCH   1   7
BRANCH   6  13
ATOM     13  N   LIG d   1       3.910  86.426 113.574  0.00  0.00    -0.311 N 
ATOM     14  C   LIG d   1       4.969  87.219 113.420  0.00  0.00     0.210 C 
ATOM     15  C   LIG d   1       5.794  87.450 114.690  0.00  0.00     0.109 C 
ATOM     16  O   LIG d   1       5.285  87.780 112.360  0.00  0.00    -0.276 OA
ATOM     17  H   LIG d   1       3.710  86.040 114.476  0.00  0.00     0.149 HD
ENDBRANCH   6  13
BRANCH   5  18
ATOM     18  N   LIG d   1       2.259  88.419 111.951  0.00  0.00     0.381 N 
ATOM     19  H   LIG d   1       3.241  88.418 111.759  0.00  0.00    -0.090 HD
ATOM     20  H   LIG d   1       2.090  89.036 112.726  0.00  0.00    -0.090 HD
ATOM     21  H   LIG d   1       1.758  88.736 111.150  0.00  0.00    -0.090 HD
ENDBRANCH   5  18
BRANCH   3  22
ATOM     22  C   LIG d   1      -0.753  84.846 110.904  0.00  0.00     0.382 C 
ATOM     23  O   LIG d   1      -1.474  85.675 110.297  0.00  0.00    -0.241 OA
ATOM     24  O   LIG d   1      -1.182  83.695 111.111  0.00  0.00    -0.241 OA
ENDBRANCH   3  22
TORSDOF 7
ENDMDL
MODEL 5
REMARK VINA RESULT:      -5.6     10.088     12.931
REMARK  7 active torsions:
REMARK  status: ('A' for Active; 'I' for Inactive)
REMARK    1  A    between atoms: C_2  and  C_3 
REMARK    2  A    between atoms: C_3  and  O_6 
REMARK    3  A    between atoms: C_3  and  C_4 
REMARK    4  A    between atoms: C_7  and  O_6 
REMARK    5  A    between atoms: C_9  and  C_10 
REMARK    6  A    between atoms: N_15  and  C_14 
REMARK    7  A    between atoms: N_20  and  C_19 
REMARK       I    between atoms: C_22  and  N_20 
ROOT
ATOM      1  C   LIG d   1       3.609  85.709 112.121  0.00  0.00     0.161 C 
ATOM      2  C   LIG d   1       4.468  86.821 112.086  0.00  0.00     0.016 C 
ATOM      3  C   LIG d   1       4.641  87.705 113.176  0.00  0.00     0.038 C 
ATOM      4  C   LIG d   1       4.079  87.449 114.435  0.00  0.00     0.028 C 
ATOM      5  C   LIG d   1       2.803  86.615 114.371  0.00  0.00    -0.047 C 
ATOM      6  C   LIG d   1       3.073  85.351 113.523  0.00  0.00     0.091 C 
ENDROOT
BRANCH   1   7
ATOM      7  O   LIG d   1       4.262  84.569 111.528  0.00  0.00    -0.368 OA
BRANCH   7   8
ATOM      8  C   LIG d   1       4.118  84.428 110.093  0.00  0.00     0.119 C 
BRANCH   8   9
ATOM      9  C   LIG d   1       2.614  84.512 109.768  0.00  0.00     0.028 C 
ATOM     10  C   LIG d   1       1.925  83.138 109.819  0.00  0.00     0.006 C 
ENDBRANCH   8   9
BRANCH   8  11
ATOM     11  C   LIG d   1       4.558  83.038 109.623  0.00  0.00     0.028 C 
ATOM     12  C   LIG d   1       5.523  82.355 110.605  0.00  0.00     0.006 C 
ENDBRANCH   8  11
ENDBRANCH   7   8
ENDBRANCH   1   7
BRANCH   6  13
ATOM     13  N   LIG d   1       1.854  84.521 113.339  0.00  0.00    -0.311 N 
ATOM     14  C   LIG d   1       0.696  85.007 112.894  0.00  0.00     0.210 C 
ATOM     15  C   LIG d   1      -0.440  83.985 112.797  0.00  0.00     0.109 C 
ATOM     16  O   LIG d   1       0.512  86.181 112.539  0.00  0.00    -0.276 OA
ATOM     17  H   LIG d   1       1.923  83.550 113.573  0.00  0.00     0.149 HD
ENDBRANCH   6  13
BRANCH   5  18
ATOM     18  N   LIG d   1       2.402  86.307 115.756  0.00  0.00     0.381 N 
ATOM     19  H   LIG d   1       2.712  85.389 116.003  0.00  0.00    -0.090 HD
ATOM     20  H   LIG d   1       1.399  86.328 115.816  0.00  0.00    -0.090 HD
ATOM     21  H   LIG d   1       2.793  86.977 116.382  0.00  0.00    -0.090 HD
ENDBRANCH   5  18
BRANCH   3  22
ATOM     22  C   LIG d   1       5.353  88.882 112.999  0.00  0.00     0.382 C 
ATOM     23  O   LIG d   1       4.753  89.984 113.005  0.00  0.00    -0.241 OA
ATOM     24  O   LIG d   1       6.581  88.852 112.791  0.00  0.00    -0.241 OA
ENDBRANCH   3  22
TORSDOF 7
ENDMDL
MODEL 6
REMARK VINA RESULT:      -5.5      9.103     11.859
REMARK  7 active torsions:
REMARK  status: ('A' for Active; 'I' for Inactive)
REMARK    1  A    between atoms: C_2  and  C_3 
REMARK    2  A    between atoms: C_3  and  O_6 
REMARK    3  A    between atoms: C_3  and  C_4 
REMARK    4  A    between atoms: C_7  and  O_6 
REMARK    5  A    between atoms: C_9  and  C_10 
REMARK    6  A    between atoms: N_15  and  C_14 
REMARK    7  A    between atoms: N_20  and  C_19 
REMARK       I    between atoms: C_22  and  N_20 
ROOT
ATOM      1  C   LIG d   1       3.581  84.177 111.748  0.00  0.00     0.161 C 
ATOM      2  C   LIG d   1       4.106  85.378 112.254  0.00  0.00     0.016 C 
ATOM      3  C   LIG d   1       3.580  86.651 111.938  0.00  0.00     0.038 C 
ATOM      4  C   LIG d   1       2.390  86.802 111.210  0.00  0.00     0.028 C 
ATOM      5  C   LIG d   1       2.111  85.643 110.259  0.00  0.00    -0.047 C 
ATOM      6  C   LIG d   1       2.216  84.315 111.042  0.00  0.00     0.091 C 
ENDROOT
BRANCH   1   7
ATOM      7  O   LIG d   1       3.503  83.196 112.801  0.00  0.00    -0.368 OA
BRANCH   7   8
ATOM      8  C   LIG d   1       4.266  81.981 112.598  0.00  0.00     0.119 C 
BRANCH   8   9
ATOM      9  C   LIG d   1       5.144  81.771 113.847  0.00  0.00     0.028 C 
ATOM     10  C   LIG d   1       4.352  81.185 115.029  0.00  0.00     0.006 C 
ENDBRANCH   8   9
BRANCH   8  11
ATOM     11  C   LIG d   1       5.249  82.128 111.432  0.00  0.00     0.028 C 
ATOM     12  C   LIG d   1       5.046  81.062 110.344  0.00  0.00     0.006 C 
ENDBRANCH   8  11
ENDBRANCH   7   8
ENDBRANCH   1   7
BRANCH   6  13
ATOM     13  N   LIG d   1       2.040  83.126 110.167  0.00  0.00    -0.311 N 
ATOM     14  C   LIG d   1       1.033  82.263 110.297  0.00  0.00     0.210 C 
ATOM     15  C   LIG d   1       1.051  81.096 109.305  0.00  0.00     0.109 C 
ATOM     16  O   LIG d   1       0.110  82.371 111.118  0.00  0.00    -0.276 OA
ATOM     17  H   LIG d   1       2.727  82.979 109.454  0.00  0.00     0.149 HD
ENDBRANCH   6  13
BRANCH   5  18
ATOM     18  N   LIG d   1       0.777  85.863 109.668  0.00  0.00     0.381 N 
ATOM     19  H   LIG d   1       0.512  85.066 109.124  0.00  0.00    -0.090 HD
ATOM     20  H   LIG d   1       0.819  86.660 109.058  0.00  0.00    -0.090 HD
ATOM     21  H   LIG d   1       0.107  86.020 110.388  0.00  0.00    -0.090 HD
ENDBRANCH   5  18
BRANCH   3  22
ATOM     22  C   LIG d   1       4.268  87.793 112.319  0.00  0.00     0.382 C 
ATOM     23  O   LIG d   1       5.522  87.804 112.303  0.00  0.00    -0.241 OA
ATOM     24  O   LIG d   1       3.651  88.798 112.721  0.00  0.00    -0.241 OA
ENDBRANCH   3  22
TORSDOF 7
ENDMDL
MODEL 7
REMARK VINA RESULT:      -5.5      9.399     11.475
REMARK  7 active torsions:
REMARK  status: ('A' for Active; 'I' for Inactive)
REMARK    1  A    between atoms: C_2  and  C_3 
REMARK    2  A    between atoms: C_3  and  O_6 
REMARK    3  A    between atoms: C_3  and  C_4 
REMARK    4  A    between atoms: C_7  and  O_6 
REMARK    5  A    between atoms: C_9  and  C_10 
REMARK    6  A    between atoms: N_15  and  C_14 
REMARK    7  A    between atoms: N_20  and  C_19 
REMARK       I    between atoms: C_22  and  N_20 
ROOT
ATOM      1  C   LIG d   1       2.485  84.323 110.742  0.00  0.00     0.161 C 
ATOM      2  C   LIG d   1       1.452  85.250 110.960  0.00  0.00     0.016 C 
ATOM      3  C   LIG d   1       0.100  84.879 111.144  0.00  0.00     0.038 C 
ATOM      4  C   LIG d   1      -0.290  83.538 111.273  0.00  0.00     0.028 C 
ATOM      5  C   LIG d   1       0.640  82.565 110.557  0.00  0.00    -0.047 C 
ATOM      6  C   LIG d   1       2.096  82.851 110.991  0.00  0.00     0.091 C 
ENDROOT
BRANCH   1   7
ATOM      7  O   LIG d   1       3.635  84.678 111.535  0.00  0.00    -0.368 OA
BRANCH   7   8
ATOM      8  C   LIG d   1       3.521  85.893 112.316  0.00  0.00     0.119 C 
BRANCH   8   9
ATOM      9  C   LIG d   1       4.673  86.825 111.894  0.00  0.00     0.028 C 
ATOM     10  C   LIG d   1       5.029  87.848 112.985  0.00  0.00     0.006 C 
ENDBRANCH   8   9
BRANCH   8  11
ATOM     11  C   LIG d   1       3.745  85.620 113.806  0.00  0.00     0.028 C 
ATOM     12  C   LIG d   1       4.464  84.287 114.067  0.00  0.00     0.006 C 
ENDBRANCH   8  11
ENDBRANCH   7   8
ENDBRANCH   1   7
BRANCH   6  13
ATOM     13  N   LIG d   1       3.079  81.998 110.273  0.00  0.00    -0.311 N 
ATOM     14  C   LIG d   1       4.084  81.368 110.879  0.00  0.00     0.210 C 
ATOM     15  C   LIG d   1       4.993  80.558 109.951  0.00  0.00     0.109 C 
ATOM     16  O   LIG d   1       4.289  81.378 112.102  0.00  0.00    -0.276 OA
ATOM     17  H   LIG d   1       2.968  81.910 109.282  0.00  0.00     0.149 HD
ENDBRANCH   6  13
BRANCH   5  18
ATOM     18  N   LIG d   1       0.195  81.198 110.888  0.00  0.00     0.381 N 
ATOM     19  H   LIG d   1      -0.103  80.728 110.057  0.00  0.00    -0.090 HD
ATOM     20  H   LIG d   1      -0.587  81.254 111.517  0.00  0.00    -0.090 HD
ATOM     21  H   LIG d   1       0.939  80.692 111.316  0.00  0.00    -0.090 HD
ENDBRANCH   5  18
BRANCH   3  22
ATOM     22  C   LIG d   1      -0.884  85.856 111.160  0.00  0.00     0.382 C 
ATOM     23  O   LIG d   1      -1.162  86.449 112.230  0.00  0.00    -0.241 OA
ATOM     24  O   LIG d   1      -1.529  86.120 110.127  0.00  0.00    -0.241 OA
ENDBRANCH   3  22
TORSDOF 7
ENDMDL
MODEL 8
REMARK VINA RESULT:      -5.4      1.747      4.688
REMARK  7 active torsions:
REMARK  status: ('A' for Active; 'I' for Inactive)
REMARK    1  A    between atoms: C_2  and  C_3 
REMARK    2  A    between atoms: C_3  and  O_6 
REMARK    3  A    between atoms: C_3  and  C_4 
REMARK    4  A    between atoms: C_7  and  O_6 
REMARK    5  A    between atoms: C_9  and  C_10 
REMARK    6  A    between atoms: N_15  and  C_14 
REMARK    7  A    between atoms: N_20  and  C_19 
REMARK       I    between atoms: C_22  and  N_20 
ROOT
ATOM      1  C   LIG d   1      -2.436  75.295 115.002  0.00  0.00     0.161 C 
ATOM      2  C   LIG d   1      -2.184  74.900 116.326  0.00  0.00     0.016 C 
ATOM      3  C   LIG d   1      -1.449  75.683 117.246  0.00  0.00     0.038 C 
ATOM      4  C   LIG d   1      -1.043  76.992 116.946  0.00  0.00     0.028 C 
ATOM      5  C   LIG d   1      -0.837  77.236 115.455  0.00  0.00    -0.047 C 
ATOM      6  C   LIG d   1      -2.097  76.768 114.691  0.00  0.00     0.091 C 
ENDROOT
BRANCH   1   7
ATOM      7  O   LIG d   1      -3.809  75.015 114.661  0.00  0.00    -0.368 OA
BRANCH   7   8
ATOM      8  C   LIG d   1      -4.776  75.175 115.728  0.00  0.00     0.119 C 
BRANCH   8   9
ATOM      9  C   LIG d   1      -5.741  73.976 115.662  0.00  0.00     0.028 C 
ATOM     10  C   LIG d   1      -6.683  73.913 116.876  0.00  0.00     0.006 C 
ENDBRANCH   8   9
BRANCH   8  11
ATOM     11  C   LIG d   1      -5.650  76.413 115.505  0.00  0.00     0.028 C 
ATOM     12  C   LIG d   1      -6.316  76.431 114.120  0.00  0.00     0.006 C 
ENDBRANCH   8  11
ENDBRANCH   7   8
ENDBRANCH   1   7
BRANCH   6  13
ATOM     13  N   LIG d   1      -1.945  76.893 113.218  0.00  0.00    -0.311 N 
ATOM     14  C   LIG d   1      -2.695  77.701 112.470  0.00  0.00     0.210 C 
ATOM     15  C   LIG d   1      -2.388  77.664 110.970  0.00  0.00     0.109 C 
ATOM     16  O   LIG d   1      -3.563  78.470 112.911  0.00  0.00    -0.276 OA
ATOM     17  H   LIG d   1      -1.243  76.329 112.782  0.00  0.00     0.149 HD
ENDBRANCH   6  13
BRANCH   5  18
ATOM     18  N   LIG d   1      -0.551  78.671 115.274  0.00  0.00     0.381 N 
ATOM     19  H   LIG d   1      -1.256  79.217 115.728  0.00  0.00    -0.090 HD
ATOM     20  H   LIG d   1      -0.569  78.885 114.292  0.00  0.00    -0.090 HD
ATOM     21  H   LIG d   1       0.345  78.891 115.652  0.00  0.00    -0.090 HD
ENDBRANCH   5  18
BRANCH   3  22
ATOM     22  C   LIG d   1      -1.079  75.141 118.467  0.00  0.00     0.382 C 
ATOM     23  O   LIG d   1      -0.842  73.913 118.563  0.00  0.00    -0.241 OA
ATOM     24  O   LIG d   1      -1.023  75.858 119.485  0.00  0.00    -0.241 OA
ENDBRANCH   3  22
TORSDOF 7
ENDMDL
MODEL 9
REMARK VINA RESULT:      -5.4     10.074     12.644
REMARK  7 active torsions:
REMARK  status: ('A' for Active; 'I' for Inactive)
REMARK    1  A    between atoms: C_2  and  C_3 
REMARK    2  A    between atoms: C_3  and  O_6 
REMARK    3  A    between atoms: C_3  and  C_4 
REMARK    4  A    between atoms: C_7  and  O_6 
REMARK    5  A    between atoms: C_9  and  C_10 
REMARK    6  A    between atoms: N_15  and  C_14 
REMARK    7  A    between atoms: N_20  and  C_19 
REMARK       I    between atoms: C_22  and  N_20 
ROOT
ATOM      1  C   LIG d   1       3.687  85.827 112.219  0.00  0.00     0.161 C 
ATOM      2  C   LIG d   1       4.250  87.112 112.145  0.00  0.00     0.016 C 
ATOM      3  C   LIG d   1       4.959  87.714 113.210  0.00  0.00     0.038 C 
ATOM      4  C   LIG d   1       5.285  87.006 114.377  0.00  0.00     0.028 C 
ATOM      5  C   LIG d   1       4.306  85.883 114.698  0.00  0.00    -0.047 C 
ATOM      6  C   LIG d   1       4.129  84.997 113.443  0.00  0.00     0.091 C 
ENDROOT
BRANCH   1   7
ATOM      7  O   LIG d   1       3.957  85.105 111.001  0.00  0.00    -0.368 OA
BRANCH   7   8
ATOM      8  C   LIG d   1       2.880  85.064 110.033  0.00  0.00     0.119 C 
BRANCH   8   9
ATOM      9  C   LIG d   1       1.553  85.151 110.812  0.00  0.00     0.028 C 
ATOM     10  C   LIG d   1       0.374  85.569 109.918  0.00  0.00     0.006 C 
ENDBRANCH   8   9
BRANCH   8  11
ATOM     11  C   LIG d   1       2.835  83.717 109.305  0.00  0.00     0.028 C 
ATOM     12  C   LIG d   1       4.155  82.937 109.414  0.00  0.00     0.006 C 
ENDBRANCH   8  11
ENDBRANCH   7   8
ENDBRANCH   1   7
BRANCH   6  13
ATOM     13  N   LIG d   1       3.122  83.923 113.645  0.00  0.00    -0.311 N 
ATOM     14  C   LIG d   1       3.358  82.638 113.382  0.00  0.00     0.210 C 
ATOM     15  C   LIG d   1       2.178  81.698 113.642  0.00  0.00     0.109 C 
ATOM     16  O   LIG d   1       4.444  82.185 112.990  0.00  0.00    -0.276 OA
ATOM     17  H   LIG d   1       2.224  84.198 113.990  0.00  0.00     0.149 HD
ENDBRANCH   6  13
BRANCH   5  18
ATOM     18  N   LIG d   1       4.840  85.143 115.857  0.00  0.00     0.381 N 
ATOM     19  H   LIG d   1       5.416  84.389 115.541  0.00  0.00    -0.090 HD
ATOM     20  H   LIG d   1       4.073  84.757 116.378  0.00  0.00    -0.090 HD
ATOM     21  H   LIG d   1       5.370  85.755 116.437  0.00  0.00    -0.090 HD
ENDBRANCH   5  18
BRANCH   3  22
ATOM     22  C   LIG d   1       5.314  89.052 113.130  0.00  0.00     0.382 C 
ATOM     23  O   LIG d   1       4.425  89.937 113.129  0.00  0.00    -0.241 OA
ATOM     24  O   LIG d   1       6.509  89.382 113.014  0.00  0.00    -0.241 OA
ENDBRANCH   3  22
TORSDOF 7
ENDMDL
