MODEL 1
REMARK VINA RESULT:      -5.1      0.000      0.000
REMARK  7 active torsions:
REMARK  status: ('A' for Active; 'I' for Inactive)
REMARK    1  A    between atoms: C_2  and  C_3 
REMARK    2  A    between atoms: C_3  and  O_6 
REMARK    3  A    between atoms: C_3  and  C_4 
REMARK    4  A    between atoms: C_7  and  O_6 
REMARK    5  A    between atoms: C_9  and  C_10 
REMARK    6  A    between atoms: N_15  and  C_14 
REMARK    7  A    between atoms: N_20  and  C_19 
REMARK       I    between atoms: C_22  and  N_20 
ROOT
ATOM      1  C   LIG d   1      -7.787  75.408 118.100  0.00  0.00     0.161 C 
ATOM      2  C   LIG d   1      -9.167  75.477 118.350  0.00  0.00     0.016 C 
ATOM      3  C   LIG d   1      -9.862  76.692 118.551  0.00  0.00     0.038 C 
ATOM      4  C   LIG d   1      -9.245  77.938 118.365  0.00  0.00     0.028 C 
ATOM      5  C   LIG d   1      -7.740  77.912 118.609  0.00  0.00    -0.047 C 
ATOM      6  C   LIG d   1      -7.118  76.762 117.783  0.00  0.00     0.091 C 
ENDROOT
BRANCH   1   7
ATOM      7  O   LIG d   1      -7.528  74.462 117.044  0.00  0.00    -0.368 OA
BRANCH   7   8
ATOM      8  C   LIG d   1      -7.000  73.177 117.454  0.00  0.00     0.119 C 
BRANCH   8   9
ATOM      9  C   LIG d   1      -5.633  72.997 116.765  0.00  0.00     0.028 C 
ATOM     10  C   LIG d   1      -5.463  73.921 115.547  0.00  0.00     0.006 C 
ENDBRANCH   8   9
BRANCH   8  11
ATOM     11  C   LIG d   1      -7.869  72.027 116.937  0.00  0.00     0.028 C 
ATOM     12  C   LIG d   1      -7.512  70.676 117.578  0.00  0.00     0.006 C 
ENDBRANCH   8  11
ENDBRANCH   7   8
ENDBRANCH   1   7
BRANCH   6  13
ATOM     13  N   LIG d   1      -5.660  76.613 118.029  0.00  0.00    -0.311 N 
ATOM     14  C   LIG d   1      -4.728  77.244 117.317  0.00  0.00     0.210 C 
ATOM     15  C   LIG d   1      -3.284  76.933 117.722  0.00  0.00     0.109 C 
ATOM     16  O   LIG d   1      -4.961  78.056 116.409  0.00  0.00    -0.276 OA
ATOM     17  H   LIG d   1      -5.383  75.996 118.767  0.00  0.00     0.149 HD
ENDBRANCH   6  13
BRANCH   5  18
ATOM     18  N   LIG d   1      -7.207  79.238 118.246  0.00  0.00     0.381 N 
ATOM     19  H   LIG d   1      -7.342  79.402 117.269  0.00  0.00    -0.090 HD
ATOM     20  H   LIG d   1      -6.220  79.254 118.435  0.00  0.00    -0.090 HD
ATOM     21  H   LIG d   1      -7.665  79.947 118.776  0.00  0.00    -0.090 HD
ENDBRANCH   5  18
BRANCH   3  22
ATOM     22  C   LIG d   1     -11.180  76.667 118.982  0.00  0.00     0.382 C 
ATOM     23  O   LIG d   1     -12.018  75.942 118.394  0.00  0.00    -0.241 OA
ATOM     24  O   LIG d   1     -11.550  77.394 119.923  0.00  0.00    -0.241 OA
ENDBRANCH   3  22
TORSDOF 7
ENDMDL
MODEL 2
REMARK VINA RESULT:      -4.9      2.856      3.797
REMARK  7 active torsions:
REMARK  status: ('A' for Active; 'I' for Inactive)
REMARK    1  A    between atoms: C_2  and  C_3 
REMARK    2  A    between atoms: C_3  and  O_6 
REMARK    3  A    between atoms: C_3  and  C_4 
REMARK    4  A    between atoms: C_7  and  O_6 
REMARK    5  A    between atoms: C_9  and  C_10 
REMARK    6  A    between atoms: N_15  and  C_14 
REMARK    7  A    between atoms: N_20  and  C_19 
REMARK       I    between atoms: C_22  and  N_20 
ROOT
ATOM      1  C   LIG d   1      -6.926  78.880 118.058  0.00  0.00     0.161 C 
ATOM      2  C   LIG d   1      -8.292  79.155 118.238  0.00  0.00     0.016 C 
ATOM      3  C   LIG d   1      -8.884  80.399 117.917  0.00  0.00     0.038 C 
ATOM      4  C   LIG d   1      -8.174  81.408 117.250  0.00  0.00     0.028 C 
ATOM      5  C   LIG d   1      -6.671  81.362 117.506  0.00  0.00    -0.047 C 
ATOM      6  C   LIG d   1      -6.158  79.931 117.228  0.00  0.00     0.091 C 
ENDROOT
BRANCH   1   7
ATOM      7  O   LIG d   1      -6.763  77.570 117.481  0.00  0.00    -0.368 OA
BRANCH   7   8
ATOM      8  C   LIG d   1      -7.641  76.536 117.991  0.00  0.00     0.119 C 
BRANCH   8   9
ATOM      9  C   LIG d   1      -6.821  75.674 118.970  0.00  0.00     0.028 C 
ATOM     10  C   LIG d   1      -7.417  75.669 120.388  0.00  0.00     0.006 C 
ENDBRANCH   8   9
BRANCH   8  11
ATOM     11  C   LIG d   1      -8.079  75.579 116.878  0.00  0.00     0.028 C 
ATOM     12  C   LIG d   1      -9.348  74.789 117.237  0.00  0.00     0.006 C 
ENDBRANCH   8  11
ENDBRANCH   7   8
ENDBRANCH   1   7
BRANCH   6  13
ATOM     13  N   LIG d   1      -4.712  79.777 117.535  0.00  0.00    -0.311 N 
ATOM     14  C   LIG d   1      -3.753  79.886 116.618  0.00  0.00     0.210 C 
ATOM     15  C   LIG d   1      -2.329  79.673 117.143  0.00  0.00     0.109 C 
ATOM     16  O   LIG d   1      -3.942  80.172 115.426  0.00  0.00    -0.276 OA
ATOM     17  H   LIG d   1      -4.466  79.575 118.485  0.00  0.00     0.149 HD
ENDBRANCH   6  13
BRANCH   5  18
ATOM     18  N   LIG d   1      -6.041  82.380 116.644  0.00  0.00     0.381 N 
ATOM     19  H   LIG d   1      -5.101  82.110 116.433  0.00  0.00    -0.090 HD
ATOM     20  H   LIG d   1      -6.014  83.254 117.139  0.00  0.00    -0.090 HD
ATOM     21  H   LIG d   1      -6.562  82.483 115.801  0.00  0.00    -0.090 HD
ENDBRANCH   5  18
BRANCH   3  22
ATOM     22  C   LIG d   1     -10.191  80.657 118.302  0.00  0.00     0.382 C 
ATOM     23  O   LIG d   1     -10.884  81.479 117.655  0.00  0.00    -0.241 OA
ATOM     24  O   LIG d   1     -10.671  80.111 119.313  0.00  0.00    -0.241 OA
ENDBRANCH   3  22
TORSDOF 7
ENDMDL
MODEL 3
REMARK VINA RESULT:      -4.8      2.355      3.228
REMARK  7 active torsions:
REMARK  status: ('A' for Active; 'I' for Inactive)
REMARK    1  A    between atoms: C_2  and  C_3 
REMARK    2  A    between atoms: C_3  and  O_6 
REMARK    3  A    between atoms: C_3  and  C_4 
REMARK    4  A    between atoms: C_7  and  O_6 
REMARK    5  A    between atoms: C_9  and  C_10 
REMARK    6  A    between atoms: N_15  and  C_14 
REMARK    7  A    between atoms: N_20  and  C_19 
REMARK       I    between atoms: C_22  and  N_20 
ROOT
ATOM      1  C   LIG d   1      -7.311  78.039 118.076  0.00  0.00     0.161 C 
ATOM      2  C   LIG d   1      -8.377  77.181 118.393  0.00  0.00     0.016 C 
ATOM      3  C   LIG d   1      -9.675  77.640 118.714  0.00  0.00     0.038 C 
ATOM      4  C   LIG d   1     -10.037  78.989 118.590  0.00  0.00     0.028 C 
ATOM      5  C   LIG d   1      -8.864  79.949 118.761  0.00  0.00    -0.047 C 
ATOM      6  C   LIG d   1      -7.714  79.508 117.827  0.00  0.00     0.091 C 
ENDROOT
BRANCH   1   7
ATOM      7  O   LIG d   1      -6.587  77.520 116.943  0.00  0.00    -0.368 OA
BRANCH   7   8
ATOM      8  C   LIG d   1      -6.361  76.089 116.932  0.00  0.00     0.119 C 
BRANCH   8   9
ATOM      9  C   LIG d   1      -4.847  75.858 117.099  0.00  0.00     0.028 C 
ATOM     10  C   LIG d   1      -4.475  75.410 118.523  0.00  0.00     0.006 C 
ENDBRANCH   8   9
BRANCH   8  11
ATOM     11  C   LIG d   1      -6.717  75.479 115.573  0.00  0.00     0.028 C 
ATOM     12  C   LIG d   1      -5.485  74.971 114.807  0.00  0.00     0.006 C 
ENDBRANCH   8  11
ENDBRANCH   7   8
ENDBRANCH   1   7
BRANCH   6  13
ATOM     13  N   LIG d   1      -6.496  80.343 117.994  0.00  0.00    -0.311 N 
ATOM     14  C   LIG d   1      -6.241  81.423 117.257  0.00  0.00     0.210 C 
ATOM     15  C   LIG d   1      -4.920  82.128 117.578  0.00  0.00     0.109 C 
ATOM     16  O   LIG d   1      -6.999  81.882 116.389  0.00  0.00    -0.276 OA
ATOM     17  H   LIG d   1      -5.842  80.061 118.697  0.00  0.00     0.149 HD
ENDBRANCH   6  13
BRANCH   5  18
ATOM     18  N   LIG d   1      -9.355  81.309 118.472  0.00  0.00     0.381 N 
ATOM     19  H   LIG d   1      -8.728  81.985 118.860  0.00  0.00    -0.090 HD
ATOM     20  H   LIG d   1     -10.255  81.429 118.903  0.00  0.00    -0.090 HD
ATOM     21  H   LIG d   1      -9.430  81.442 117.487  0.00  0.00    -0.090 HD
ENDBRANCH   5  18
BRANCH   3  22
ATOM     22  C   LIG d   1     -10.618  76.748 119.202  0.00  0.00     0.382 C 
ATOM     23  O   LIG d   1     -11.729  76.634 118.630  0.00  0.00    -0.241 OA
ATOM     24  O   LIG d   1     -10.388  76.088 120.233  0.00  0.00    -0.241 OA
ENDBRANCH   3  22
TORSDOF 7
ENDMDL
MODEL 4
REMARK VINA RESULT:      -4.8      2.372      4.524
REMARK  7 active torsions:
REMARK  status: ('A' for Active; 'I' for Inactive)
REMARK    1  A    between atoms: C_2  and  C_3 
REMARK    2  A    between atoms: C_3  and  O_6 
REMARK    3  A    between atoms: C_3  and  C_4 
REMARK    4  A    between atoms: C_7  and  O_6 
REMARK    5  A    between atoms: C_9  and  C_10 
REMARK    6  A    between atoms: N_15  and  C_14 
REMARK    7  A    between atoms: N_20  and  C_19 
REMARK       I    between atoms: C_22  and  N_20 
ROOT
ATOM      1  C   LIG d   1      -6.978  75.861 116.555  0.00  0.00     0.161 C 
ATOM      2  C   LIG d   1      -8.311  75.509 116.824  0.00  0.00     0.016 C 
ATOM      3  C   LIG d   1      -8.726  74.186 117.099  0.00  0.00     0.038 C 
ATOM      4  C   LIG d   1      -7.806  73.142 117.274  0.00  0.00     0.028 C 
ATOM      5  C   LIG d   1      -6.500  73.351 116.516  0.00  0.00    -0.047 C 
ATOM      6  C   LIG d   1      -5.944  74.754 116.852  0.00  0.00     0.091 C 
ENDROOT
BRANCH   1   7
ATOM      7  O   LIG d   1      -6.638  77.067 117.268  0.00  0.00    -0.368 OA
BRANCH   7   8
ATOM      8  C   LIG d   1      -7.498  77.414 118.380  0.00  0.00     0.119 C 
BRANCH   8   9
ATOM      9  C   LIG d   1      -7.855  78.907 118.242  0.00  0.00     0.028 C 
ATOM     10  C   LIG d   1      -9.362  79.167 118.397  0.00  0.00     0.006 C 
ENDBRANCH   8   9
BRANCH   8  11
ATOM     11  C   LIG d   1      -6.757  77.296 119.716  0.00  0.00     0.028 C 
ATOM     12  C   LIG d   1      -6.825  75.881 120.312  0.00  0.00     0.006 C 
ENDBRANCH   8  11
ENDBRANCH   7   8
ENDBRANCH   1   7
BRANCH   6  13
ATOM     13  N   LIG d   1      -4.711  75.073 116.087  0.00  0.00    -0.311 N 
ATOM     14  C   LIG d   1      -3.483  74.831 116.541  0.00  0.00     0.210 C 
ATOM     15  C   LIG d   1      -2.350  75.256 115.602  0.00  0.00     0.109 C 
ATOM     16  O   LIG d   1      -3.225  74.274 117.619  0.00  0.00    -0.276 OA
ATOM     17  H   LIG d   1      -4.829  75.499 115.188  0.00  0.00     0.149 HD
ENDBRANCH   6  13
BRANCH   5  18
ATOM     18  N   LIG d   1      -5.584  72.260 116.897  0.00  0.00     0.381 N 
ATOM     19  H   LIG d   1      -4.660  72.463 116.569  0.00  0.00    -0.090 HD
ATOM     20  H   LIG d   1      -5.893  71.409 116.461  0.00  0.00    -0.090 HD
ATOM     21  H   LIG d   1      -5.576  72.151 117.887  0.00  0.00    -0.090 HD
ENDBRANCH   5  18
BRANCH   3  22
ATOM     22  C   LIG d   1     -10.079  73.890 117.161  0.00  0.00     0.382 C 
ATOM     23  O   LIG d   1     -10.890  74.749 117.584  0.00  0.00    -0.241 OA
ATOM     24  O   LIG d   1     -10.494  72.759 116.843  0.00  0.00    -0.241 OA
ENDBRANCH   3  22
TORSDOF 7
ENDMDL
MODEL 5
REMARK VINA RESULT:      -4.6      2.723      3.520
REMARK  7 active torsions:
REMARK  status: ('A' for Active; 'I' for Inactive)
REMARK    1  A    between atoms: C_2  and  C_3 
REMARK    2  A    between atoms: C_3  and  O_6 
REMARK    3  A    between atoms: C_3  and  C_4 
REMARK    4  A    between atoms: C_7  and  O_6 
REMARK    5  A    between atoms: C_9  and  C_10 
REMARK    6  A    between atoms: N_15  and  C_14 
REMARK    7  A    between atoms: N_20  and  C_19 
REMARK       I    between atoms: C_22  and  N_20 
ROOT
ATOM      1  C   LIG d   1      -9.306  77.185 119.191  0.00  0.00     0.161 C 
ATOM      2  C   LIG d   1     -10.279  76.572 119.998  0.00  0.00     0.016 C 
ATOM      3  C   LIG d   1     -11.205  77.294 120.785  0.00  0.00     0.038 C 
ATOM      4  C   LIG d   1     -11.320  78.690 120.702  0.00  0.00     0.028 C 
ATOM      5  C   LIG d   1     -10.025  79.380 120.285  0.00  0.00    -0.047 C 
ATOM      6  C   LIG d   1      -9.488  78.706 119.002  0.00  0.00     0.091 C 
ENDROOT
BRANCH   1   7
ATOM      7  O   LIG d   1      -9.245  76.525 117.912  0.00  0.00    -0.368 OA
BRANCH   7   8
ATOM      8  C   LIG d   1      -9.372  75.082 117.933  0.00  0.00     0.119 C 
BRANCH   8   9
ATOM      9  C   LIG d   1      -8.121  74.497 117.248  0.00  0.00     0.028 C 
ATOM     10  C   LIG d   1      -6.951  74.306 118.228  0.00  0.00     0.006 C 
ENDBRANCH   8   9
BRANCH   8  11
ATOM     11  C   LIG d   1     -10.556  74.614 117.081  0.00  0.00     0.028 C 
ATOM     12  C   LIG d   1     -10.610  73.086 116.923  0.00  0.00     0.006 C 
ENDBRANCH   8  11
ENDBRANCH   7   8
ENDBRANCH   1   7
BRANCH   6  13
ATOM     13  N   LIG d   1      -8.179  79.265 118.573  0.00  0.00    -0.311 N 
ATOM     14  C   LIG d   1      -8.060  80.283 117.722  0.00  0.00     0.210 C 
ATOM     15  C   LIG d   1      -6.619  80.690 117.399  0.00  0.00     0.109 C 
ATOM     16  O   LIG d   1      -9.012  80.908 117.230  0.00  0.00    -0.276 OA
ATOM     17  H   LIG d   1      -7.355  78.838 118.949  0.00  0.00     0.149 HD
ENDBRANCH   6  13
BRANCH   5  18
ATOM     18  N   LIG d   1     -10.322  80.813 120.105  0.00  0.00     0.381 N 
ATOM     19  H   LIG d   1     -10.533  81.230 120.990  0.00  0.00    -0.090 HD
ATOM     20  H   LIG d   1     -11.128  80.906 119.512  0.00  0.00    -0.090 HD
ATOM     21  H   LIG d   1      -9.542  81.274 119.691  0.00  0.00    -0.090 HD
ENDBRANCH   5  18
BRANCH   3  22
ATOM     22  C   LIG d   1     -12.003  76.621 121.698  0.00  0.00     0.382 C 
ATOM     23  O   LIG d   1     -13.190  76.986 121.882  0.00  0.00    -0.241 OA
ATOM     24  O   LIG d   1     -11.538  75.683 122.372  0.00  0.00    -0.241 OA
ENDBRANCH   3  22
TORSDOF 7
ENDMDL
MODEL 6
REMARK VINA RESULT:      -4.3     17.827     19.941
REMARK  7 active torsions:
REMARK  status: ('A' for Active; 'I' for Inactive)
REMARK    1  A    between atoms: C_2  and  C_3 
REMARK    2  A    between atoms: C_3  and  O_6 
REMARK    3  A    between atoms: C_3  and  C_4 
REMARK    4  A    between atoms: C_7  and  O_6 
REMARK    5  A    between atoms: C_9  and  C_10 
REMARK    6  A    between atoms: N_15  and  C_14 
REMARK    7  A    between atoms: N_20  and  C_19 
REMARK       I    between atoms: C_22  and  N_20 
ROOT
ATOM      1  C   LIG d   1      -4.757  95.262 119.414  0.00  0.00     0.161 C 
ATOM      2  C   LIG d   1      -5.896  94.530 119.040  0.00  0.00     0.016 C 
ATOM      3  C   LIG d   1      -7.015  95.107 118.396  0.00  0.00     0.038 C 
ATOM      4  C   LIG d   1      -7.007  96.435 117.943  0.00  0.00     0.028 C 
ATOM      5  C   LIG d   1      -6.082  97.343 118.746  0.00  0.00    -0.047 C 
ATOM      6  C   LIG d   1      -4.684  96.688 118.829  0.00  0.00     0.091 C 
ENDROOT
BRANCH   1   7
ATOM      7  O   LIG d   1      -3.568  94.521 119.077  0.00  0.00    -0.368 OA
BRANCH   7   8
ATOM      8  C   LIG d   1      -3.645  93.084 119.240  0.00  0.00     0.119 C 
BRANCH   8   9
ATOM      9  C   LIG d   1      -3.147  92.751 120.660  0.00  0.00     0.028 C 
ATOM     10  C   LIG d   1      -1.775  93.378 120.962  0.00  0.00     0.006 C 
ENDBRANCH   8   9
BRANCH   8  11
ATOM     11  C   LIG d   1      -2.681  92.363 118.293  0.00  0.00     0.028 C 
ATOM     12  C   LIG d   1      -2.917  90.845 118.244  0.00  0.00     0.006 C 
ENDBRANCH   8  11
ENDBRANCH   7   8
ENDBRANCH   1   7
BRANCH   6  13
ATOM     13  N   LIG d   1      -3.740  97.471 119.668  0.00  0.00    -0.311 N 
ATOM     14  C   LIG d   1      -2.936  98.415 119.182  0.00  0.00     0.210 C 
ATOM     15  C   LIG d   1      -2.028  99.087 120.217  0.00  0.00     0.109 C 
ATOM     16  O   LIG d   1      -2.912  98.783 117.998  0.00  0.00    -0.276 OA
ATOM     17  H   LIG d   1      -3.717  97.260 120.647  0.00  0.00     0.149 HD
ENDBRANCH   6  13
BRANCH   5  18
ATOM     18  N   LIG d   1      -6.065  98.660 118.083  0.00  0.00     0.381 N 
ATOM     19  H   LIG d   1      -5.140  98.866 117.762  0.00  0.00    -0.090 HD
ATOM     20  H   LIG d   1      -6.332  99.363 118.750  0.00  0.00    -0.090 HD
ATOM     21  H   LIG d   1      -6.700  98.663 117.315  0.00  0.00    -0.090 HD
ENDBRANCH   5  18
BRANCH   3  22
ATOM     22  C   LIG d   1      -8.174  94.363 118.235  0.00  0.00     0.382 C 
ATOM     23  O   LIG d   1      -8.227  93.467 117.358  0.00  0.00    -0.241 OA
ATOM     24  O   LIG d   1      -9.182  94.606 118.925  0.00  0.00    -0.241 OA
ENDBRANCH   3  22
TORSDOF 7
ENDMDL
MODEL 7
REMARK VINA RESULT:      -4.3      2.328      4.281
REMARK  7 active torsions:
REMARK  status: ('A' for Active; 'I' for Inactive)
REMARK    1  A    between atoms: C_2  and  C_3 
REMARK    2  A    between atoms: C_3  and  O_6 
REMARK    3  A    between atoms: C_3  and  C_4 
REMARK    4  A    between atoms: C_7  and  O_6 
REMARK    5  A    between atoms: C_9  and  C_10 
REMARK    6  A    between atoms: N_15  and  C_14 
REMARK    7  A    between atoms: N_20  and  C_19 
REMARK       I    between atoms: C_22  and  N_20 
ROOT
ATOM      1  C   LIG d   1      -7.136  75.551 118.049  0.00  0.00     0.161 C 
ATOM      2  C   LIG d   1      -7.944  76.612 118.489  0.00  0.00     0.016 C 
ATOM      3  C   LIG d   1      -9.356  76.594 118.424  0.00  0.00     0.038 C 
ATOM      4  C   LIG d   1     -10.066  75.443 118.052  0.00  0.00     0.028 C 
ATOM      5  C   LIG d   1      -9.284  74.522 117.122  0.00  0.00    -0.047 C 
ATOM      6  C   LIG d   1      -7.896  74.243 117.743  0.00  0.00     0.091 C 
ENDROOT
BRANCH   1   7
ATOM      7  O   LIG d   1      -6.085  75.308 119.005  0.00  0.00    -0.368 OA
BRANCH   7   8
ATOM      8  C   LIG d   1      -4.813  75.945 118.730  0.00  0.00     0.119 C 
BRANCH   8   9
ATOM      9  C   LIG d   1      -3.916  74.905 118.032  0.00  0.00     0.028 C 
ATOM     10  C   LIG d   1      -3.872  75.097 116.507  0.00  0.00     0.006 C 
ENDBRANCH   8   9
BRANCH   8  11
ATOM     11  C   LIG d   1      -4.081  76.309 120.025  0.00  0.00     0.028 C 
ATOM     12  C   LIG d   1      -2.585  75.962 119.981  0.00  0.00     0.006 C 
ENDBRANCH   8  11
ENDBRANCH   7   8
ENDBRANCH   1   7
BRANCH   6  13
ATOM     13  N   LIG d   1      -7.034  73.418 116.857  0.00  0.00    -0.311 N 
ATOM     14  C   LIG d   1      -6.957  72.091 116.937  0.00  0.00     0.210 C 
ATOM     15  C   LIG d   1      -5.992  71.438 115.943  0.00  0.00     0.109 C 
ATOM     16  O   LIG d   1      -7.621  71.390 117.716  0.00  0.00    -0.276 OA
ATOM     17  H   LIG d   1      -6.484  73.904 116.175  0.00  0.00     0.149 HD
ENDBRANCH   6  13
BRANCH   5  18
ATOM     18  N   LIG d   1     -10.086  73.300 116.926  0.00  0.00     0.381 N 
ATOM     19  H   LIG d   1     -10.988  73.416 117.342  0.00  0.00    -0.090 HD
ATOM     20  H   LIG d   1      -9.625  72.532 117.381  0.00  0.00    -0.090 HD
ATOM     21  H   LIG d   1     -10.183  73.108 115.953  0.00  0.00    -0.090 HD
ENDBRANCH   5  18
BRANCH   3  22
ATOM     22  C   LIG d   1     -10.072  77.750 118.696  0.00  0.00     0.382 C 
ATOM     23  O   LIG d   1     -11.253  77.673 119.112  0.00  0.00    -0.241 OA
ATOM     24  O   LIG d   1      -9.566  78.869 118.490  0.00  0.00    -0.241 OA
ENDBRANCH   3  22
TORSDOF 7
ENDMDL
MODEL 8
REMARK VINA RESULT:      -4.2     16.184     18.084
REMARK  7 active torsions:
REMARK  status: ('A' for Active; 'I' for Inactive)
REMARK    1  A    between atoms: C_2  and  C_3 
REMARK    2  A    between atoms: C_3  and  O_6 
REMARK    3  A    between atoms: C_3  and  C_4 
REMARK    4  A    between atoms: C_7  and  O_6 
REMARK    5  A    between atoms: C_9  and  C_10 
REMARK    6  A    between atoms: N_15  and  C_14 
REMARK    7  A    between atoms: N_20  and  C_19 
REMARK       I    between atoms: C_22  and  N_20 
ROOT
ATOM      1  C   LIG d   1       1.477  90.630 118.491  0.00  0.00     0.161 C 
ATOM      2  C   LIG d   1       0.142  90.198 118.416  0.00  0.00     0.016 C 
ATOM      3  C   LIG d   1      -0.958  91.082 118.334  0.00  0.00     0.038 C 
ATOM      4  C   LIG d   1      -0.787  92.465 118.167  0.00  0.00     0.028 C 
ATOM      5  C   LIG d   1       0.524  92.987 118.744  0.00  0.00    -0.047 C 
ATOM      6  C   LIG d   1       1.689  92.130 118.198  0.00  0.00     0.091 C 
ENDROOT
BRANCH   1   7
ATOM      7  O   LIG d   1       2.299  89.829 117.619  0.00  0.00    -0.368 OA
BRANCH   7   8
ATOM      8  C   LIG d   1       2.460  90.320 116.266  0.00  0.00     0.119 C 
BRANCH   8   9
ATOM      9  C   LIG d   1       1.514  89.505 115.363  0.00  0.00     0.028 C 
ATOM     10  C   LIG d   1       2.257  88.425 114.558  0.00  0.00     0.006 C 
ENDBRANCH   8   9
BRANCH   8  11
ATOM     11  C   LIG d   1       3.869  90.039 115.735  0.00  0.00     0.028 C 
ATOM     12  C   LIG d   1       4.935  90.041 116.843  0.00  0.00     0.006 C 
ENDBRANCH   8  11
ENDBRANCH   7   8
ENDBRANCH   1   7
BRANCH   6  13
ATOM     13  N   LIG d   1       3.000  92.521 118.779  0.00  0.00    -0.311 N 
ATOM     14  C   LIG d   1       3.933  93.188 118.101  0.00  0.00     0.210 C 
ATOM     15  C   LIG d   1       5.220  93.473 118.881  0.00  0.00     0.109 C 
ATOM     16  O   LIG d   1       3.803  93.599 116.938  0.00  0.00    -0.276 OA
ATOM     17  H   LIG d   1       3.176  92.255 119.728  0.00  0.00     0.149 HD
ENDBRANCH   6  13
BRANCH   5  18
ATOM     18  N   LIG d   1       0.634  94.412 118.380  0.00  0.00     0.381 N 
ATOM     19  H   LIG d   1      -0.069  94.940 118.857  0.00  0.00    -0.090 HD
ATOM     20  H   LIG d   1       0.484  94.508 117.391  0.00  0.00    -0.090 HD
ATOM     21  H   LIG d   1       1.538  94.757 118.620  0.00  0.00    -0.090 HD
ENDBRANCH   5  18
BRANCH   3  22
ATOM     22  C   LIG d   1      -2.247  90.588 118.458  0.00  0.00     0.382 C 
ATOM     23  O   LIG d   1      -3.229  91.324 118.195  0.00  0.00    -0.241 OA
ATOM     24  O   LIG d   1      -2.443  89.430 118.872  0.00  0.00    -0.241 OA
ENDBRANCH   3  22
TORSDOF 7
ENDMDL
MODEL 9
REMARK VINA RESULT:      -4.1      2.625      5.395
REMARK  7 active torsions:
REMARK  status: ('A' for Active; 'I' for Inactive)
REMARK    1  A    between atoms: C_2  and  C_3 
REMARK    2  A    between atoms: C_3  and  O_6 
REMARK    3  A    between atoms: C_3  and  C_4 
REMARK    4  A    between atoms: C_7  and  O_6 
REMARK    5  A    between atoms: C_9  and  C_10 
REMARK    6  A    between atoms: N_15  and  C_14 
REMARK    7  A    between atoms: N_20  and  C_19 
REMARK       I    between atoms: C_22  and  N_20 
ROOT
ATOM      1  C   LIG d   1      -7.193  78.463 117.942  0.00  0.00     0.161 C 
ATOM      2  C   LIG d   1      -6.182  79.394 117.653  0.00  0.00     0.016 C 
ATOM      3  C   LIG d   1      -6.394  80.792 117.631  0.00  0.00     0.038 C 
ATOM      4  C   LIG d   1      -7.605  81.365 118.047  0.00  0.00     0.028 C 
ATOM      5  C   LIG d   1      -8.806  80.444 117.861  0.00  0.00    -0.047 C 
ATOM      6  C   LIG d   1      -8.493  79.074 118.506  0.00  0.00     0.091 C 
ENDROOT
BRANCH   1   7
ATOM      7  O   LIG d   1      -6.686  77.451 118.835  0.00  0.00    -0.368 OA
BRANCH   7   8
ATOM      8  C   LIG d   1      -6.320  76.189 118.225  0.00  0.00     0.119 C 
BRANCH   8   9
ATOM      9  C   LIG d   1      -7.125  76.055 116.918  0.00  0.00     0.028 C 
ATOM     10  C   LIG d   1      -8.178  74.936 116.990  0.00  0.00     0.006 C 
ENDBRANCH   8   9
BRANCH   8  11
ATOM     11  C   LIG d   1      -6.754  75.004 119.093  0.00  0.00     0.028 C 
ATOM     12  C   LIG d   1      -6.968  75.391 120.565  0.00  0.00     0.006 C 
ENDBRANCH   8  11
ENDBRANCH   7   8
ENDBRANCH   1   7
BRANCH   6  13
ATOM     13  N   LIG d   1      -9.583  78.086 118.296  0.00  0.00    -0.311 N 
ATOM     14  C   LIG d   1     -10.088  77.333 119.272  0.00  0.00     0.210 C 
ATOM     15  C   LIG d   1     -11.192  76.365 118.836  0.00  0.00     0.109 C 
ATOM     16  O   LIG d   1      -9.749  77.398 120.463  0.00  0.00    -0.276 OA
ATOM     17  H   LIG d   1      -9.939  77.991 117.365  0.00  0.00     0.149 HD
ENDBRANCH   6  13
BRANCH   5  18
ATOM     18  N   LIG d   1      -9.977  81.111 118.461  0.00  0.00     0.381 N 
ATOM     19  H   LIG d   1      -9.710  82.008 118.815  0.00  0.00    -0.090 HD
ATOM     20  H   LIG d   1     -10.310  80.555 119.228  0.00  0.00    -0.090 HD
ATOM     21  H   LIG d   1     -10.696  81.216 117.779  0.00  0.00    -0.090 HD
ENDBRANCH   5  18
BRANCH   3  22
ATOM     22  C   LIG d   1      -5.399  81.630 117.151  0.00  0.00     0.382 C 
ATOM     23  O   LIG d   1      -4.922  82.525 117.890  0.00  0.00    -0.241 OA
ATOM     24  O   LIG d   1      -5.004  81.532 115.974  0.00  0.00    -0.241 OA
ENDBRANCH   3  22
TORSDOF 7
ENDMDL
