MODEL 1
REMARK VINA RESULT:      -6.2      0.000      0.000
REMARK  7 active torsions:
REMARK  status: ('A' for Active; 'I' for Inactive)
REMARK    1  A    between atoms: C_2  and  C_3 
REMARK    2  A    between atoms: C_3  and  O_6 
REMARK    3  A    between atoms: C_3  and  C_4 
REMARK    4  A    between atoms: C_7  and  O_6 
REMARK    5  A    between atoms: C_9  and  C_10 
REMARK    6  A    between atoms: N_15  and  C_14 
REMARK    7  A    between atoms: N_20  and  C_19 
REMARK       I    between atoms: C_22  and  N_20 
ROOT
ATOM      1  C   LIG d   1      -2.988  76.897 115.846  0.00  0.00     0.161 C 
ATOM      2  C   LIG d   1      -3.356  77.537 114.651  0.00  0.00     0.016 C 
ATOM      3  C   LIG d   1      -2.566  77.509 113.478  0.00  0.00     0.038 C 
ATOM      4  C   LIG d   1      -1.420  76.708 113.375  0.00  0.00     0.028 C 
ATOM      5  C   LIG d   1      -0.741  76.447 114.715  0.00  0.00    -0.047 C 
ATOM      6  C   LIG d   1      -1.795  75.926 115.719  0.00  0.00     0.091 C 
ENDROOT
BRANCH   1   7
ATOM      7  O   LIG d   1      -4.128  76.218 116.408  0.00  0.00    -0.368 OA
BRANCH   7   8
ATOM      8  C   LIG d   1      -5.196  75.893 115.484  0.00  0.00     0.119 C 
BRANCH   8   9
ATOM      9  C   LIG d   1      -6.529  76.221 116.184  0.00  0.00     0.028 C 
ATOM     10  C   LIG d   1      -6.373  77.303 117.266  0.00  0.00     0.006 C 
ENDBRANCH   8   9
BRANCH   8  11
ATOM     11  C   LIG d   1      -5.247  74.390 115.198  0.00  0.00     0.028 C 
ATOM     12  C   LIG d   1      -6.316  73.661 116.028  0.00  0.00     0.006 C 
ENDBRANCH   8  11
ENDBRANCH   7   8
ENDBRANCH   1   7
BRANCH   6  13
ATOM     13  N   LIG d   1      -1.232  75.725 117.079  0.00  0.00    -0.311 N 
ATOM     14  C   LIG d   1      -0.656  74.590 117.474  0.00  0.00     0.210 C 
ATOM     15  C   LIG d   1      -0.160  74.587 118.923  0.00  0.00     0.109 C 
ATOM     16  O   LIG d   1      -0.480  73.598 116.751  0.00  0.00    -0.276 OA
ATOM     17  H   LIG d   1      -1.304  76.490 117.720  0.00  0.00     0.149 HD
ENDBRANCH   6  13
BRANCH   5  18
ATOM     18  N   LIG d   1       0.356  75.489 114.480  0.00  0.00     0.381 N 
ATOM     19  H   LIG d   1       0.573  75.007 115.329  0.00  0.00    -0.090 HD
ATOM     20  H   LIG d   1       1.173  75.996 114.187  0.00  0.00    -0.090 HD
ATOM     21  H   LIG d   1       0.093  74.834 113.777  0.00  0.00    -0.090 HD
ENDBRANCH   5  18
BRANCH   3  22
ATOM     22  C   LIG d   1      -2.901  78.321 112.405  0.00  0.00     0.382 C 
ATOM     23  O   LIG d   1      -2.869  77.863 111.238  0.00  0.00    -0.241 OA
ATOM     24  O   LIG d   1      -3.192  79.519 112.586  0.00  0.00    -0.241 OA
ENDBRANCH   3  22
TORSDOF 7
ENDMDL
MODEL 2
REMARK VINA RESULT:      -6.1      9.898     12.206
REMARK  7 active torsions:
REMARK  status: ('A' for Active; 'I' for Inactive)
REMARK    1  A    between atoms: C_2  and  C_3 
REMARK    2  A    between atoms: C_3  and  O_6 
REMARK    3  A    between atoms: C_3  and  C_4 
REMARK    4  A    between atoms: C_7  and  O_6 
REMARK    5  A    between atoms: C_9  and  C_10 
REMARK    6  A    between atoms: N_15  and  C_14 
REMARK    7  A    between atoms: N_20  and  C_19 
REMARK       I    between atoms: C_22  and  N_20 
ROOT
ATOM      1  C   LIG d   1       1.984  86.765 111.984  0.00  0.00     0.161 C 
ATOM      2  C   LIG d   1       2.184  88.141 112.184  0.00  0.00     0.016 C 
ATOM      3  C   LIG d   1       2.703  88.686 113.382  0.00  0.00     0.038 C 
ATOM      4  C   LIG d   1       3.200  87.874 114.411  0.00  0.00     0.028 C 
ATOM      5  C   LIG d   1       2.554  86.494 114.460  0.00  0.00    -0.047 C 
ATOM      6  C   LIG d   1       2.624  85.856 113.054  0.00  0.00     0.091 C 
ENDROOT
BRANCH   1   7
ATOM      7  O   LIG d   1       2.441  86.391 110.670  0.00  0.00    -0.368 OA
BRANCH   7   8
ATOM      8  C   LIG d   1       1.415  85.983 109.731  0.00  0.00     0.119 C 
BRANCH   8   9
ATOM      9  C   LIG d   1       0.049  86.254 110.390  0.00  0.00     0.028 C 
ATOM     10  C   LIG d   1      -0.763  84.966 110.608  0.00  0.00     0.006 C 
ENDBRANCH   8   9
BRANCH   8  11
ATOM     11  C   LIG d   1       1.454  84.472 109.484  0.00  0.00     0.028 C 
ATOM     12  C   LIG d   1       2.872  83.888 109.588  0.00  0.00     0.006 C 
ENDBRANCH   8  11
ENDBRANCH   7   8
ENDBRANCH   1   7
BRANCH   6  13
ATOM     13  N   LIG d   1       1.939  84.539 112.993  0.00  0.00    -0.311 N 
ATOM     14  C   LIG d   1       2.562  83.379 113.190  0.00  0.00     0.210 C 
ATOM     15  C   LIG d   1       1.674  82.137 113.063  0.00  0.00     0.109 C 
ATOM     16  O   LIG d   1       3.760  83.261 113.490  0.00  0.00    -0.276 OA
ATOM     17  H   LIG d   1       0.959  84.543 112.786  0.00  0.00     0.149 HD
ENDBRANCH   6  13
BRANCH   5  18
ATOM     18  N   LIG d   1       3.261  85.706 115.488  0.00  0.00     0.381 N 
ATOM     19  H   LIG d   1       4.249  85.826 115.386  0.00  0.00    -0.090 HD
ATOM     20  H   LIG d   1       3.046  84.734 115.357  0.00  0.00    -0.090 HD
ATOM     21  H   LIG d   1       2.976  85.998 116.397  0.00  0.00    -0.090 HD
ENDBRANCH   5  18
BRANCH   3  22
ATOM     22  C   LIG d   1       2.690  90.059 113.574  0.00  0.00     0.382 C 
ATOM     23  O   LIG d   1       2.782  90.531 114.733  0.00  0.00    -0.241 OA
ATOM     24  O   LIG d   1       2.542  90.831 112.607  0.00  0.00    -0.241 OA
ENDBRANCH   3  22
TORSDOF 7
ENDMDL
MODEL 3
REMARK VINA RESULT:      -6.1      9.521     11.455
REMARK  7 active torsions:
REMARK  status: ('A' for Active; 'I' for Inactive)
REMARK    1  A    between atoms: C_2  and  C_3 
REMARK    2  A    between atoms: C_3  and  O_6 
REMARK    3  A    between atoms: C_3  and  C_4 
REMARK    4  A    between atoms: C_7  and  O_6 
REMARK    5  A    between atoms: C_9  and  C_10 
REMARK    6  A    between atoms: N_15  and  C_14 
REMARK    7  A    between atoms: N_20  and  C_19 
REMARK       I    between atoms: C_22  and  N_20 
ROOT
ATOM      1  C   LIG d   1       2.380  85.149 110.426  0.00  0.00     0.161 C 
ATOM      2  C   LIG d   1       1.281  85.951 110.778  0.00  0.00     0.016 C 
ATOM      3  C   LIG d   1       0.024  85.426 111.155  0.00  0.00     0.038 C 
ATOM      4  C   LIG d   1      -0.176  84.052 111.352  0.00  0.00     0.028 C 
ATOM      5  C   LIG d   1       0.758  83.178 110.522  0.00  0.00    -0.047 C 
ATOM      6  C   LIG d   1       2.213  83.648 110.743  0.00  0.00     0.091 C 
ENDROOT
BRANCH   1   7
ATOM      7  O   LIG d   1       3.577  85.662 111.044  0.00  0.00    -0.368 OA
BRANCH   7   8
ATOM      8  C   LIG d   1       3.393  86.383 112.287  0.00  0.00     0.119 C 
BRANCH   8   9
ATOM      9  C   LIG d   1       4.398  87.552 112.298  0.00  0.00     0.028 C 
ATOM     10  C   LIG d   1       3.786  88.846 112.860  0.00  0.00     0.006 C 
ENDBRANCH   8   9
BRANCH   8  11
ATOM     11  C   LIG d   1       3.768  85.516 113.494  0.00  0.00     0.028 C 
ATOM     12  C   LIG d   1       2.664  85.474 114.562  0.00  0.00     0.006 C 
ENDBRANCH   8  11
ENDBRANCH   7   8
ENDBRANCH   1   7
BRANCH   6  13
ATOM     13  N   LIG d   1       3.185  82.901 109.902  0.00  0.00    -0.311 N 
ATOM     14  C   LIG d   1       3.840  81.821 110.324  0.00  0.00     0.210 C 
ATOM     15  C   LIG d   1       4.810  81.214 109.305  0.00  0.00     0.109 C 
ATOM     16  O   LIG d   1       3.687  81.289 111.434  0.00  0.00    -0.276 OA
ATOM     17  H   LIG d   1       3.346  83.245 108.976  0.00  0.00     0.149 HD
ENDBRANCH   6  13
BRANCH   5  18
ATOM     18  N   LIG d   1       0.535  81.777 110.928  0.00  0.00     0.381 N 
ATOM     19  H   LIG d   1       1.409  81.291 110.961  0.00  0.00    -0.090 HD
ATOM     20  H   LIG d   1      -0.049  81.329 110.244  0.00  0.00    -0.090 HD
ATOM     21  H   LIG d   1       0.096  81.746 111.822  0.00  0.00    -0.090 HD
ENDBRANCH   5  18
BRANCH   3  22
ATOM     22  C   LIG d   1      -1.061  86.277 111.299  0.00  0.00     0.382 C 
ATOM     23  O   LIG d   1      -1.558  86.472 112.435  0.00  0.00    -0.241 OA
ATOM     24  O   LIG d   1      -1.577  86.818 110.303  0.00  0.00    -0.241 OA
ENDBRANCH   3  22
TORSDOF 7
ENDMDL
MODEL 4
REMARK VINA RESULT:      -5.8      9.937     12.207
REMARK  7 active torsions:
REMARK  status: ('A' for Active; 'I' for Inactive)
REMARK    1  A    between atoms: C_2  and  C_3 
REMARK    2  A    between atoms: C_3  and  O_6 
REMARK    3  A    between atoms: C_3  and  C_4 
REMARK    4  A    between atoms: C_7  and  O_6 
REMARK    5  A    between atoms: C_9  and  C_10 
REMARK    6  A    between atoms: N_15  and  C_14 
REMARK    7  A    between atoms: N_20  and  C_19 
REMARK       I    between atoms: C_22  and  N_20 
ROOT
ATOM      1  C   LIG d   1       2.007  86.554 112.382  0.00  0.00     0.161 C 
ATOM      2  C   LIG d   1       2.167  87.948 112.449  0.00  0.00     0.016 C 
ATOM      3  C   LIG d   1       2.756  88.612 113.549  0.00  0.00     0.038 C 
ATOM      4  C   LIG d   1       3.367  87.909 114.599  0.00  0.00     0.028 C 
ATOM      5  C   LIG d   1       2.783  86.517 114.816  0.00  0.00    -0.047 C 
ATOM      6  C   LIG d   1       2.768  85.763 113.467  0.00  0.00     0.091 C 
ENDROOT
BRANCH   1   7
ATOM      7  O   LIG d   1       2.373  86.082 111.070  0.00  0.00    -0.368 OA
BRANCH   7   8
ATOM      8  C   LIG d   1       1.450  85.157 110.445  0.00  0.00     0.119 C 
BRANCH   8   9
ATOM      9  C   LIG d   1       2.273  84.234 109.524  0.00  0.00     0.028 C 
ATOM     10  C   LIG d   1       3.527  83.679 110.219  0.00  0.00     0.006 C 
ENDBRANCH   8   9
BRANCH   8  11
ATOM     11  C   LIG d   1       0.472  85.885 109.519  0.00  0.00     0.028 C 
ATOM     12  C   LIG d   1      -0.939  86.003 110.118  0.00  0.00     0.006 C 
ENDBRANCH   8  11
ENDBRANCH   7   8
ENDBRANCH   1   7
BRANCH   6  13
ATOM     13  N   LIG d   1       2.135  84.423 113.574  0.00  0.00    -0.311 N 
ATOM     14  C   LIG d   1       2.806  83.318 113.893  0.00  0.00     0.210 C 
ATOM     15  C   LIG d   1       1.966  82.037 113.928  0.00  0.00     0.109 C 
ATOM     16  O   LIG d   1       4.012  83.281 114.181  0.00  0.00    -0.276 OA
ATOM     17  H   LIG d   1       1.153  84.366 113.387  0.00  0.00     0.149 HD
ENDBRANCH   6  13
BRANCH   5  18
ATOM     18  N   LIG d   1       3.602  85.846 115.844  0.00  0.00     0.381 N 
ATOM     19  H   LIG d   1       3.186  85.974 116.745  0.00  0.00    -0.090 HD
ATOM     20  H   LIG d   1       4.515  86.265 115.857  0.00  0.00    -0.090 HD
ATOM     21  H   LIG d   1       3.676  84.874 115.640  0.00  0.00    -0.090 HD
ENDBRANCH   5  18
BRANCH   3  22
ATOM     22  C   LIG d   1       2.702  89.995 113.627  0.00  0.00     0.382 C 
ATOM     23  O   LIG d   1       2.752  90.563 114.744  0.00  0.00    -0.241 OA
ATOM     24  O   LIG d   1       2.559  90.680 112.596  0.00  0.00    -0.241 OA
ENDBRANCH   3  22
TORSDOF 7
ENDMDL
MODEL 5
REMARK VINA RESULT:      -5.4      9.914     12.147
REMARK  7 active torsions:
REMARK  status: ('A' for Active; 'I' for Inactive)
REMARK    1  A    between atoms: C_2  and  C_3 
REMARK    2  A    between atoms: C_3  and  O_6 
REMARK    3  A    between atoms: C_3  and  C_4 
REMARK    4  A    between atoms: C_7  and  O_6 
REMARK    5  A    between atoms: C_9  and  C_10 
REMARK    6  A    between atoms: N_15  and  C_14 
REMARK    7  A    between atoms: N_20  and  C_19 
REMARK       I    between atoms: C_22  and  N_20 
ROOT
ATOM      1  C   LIG d   1       3.802  86.119 112.584  0.00  0.00     0.161 C 
ATOM      2  C   LIG d   1       3.537  87.358 113.192  0.00  0.00     0.016 C 
ATOM      3  C   LIG d   1       2.520  88.237 112.754  0.00  0.00     0.038 C 
ATOM      4  C   LIG d   1       1.594  87.868 111.768  0.00  0.00     0.028 C 
ATOM      5  C   LIG d   1       2.136  86.836 110.785  0.00  0.00    -0.047 C 
ATOM      6  C   LIG d   1       2.730  85.650 111.578  0.00  0.00     0.091 C 
ENDROOT
BRANCH   1   7
ATOM      7  O   LIG d   1       4.014  85.114 113.596  0.00  0.00    -0.368 OA
BRANCH   7   8
ATOM      8  C   LIG d   1       2.820  84.525 114.169  0.00  0.00     0.119 C 
BRANCH   8   9
ATOM      9  C   LIG d   1       2.832  84.833 115.679  0.00  0.00     0.028 C 
ATOM     10  C   LIG d   1       1.721  85.816 116.086  0.00  0.00     0.006 C 
ENDBRANCH   8   9
BRANCH   8  11
ATOM     11  C   LIG d   1       2.848  82.998 114.066  0.00  0.00     0.028 C 
ATOM     12  C   LIG d   1       3.324  82.321 115.361  0.00  0.00     0.006 C 
ENDBRANCH   8  11
ENDBRANCH   7   8
ENDBRANCH   1   7
BRANCH   6  13
ATOM     13  N   LIG d   1       3.358  84.634 110.694  0.00  0.00    -0.311 N 
ATOM     14  C   LIG d   1       2.718  83.552 110.251  0.00  0.00     0.210 C 
ATOM     15  C   LIG d   1       3.556  82.623 109.367  0.00  0.00     0.109 C 
ATOM     16  O   LIG d   1       1.528  83.291 110.480  0.00  0.00    -0.276 OA
ATOM     17  H   LIG d   1       4.313  84.783 110.433  0.00  0.00     0.149 HD
ENDBRANCH   6  13
BRANCH   5  18
ATOM     18  N   LIG d   1       1.025  86.439 109.898  0.00  0.00     0.381 N 
ATOM     19  H   LIG d   1       0.632  87.251 109.464  0.00  0.00    -0.090 HD
ATOM     20  H   LIG d   1       0.310  85.999 110.449  0.00  0.00    -0.090 HD
ATOM     21  H   LIG d   1       1.354  85.808 109.201  0.00  0.00    -0.090 HD
ENDBRANCH   5  18
BRANCH   3  22
ATOM     22  C   LIG d   1       2.448  89.519 113.279  0.00  0.00     0.382 C 
ATOM     23  O   LIG d   1       2.623  90.512 112.533  0.00  0.00    -0.241 OA
ATOM     24  O   LIG d   1       2.254  89.693 114.497  0.00  0.00    -0.241 OA
ENDBRANCH   3  22
TORSDOF 7
ENDMDL
MODEL 6
REMARK VINA RESULT:      -5.2      2.607      2.881
REMARK  7 active torsions:
REMARK  status: ('A' for Active; 'I' for Inactive)
REMARK    1  A    between atoms: C_2  and  C_3 
REMARK    2  A    between atoms: C_3  and  O_6 
REMARK    3  A    between atoms: C_3  and  C_4 
REMARK    4  A    between atoms: C_7  and  O_6 
REMARK    5  A    between atoms: C_9  and  C_10 
REMARK    6  A    between atoms: N_15  and  C_14 
REMARK    7  A    between atoms: N_20  and  C_19 
REMARK       I    between atoms: C_22  and  N_20 
ROOT
ATOM      1  C   LIG d   1      -3.528  77.520 114.806  0.00  0.00     0.161 C 
ATOM      2  C   LIG d   1      -3.045  77.430 113.490  0.00  0.00     0.016 C 
ATOM      3  C   LIG d   1      -1.975  78.212 112.999  0.00  0.00     0.038 C 
ATOM      4  C   LIG d   1      -1.212  79.036 113.840  0.00  0.00     0.028 C 
ATOM      5  C   LIG d   1      -1.981  79.538 115.057  0.00  0.00    -0.047 C 
ATOM      6  C   LIG d   1      -2.636  78.332 115.769  0.00  0.00     0.091 C 
ENDROOT
BRANCH   1   7
ATOM      7  O   LIG d   1      -3.760  76.198 115.333  0.00  0.00    -0.368 OA
BRANCH   7   8
ATOM      8  C   LIG d   1      -5.124  75.714 115.262  0.00  0.00     0.119 C 
BRANCH   8   9
ATOM      9  C   LIG d   1      -5.776  75.961 116.636  0.00  0.00     0.028 C 
ATOM     10  C   LIG d   1      -6.762  77.141 116.613  0.00  0.00     0.006 C 
ENDBRANCH   8   9
BRANCH   8  11
ATOM     11  C   LIG d   1      -5.166  74.196 115.060  0.00  0.00     0.028 C 
ATOM     12  C   LIG d   1      -6.268  73.516 115.888  0.00  0.00     0.006 C 
ENDBRANCH   8  11
ENDBRANCH   7   8
ENDBRANCH   1   7
BRANCH   6  13
ATOM     13  N   LIG d   1      -3.478  78.743 116.923  0.00  0.00    -0.311 N 
ATOM     14  C   LIG d   1      -3.308  78.274 118.158  0.00  0.00     0.210 C 
ATOM     15  C   LIG d   1      -4.297  78.814 119.196  0.00  0.00     0.109 C 
ATOM     16  O   LIG d   1      -2.412  77.487 118.498  0.00  0.00    -0.276 OA
ATOM     17  H   LIG d   1      -4.209  79.403 116.742  0.00  0.00     0.149 HD
ENDBRANCH   6  13
BRANCH   5  18
ATOM     18  N   LIG d   1      -1.029  80.268 115.916  0.00  0.00     0.381 N 
ATOM     19  H   LIG d   1      -1.002  79.849 116.824  0.00  0.00    -0.090 HD
ATOM     20  H   LIG d   1      -1.344  81.217 116.015  0.00  0.00    -0.090 HD
ATOM     21  H   LIG d   1      -0.121  80.252 115.508  0.00  0.00    -0.090 HD
ENDBRANCH   5  18
BRANCH   3  22
ATOM     22  C   LIG d   1      -1.685  78.206 111.643  0.00  0.00     0.382 C 
ATOM     23  O   LIG d   1      -1.263  79.248 111.087  0.00  0.00    -0.241 OA
ATOM     24  O   LIG d   1      -1.882  77.183 110.960  0.00  0.00    -0.241 OA
ENDBRANCH   3  22
TORSDOF 7
ENDMDL
MODEL 7
REMARK VINA RESULT:      -5.2      3.132      5.123
REMARK  7 active torsions:
REMARK  status: ('A' for Active; 'I' for Inactive)
REMARK    1  A    between atoms: C_2  and  C_3 
REMARK    2  A    between atoms: C_3  and  O_6 
REMARK    3  A    between atoms: C_3  and  C_4 
REMARK    4  A    between atoms: C_7  and  O_6 
REMARK    5  A    between atoms: C_9  and  C_10 
REMARK    6  A    between atoms: N_15  and  C_14 
REMARK    7  A    between atoms: N_20  and  C_19 
REMARK       I    between atoms: C_22  and  N_20 
ROOT
ATOM      1  C   LIG d   1      -5.662  77.696 117.303  0.00  0.00     0.161 C 
ATOM      2  C   LIG d   1      -6.809  78.494 117.456  0.00  0.00     0.016 C 
ATOM      3  C   LIG d   1      -6.770  79.837 117.896  0.00  0.00     0.038 C 
ATOM      4  C   LIG d   1      -5.560  80.525 118.069  0.00  0.00     0.028 C 
ATOM      5  C   LIG d   1      -4.387  79.613 118.413  0.00  0.00    -0.047 C 
ATOM      6  C   LIG d   1      -4.326  78.464 117.380  0.00  0.00     0.091 C 
ENDROOT
BRANCH   1   7
ATOM      7  O   LIG d   1      -5.744  76.956 116.069  0.00  0.00    -0.368 OA
BRANCH   7   8
ATOM      8  C   LIG d   1      -5.448  75.540 116.155  0.00  0.00     0.119 C 
BRANCH   8   9
ATOM      9  C   LIG d   1      -4.802  75.120 114.820  0.00  0.00     0.028 C 
ATOM     10  C   LIG d   1      -4.739  76.277 113.809  0.00  0.00     0.006 C 
ENDBRANCH   8   9
BRANCH   8  11
ATOM     11  C   LIG d   1      -6.729  74.708 116.265  0.00  0.00     0.028 C 
ATOM     12  C   LIG d   1      -6.489  73.210 116.023  0.00  0.00     0.006 C 
ENDBRANCH   8  11
ENDBRANCH   7   8
ENDBRANCH   1   7
BRANCH   6  13
ATOM     13  N   LIG d   1      -3.258  77.478 117.691  0.00  0.00    -0.311 N 
ATOM     14  C   LIG d   1      -2.272  77.176 116.850  0.00  0.00     0.210 C 
ATOM     15  C   LIG d   1      -1.288  76.118 117.360  0.00  0.00     0.109 C 
ATOM     16  O   LIG d   1      -2.100  77.706 115.742  0.00  0.00    -0.276 OA
ATOM     17  H   LIG d   1      -3.303  77.023 118.582  0.00  0.00     0.149 HD
ENDBRANCH   6  13
BRANCH   5  18
ATOM     18  N   LIG d   1      -3.167  80.441 118.429  0.00  0.00     0.381 N 
ATOM     19  H   LIG d   1      -3.221  81.109 119.172  0.00  0.00    -0.090 HD
ATOM     20  H   LIG d   1      -3.103  80.942 117.560  0.00  0.00    -0.090 HD
ATOM     21  H   LIG d   1      -2.364  79.864 118.549  0.00  0.00    -0.090 HD
ENDBRANCH   5  18
BRANCH   3  22
ATOM     22  C   LIG d   1      -7.951  80.493 118.206  0.00  0.00     0.382 C 
ATOM     23  O   LIG d   1      -8.664  80.086 119.155  0.00  0.00    -0.241 OA
ATOM     24  O   LIG d   1      -8.335  81.460 117.521  0.00  0.00    -0.241 OA
ENDBRANCH   3  22
TORSDOF 7
ENDMDL
MODEL 8
REMARK VINA RESULT:      -5.0      2.203      4.747
REMARK  7 active torsions:
REMARK  status: ('A' for Active; 'I' for Inactive)
REMARK    1  A    between atoms: C_2  and  C_3 
REMARK    2  A    between atoms: C_3  and  O_6 
REMARK    3  A    between atoms: C_3  and  C_4 
REMARK    4  A    between atoms: C_7  and  O_6 
REMARK    5  A    between atoms: C_9  and  C_10 
REMARK    6  A    between atoms: N_15  and  C_14 
REMARK    7  A    between atoms: N_20  and  C_19 
REMARK       I    between atoms: C_22  and  N_20 
ROOT
ATOM      1  C   LIG d   1      -3.109  76.340 114.572  0.00  0.00     0.161 C 
ATOM      2  C   LIG d   1      -2.571  77.556 114.120  0.00  0.00     0.016 C 
ATOM      3  C   LIG d   1      -2.592  78.747 114.881  0.00  0.00     0.038 C 
ATOM      4  C   LIG d   1      -3.021  78.766 116.217  0.00  0.00     0.028 C 
ATOM      5  C   LIG d   1      -4.037  77.676 116.542  0.00  0.00    -0.047 C 
ATOM      6  C   LIG d   1      -3.481  76.314 116.069  0.00  0.00     0.091 C 
ENDROOT
BRANCH   1   7
ATOM      7  O   LIG d   1      -2.205  75.260 114.261  0.00  0.00    -0.368 OA
BRANCH   7   8
ATOM      8  C   LIG d   1      -0.880  75.353 114.838  0.00  0.00     0.119 C 
BRANCH   8   9
ATOM      9  C   LIG d   1       0.135  75.066 113.714  0.00  0.00     0.028 C 
ATOM     10  C   LIG d   1       0.300  73.561 113.443  0.00  0.00     0.006 C 
ENDBRANCH   8   9
BRANCH   8  11
ATOM     11  C   LIG d   1      -0.648  74.257 115.883  0.00  0.00     0.028 C 
ATOM     12  C   LIG d   1      -0.310  74.821 117.272  0.00  0.00     0.006 C 
ENDBRANCH   8  11
ENDBRANCH   7   8
ENDBRANCH   1   7
BRANCH   6  13
ATOM     13  N   LIG d   1      -4.449  75.204 116.273  0.00  0.00    -0.311 N 
ATOM     14  C   LIG d   1      -5.626  75.136 115.655  0.00  0.00     0.210 C 
ATOM     15  C   LIG d   1      -6.480  73.919 116.024  0.00  0.00     0.109 C 
ATOM     16  O   LIG d   1      -6.031  75.952 114.813  0.00  0.00    -0.276 OA
ATOM     17  H   LIG d   1      -4.187  74.483 116.917  0.00  0.00     0.149 HD
ENDBRANCH   6  13
BRANCH   5  18
ATOM     18  N   LIG d   1      -4.293  77.724 117.994  0.00  0.00     0.381 N 
ATOM     19  H   LIG d   1      -4.691  78.608 118.239  0.00  0.00    -0.090 HD
ATOM     20  H   LIG d   1      -3.419  77.626 118.481  0.00  0.00    -0.090 HD
ATOM     21  H   LIG d   1      -4.912  76.989 118.256  0.00  0.00    -0.090 HD
ENDBRANCH   5  18
BRANCH   3  22
ATOM     22  C   LIG d   1      -2.218  79.946 114.293  0.00  0.00     0.382 C 
ATOM     23  O   LIG d   1      -3.078  80.661 113.725  0.00  0.00    -0.241 OA
ATOM     24  O   LIG d   1      -1.024  80.299 114.284  0.00  0.00    -0.241 OA
ENDBRANCH   3  22
TORSDOF 7
ENDMDL
MODEL 9
REMARK VINA RESULT:      -5.0      2.481      4.566
REMARK  7 active torsions:
REMARK  status: ('A' for Active; 'I' for Inactive)
REMARK    1  A    between atoms: C_2  and  C_3 
REMARK    2  A    between atoms: C_3  and  O_6 
REMARK    3  A    between atoms: C_3  and  C_4 
REMARK    4  A    between atoms: C_7  and  O_6 
REMARK    5  A    between atoms: C_9  and  C_10 
REMARK    6  A    between atoms: N_15  and  C_14 
REMARK    7  A    between atoms: N_20  and  C_19 
REMARK       I    between atoms: C_22  and  N_20 
ROOT
ATOM      1  C   LIG d   1      -3.556  76.904 115.589  0.00  0.00     0.161 C 
ATOM      2  C   LIG d   1      -2.685  75.851 115.265  0.00  0.00     0.016 C 
ATOM      3  C   LIG d   1      -1.623  75.434 116.101  0.00  0.00     0.038 C 
ATOM      4  C   LIG d   1      -1.454  75.947 117.396  0.00  0.00     0.028 C 
ATOM      5  C   LIG d   1      -2.000  77.361 117.563  0.00  0.00    -0.047 C 
ATOM      6  C   LIG d   1      -3.456  77.401 117.046  0.00  0.00     0.091 C 
ENDROOT
BRANCH   1   7
ATOM      7  O   LIG d   1      -4.913  76.528 115.280  0.00  0.00    -0.368 OA
BRANCH   7   8
ATOM      8  C   LIG d   1      -5.486  75.480 116.100  0.00  0.00     0.119 C 
BRANCH   8   9
ATOM      9  C   LIG d   1      -5.538  74.199 115.246  0.00  0.00     0.028 C 
ATOM     10  C   LIG d   1      -6.386  73.093 115.897  0.00  0.00     0.006 C 
ENDBRANCH   8   9
BRANCH   8  11
ATOM     11  C   LIG d   1      -6.943  75.788 116.459  0.00  0.00     0.028 C 
ATOM     12  C   LIG d   1      -7.207  77.290 116.642  0.00  0.00     0.006 C 
ENDBRANCH   8  11
ENDBRANCH   7   8
ENDBRANCH   1   7
BRANCH   6  13
ATOM     13  N   LIG d   1      -4.038  78.768 117.096  0.00  0.00    -0.311 N 
ATOM     14  C   LIG d   1      -4.742  79.228 118.129  0.00  0.00     0.210 C 
ATOM     15  C   LIG d   1      -5.268  80.657 117.967  0.00  0.00     0.109 C 
ATOM     16  O   LIG d   1      -4.954  78.599 119.176  0.00  0.00    -0.276 OA
ATOM     17  H   LIG d   1      -3.888  79.357 116.301  0.00  0.00     0.149 HD
ENDBRANCH   6  13
BRANCH   5  18
ATOM     18  N   LIG d   1      -1.883  77.718 118.990  0.00  0.00     0.381 N 
ATOM     19  H   LIG d   1      -2.726  78.158 119.299  0.00  0.00    -0.090 HD
ATOM     20  H   LIG d   1      -1.127  78.370 119.101  0.00  0.00    -0.090 HD
ATOM     21  H   LIG d   1      -1.709  76.900 119.532  0.00  0.00    -0.090 HD
ENDBRANCH   5  18
BRANCH   3  22
ATOM     22  C   LIG d   1      -0.693  74.522 115.627  0.00  0.00     0.382 C 
ATOM     23  O   LIG d   1      -0.291  73.594 116.369  0.00  0.00    -0.241 OA
ATOM     24  O   LIG d   1      -0.217  74.642 114.482  0.00  0.00    -0.241 OA
ENDBRANCH   3  22
TORSDOF 7
ENDMDL
