MODEL 1
REMARK VINA RESULT:      -4.9      0.000      0.000
REMARK  7 active torsions:
REMARK  status: ('A' for Active; 'I' for Inactive)
REMARK    1  A    between atoms: C_2  and  C_3 
REMARK    2  A    between atoms: C_3  and  O_6 
REMARK    3  A    between atoms: C_3  and  C_4 
REMARK    4  A    between atoms: C_7  and  O_6 
REMARK    5  A    between atoms: C_9  and  C_10 
REMARK    6  A    between atoms: N_15  and  C_14 
REMARK    7  A    between atoms: N_20  and  C_19 
REMARK       I    between atoms: C_22  and  N_20 
ROOT
ATOM      1  C   LIG d   1     -10.632  74.307 118.422  0.00  0.00     0.161 C 
ATOM      2  C   LIG d   1     -10.374  72.947 118.184  0.00  0.00     0.016 C 
ATOM      3  C   LIG d   1      -9.082  72.434 117.925  0.00  0.00     0.038 C 
ATOM      4  C   LIG d   1      -7.932  73.229 118.038  0.00  0.00     0.028 C 
ATOM      5  C   LIG d   1      -8.192  74.709 117.780  0.00  0.00    -0.047 C 
ATOM      6  C   LIG d   1      -9.376  75.172 118.659  0.00  0.00     0.091 C 
ENDROOT
BRANCH   1   7
ATOM      7  O   LIG d   1     -11.550  74.445 119.525  0.00  0.00    -0.368 OA
BRANCH   7   8
ATOM      8  C   LIG d   1     -11.678  73.293 120.395  0.00  0.00     0.119 C 
BRANCH   8   9
ATOM      9  C   LIG d   1     -13.179  73.092 120.679  0.00  0.00     0.028 C 
ATOM     10  C   LIG d   1     -13.985  74.392 120.525  0.00  0.00     0.006 C 
ENDBRANCH   8   9
BRANCH   8  11
ATOM     11  C   LIG d   1     -11.038  73.554 121.762  0.00  0.00     0.028 C 
ATOM     12  C   LIG d   1      -9.526  73.281 121.775  0.00  0.00     0.006 C 
ENDBRANCH   8  11
ENDBRANCH   7   8
ENDBRANCH   1   7
BRANCH   6  13
ATOM     13  N   LIG d   1      -9.750  76.588 118.406  0.00  0.00    -0.311 N 
ATOM     14  C   LIG d   1      -9.293  77.608 119.130  0.00  0.00     0.210 C 
ATOM     15  C   LIG d   1      -9.820  78.984 118.714  0.00  0.00     0.109 C 
ATOM     16  O   LIG d   1      -8.476  77.506 120.058  0.00  0.00    -0.276 OA
ATOM     17  H   LIG d   1     -10.385  76.764 117.652  0.00  0.00     0.149 HD
ENDBRANCH   6  13
BRANCH   5  18
ATOM     18  N   LIG d   1      -6.941  75.437 118.065  0.00  0.00     0.381 N 
ATOM     19  H   LIG d   1      -6.940  75.749 119.015  0.00  0.00    -0.090 HD
ATOM     20  H   LIG d   1      -6.891  76.245 117.468  0.00  0.00    -0.090 HD
ATOM     21  H   LIG d   1      -6.157  74.845 117.901  0.00  0.00    -0.090 HD
ENDBRANCH   5  18
BRANCH   3  22
ATOM     22  C   LIG d   1      -8.936  71.119 117.511  0.00  0.00     0.382 C 
ATOM     23  O   LIG d   1      -9.926  70.348 117.509  0.00  0.00    -0.241 OA
ATOM     24  O   LIG d   1      -7.817  70.681 117.180  0.00  0.00    -0.241 OA
ENDBRANCH   3  22
TORSDOF 7
ENDMDL
MODEL 2
REMARK VINA RESULT:      -4.7      2.616      4.559
REMARK  7 active torsions:
REMARK  status: ('A' for Active; 'I' for Inactive)
REMARK    1  A    between atoms: C_2  and  C_3 
REMARK    2  A    between atoms: C_3  and  O_6 
REMARK    3  A    between atoms: C_3  and  C_4 
REMARK    4  A    between atoms: C_7  and  O_6 
REMARK    5  A    between atoms: C_9  and  C_10 
REMARK    6  A    between atoms: N_15  and  C_14 
REMARK    7  A    between atoms: N_20  and  C_19 
REMARK       I    between atoms: C_22  and  N_20 
ROOT
ATOM      1  C   LIG d   1      -9.187  74.674 120.659  0.00  0.00     0.161 C 
ATOM      2  C   LIG d   1      -9.217  73.604 121.570  0.00  0.00     0.016 C 
ATOM      3  C   LIG d   1      -9.814  73.688 122.849  0.00  0.00     0.038 C 
ATOM      4  C   LIG d   1     -10.560  74.807 123.247  0.00  0.00     0.028 C 
ATOM      5  C   LIG d   1     -10.129  76.099 122.560  0.00  0.00    -0.047 C 
ATOM      6  C   LIG d   1     -10.093  75.866 121.032  0.00  0.00     0.091 C 
ENDROOT
BRANCH   1   7
ATOM      7  O   LIG d   1      -9.505  74.197 119.337  0.00  0.00    -0.368 OA
BRANCH   7   8
ATOM      8  C   LIG d   1     -10.310  72.995 119.268  0.00  0.00     0.119 C 
BRANCH   8   9
ATOM      9  C   LIG d   1      -9.904  72.237 117.990  0.00  0.00     0.028 C 
ATOM     10  C   LIG d   1      -8.558  72.721 117.424  0.00  0.00     0.006 C 
ENDBRANCH   8   9
BRANCH   8  11
ATOM     11  C   LIG d   1     -11.795  73.327 119.088  0.00  0.00     0.028 C 
ATOM     12  C   LIG d   1     -12.643  72.949 120.312  0.00  0.00     0.006 C 
ENDBRANCH   8  11
ENDBRANCH   7   8
ENDBRANCH   1   7
BRANCH   6  13
ATOM     13  N   LIG d   1      -9.599  77.055 120.289  0.00  0.00    -0.311 N 
ATOM     14  C   LIG d   1     -10.299  77.666 119.335  0.00  0.00     0.210 C 
ATOM     15  C   LIG d   1      -9.596  78.861 118.683  0.00  0.00     0.109 C 
ATOM     16  O   LIG d   1     -11.448  77.352 118.990  0.00  0.00    -0.276 OA
ATOM     17  H   LIG d   1      -8.688  77.396 120.528  0.00  0.00     0.149 HD
ENDBRANCH   6  13
BRANCH   5  18
ATOM     18  N   LIG d   1     -11.076  77.156 122.962  0.00  0.00     0.381 N 
ATOM     19  H   LIG d   1     -11.929  76.742 123.281  0.00  0.00    -0.090 HD
ATOM     20  H   LIG d   1     -11.282  77.728 122.162  0.00  0.00    -0.090 HD
ATOM     21  H   LIG d   1     -10.678  77.713 123.685  0.00  0.00    -0.090 HD
ENDBRANCH   5  18
BRANCH   3  22
ATOM     22  C   LIG d   1      -9.634  72.659 123.760  0.00  0.00     0.382 C 
ATOM     23  O   LIG d   1      -8.479  72.235 124.007  0.00  0.00    -0.241 OA
ATOM     24  O   LIG d   1     -10.615  72.118 124.305  0.00  0.00    -0.241 OA
ENDBRANCH   3  22
TORSDOF 7
ENDMDL
MODEL 3
REMARK VINA RESULT:      -4.7      2.672      4.147
REMARK  7 active torsions:
REMARK  status: ('A' for Active; 'I' for Inactive)
REMARK    1  A    between atoms: C_2  and  C_3 
REMARK    2  A    between atoms: C_3  and  O_6 
REMARK    3  A    between atoms: C_3  and  C_4 
REMARK    4  A    between atoms: C_7  and  O_6 
REMARK    5  A    between atoms: C_9  and  C_10 
REMARK    6  A    between atoms: N_15  and  C_14 
REMARK    7  A    between atoms: N_20  and  C_19 
REMARK       I    between atoms: C_22  and  N_20 
ROOT
ATOM      1  C   LIG d   1     -10.439  73.300 120.662  0.00  0.00     0.161 C 
ATOM      2  C   LIG d   1      -9.305  73.286 119.833  0.00  0.00     0.016 C 
ATOM      3  C   LIG d   1      -9.321  73.710 118.485  0.00  0.00     0.038 C 
ATOM      4  C   LIG d   1     -10.447  74.322 117.914  0.00  0.00     0.028 C 
ATOM      5  C   LIG d   1     -11.761  73.895 118.559  0.00  0.00    -0.047 C 
ATOM      6  C   LIG d   1     -11.648  74.068 120.090  0.00  0.00     0.091 C 
ENDROOT
BRANCH   1   7
ATOM      7  O   LIG d   1     -10.087  73.814 121.962  0.00  0.00    -0.368 OA
BRANCH   7   8
ATOM      8  C   LIG d   1     -10.015  72.842 123.034  0.00  0.00     0.119 C 
BRANCH   8   9
ATOM      9  C   LIG d   1     -11.115  73.195 124.054  0.00  0.00     0.028 C 
ATOM     10  C   LIG d   1     -11.483  74.688 124.028  0.00  0.00     0.006 C 
ENDBRANCH   8   9
BRANCH   8  11
ATOM     11  C   LIG d   1      -8.696  72.959 123.804  0.00  0.00     0.028 C 
ATOM     12  C   LIG d   1      -8.633  72.025 125.023  0.00  0.00     0.006 C 
ENDBRANCH   8  11
ENDBRANCH   7   8
ENDBRANCH   1   7
BRANCH   6  13
ATOM     13  N   LIG d   1     -12.862  73.594 120.806  0.00  0.00    -0.311 N 
ATOM     14  C   LIG d   1     -13.880  74.389 121.128  0.00  0.00     0.210 C 
ATOM     15  C   LIG d   1     -15.024  73.701 121.881  0.00  0.00     0.109 C 
ATOM     16  O   LIG d   1     -13.960  75.591 120.833  0.00  0.00    -0.276 OA
ATOM     17  H   LIG d   1     -12.894  72.625 121.056  0.00  0.00     0.149 HD
ENDBRANCH   6  13
BRANCH   5  18
ATOM     18  N   LIG d   1     -12.836  74.710 117.962  0.00  0.00     0.381 N 
ATOM     19  H   LIG d   1     -13.659  74.653 118.528  0.00  0.00    -0.090 HD
ATOM     20  H   LIG d   1     -13.054  74.345 117.051  0.00  0.00    -0.090 HD
ATOM     21  H   LIG d   1     -12.542  75.659 117.886  0.00  0.00    -0.090 HD
ENDBRANCH   5  18
BRANCH   3  22
ATOM     22  C   LIG d   1      -8.215  73.485 117.680  0.00  0.00     0.382 C 
ATOM     23  O   LIG d   1      -7.431  74.428 117.414  0.00  0.00    -0.241 OA
ATOM     24  O   LIG d   1      -8.014  72.362 117.181  0.00  0.00    -0.241 OA
ENDBRANCH   3  22
TORSDOF 7
ENDMDL
MODEL 4
REMARK VINA RESULT:      -4.7     17.308     19.909
REMARK  7 active torsions:
REMARK  status: ('A' for Active; 'I' for Inactive)
REMARK    1  A    between atoms: C_2  and  C_3 
REMARK    2  A    between atoms: C_3  and  O_6 
REMARK    3  A    between atoms: C_3  and  C_4 
REMARK    4  A    between atoms: C_7  and  O_6 
REMARK    5  A    between atoms: C_9  and  C_10 
REMARK    6  A    between atoms: N_15  and  C_14 
REMARK    7  A    between atoms: N_20  and  C_19 
REMARK       I    between atoms: C_22  and  N_20 
ROOT
ATOM      1  C   LIG d   1      -0.220  57.558 117.823  0.00  0.00     0.161 C 
ATOM      2  C   LIG d   1       1.170  57.738 117.724  0.00  0.00     0.016 C 
ATOM      3  C   LIG d   1       1.918  58.529 118.626  0.00  0.00     0.038 C 
ATOM      4  C   LIG d   1       1.346  59.074 119.785  0.00  0.00     0.028 C 
ATOM      5  C   LIG d   1      -0.151  59.338 119.655  0.00  0.00    -0.047 C 
ATOM      6  C   LIG d   1      -0.844  58.054 119.144  0.00  0.00     0.091 C 
ENDROOT
BRANCH   1   7
ATOM      7  O   LIG d   1      -0.549  56.172 117.602  0.00  0.00    -0.368 OA
BRANCH   7   8
ATOM      8  C   LIG d   1      -0.362  55.285 118.732  0.00  0.00     0.119 C 
BRANCH   8   9
ATOM      9  C   LIG d   1       0.708  54.249 118.335  0.00  0.00     0.028 C 
ATOM     10  C   LIG d   1       2.017  54.428 119.122  0.00  0.00     0.006 C 
ENDBRANCH   8   9
BRANCH   8  11
ATOM     11  C   LIG d   1      -1.628  54.471 119.018  0.00  0.00     0.028 C 
ATOM     12  C   LIG d   1      -1.875  54.261 120.520  0.00  0.00     0.006 C 
ENDBRANCH   8  11
ENDBRANCH   7   8
ENDBRANCH   1   7
BRANCH   6  13
ATOM     13  N   LIG d   1      -2.298  58.251 118.908  0.00  0.00    -0.311 N 
ATOM     14  C   LIG d   1      -3.232  57.970 119.815  0.00  0.00     0.210 C 
ATOM     15  C   LIG d   1      -4.672  58.227 119.361  0.00  0.00     0.109 C 
ATOM     16  O   LIG d   1      -3.003  57.562 120.964  0.00  0.00    -0.276 OA
ATOM     17  H   LIG d   1      -2.571  58.607 118.013  0.00  0.00     0.149 HD
ENDBRANCH   6  13
BRANCH   5  18
ATOM     18  N   LIG d   1      -0.643  59.774 120.975  0.00  0.00     0.381 N 
ATOM     19  H   LIG d   1      -0.840  58.975 121.544  0.00  0.00    -0.090 HD
ATOM     20  H   LIG d   1      -1.495  60.291 120.850  0.00  0.00    -0.090 HD
ATOM     21  H   LIG d   1       0.039  60.348 121.421  0.00  0.00    -0.090 HD
ENDBRANCH   5  18
BRANCH   3  22
ATOM     22  C   LIG d   1       3.247  58.813 118.351  0.00  0.00     0.382 C 
ATOM     23  O   LIG d   1       3.541  59.795 117.628  0.00  0.00    -0.241 OA
ATOM     24  O   LIG d   1       4.154  58.075 118.782  0.00  0.00    -0.241 OA
ENDBRANCH   3  22
TORSDOF 7
ENDMDL
MODEL 5
REMARK VINA RESULT:      -4.7      2.373      5.718
REMARK  7 active torsions:
REMARK  status: ('A' for Active; 'I' for Inactive)
REMARK    1  A    between atoms: C_2  and  C_3 
REMARK    2  A    between atoms: C_3  and  O_6 
REMARK    3  A    between atoms: C_3  and  C_4 
REMARK    4  A    between atoms: C_7  and  O_6 
REMARK    5  A    between atoms: C_9  and  C_10 
REMARK    6  A    between atoms: N_15  and  C_14 
REMARK    7  A    between atoms: N_20  and  C_19 
REMARK       I    between atoms: C_22  and  N_20 
ROOT
ATOM      1  C   LIG d   1      -9.964  75.841 118.654  0.00  0.00     0.161 C 
ATOM      2  C   LIG d   1      -9.222  76.978 118.294  0.00  0.00     0.016 C 
ATOM      3  C   LIG d   1      -9.375  78.238 118.919  0.00  0.00     0.038 C 
ATOM      4  C   LIG d   1     -10.180  78.408 120.055  0.00  0.00     0.028 C 
ATOM      5  C   LIG d   1     -11.329  77.410 120.139  0.00  0.00    -0.047 C 
ATOM      6  C   LIG d   1     -10.766  75.981 119.965  0.00  0.00     0.091 C 
ENDROOT
BRANCH   1   7
ATOM      7  O   LIG d   1      -9.097  74.692 118.717  0.00  0.00    -0.368 OA
BRANCH   7   8
ATOM      8  C   LIG d   1      -9.100  73.826 117.555  0.00  0.00     0.119 C 
BRANCH   8   9
ATOM      9  C   LIG d   1      -9.879  72.550 117.931  0.00  0.00     0.028 C 
ATOM     10  C   LIG d   1      -9.053  71.272 117.710  0.00  0.00     0.006 C 
ENDBRANCH   8   9
BRANCH   8  11
ATOM     11  C   LIG d   1      -7.686  73.351 117.210  0.00  0.00     0.028 C 
ATOM     12  C   LIG d   1      -6.608  74.390 117.555  0.00  0.00     0.006 C 
ENDBRANCH   8  11
ENDBRANCH   7   8
ENDBRANCH   1   7
BRANCH   6  13
ATOM     13  N   LIG d   1     -11.835  74.948 119.950  0.00  0.00    -0.311 N 
ATOM     14  C   LIG d   1     -11.834  73.881 120.747  0.00  0.00     0.210 C 
ATOM     15  C   LIG d   1     -13.020  72.930 120.555  0.00  0.00     0.109 C 
ATOM     16  O   LIG d   1     -10.981  73.648 121.616  0.00  0.00    -0.276 OA
ATOM     17  H   LIG d   1     -12.583  75.075 119.296  0.00  0.00     0.149 HD
ENDBRANCH   6  13
BRANCH   5  18
ATOM     18  N   LIG d   1     -12.002  77.612 121.436  0.00  0.00     0.381 N 
ATOM     19  H   LIG d   1     -12.958  77.863 121.287  0.00  0.00    -0.090 HD
ATOM     20  H   LIG d   1     -11.550  78.367 121.922  0.00  0.00    -0.090 HD
ATOM     21  H   LIG d   1     -11.950  76.779 121.981  0.00  0.00    -0.090 HD
ENDBRANCH   5  18
BRANCH   3  22
ATOM     22  C   LIG d   1      -8.750  79.352 118.381  0.00  0.00     0.382 C 
ATOM     23  O   LIG d   1      -9.367  80.442 118.305  0.00  0.00    -0.241 OA
ATOM     24  O   LIG d   1      -7.591  79.270 117.930  0.00  0.00    -0.241 OA
ENDBRANCH   3  22
TORSDOF 7
ENDMDL
MODEL 6
REMARK VINA RESULT:      -4.7      2.674      3.833
REMARK  7 active torsions:
REMARK  status: ('A' for Active; 'I' for Inactive)
REMARK    1  A    between atoms: C_2  and  C_3 
REMARK    2  A    between atoms: C_3  and  O_6 
REMARK    3  A    between atoms: C_3  and  C_4 
REMARK    4  A    between atoms: C_7  and  O_6 
REMARK    5  A    between atoms: C_9  and  C_10 
REMARK    6  A    between atoms: N_15  and  C_14 
REMARK    7  A    between atoms: N_20  and  C_19 
REMARK       I    between atoms: C_22  and  N_20 
ROOT
ATOM      1  C   LIG d   1     -10.368  73.798 120.786  0.00  0.00     0.161 C 
ATOM      2  C   LIG d   1      -9.493  73.053 119.978  0.00  0.00     0.016 C 
ATOM      3  C   LIG d   1      -9.691  72.856 118.592  0.00  0.00     0.038 C 
ATOM      4  C   LIG d   1     -10.704  73.522 117.886  0.00  0.00     0.028 C 
ATOM      5  C   LIG d   1     -11.908  73.881 118.750  0.00  0.00    -0.047 C 
ATOM      6  C   LIG d   1     -11.417  74.624 120.013  0.00  0.00     0.091 C 
ENDROOT
BRANCH   1   7
ATOM      7  O   LIG d   1      -9.611  74.650 121.669  0.00  0.00    -0.368 OA
BRANCH   7   8
ATOM      8  C   LIG d   1      -9.703  74.345 123.083  0.00  0.00     0.119 C 
BRANCH   8   9
ATOM      9  C   LIG d   1      -8.284  74.006 123.576  0.00  0.00     0.028 C 
ATOM     10  C   LIG d   1      -8.231  72.670 124.337  0.00  0.00     0.006 C 
ENDBRANCH   8   9
BRANCH   8  11
ATOM     11  C   LIG d   1     -10.531  73.080 123.327  0.00  0.00     0.028 C 
ATOM     12  C   LIG d   1     -11.818  73.355 124.122  0.00  0.00     0.006 C 
ENDBRANCH   8  11
ENDBRANCH   7   8
ENDBRANCH   1   7
BRANCH   6  13
ATOM     13  N   LIG d   1     -12.524  74.937 120.953  0.00  0.00    -0.311 N 
ATOM     14  C   LIG d   1     -12.719  76.145 121.480  0.00  0.00     0.210 C 
ATOM     15  C   LIG d   1     -13.907  76.247 122.441  0.00  0.00     0.109 C 
ATOM     16  O   LIG d   1     -12.040  77.149 121.217  0.00  0.00    -0.276 OA
ATOM     17  H   LIG d   1     -13.142  74.188 121.196  0.00  0.00     0.149 HD
ENDBRANCH   6  13
BRANCH   5  18
ATOM     18  N   LIG d   1     -12.824  74.689 117.923  0.00  0.00     0.381 N 
ATOM     19  H   LIG d   1     -13.675  74.186 117.768  0.00  0.00    -0.090 HD
ATOM     20  H   LIG d   1     -12.392  74.860 117.032  0.00  0.00    -0.090 HD
ATOM     21  H   LIG d   1     -13.020  75.554 118.377  0.00  0.00    -0.090 HD
ENDBRANCH   5  18
BRANCH   3  22
ATOM     22  C   LIG d   1      -8.894  71.953 117.906  0.00  0.00     0.382 C 
ATOM     23  O   LIG d   1      -7.879  72.356 117.288  0.00  0.00    -0.241 OA
ATOM     24  O   LIG d   1      -9.201  70.746 117.860  0.00  0.00    -0.241 OA
ENDBRANCH   3  22
TORSDOF 7
ENDMDL
MODEL 7
REMARK VINA RESULT:      -4.6      2.581      5.250
REMARK  7 active torsions:
REMARK  status: ('A' for Active; 'I' for Inactive)
REMARK    1  A    between atoms: C_2  and  C_3 
REMARK    2  A    between atoms: C_3  and  O_6 
REMARK    3  A    between atoms: C_3  and  C_4 
REMARK    4  A    between atoms: C_7  and  O_6 
REMARK    5  A    between atoms: C_9  and  C_10 
REMARK    6  A    between atoms: N_15  and  C_14 
REMARK    7  A    between atoms: N_20  and  C_19 
REMARK       I    between atoms: C_22  and  N_20 
ROOT
ATOM      1  C   LIG d   1      -9.978  76.362 118.768  0.00  0.00     0.161 C 
ATOM      2  C   LIG d   1      -8.859  77.028 118.241  0.00  0.00     0.016 C 
ATOM      3  C   LIG d   1      -8.528  78.365 118.562  0.00  0.00     0.038 C 
ATOM      4  C   LIG d   1      -9.212  79.081 119.556  0.00  0.00     0.028 C 
ATOM      5  C   LIG d   1     -10.654  78.623 119.747  0.00  0.00    -0.047 C 
ATOM      6  C   LIG d   1     -10.673  77.089 119.938  0.00  0.00     0.091 C 
ENDROOT
BRANCH   1   7
ATOM      7  O   LIG d   1      -9.610  75.024 119.158  0.00  0.00    -0.368 OA
BRANCH   7   8
ATOM      8  C   LIG d   1     -10.112  73.955 118.318  0.00  0.00     0.119 C 
BRANCH   8   9
ATOM      9  C   LIG d   1     -10.618  72.835 119.248  0.00  0.00     0.028 C 
ATOM     10  C   LIG d   1     -12.107  72.991 119.599  0.00  0.00     0.006 C 
ENDBRANCH   8   9
BRANCH   8  11
ATOM     11  C   LIG d   1      -8.988  73.320 117.494  0.00  0.00     0.028 C 
ATOM     12  C   LIG d   1      -9.242  71.837 117.181  0.00  0.00     0.006 C 
ENDBRANCH   8  11
ENDBRANCH   7   8
ENDBRANCH   1   7
BRANCH   6  13
ATOM     13  N   LIG d   1     -12.053  76.549 120.048  0.00  0.00    -0.311 N 
ATOM     14  C   LIG d   1     -12.675  76.356 121.210  0.00  0.00     0.210 C 
ATOM     15  C   LIG d   1     -14.086  75.770 121.099  0.00  0.00     0.109 C 
ATOM     16  O   LIG d   1     -12.204  76.644 122.320  0.00  0.00    -0.276 OA
ATOM     17  H   LIG d   1     -12.521  76.317 119.194  0.00  0.00     0.149 HD
ENDBRANCH   6  13
BRANCH   5  18
ATOM     18  N   LIG d   1     -11.206  79.357 120.902  0.00  0.00     0.381 N 
ATOM     19  H   LIG d   1     -11.876  80.030 120.587  0.00  0.00    -0.090 HD
ATOM     20  H   LIG d   1     -10.459  79.847 121.362  0.00  0.00    -0.090 HD
ATOM     21  H   LIG d   1     -11.636  78.720 121.536  0.00  0.00    -0.090 HD
ENDBRANCH   5  18
BRANCH   3  22
ATOM     22  C   LIG d   1      -7.524  79.012 117.857  0.00  0.00     0.382 C 
ATOM     23  O   LIG d   1      -7.673  80.209 117.511  0.00  0.00    -0.241 OA
ATOM     24  O   LIG d   1      -6.491  78.402 117.524  0.00  0.00    -0.241 OA
ENDBRANCH   3  22
TORSDOF 7
ENDMDL
MODEL 8
REMARK VINA RESULT:      -4.6      2.373      4.129
REMARK  7 active torsions:
REMARK  status: ('A' for Active; 'I' for Inactive)
REMARK    1  A    between atoms: C_2  and  C_3 
REMARK    2  A    between atoms: C_3  and  O_6 
REMARK    3  A    between atoms: C_3  and  C_4 
REMARK    4  A    between atoms: C_7  and  O_6 
REMARK    5  A    between atoms: C_9  and  C_10 
REMARK    6  A    between atoms: N_15  and  C_14 
REMARK    7  A    between atoms: N_20  and  C_19 
REMARK       I    between atoms: C_22  and  N_20 
ROOT
ATOM      1  C   LIG d   1      -9.917  74.292 120.446  0.00  0.00     0.161 C 
ATOM      2  C   LIG d   1      -9.140  73.510 119.575  0.00  0.00     0.016 C 
ATOM      3  C   LIG d   1      -9.563  73.136 118.279  0.00  0.00     0.038 C 
ATOM      4  C   LIG d   1     -10.736  73.649 117.705  0.00  0.00     0.028 C 
ATOM      5  C   LIG d   1     -11.795  74.034 118.733  0.00  0.00    -0.047 C 
ATOM      6  C   LIG d   1     -11.150  74.952 119.796  0.00  0.00     0.091 C 
ENDROOT
BRANCH   1   7
ATOM      7  O   LIG d   1      -9.089  75.288 121.077  0.00  0.00    -0.368 OA
BRANCH   7   8
ATOM      8  C   LIG d   1      -7.998  75.810 120.279  0.00  0.00     0.119 C 
BRANCH   8   9
ATOM      9  C   LIG d   1      -6.870  76.218 121.246  0.00  0.00     0.028 C 
ATOM     10  C   LIG d   1      -7.165  75.808 122.699  0.00  0.00     0.006 C 
ENDBRANCH   8   9
BRANCH   8  11
ATOM     11  C   LIG d   1      -8.402  77.100 119.559  0.00  0.00     0.028 C 
ATOM     12  C   LIG d   1      -8.570  76.909 118.043  0.00  0.00     0.006 C 
ENDBRANCH   8  11
ENDBRANCH   7   8
ENDBRANCH   1   7
BRANCH   6  13
ATOM     13  N   LIG d   1     -12.096  75.308 120.886  0.00  0.00    -0.311 N 
ATOM     14  C   LIG d   1     -12.280  76.554 121.320  0.00  0.00     0.210 C 
ATOM     15  C   LIG d   1     -13.286  76.698 122.466  0.00  0.00     0.109 C 
ATOM     16  O   LIG d   1     -11.728  77.557 120.843  0.00  0.00    -0.276 OA
ATOM     17  H   LIG d   1     -12.608  74.558 121.308  0.00  0.00     0.149 HD
ENDBRANCH   6  13
BRANCH   5  18
ATOM     18  N   LIG d   1     -12.905  74.680 118.008  0.00  0.00     0.381 N 
ATOM     19  H   LIG d   1     -12.627  74.875 117.067  0.00  0.00    -0.090 HD
ATOM     20  H   LIG d   1     -13.125  75.550 118.459  0.00  0.00    -0.090 HD
ATOM     21  H   LIG d   1     -13.705  74.085 118.009  0.00  0.00    -0.090 HD
ENDBRANCH   5  18
BRANCH   3  22
ATOM     22  C   LIG d   1      -8.828  72.207 117.557  0.00  0.00     0.382 C 
ATOM     23  O   LIG d   1      -7.664  72.485 117.180  0.00  0.00    -0.241 OA
ATOM     24  O   LIG d   1      -9.331  71.113 117.240  0.00  0.00    -0.241 OA
ENDBRANCH   3  22
TORSDOF 7
ENDMDL
MODEL 9
REMARK VINA RESULT:      -4.5      2.502      5.438
REMARK  7 active torsions:
REMARK  status: ('A' for Active; 'I' for Inactive)
REMARK    1  A    between atoms: C_2  and  C_3 
REMARK    2  A    between atoms: C_3  and  O_6 
REMARK    3  A    between atoms: C_3  and  C_4 
REMARK    4  A    between atoms: C_7  and  O_6 
REMARK    5  A    between atoms: C_9  and  C_10 
REMARK    6  A    between atoms: N_15  and  C_14 
REMARK    7  A    between atoms: N_20  and  C_19 
REMARK       I    between atoms: C_22  and  N_20 
ROOT
ATOM      1  C   LIG d   1     -10.007  75.855 119.516  0.00  0.00     0.161 C 
ATOM      2  C   LIG d   1      -9.773  77.021 118.768  0.00  0.00     0.016 C 
ATOM      3  C   LIG d   1      -9.263  78.215 119.328  0.00  0.00     0.038 C 
ATOM      4  C   LIG d   1      -8.807  78.277 120.653  0.00  0.00     0.028 C 
ATOM      5  C   LIG d   1      -9.492  77.276 121.577  0.00  0.00    -0.047 C 
ATOM      6  C   LIG d   1      -9.412  75.869 120.940  0.00  0.00     0.091 C 
ENDROOT
BRANCH   1   7
ATOM      7  O   LIG d   1      -9.536  74.705 118.787  0.00  0.00    -0.368 OA
BRANCH   7   8
ATOM      8  C   LIG d   1     -10.491  74.081 117.893  0.00  0.00     0.119 C 
BRANCH   8   9
ATOM      9  C   LIG d   1     -11.808  73.903 118.674  0.00  0.00     0.028 C 
ATOM     10  C   LIG d   1     -11.796  72.650 119.566  0.00  0.00     0.006 C 
ENDBRANCH   8   9
BRANCH   8  11
ATOM     11  C   LIG d   1     -10.052  72.665 117.509  0.00  0.00     0.028 C 
ATOM     12  C   LIG d   1      -8.539  72.556 117.265  0.00  0.00     0.006 C 
ENDBRANCH   8  11
ENDBRANCH   7   8
ENDBRANCH   1   7
BRANCH   6  13
ATOM     13  N   LIG d   1     -10.133  74.844 121.738  0.00  0.00    -0.311 N 
ATOM     14  C   LIG d   1      -9.549  74.106 122.681  0.00  0.00     0.210 C 
ATOM     15  C   LIG d   1     -10.468  73.093 123.371  0.00  0.00     0.109 C 
ATOM     16  O   LIG d   1      -8.366  74.217 123.035  0.00  0.00    -0.276 OA
ATOM     17  H   LIG d   1     -11.104  74.709 121.538  0.00  0.00     0.149 HD
ENDBRANCH   6  13
BRANCH   5  18
ATOM     18  N   LIG d   1      -8.827  77.353 122.891  0.00  0.00     0.381 N 
ATOM     19  H   LIG d   1      -9.274  78.048 123.456  0.00  0.00    -0.090 HD
ATOM     20  H   LIG d   1      -7.869  77.626 122.755  0.00  0.00    -0.090 HD
ATOM     21  H   LIG d   1      -8.867  76.468 123.346  0.00  0.00    -0.090 HD
ENDBRANCH   5  18
BRANCH   3  22
ATOM     22  C   LIG d   1      -9.241  79.376 118.569  0.00  0.00     0.382 C 
ATOM     23  O   LIG d   1      -8.171  79.758 118.038  0.00  0.00    -0.241 OA
ATOM     24  O   LIG d   1     -10.269  80.069 118.446  0.00  0.00    -0.241 OA
ENDBRANCH   3  22
TORSDOF 7
ENDMDL
