MODEL 1
REMARK VINA RESULT:      -5.9      0.000      0.000
REMARK  7 active torsions:
REMARK  status: ('A' for Active; 'I' for Inactive)
REMARK    1  A    between atoms: C_2  and  C_3 
REMARK    2  A    between atoms: C_3  and  O_6 
REMARK    3  A    between atoms: C_3  and  C_4 
REMARK    4  A    between atoms: C_7  and  O_6 
REMARK    5  A    between atoms: C_9  and  C_10 
REMARK    6  A    between atoms: N_15  and  C_14 
REMARK    7  A    between atoms: N_20  and  C_19 
REMARK       I    between atoms: C_22  and  N_20 
ROOT
ATOM      1  C   LIG d   1      -7.940  75.801 116.953  0.00  0.00     0.161 C 
ATOM      2  C   LIG d   1      -7.153  75.425 115.852  0.00  0.00     0.016 C 
ATOM      3  C   LIG d   1      -5.897  76.004 115.559  0.00  0.00     0.038 C 
ATOM      4  C   LIG d   1      -5.269  76.898 116.439  0.00  0.00     0.028 C 
ATOM      5  C   LIG d   1      -6.248  77.684 117.304  0.00  0.00    -0.047 C 
ATOM      6  C   LIG d   1      -7.221  76.695 117.985  0.00  0.00     0.091 C 
ENDROOT
BRANCH   1   7
ATOM      7  O   LIG d   1      -8.476  74.627 117.594  0.00  0.00    -0.368 OA
BRANCH   7   8
ATOM      8  C   LIG d   1      -9.875  74.346 117.343  0.00  0.00     0.119 C 
BRANCH   8   9
ATOM      9  C   LIG d   1     -10.659  74.730 118.614  0.00  0.00     0.028 C 
ATOM     10  C   LIG d   1     -11.572  75.948 118.394  0.00  0.00     0.006 C 
ENDBRANCH   8   9
BRANCH   8  11
ATOM     11  C   LIG d   1     -10.118  72.846 117.155  0.00  0.00     0.028 C 
ATOM     12  C   LIG d   1      -8.814  72.040 117.050  0.00  0.00     0.006 C 
ENDBRANCH   8  11
ENDBRANCH   7   8
ENDBRANCH   1   7
BRANCH   6  13
ATOM     13  N   LIG d   1      -8.266  77.387 118.784  0.00  0.00    -0.311 N 
ATOM     14  C   LIG d   1      -8.152  77.627 120.090  0.00  0.00     0.210 C 
ATOM     15  C   LIG d   1      -9.353  78.335 120.724  0.00  0.00     0.109 C 
ATOM     16  O   LIG d   1      -7.157  77.348 120.775  0.00  0.00    -0.276 OA
ATOM     17  H   LIG d   1      -9.094  77.676 118.301  0.00  0.00     0.149 HD
ENDBRANCH   6  13
BRANCH   5  18
ATOM     18  N   LIG d   1      -5.458  78.473 118.267  0.00  0.00     0.381 N 
ATOM     19  H   LIG d   1      -6.062  79.078 118.787  0.00  0.00    -0.090 HD
ATOM     20  H   LIG d   1      -4.803  79.043 117.761  0.00  0.00    -0.090 HD
ATOM     21  H   LIG d   1      -4.970  77.865 118.888  0.00  0.00    -0.090 HD
ENDBRANCH   5  18
BRANCH   3  22
ATOM     22  C   LIG d   1      -5.273  75.719 114.353  0.00  0.00     0.382 C 
ATOM     23  O   LIG d   1      -5.656  76.284 113.301  0.00  0.00    -0.241 OA
ATOM     24  O   LIG d   1      -4.362  74.871 114.299  0.00  0.00    -0.241 OA
ENDBRANCH   3  22
TORSDOF 7
ENDMDL
MODEL 2
REMARK VINA RESULT:      -5.8      0.438      1.786
REMARK  7 active torsions:
REMARK  status: ('A' for Active; 'I' for Inactive)
REMARK    1  A    between atoms: C_2  and  C_3 
REMARK    2  A    between atoms: C_3  and  O_6 
REMARK    3  A    between atoms: C_3  and  C_4 
REMARK    4  A    between atoms: C_7  and  O_6 
REMARK    5  A    between atoms: C_9  and  C_10 
REMARK    6  A    between atoms: N_15  and  C_14 
REMARK    7  A    between atoms: N_20  and  C_19 
REMARK       I    between atoms: C_22  and  N_20 
ROOT
ATOM      1  C   LIG d   1      -7.937  75.516 117.155  0.00  0.00     0.161 C 
ATOM      2  C   LIG d   1      -7.199  75.198 116.003  0.00  0.00     0.016 C 
ATOM      3  C   LIG d   1      -6.040  75.902 115.602  0.00  0.00     0.038 C 
ATOM      4  C   LIG d   1      -5.451  76.882 116.414  0.00  0.00     0.028 C 
ATOM      5  C   LIG d   1      -6.443  77.580 117.338  0.00  0.00    -0.047 C 
ATOM      6  C   LIG d   1      -7.247  76.510 118.111  0.00  0.00     0.091 C 
ENDROOT
BRANCH   1   7
ATOM      7  O   LIG d   1      -8.291  74.308 117.858  0.00  0.00    -0.368 OA
BRANCH   7   8
ATOM      8  C   LIG d   1      -9.702  73.979 117.889  0.00  0.00     0.119 C 
BRANCH   8   9
ATOM      9  C   LIG d   1      -9.901  72.714 117.032  0.00  0.00     0.028 C 
ATOM     10  C   LIG d   1      -8.666  71.797 117.043  0.00  0.00     0.006 C 
ENDBRANCH   8   9
BRANCH   8  11
ATOM     11  C   LIG d   1     -10.543  75.065 117.211  0.00  0.00     0.028 C 
ATOM     12  C   LIG d   1     -11.496  75.775 118.185  0.00  0.00     0.006 C 
ENDBRANCH   8  11
ENDBRANCH   7   8
ENDBRANCH   1   7
BRANCH   6  13
ATOM     13  N   LIG d   1      -8.298  77.107 118.976  0.00  0.00    -0.311 N 
ATOM     14  C   LIG d   1      -8.097  77.442 120.250  0.00  0.00     0.210 C 
ATOM     15  C   LIG d   1      -9.320  78.023 120.966  0.00  0.00     0.109 C 
ATOM     16  O   LIG d   1      -7.013  77.343 120.844  0.00  0.00    -0.276 OA
ATOM     17  H   LIG d   1      -9.199  77.251 118.565  0.00  0.00     0.149 HD
ENDBRANCH   6  13
BRANCH   5  18
ATOM     18  N   LIG d   1      -5.674  78.477 118.222  0.00  0.00     0.381 N 
ATOM     19  H   LIG d   1      -6.277  79.181 118.598  0.00  0.00    -0.090 HD
ATOM     20  H   LIG d   1      -4.958  78.930 117.682  0.00  0.00    -0.090 HD
ATOM     21  H   LIG d   1      -5.260  77.954 118.962  0.00  0.00    -0.090 HD
ENDBRANCH   5  18
BRANCH   3  22
ATOM     22  C   LIG d   1      -5.481  75.653 114.358  0.00  0.00     0.382 C 
ATOM     23  O   LIG d   1      -5.879  76.291 113.353  0.00  0.00    -0.241 OA
ATOM     24  O   LIG d   1      -4.615  74.769 114.219  0.00  0.00    -0.241 OA
ENDBRANCH   3  22
TORSDOF 7
ENDMDL
MODEL 3
REMARK VINA RESULT:      -5.5      2.097      4.766
REMARK  7 active torsions:
REMARK  status: ('A' for Active; 'I' for Inactive)
REMARK    1  A    between atoms: C_2  and  C_3 
REMARK    2  A    between atoms: C_3  and  O_6 
REMARK    3  A    between atoms: C_3  and  C_4 
REMARK    4  A    between atoms: C_7  and  O_6 
REMARK    5  A    between atoms: C_9  and  C_10 
REMARK    6  A    between atoms: N_15  and  C_14 
REMARK    7  A    between atoms: N_20  and  C_19 
REMARK       I    between atoms: C_22  and  N_20 
ROOT
ATOM      1  C   LIG d   1      -7.827  75.541 117.938  0.00  0.00     0.161 C 
ATOM      2  C   LIG d   1      -7.931  74.249 117.394  0.00  0.00     0.016 C 
ATOM      3  C   LIG d   1      -9.121  73.485 117.427  0.00  0.00     0.038 C 
ATOM      4  C   LIG d   1     -10.336  74.024 117.876  0.00  0.00     0.028 C 
ATOM      5  C   LIG d   1     -10.162  75.144 118.896  0.00  0.00    -0.047 C 
ATOM      6  C   LIG d   1      -9.171  76.188 118.331  0.00  0.00     0.091 C 
ENDROOT
BRANCH   1   7
ATOM      7  O   LIG d   1      -7.106  76.396 117.029  0.00  0.00    -0.368 OA
BRANCH   7   8
ATOM      8  C   LIG d   1      -5.732  76.025 116.759  0.00  0.00     0.119 C 
BRANCH   8   9
ATOM      9  C   LIG d   1      -4.829  77.109 117.380  0.00  0.00     0.028 C 
ATOM     10  C   LIG d   1      -5.547  78.461 117.521  0.00  0.00     0.006 C 
ENDBRANCH   8   9
BRANCH   8  11
ATOM     11  C   LIG d   1      -5.431  76.059 115.257  0.00  0.00     0.028 C 
ATOM     12  C   LIG d   1      -5.340  74.656 114.636  0.00  0.00     0.006 C 
ENDBRANCH   8  11
ENDBRANCH   7   8
ENDBRANCH   1   7
BRANCH   6  13
ATOM     13  N   LIG d   1      -8.880  77.275 119.301  0.00  0.00    -0.311 N 
ATOM     14  C   LIG d   1      -9.572  78.411 119.359  0.00  0.00     0.210 C 
ATOM     15  C   LIG d   1      -9.094  79.408 120.419  0.00  0.00     0.109 C 
ATOM     16  O   LIG d   1     -10.558  78.675 118.654  0.00  0.00    -0.276 OA
ATOM     17  H   LIG d   1      -8.116  77.131 119.932  0.00  0.00     0.149 HD
ENDBRANCH   6  13
BRANCH   5  18
ATOM     18  N   LIG d   1     -11.498  75.706 119.173  0.00  0.00     0.381 N 
ATOM     19  H   LIG d   1     -12.035  75.732 118.330  0.00  0.00    -0.090 HD
ATOM     20  H   LIG d   1     -11.391  76.647 119.509  0.00  0.00    -0.090 HD
ATOM     21  H   LIG d   1     -11.965  75.152 119.856  0.00  0.00    -0.090 HD
ENDBRANCH   5  18
BRANCH   3  22
ATOM     22  C   LIG d   1      -9.092  72.153 117.045  0.00  0.00     0.382 C 
ATOM     23  O   LIG d   1      -8.010  71.625 116.692  0.00  0.00    -0.241 OA
ATOM     24  O   LIG d   1     -10.142  71.484 117.007  0.00  0.00    -0.241 OA
ENDBRANCH   3  22
TORSDOF 7
ENDMDL
MODEL 4
REMARK VINA RESULT:      -5.3      1.705      4.911
REMARK  7 active torsions:
REMARK  status: ('A' for Active; 'I' for Inactive)
REMARK    1  A    between atoms: C_2  and  C_3 
REMARK    2  A    between atoms: C_3  and  O_6 
REMARK    3  A    between atoms: C_3  and  C_4 
REMARK    4  A    between atoms: C_7  and  O_6 
REMARK    5  A    between atoms: C_9  and  C_10 
REMARK    6  A    between atoms: N_15  and  C_14 
REMARK    7  A    between atoms: N_20  and  C_19 
REMARK       I    between atoms: C_22  and  N_20 
ROOT
ATOM      1  C   LIG d   1      -7.282  76.098 117.971  0.00  0.00     0.161 C 
ATOM      2  C   LIG d   1      -8.209  76.873 118.688  0.00  0.00     0.016 C 
ATOM      3  C   LIG d   1      -8.082  78.269 118.868  0.00  0.00     0.038 C 
ATOM      4  C   LIG d   1      -7.092  79.014 118.211  0.00  0.00     0.028 C 
ATOM      5  C   LIG d   1      -5.840  78.206 117.887  0.00  0.00    -0.047 C 
ATOM      6  C   LIG d   1      -6.256  76.910 117.154  0.00  0.00     0.091 C 
ENDROOT
BRANCH   1   7
ATOM      7  O   LIG d   1      -7.979  75.168 117.118  0.00  0.00    -0.368 OA
BRANCH   7   8
ATOM      8  C   LIG d   1      -8.482  73.970 117.759  0.00  0.00     0.119 C 
BRANCH   8   9
ATOM      9  C   LIG d   1      -7.610  72.791 117.287  0.00  0.00     0.028 C 
ATOM     10  C   LIG d   1      -8.443  71.545 116.943  0.00  0.00     0.006 C 
ENDBRANCH   8   9
BRANCH   8  11
ATOM     11  C   LIG d   1      -9.901  73.639 117.286  0.00  0.00     0.028 C 
ATOM     12  C   LIG d   1     -10.816  74.873 117.241  0.00  0.00     0.006 C 
ENDBRANCH   8  11
ENDBRANCH   7   8
ENDBRANCH   1   7
BRANCH   6  13
ATOM     13  N   LIG d   1      -5.098  76.020 116.875  0.00  0.00    -0.311 N 
ATOM     14  C   LIG d   1      -4.421  76.036 115.728  0.00  0.00     0.210 C 
ATOM     15  C   LIG d   1      -3.275  75.023 115.640  0.00  0.00     0.109 C 
ATOM     16  O   LIG d   1      -4.640  76.814 114.788  0.00  0.00    -0.276 OA
ATOM     17  H   LIG d   1      -4.832  75.378 117.596  0.00  0.00     0.149 HD
ENDBRANCH   6  13
BRANCH   5  18
ATOM     18  N   LIG d   1      -4.950  79.064 117.083  0.00  0.00     0.381 N 
ATOM     19  H   LIG d   1      -5.241  80.019 117.159  0.00  0.00    -0.090 HD
ATOM     20  H   LIG d   1      -5.017  78.790 116.119  0.00  0.00    -0.090 HD
ATOM     21  H   LIG d   1      -4.009  78.970 117.398  0.00  0.00    -0.090 HD
ENDBRANCH   5  18
BRANCH   3  22
ATOM     22  C   LIG d   1      -8.929  78.929 119.746  0.00  0.00     0.382 C 
ATOM     23  O   LIG d   1      -8.456  79.531 120.740  0.00  0.00    -0.241 OA
ATOM     24  O   LIG d   1     -10.163  78.893 119.580  0.00  0.00    -0.241 OA
ENDBRANCH   3  22
TORSDOF 7
ENDMDL
MODEL 5
REMARK VINA RESULT:      -5.0     15.132     16.968
REMARK  7 active torsions:
REMARK  status: ('A' for Active; 'I' for Inactive)
REMARK    1  A    between atoms: C_2  and  C_3 
REMARK    2  A    between atoms: C_3  and  O_6 
REMARK    3  A    between atoms: C_3  and  C_4 
REMARK    4  A    between atoms: C_7  and  O_6 
REMARK    5  A    between atoms: C_9  and  C_10 
REMARK    6  A    between atoms: N_15  and  C_14 
REMARK    7  A    between atoms: N_20  and  C_19 
REMARK       I    between atoms: C_22  and  N_20 
ROOT
ATOM      1  C   LIG d   1       1.519  88.654 116.375  0.00  0.00     0.161 C 
ATOM      2  C   LIG d   1       0.147  88.622 116.675  0.00  0.00     0.016 C 
ATOM      3  C   LIG d   1      -0.548  89.706 117.260  0.00  0.00     0.038 C 
ATOM      4  C   LIG d   1       0.055  90.959 117.446  0.00  0.00     0.028 C 
ATOM      5  C   LIG d   1       1.568  90.882 117.625  0.00  0.00    -0.047 C 
ATOM      6  C   LIG d   1       2.168  90.051 116.468  0.00  0.00     0.091 C 
ENDROOT
BRANCH   1   7
ATOM      7  O   LIG d   1       1.747  88.081 115.072  0.00  0.00    -0.368 OA
BRANCH   7   8
ATOM      8  C   LIG d   1       2.307  86.745 115.053  0.00  0.00     0.119 C 
BRANCH   8   9
ATOM      9  C   LIG d   1       2.903  86.472 116.448  0.00  0.00     0.028 C 
ATOM     10  C   LIG d   1       4.424  86.249 116.403  0.00  0.00     0.006 C 
ENDBRANCH   8   9
BRANCH   8  11
ATOM     11  C   LIG d   1       3.488  86.649 114.082  0.00  0.00     0.028 C 
ATOM     12  C   LIG d   1       3.232  87.389 112.759  0.00  0.00     0.006 C 
ENDBRANCH   8  11
ENDBRANCH   7   8
ENDBRANCH   1   7
BRANCH   6  13
ATOM     13  N   LIG d   1       3.635  89.856 116.613  0.00  0.00    -0.311 N 
ATOM     14  C   LIG d   1       4.490  89.946 115.595  0.00  0.00     0.210 C 
ATOM     15  C   LIG d   1       5.956  89.690 115.958  0.00  0.00     0.109 C 
ATOM     16  O   LIG d   1       4.177  90.246 114.433  0.00  0.00    -0.276 OA
ATOM     17  H   LIG d   1       3.978  89.640 117.528  0.00  0.00     0.149 HD
ENDBRANCH   6  13
BRANCH   5  18
ATOM     18  N   LIG d   1       2.082  92.264 117.670  0.00  0.00     0.381 N 
ATOM     19  H   LIG d   1       3.033  92.282 117.363  0.00  0.00    -0.090 HD
ATOM     20  H   LIG d   1       2.051  92.591 118.620  0.00  0.00    -0.090 HD
ATOM     21  H   LIG d   1       1.526  92.854 117.090  0.00  0.00    -0.090 HD
ENDBRANCH   5  18
BRANCH   3  22
ATOM     22  C   LIG d   1      -1.850  89.530 117.701  0.00  0.00     0.382 C 
ATOM     23  O   LIG d   1      -2.771  90.245 117.238  0.00  0.00    -0.241 OA
ATOM     24  O   LIG d   1      -2.109  88.695 118.589  0.00  0.00    -0.241 OA
ENDBRANCH   3  22
TORSDOF 7
ENDMDL
MODEL 6
REMARK VINA RESULT:      -4.9      2.355      4.098
REMARK  7 active torsions:
REMARK  status: ('A' for Active; 'I' for Inactive)
REMARK    1  A    between atoms: C_2  and  C_3 
REMARK    2  A    between atoms: C_3  and  O_6 
REMARK    3  A    between atoms: C_3  and  C_4 
REMARK    4  A    between atoms: C_7  and  O_6 
REMARK    5  A    between atoms: C_9  and  C_10 
REMARK    6  A    between atoms: N_15  and  C_14 
REMARK    7  A    between atoms: N_20  and  C_19 
REMARK       I    between atoms: C_22  and  N_20 
ROOT
ATOM      1  C   LIG d   1      -8.446  75.968 118.178  0.00  0.00     0.161 C 
ATOM      2  C   LIG d   1      -8.990  74.682 118.019  0.00  0.00     0.016 C 
ATOM      3  C   LIG d   1      -8.320  73.631 117.352  0.00  0.00     0.038 C 
ATOM      4  C   LIG d   1      -6.989  73.752 116.927  0.00  0.00     0.028 C 
ATOM      5  C   LIG d   1      -6.580  75.188 116.616  0.00  0.00    -0.047 C 
ATOM      6  C   LIG d   1      -6.950  76.086 117.819  0.00  0.00     0.091 C 
ENDROOT
BRANCH   1   7
ATOM      7  O   LIG d   1      -8.677  76.433 119.522  0.00  0.00    -0.368 OA
BRANCH   7   8
ATOM      8  C   LIG d   1      -9.397  75.528 120.395  0.00  0.00     0.119 C 
BRANCH   8   9
ATOM      9  C   LIG d   1     -10.678  76.251 120.856  0.00  0.00     0.028 C 
ATOM     10  C   LIG d   1     -11.865  76.000 119.911  0.00  0.00     0.006 C 
ENDBRANCH   8   9
BRANCH   8  11
ATOM     11  C   LIG d   1      -8.608  75.245 121.677  0.00  0.00     0.028 C 
ATOM     12  C   LIG d   1      -7.990  76.512 122.289  0.00  0.00     0.006 C 
ENDBRANCH   8  11
ENDBRANCH   7   8
ENDBRANCH   1   7
BRANCH   6  13
ATOM     13  N   LIG d   1      -6.661  77.521 117.564  0.00  0.00    -0.311 N 
ATOM     14  C   LIG d   1      -5.526  78.117 117.929  0.00  0.00     0.210 C 
ATOM     15  C   LIG d   1      -5.440  79.608 117.589  0.00  0.00     0.109 C 
ATOM     16  O   LIG d   1      -4.571  77.544 118.473  0.00  0.00    -0.276 OA
ATOM     17  H   LIG d   1      -7.370  78.054 117.099  0.00  0.00     0.149 HD
ENDBRANCH   6  13
BRANCH   5  18
ATOM     18  N   LIG d   1      -5.135  75.186 116.320  0.00  0.00     0.381 N 
ATOM     19  H   LIG d   1      -4.666  74.541 116.924  0.00  0.00    -0.090 HD
ATOM     20  H   LIG d   1      -4.766  76.105 116.492  0.00  0.00    -0.090 HD
ATOM     21  H   LIG d   1      -4.982  74.932 115.368  0.00  0.00    -0.090 HD
ENDBRANCH   5  18
BRANCH   3  22
ATOM     22  C   LIG d   1      -8.998  72.455 117.068  0.00  0.00     0.382 C 
ATOM     23  O   LIG d   1     -10.252  72.440 117.064  0.00  0.00    -0.241 OA
ATOM     24  O   LIG d   1      -8.371  71.399 116.858  0.00  0.00    -0.241 OA
ENDBRANCH   3  22
TORSDOF 7
ENDMDL
MODEL 7
REMARK VINA RESULT:      -4.8     15.762     18.072
REMARK  7 active torsions:
REMARK  status: ('A' for Active; 'I' for Inactive)
REMARK    1  A    between atoms: C_2  and  C_3 
REMARK    2  A    between atoms: C_3  and  O_6 
REMARK    3  A    between atoms: C_3  and  C_4 
REMARK    4  A    between atoms: C_7  and  O_6 
REMARK    5  A    between atoms: C_9  and  C_10 
REMARK    6  A    between atoms: N_15  and  C_14 
REMARK    7  A    between atoms: N_20  and  C_19 
REMARK       I    between atoms: C_22  and  N_20 
ROOT
ATOM      1  C   LIG d   1     -23.066  83.612 115.882  0.00  0.00     0.161 C 
ATOM      2  C   LIG d   1     -22.611  84.910 115.596  0.00  0.00     0.016 C 
ATOM      3  C   LIG d   1     -22.774  85.532 114.337  0.00  0.00     0.038 C 
ATOM      4  C   LIG d   1     -23.542  84.951 113.317  0.00  0.00     0.028 C 
ATOM      5  C   LIG d   1     -23.590  83.428 113.388  0.00  0.00    -0.047 C 
ATOM      6  C   LIG d   1     -24.003  83.006 114.817  0.00  0.00     0.091 C 
ENDROOT
BRANCH   1   7
ATOM      7  O   LIG d   1     -23.699  83.591 117.177  0.00  0.00    -0.368 OA
BRANCH   7   8
ATOM      8  C   LIG d   1     -22.927  83.004 118.254  0.00  0.00     0.119 C 
BRANCH   8   9
ATOM      9  C   LIG d   1     -22.490  84.150 119.188  0.00  0.00     0.028 C 
ATOM     10  C   LIG d   1     -23.512  85.299 119.224  0.00  0.00     0.006 C 
ENDBRANCH   8   9
BRANCH   8  11
ATOM     11  C   LIG d   1     -21.625  82.387 117.735  0.00  0.00     0.028 C 
ATOM     12  C   LIG d   1     -20.692  81.925 118.865  0.00  0.00     0.006 C 
ENDBRANCH   8  11
ENDBRANCH   7   8
ENDBRANCH   1   7
BRANCH   6  13
ATOM     13  N   LIG d   1     -23.993  81.531 114.997  0.00  0.00    -0.311 N 
ATOM     14  C   LIG d   1     -25.065  80.762 114.808  0.00  0.00     0.210 C 
ATOM     15  C   LIG d   1     -24.843  79.269 115.067  0.00  0.00     0.109 C 
ATOM     16  O   LIG d   1     -26.169  81.171 114.419  0.00  0.00    -0.276 OA
ATOM     17  H   LIG d   1     -23.130  81.111 115.281  0.00  0.00     0.149 HD
ENDBRANCH   6  13
BRANCH   5  18
ATOM     18  N   LIG d   1     -24.533  82.963 112.353  0.00  0.00     0.381 N 
ATOM     19  H   LIG d   1     -24.677  81.978 112.444  0.00  0.00    -0.090 HD
ATOM     20  H   LIG d   1     -24.135  83.142 111.448  0.00  0.00    -0.090 HD
ATOM     21  H   LIG d   1     -25.402  83.443 112.443  0.00  0.00    -0.090 HD
ENDBRANCH   5  18
BRANCH   3  22
ATOM     22  C   LIG d   1     -22.131  86.732 114.075  0.00  0.00     0.382 C 
ATOM     23  O   LIG d   1     -21.116  86.752 113.337  0.00  0.00    -0.241 OA
ATOM     24  O   LIG d   1     -22.527  87.789 114.602  0.00  0.00    -0.241 OA
ENDBRANCH   3  22
TORSDOF 7
ENDMDL
MODEL 8
REMARK VINA RESULT:      -4.8      1.491      1.947
REMARK  7 active torsions:
REMARK  status: ('A' for Active; 'I' for Inactive)
REMARK    1  A    between atoms: C_2  and  C_3 
REMARK    2  A    between atoms: C_3  and  O_6 
REMARK    3  A    between atoms: C_3  and  C_4 
REMARK    4  A    between atoms: C_7  and  O_6 
REMARK    5  A    between atoms: C_9  and  C_10 
REMARK    6  A    between atoms: N_15  and  C_14 
REMARK    7  A    between atoms: N_20  and  C_19 
REMARK       I    between atoms: C_22  and  N_20 
ROOT
ATOM      1  C   LIG d   1      -7.080  75.936 117.401  0.00  0.00     0.161 C 
ATOM      2  C   LIG d   1      -6.241  75.238 116.517  0.00  0.00     0.016 C 
ATOM      3  C   LIG d   1      -5.053  75.783 115.977  0.00  0.00     0.038 C 
ATOM      4  C   LIG d   1      -4.542  77.017 116.406  0.00  0.00     0.028 C 
ATOM      5  C   LIG d   1      -5.615  77.973 116.916  0.00  0.00    -0.047 C 
ATOM      6  C   LIG d   1      -6.481  77.240 117.967  0.00  0.00     0.091 C 
ENDROOT
BRANCH   1   7
ATOM      7  O   LIG d   1      -7.491  75.066 118.474  0.00  0.00    -0.368 OA
BRANCH   7   8
ATOM      8  C   LIG d   1      -8.908  74.775 118.552  0.00  0.00     0.119 C 
BRANCH   8   9
ATOM      9  C   LIG d   1      -9.565  75.327 117.272  0.00  0.00     0.028 C 
ATOM     10  C   LIG d   1     -10.848  74.566 116.896  0.00  0.00     0.006 C 
ENDBRANCH   8   9
BRANCH   8  11
ATOM     11  C   LIG d   1      -9.570  75.533 119.706  0.00  0.00     0.028 C 
ATOM     12  C   LIG d   1      -8.763  75.454 121.012  0.00  0.00     0.006 C 
ENDBRANCH   8  11
ENDBRANCH   7   8
ENDBRANCH   1   7
BRANCH   6  13
ATOM     13  N   LIG d   1      -7.608  78.078 118.456  0.00  0.00    -0.311 N 
ATOM     14  C   LIG d   1      -7.566  78.772 119.591  0.00  0.00     0.210 C 
ATOM     15  C   LIG d   1      -8.842  79.553 119.919  0.00  0.00     0.109 C 
ATOM     16  O   LIG d   1      -6.581  78.842 120.342  0.00  0.00    -0.276 OA
ATOM     17  H   LIG d   1      -8.435  78.104 117.892  0.00  0.00     0.149 HD
ENDBRANCH   6  13
BRANCH   5  18
ATOM     18  N   LIG d   1      -4.931  79.162 117.458  0.00  0.00     0.381 N 
ATOM     19  H   LIG d   1      -3.943  79.072 117.330  0.00  0.00    -0.090 HD
ATOM     20  H   LIG d   1      -5.118  79.223 118.443  0.00  0.00    -0.090 HD
ATOM     21  H   LIG d   1      -5.260  79.983 116.999  0.00  0.00    -0.090 HD
ENDBRANCH   5  18
BRANCH   3  22
ATOM     22  C   LIG d   1      -4.385  75.108 114.967  0.00  0.00     0.382 C 
ATOM     23  O   LIG d   1      -5.028  74.621 114.006  0.00  0.00    -0.241 OA
ATOM     24  O   LIG d   1      -3.152  74.942 115.026  0.00  0.00    -0.241 OA
ENDBRANCH   3  22
TORSDOF 7
ENDMDL
MODEL 9
REMARK VINA RESULT:      -4.7     14.989     17.475
REMARK  7 active torsions:
REMARK  status: ('A' for Active; 'I' for Inactive)
REMARK    1  A    between atoms: C_2  and  C_3 
REMARK    2  A    between atoms: C_3  and  O_6 
REMARK    3  A    between atoms: C_3  and  C_4 
REMARK    4  A    between atoms: C_7  and  O_6 
REMARK    5  A    between atoms: C_9  and  C_10 
REMARK    6  A    between atoms: N_15  and  C_14 
REMARK    7  A    between atoms: N_20  and  C_19 
REMARK       I    between atoms: C_22  and  N_20 
ROOT
ATOM      1  C   LIG d   1       1.625  89.337 116.602  0.00  0.00     0.161 C 
ATOM      2  C   LIG d   1       0.240  89.133 116.717  0.00  0.00     0.016 C 
ATOM      3  C   LIG d   1      -0.604  89.950 117.504  0.00  0.00     0.038 C 
ATOM      4  C   LIG d   1      -0.140  91.126 118.112  0.00  0.00     0.028 C 
ATOM      5  C   LIG d   1       1.349  91.093 118.437  0.00  0.00    -0.047 C 
ATOM      6  C   LIG d   1       2.131  90.680 117.169  0.00  0.00     0.091 C 
ENDROOT
BRANCH   1   7
ATOM      7  O   LIG d   1       2.028  89.192 115.226  0.00  0.00    -0.368 OA
BRANCH   7   8
ATOM      8  C   LIG d   1       2.930  88.095 114.938  0.00  0.00     0.119 C 
BRANCH   8   9
ATOM      9  C   LIG d   1       3.740  88.479 113.684  0.00  0.00     0.028 C 
ATOM     10  C   LIG d   1       4.703  89.650 113.944  0.00  0.00     0.006 C 
ENDBRANCH   8   9
BRANCH   8  11
ATOM     11  C   LIG d   1       2.161  86.828 114.552  0.00  0.00     0.028 C 
ATOM     12  C   LIG d   1       2.930  85.540 114.885  0.00  0.00     0.006 C 
ENDBRANCH   8  11
ENDBRANCH   7   8
ENDBRANCH   1   7
BRANCH   6  13
ATOM     13  N   LIG d   1       3.589  90.542 117.422  0.00  0.00    -0.311 N 
ATOM     14  C   LIG d   1       4.450  91.552 117.314  0.00  0.00     0.210 C 
ATOM     15  C   LIG d   1       5.911  91.188 117.599  0.00  0.00     0.109 C 
ATOM     16  O   LIG d   1       4.139  92.721 117.041  0.00  0.00    -0.276 OA
ATOM     17  H   LIG d   1       3.923  89.634 117.679  0.00  0.00     0.149 HD
ENDBRANCH   6  13
BRANCH   5  18
ATOM     18  N   LIG d   1       1.725  92.429 118.939  0.00  0.00     0.381 N 
ATOM     19  H   LIG d   1       1.950  93.028 118.171  0.00  0.00    -0.090 HD
ATOM     20  H   LIG d   1       2.541  92.340 119.519  0.00  0.00    -0.090 HD
ATOM     21  H   LIG d   1       0.975  92.819 119.466  0.00  0.00    -0.090 HD
ENDBRANCH   5  18
BRANCH   3  22
ATOM     22  C   LIG d   1      -1.920  89.571 117.720  0.00  0.00     0.382 C 
ATOM     23  O   LIG d   1      -2.854  90.209 117.176  0.00  0.00    -0.241 OA
ATOM     24  O   LIG d   1      -2.187  88.628 118.488  0.00  0.00    -0.241 OA
ENDBRANCH   3  22
TORSDOF 7
ENDMDL
