MODEL 1
REMARK VINA RESULT:      -6.3      0.000      0.000
REMARK  7 active torsions:
REMARK  status: ('A' for Active; 'I' for Inactive)
REMARK    1  A    between atoms: C_2  and  C_3 
REMARK    2  A    between atoms: C_3  and  O_6 
REMARK    3  A    between atoms: C_3  and  C_4 
REMARK    4  A    between atoms: C_7  and  O_6 
REMARK    5  A    between atoms: C_9  and  C_10 
REMARK    6  A    between atoms: N_15  and  C_14 
REMARK    7  A    between atoms: N_20  and  C_19 
REMARK       I    between atoms: C_22  and  N_20 
ROOT
ATOM      1  C   LIG d   1      -3.714  76.340 116.181  0.00  0.00     0.161 C 
ATOM      2  C   LIG d   1      -4.095  76.961 114.979  0.00  0.00     0.016 C 
ATOM      3  C   LIG d   1      -3.178  77.320 113.964  0.00  0.00     0.038 C 
ATOM      4  C   LIG d   1      -1.828  76.943 114.017  0.00  0.00     0.028 C 
ATOM      5  C   LIG d   1      -1.305  76.761 115.438  0.00  0.00    -0.047 C 
ATOM      6  C   LIG d   1      -2.261  75.821 116.208  0.00  0.00     0.091 C 
ENDROOT
BRANCH   1   7
ATOM      7  O   LIG d   1      -4.633  75.275 116.493  0.00  0.00    -0.368 OA
BRANCH   7   8
ATOM      8  C   LIG d   1      -5.954  75.381 115.908  0.00  0.00     0.119 C 
BRANCH   8   9
ATOM      9  C   LIG d   1      -6.944  75.676 117.052  0.00  0.00     0.028 C 
ATOM     10  C   LIG d   1      -7.944  76.787 116.691  0.00  0.00     0.006 C 
ENDBRANCH   8   9
BRANCH   8  11
ATOM     11  C   LIG d   1      -6.410  74.045 115.313  0.00  0.00     0.028 C 
ATOM     12  C   LIG d   1      -7.140  73.157 116.332  0.00  0.00     0.006 C 
ENDBRANCH   8  11
ENDBRANCH   7   8
ENDBRANCH   1   7
BRANCH   6  13
ATOM     13  N   LIG d   1      -1.869  75.657 117.632  0.00  0.00    -0.311 N 
ATOM     14  C   LIG d   1      -1.197  74.602 118.091  0.00  0.00     0.210 C 
ATOM     15  C   LIG d   1      -0.912  74.622 119.596  0.00  0.00     0.109 C 
ATOM     16  O   LIG d   1      -0.783  73.668 117.389  0.00  0.00    -0.276 OA
ATOM     17  H   LIG d   1      -2.138  76.384 118.266  0.00  0.00     0.149 HD
ENDBRANCH   6  13
BRANCH   5  18
ATOM     18  N   LIG d   1       0.070  76.236 115.344  0.00  0.00     0.381 N 
ATOM     19  H   LIG d   1       0.188  75.750 114.477  0.00  0.00    -0.090 HD
ATOM     20  H   LIG d   1       0.221  75.585 116.094  0.00  0.00    -0.090 HD
ATOM     21  H   LIG d   1       0.725  76.984 115.406  0.00  0.00    -0.090 HD
ENDBRANCH   5  18
BRANCH   3  22
ATOM     22  C   LIG d   1      -3.603  78.099 112.899  0.00  0.00     0.382 C 
ATOM     23  O   LIG d   1      -4.419  77.633 112.067  0.00  0.00    -0.241 OA
ATOM     24  O   LIG d   1      -3.147  79.246 112.734  0.00  0.00    -0.241 OA
ENDBRANCH   3  22
TORSDOF 7
ENDMDL
MODEL 2
REMARK VINA RESULT:      -5.6     16.586     18.037
REMARK  7 active torsions:
REMARK  status: ('A' for Active; 'I' for Inactive)
REMARK    1  A    between atoms: C_2  and  C_3 
REMARK    2  A    between atoms: C_3  and  O_6 
REMARK    3  A    between atoms: C_3  and  C_4 
REMARK    4  A    between atoms: C_7  and  O_6 
REMARK    5  A    between atoms: C_9  and  C_10 
REMARK    6  A    between atoms: N_15  and  C_14 
REMARK    7  A    between atoms: N_20  and  C_19 
REMARK       I    between atoms: C_22  and  N_20 
ROOT
ATOM      1  C   LIG d   1      -6.062  93.591 118.123  0.00  0.00     0.161 C 
ATOM      2  C   LIG d   1      -6.703  92.789 117.163  0.00  0.00     0.016 C 
ATOM      3  C   LIG d   1      -6.035  91.806 116.399  0.00  0.00     0.038 C 
ATOM      4  C   LIG d   1      -4.701  91.450 116.651  0.00  0.00     0.028 C 
ATOM      5  C   LIG d   1      -3.879  92.579 117.263  0.00  0.00    -0.047 C 
ATOM      6  C   LIG d   1      -4.633  93.141 118.490  0.00  0.00     0.091 C 
ENDROOT
BRANCH   1   7
ATOM      7  O   LIG d   1      -6.879  93.682 119.307  0.00  0.00    -0.368 OA
BRANCH   7   8
ATOM      8  C   LIG d   1      -7.543  94.951 119.527  0.00  0.00     0.119 C 
BRANCH   8   9
ATOM      9  C   LIG d   1      -9.026  94.768 119.149  0.00  0.00     0.028 C 
ATOM     10  C   LIG d   1      -9.948  94.753 120.380  0.00  0.00     0.006 C 
ENDBRANCH   8   9
BRANCH   8  11
ATOM     11  C   LIG d   1      -7.012  96.030 118.578  0.00  0.00     0.028 C 
ATOM     12  C   LIG d   1      -8.056  97.113 118.264  0.00  0.00     0.006 C 
ENDBRANCH   8  11
ENDBRANCH   7   8
ENDBRANCH   1   7
BRANCH   6  13
ATOM     13  N   LIG d   1      -3.937  94.305 119.098  0.00  0.00    -0.311 N 
ATOM     14  C   LIG d   1      -3.077  94.199 120.110  0.00  0.00     0.210 C 
ATOM     15  C   LIG d   1      -2.488  95.526 120.600  0.00  0.00     0.109 C 
ATOM     16  O   LIG d   1      -2.722  93.129 120.627  0.00  0.00    -0.276 OA
ATOM     17  H   LIG d   1      -4.144  95.209 118.719  0.00  0.00     0.149 HD
ENDBRANCH   6  13
BRANCH   5  18
ATOM     18  N   LIG d   1      -2.552  92.032 117.601  0.00  0.00     0.381 N 
ATOM     19  H   LIG d   1      -1.895  92.778 117.711  0.00  0.00    -0.090 HD
ATOM     20  H   LIG d   1      -2.240  91.446 116.846  0.00  0.00    -0.090 HD
ATOM     21  H   LIG d   1      -2.606  91.501 118.442  0.00  0.00    -0.090 HD
ENDBRANCH   5  18
BRANCH   3  22
ATOM     22  C   LIG d   1      -6.691  91.194 115.342  0.00  0.00     0.382 C 
ATOM     23  O   LIG d   1      -6.640  91.700 114.195  0.00  0.00    -0.241 OA
ATOM     24  O   LIG d   1      -7.369  90.166 115.529  0.00  0.00    -0.241 OA
ENDBRANCH   3  22
TORSDOF 7
ENDMDL
MODEL 3
REMARK VINA RESULT:      -5.5      1.811      4.956
REMARK  7 active torsions:
REMARK  status: ('A' for Active; 'I' for Inactive)
REMARK    1  A    between atoms: C_2  and  C_3 
REMARK    2  A    between atoms: C_3  and  O_6 
REMARK    3  A    between atoms: C_3  and  C_4 
REMARK    4  A    between atoms: C_7  and  O_6 
REMARK    5  A    between atoms: C_9  and  C_10 
REMARK    6  A    between atoms: N_15  and  C_14 
REMARK    7  A    between atoms: N_20  and  C_19 
REMARK       I    between atoms: C_22  and  N_20 
ROOT
ATOM      1  C   LIG d   1      -2.470  75.587 115.188  0.00  0.00     0.161 C 
ATOM      2  C   LIG d   1      -2.262  74.860 116.371  0.00  0.00     0.016 C 
ATOM      3  C   LIG d   1      -1.486  75.337 117.452  0.00  0.00     0.038 C 
ATOM      4  C   LIG d   1      -0.985  76.647 117.484  0.00  0.00     0.028 C 
ATOM      5  C   LIG d   1      -0.744  77.237 116.099  0.00  0.00    -0.047 C 
ATOM      6  C   LIG d   1      -2.024  77.063 115.249  0.00  0.00     0.091 C 
ENDROOT
BRANCH   1   7
ATOM      7  O   LIG d   1      -3.854  75.498 114.795  0.00  0.00    -0.368 OA
BRANCH   7   8
ATOM      8  C   LIG d   1      -4.798  75.203 115.854  0.00  0.00     0.119 C 
BRANCH   8   9
ATOM      9  C   LIG d   1      -5.898  74.305 115.255  0.00  0.00     0.028 C 
ATOM     10  C   LIG d   1      -6.879  73.789 116.321  0.00  0.00     0.006 C 
ENDBRANCH   8   9
BRANCH   8  11
ATOM     11  C   LIG d   1      -5.520  76.469 116.325  0.00  0.00     0.028 C 
ATOM     12  C   LIG d   1      -4.895  77.074 117.592  0.00  0.00     0.006 C 
ENDBRANCH   8  11
ENDBRANCH   7   8
ENDBRANCH   1   7
BRANCH   6  13
ATOM     13  N   LIG d   1      -1.846  77.538 113.852  0.00  0.00    -0.311 N 
ATOM     14  C   LIG d   1      -2.287  78.717 113.417  0.00  0.00     0.210 C 
ATOM     15  C   LIG d   1      -2.016  79.002 111.936  0.00  0.00     0.109 C 
ATOM     16  O   LIG d   1      -2.848  79.567 114.124  0.00  0.00    -0.276 OA
ATOM     17  H   LIG d   1      -1.373  76.924 113.219  0.00  0.00     0.149 HD
ENDBRANCH   6  13
BRANCH   5  18
ATOM     18  N   LIG d   1      -0.356  78.649 116.277  0.00  0.00     0.381 N 
ATOM     19  H   LIG d   1       0.537  78.701 116.725  0.00  0.00    -0.090 HD
ATOM     20  H   LIG d   1      -1.032  79.100 116.868  0.00  0.00    -0.090 HD
ATOM     21  H   LIG d   1      -0.319  79.107 115.393  0.00  0.00    -0.090 HD
ENDBRANCH   5  18
BRANCH   3  22
ATOM     22  C   LIG d   1      -1.170  74.486 118.500  0.00  0.00     0.382 C 
ATOM     23  O   LIG d   1      -0.729  74.954 119.577  0.00  0.00    -0.241 OA
ATOM     24  O   LIG d   1      -1.278  73.252 118.366  0.00  0.00    -0.241 OA
ENDBRANCH   3  22
TORSDOF 7
ENDMDL
MODEL 4
REMARK VINA RESULT:      -5.4      3.864      5.781
REMARK  7 active torsions:
REMARK  status: ('A' for Active; 'I' for Inactive)
REMARK    1  A    between atoms: C_2  and  C_3 
REMARK    2  A    between atoms: C_3  and  O_6 
REMARK    3  A    between atoms: C_3  and  C_4 
REMARK    4  A    between atoms: C_7  and  O_6 
REMARK    5  A    between atoms: C_9  and  C_10 
REMARK    6  A    between atoms: N_15  and  C_14 
REMARK    7  A    between atoms: N_20  and  C_19 
REMARK       I    between atoms: C_22  and  N_20 
ROOT
ATOM      1  C   LIG d   1      -7.120  77.882 117.371  0.00  0.00     0.161 C 
ATOM      2  C   LIG d   1      -8.428  78.352 117.572  0.00  0.00     0.016 C 
ATOM      3  C   LIG d   1      -8.731  79.692 117.905  0.00  0.00     0.038 C 
ATOM      4  C   LIG d   1      -7.749  80.694 117.912  0.00  0.00     0.028 C 
ATOM      5  C   LIG d   1      -6.349  80.169 118.210  0.00  0.00    -0.047 C 
ATOM      6  C   LIG d   1      -6.046  78.984 117.264  0.00  0.00     0.091 C 
ENDROOT
BRANCH   1   7
ATOM      7  O   LIG d   1      -7.080  77.030 116.209  0.00  0.00    -0.368 OA
BRANCH   7   8
ATOM      8  C   LIG d   1      -6.492  75.719 116.399  0.00  0.00     0.119 C 
BRANCH   8   9
ATOM      9  C   LIG d   1      -5.593  75.434 115.181  0.00  0.00     0.028 C 
ATOM     10  C   LIG d   1      -5.954  76.307 113.968  0.00  0.00     0.006 C 
ENDBRANCH   8   9
BRANCH   8  11
ATOM     11  C   LIG d   1      -7.560  74.621 116.381  0.00  0.00     0.028 C 
ATOM     12  C   LIG d   1      -6.982  73.233 116.064  0.00  0.00     0.006 C 
ENDBRANCH   8  11
ENDBRANCH   7   8
ENDBRANCH   1   7
BRANCH   6  13
ATOM     13  N   LIG d   1      -4.728  78.357 117.546  0.00  0.00    -0.311 N 
ATOM     14  C   LIG d   1      -3.752  78.266 116.645  0.00  0.00     0.210 C 
ATOM     15  C   LIG d   1      -2.482  77.565 117.136  0.00  0.00     0.109 C 
ATOM     16  O   LIG d   1      -3.806  78.728 115.495  0.00  0.00    -0.276 OA
ATOM     17  H   LIG d   1      -4.587  77.984 118.465  0.00  0.00     0.149 HD
ENDBRANCH   6  13
BRANCH   5  18
ATOM     18  N   LIG d   1      -5.408  81.293 118.049  0.00  0.00     0.381 N 
ATOM     19  H   LIG d   1      -5.864  82.153 118.282  0.00  0.00    -0.090 HD
ATOM     20  H   LIG d   1      -5.118  81.339 117.088  0.00  0.00    -0.090 HD
ATOM     21  H   LIG d   1      -4.614  81.160 118.637  0.00  0.00    -0.090 HD
ENDBRANCH   5  18
BRANCH   3  22
ATOM     22  C   LIG d   1     -10.023  80.033 118.276  0.00  0.00     0.382 C 
ATOM     23  O   LIG d   1     -10.517  81.122 117.897  0.00  0.00    -0.241 OA
ATOM     24  O   LIG d   1     -10.684  79.286 119.022  0.00  0.00    -0.241 OA
ENDBRANCH   3  22
TORSDOF 7
ENDMDL
MODEL 5
REMARK VINA RESULT:      -5.4      2.422      4.582
REMARK  7 active torsions:
REMARK  status: ('A' for Active; 'I' for Inactive)
REMARK    1  A    between atoms: C_2  and  C_3 
REMARK    2  A    between atoms: C_3  and  O_6 
REMARK    3  A    between atoms: C_3  and  C_4 
REMARK    4  A    between atoms: C_7  and  O_6 
REMARK    5  A    between atoms: C_9  and  C_10 
REMARK    6  A    between atoms: N_15  and  C_14 
REMARK    7  A    between atoms: N_20  and  C_19 
REMARK       I    between atoms: C_22  and  N_20 
ROOT
ATOM      1  C   LIG d   1      -4.429  76.877 115.782  0.00  0.00     0.161 C 
ATOM      2  C   LIG d   1      -3.521  75.821 115.599  0.00  0.00     0.016 C 
ATOM      3  C   LIG d   1      -2.454  75.550 116.487  0.00  0.00     0.038 C 
ATOM      4  C   LIG d   1      -2.313  76.230 117.706  0.00  0.00     0.028 C 
ATOM      5  C   LIG d   1      -2.906  77.634 117.689  0.00  0.00    -0.047 C 
ATOM      6  C   LIG d   1      -4.358  77.560 117.164  0.00  0.00     0.091 C 
ENDROOT
BRANCH   1   7
ATOM      7  O   LIG d   1      -5.770  76.419 115.517  0.00  0.00    -0.368 OA
BRANCH   7   8
ATOM      8  C   LIG d   1      -6.251  75.339 116.354  0.00  0.00     0.119 C 
BRANCH   8   9
ATOM      9  C   LIG d   1      -6.467  74.112 115.447  0.00  0.00     0.028 C 
ATOM     10  C   LIG d   1      -7.238  72.986 116.156  0.00  0.00     0.006 C 
ENDBRANCH   8   9
BRANCH   8  11
ATOM     11  C   LIG d   1      -7.630  75.659 116.939  0.00  0.00     0.028 C 
ATOM     12  C   LIG d   1      -8.113  77.074 116.586  0.00  0.00     0.006 C 
ENDBRANCH   8  11
ENDBRANCH   7   8
ENDBRANCH   1   7
BRANCH   6  13
ATOM     13  N   LIG d   1      -4.984  78.901 117.036  0.00  0.00    -0.311 N 
ATOM     14  C   LIG d   1      -5.719  79.462 117.995  0.00  0.00     0.210 C 
ATOM     15  C   LIG d   1      -6.288  80.842 117.650  0.00  0.00     0.109 C 
ATOM     16  O   LIG d   1      -5.926  78.962 119.110  0.00  0.00    -0.276 OA
ATOM     17  H   LIG d   1      -4.841  79.391 116.174  0.00  0.00     0.149 HD
ENDBRANCH   6  13
BRANCH   5  18
ATOM     18  N   LIG d   1      -2.813  78.174 119.059  0.00  0.00     0.381 N 
ATOM     19  H   LIG d   1      -2.088  77.702 119.560  0.00  0.00    -0.090 HD
ATOM     20  H   LIG d   1      -3.684  78.008 119.533  0.00  0.00    -0.090 HD
ATOM     21  H   LIG d   1      -2.624  79.152 119.028  0.00  0.00    -0.090 HD
ENDBRANCH   5  18
BRANCH   3  22
ATOM     22  C   LIG d   1      -1.490  74.616 116.138  0.00  0.00     0.382 C 
ATOM     23  O   LIG d   1      -0.949  73.912 117.025  0.00  0.00    -0.241 OA
ATOM     24  O   LIG d   1      -1.123  74.500 114.954  0.00  0.00    -0.241 OA
ENDBRANCH   3  22
TORSDOF 7
ENDMDL
MODEL 6
REMARK VINA RESULT:      -5.3     10.386     12.446
REMARK  7 active torsions:
REMARK  status: ('A' for Active; 'I' for Inactive)
REMARK    1  A    between atoms: C_2  and  C_3 
REMARK    2  A    between atoms: C_3  and  O_6 
REMARK    3  A    between atoms: C_3  and  C_4 
REMARK    4  A    between atoms: C_7  and  O_6 
REMARK    5  A    between atoms: C_9  and  C_10 
REMARK    6  A    between atoms: N_15  and  C_14 
REMARK    7  A    between atoms: N_20  and  C_19 
REMARK       I    between atoms: C_22  and  N_20 
ROOT
ATOM      1  C   LIG d   1       2.211  86.866 115.107  0.00  0.00     0.161 C 
ATOM      2  C   LIG d   1       2.870  87.829 114.325  0.00  0.00     0.016 C 
ATOM      3  C   LIG d   1       4.278  87.911 114.217  0.00  0.00     0.038 C 
ATOM      4  C   LIG d   1       5.122  86.936 114.767  0.00  0.00     0.028 C 
ATOM      5  C   LIG d   1       4.526  86.234 115.983  0.00  0.00    -0.047 C 
ATOM      6  C   LIG d   1       3.112  85.725 115.625  0.00  0.00     0.091 C 
ENDROOT
BRANCH   1   7
ATOM      7  O   LIG d   1       1.091  86.327 114.376  0.00  0.00    -0.368 OA
BRANCH   7   8
ATOM      8  C   LIG d   1       1.219  86.312 112.933  0.00  0.00     0.119 C 
BRANCH   8   9
ATOM      9  C   LIG d   1      -0.181  86.562 112.341  0.00  0.00     0.028 C 
ATOM     10  C   LIG d   1      -0.980  85.261 112.155  0.00  0.00     0.006 C 
ENDBRANCH   8   9
BRANCH   8  11
ATOM     11  C   LIG d   1       1.633  84.927 112.425  0.00  0.00     0.028 C 
ATOM     12  C   LIG d   1       3.100  84.874 111.969  0.00  0.00     0.006 C 
ENDBRANCH   8  11
ENDBRANCH   7   8
ENDBRANCH   1   7
BRANCH   6  13
ATOM     13  N   LIG d   1       2.424  85.100 116.784  0.00  0.00    -0.311 N 
ATOM     14  C   LIG d   1       2.011  83.834 116.797  0.00  0.00     0.210 C 
ATOM     15  C   LIG d   1       1.307  83.396 118.085  0.00  0.00     0.109 C 
ATOM     16  O   LIG d   1       2.190  83.023 115.876  0.00  0.00    -0.276 OA
ATOM     17  H   LIG d   1       2.266  85.678 117.587  0.00  0.00     0.149 HD
ENDBRANCH   6  13
BRANCH   5  18
ATOM     18  N   LIG d   1       5.450  85.151 116.369  0.00  0.00     0.381 N 
ATOM     19  H   LIG d   1       4.950  84.287 116.436  0.00  0.00    -0.090 HD
ATOM     20  H   LIG d   1       5.838  85.362 117.272  0.00  0.00    -0.090 HD
ATOM     21  H   LIG d   1       6.181  85.070 115.697  0.00  0.00    -0.090 HD
ENDBRANCH   5  18
BRANCH   3  22
ATOM     22  C   LIG d   1       4.855  89.002 113.585  0.00  0.00     0.382 C 
ATOM     23  O   LIG d   1       4.202  90.064 113.445  0.00  0.00    -0.241 OA
ATOM     24  O   LIG d   1       6.005  88.923 113.114  0.00  0.00    -0.241 OA
ENDBRANCH   3  22
TORSDOF 7
ENDMDL
MODEL 7
REMARK VINA RESULT:      -5.2     15.692     17.375
REMARK  7 active torsions:
REMARK  status: ('A' for Active; 'I' for Inactive)
REMARK    1  A    between atoms: C_2  and  C_3 
REMARK    2  A    between atoms: C_3  and  O_6 
REMARK    3  A    between atoms: C_3  and  C_4 
REMARK    4  A    between atoms: C_7  and  O_6 
REMARK    5  A    between atoms: C_9  and  C_10 
REMARK    6  A    between atoms: N_15  and  C_14 
REMARK    7  A    between atoms: N_20  and  C_19 
REMARK       I    between atoms: C_22  and  N_20 
ROOT
ATOM      1  C   LIG d   1      -3.863  92.218 118.060  0.00  0.00     0.161 C 
ATOM      2  C   LIG d   1      -4.535  91.900 116.868  0.00  0.00     0.016 C 
ATOM      3  C   LIG d   1      -5.856  92.315 116.585  0.00  0.00     0.038 C 
ATOM      4  C   LIG d   1      -6.547  93.209 117.417  0.00  0.00     0.028 C 
ATOM      5  C   LIG d   1      -6.099  93.150 118.873  0.00  0.00    -0.047 C 
ATOM      6  C   LIG d   1      -4.560  93.284 118.930  0.00  0.00     0.091 C 
ENDROOT
BRANCH   1   7
ATOM      7  O   LIG d   1      -2.509  92.616 117.767  0.00  0.00    -0.368 OA
BRANCH   7   8
ATOM      8  C   LIG d   1      -1.485  91.623 118.015  0.00  0.00     0.119 C 
BRANCH   8   9
ATOM      9  C   LIG d   1      -2.120  90.505 118.865  0.00  0.00     0.028 C 
ATOM     10  C   LIG d   1      -1.929  89.113 118.240  0.00  0.00     0.006 C 
ENDBRANCH   8   9
BRANCH   8  11
ATOM     11  C   LIG d   1      -0.353  92.192 118.875  0.00  0.00     0.028 C 
ATOM     12  C   LIG d   1       0.076  93.602 118.438  0.00  0.00     0.006 C 
ENDBRANCH   8  11
ENDBRANCH   7   8
ENDBRANCH   1   7
BRANCH   6  13
ATOM     13  N   LIG d   1      -4.031  93.153 120.313  0.00  0.00    -0.311 N 
ATOM     14  C   LIG d   1      -3.124  93.978 120.832  0.00  0.00     0.210 C 
ATOM     15  C   LIG d   1      -2.699  93.652 122.268  0.00  0.00     0.109 C 
ATOM     16  O   LIG d   1      -2.654  94.969 120.252  0.00  0.00    -0.276 OA
ATOM     17  H   LIG d   1      -4.381  92.395 120.865  0.00  0.00     0.149 HD
ENDBRANCH   6  13
BRANCH   5  18
ATOM     18  N   LIG d   1      -6.801  94.226 119.599  0.00  0.00     0.381 N 
ATOM     19  H   LIG d   1      -6.461  95.117 119.295  0.00  0.00    -0.090 HD
ATOM     20  H   LIG d   1      -6.609  94.134 120.581  0.00  0.00    -0.090 HD
ATOM     21  H   LIG d   1      -7.782  94.163 119.437  0.00  0.00    -0.090 HD
ENDBRANCH   5  18
BRANCH   3  22
ATOM     22  C   LIG d   1      -6.515  91.802 115.478  0.00  0.00     0.382 C 
ATOM     23  O   LIG d   1      -7.208  90.761 115.587  0.00  0.00    -0.241 OA
ATOM     24  O   LIG d   1      -6.391  92.342 114.362  0.00  0.00    -0.241 OA
ENDBRANCH   3  22
TORSDOF 7
ENDMDL
MODEL 8
REMARK VINA RESULT:      -5.2     16.838     18.644
REMARK  7 active torsions:
REMARK  status: ('A' for Active; 'I' for Inactive)
REMARK    1  A    between atoms: C_2  and  C_3 
REMARK    2  A    between atoms: C_3  and  O_6 
REMARK    3  A    between atoms: C_3  and  C_4 
REMARK    4  A    between atoms: C_7  and  O_6 
REMARK    5  A    between atoms: C_9  and  C_10 
REMARK    6  A    between atoms: N_15  and  C_14 
REMARK    7  A    between atoms: N_20  and  C_19 
REMARK       I    between atoms: C_22  and  N_20 
ROOT
ATOM      1  C   LIG d   1      -5.284  92.875 119.578  0.00  0.00     0.161 C 
ATOM      2  C   LIG d   1      -4.158  92.166 119.128  0.00  0.00     0.016 C 
ATOM      3  C   LIG d   1      -4.005  91.713 117.798  0.00  0.00     0.038 C 
ATOM      4  C   LIG d   1      -4.905  92.072 116.784  0.00  0.00     0.028 C 
ATOM      5  C   LIG d   1      -6.312  92.359 117.296  0.00  0.00    -0.047 C 
ATOM      6  C   LIG d   1      -6.225  93.373 118.460  0.00  0.00     0.091 C 
ENDROOT
BRANCH   1   7
ATOM      7  O   LIG d   1      -4.868  93.977 120.410  0.00  0.00    -0.368 OA
BRANCH   7   8
ATOM      8  C   LIG d   1      -4.356  95.141 119.716  0.00  0.00     0.119 C 
BRANCH   8   9
ATOM      9  C   LIG d   1      -2.847  95.232 120.016  0.00  0.00     0.028 C 
ATOM     10  C   LIG d   1      -1.989  95.157 118.742  0.00  0.00     0.006 C 
ENDBRANCH   8   9
BRANCH   8  11
ATOM     11  C   LIG d   1      -4.960  96.433 120.274  0.00  0.00     0.028 C 
ATOM     12  C   LIG d   1      -5.880  96.188 121.481  0.00  0.00     0.006 C 
ENDBRANCH   8  11
ENDBRANCH   7   8
ENDBRANCH   1   7
BRANCH   6  13
ATOM     13  N   LIG d   1      -7.550  93.645 119.076  0.00  0.00    -0.311 N 
ATOM     14  C   LIG d   1      -8.186  94.810 118.961  0.00  0.00     0.210 C 
ATOM     15  C   LIG d   1      -9.531  94.886 119.690  0.00  0.00     0.109 C 
ATOM     16  O   LIG d   1      -7.778  95.776 118.299  0.00  0.00    -0.276 OA
ATOM     17  H   LIG d   1      -7.968  92.905 119.605  0.00  0.00     0.149 HD
ENDBRANCH   6  13
BRANCH   5  18
ATOM     18  N   LIG d   1      -7.109  92.854 116.158  0.00  0.00     0.381 N 
ATOM     19  H   LIG d   1      -8.042  92.499 116.218  0.00  0.00    -0.090 HD
ATOM     20  H   LIG d   1      -6.699  92.519 115.304  0.00  0.00    -0.090 HD
ATOM     21  H   LIG d   1      -7.124  93.850 116.159  0.00  0.00    -0.090 HD
ENDBRANCH   5  18
BRANCH   3  22
ATOM     22  C   LIG d   1      -2.961  90.857 117.480  0.00  0.00     0.382 C 
ATOM     23  O   LIG d   1      -1.781  91.281 117.479  0.00  0.00    -0.241 OA
ATOM     24  O   LIG d   1      -3.190  89.678 117.150  0.00  0.00    -0.241 OA
ENDBRANCH   3  22
TORSDOF 7
ENDMDL
MODEL 9
REMARK VINA RESULT:      -5.2     15.913     17.756
REMARK  7 active torsions:
REMARK  status: ('A' for Active; 'I' for Inactive)
REMARK    1  A    between atoms: C_2  and  C_3 
REMARK    2  A    between atoms: C_3  and  O_6 
REMARK    3  A    between atoms: C_3  and  C_4 
REMARK    4  A    between atoms: C_7  and  O_6 
REMARK    5  A    between atoms: C_9  and  C_10 
REMARK    6  A    between atoms: N_15  and  C_14 
REMARK    7  A    between atoms: N_20  and  C_19 
REMARK       I    between atoms: C_22  and  N_20 
ROOT
ATOM      1  C   LIG d   1      -4.514  92.497 117.789  0.00  0.00     0.161 C 
ATOM      2  C   LIG d   1      -4.818  91.679 116.687  0.00  0.00     0.016 C 
ATOM      3  C   LIG d   1      -6.078  91.673 116.047  0.00  0.00     0.038 C 
ATOM      4  C   LIG d   1      -7.079  92.601 116.372  0.00  0.00     0.028 C 
ATOM      5  C   LIG d   1      -6.996  93.103 117.809  0.00  0.00    -0.047 C 
ATOM      6  C   LIG d   1      -5.557  93.594 118.087  0.00  0.00     0.091 C 
ENDROOT
BRANCH   1   7
ATOM      7  O   LIG d   1      -3.207  93.081 117.618  0.00  0.00    -0.368 OA
BRANCH   7   8
ATOM      8  C   LIG d   1      -2.187  92.644 118.550  0.00  0.00     0.119 C 
BRANCH   8   9
ATOM      9  C   LIG d   1      -1.241  93.835 118.792  0.00  0.00     0.028 C 
ATOM     10  C   LIG d   1       0.241  93.433 118.711  0.00  0.00     0.006 C 
ENDBRANCH   8   9
BRANCH   8  11
ATOM     11  C   LIG d   1      -1.310  91.546 117.941  0.00  0.00     0.028 C 
ATOM     12  C   LIG d   1      -1.730  90.135 118.382  0.00  0.00     0.006 C 
ENDBRANCH   8  11
ENDBRANCH   7   8
ENDBRANCH   1   7
BRANCH   6  13
ATOM     13  N   LIG d   1      -5.367  94.024 119.497  0.00  0.00    -0.311 N 
ATOM     14  C   LIG d   1      -5.536  95.279 119.909  0.00  0.00     0.210 C 
ATOM     15  C   LIG d   1      -5.269  95.511 121.400  0.00  0.00     0.109 C 
ATOM     16  O   LIG d   1      -5.912  96.216 119.189  0.00  0.00    -0.276 OA
ATOM     17  H   LIG d   1      -5.092  93.322 120.155  0.00  0.00     0.149 HD
ENDBRANCH   6  13
BRANCH   5  18
ATOM     18  N   LIG d   1      -8.010  94.162 117.971  0.00  0.00     0.381 N 
ATOM     19  H   LIG d   1      -7.671  95.018 117.578  0.00  0.00    -0.090 HD
ATOM     20  H   LIG d   1      -8.174  94.309 118.951  0.00  0.00    -0.090 HD
ATOM     21  H   LIG d   1      -8.858  93.894 117.521  0.00  0.00    -0.090 HD
ENDBRANCH   5  18
BRANCH   3  22
ATOM     22  C   LIG d   1      -6.361  90.705 115.095  0.00  0.00     0.382 C 
ATOM     23  O   LIG d   1      -5.485  89.866 114.776  0.00  0.00    -0.241 OA
ATOM     24  O   LIG d   1      -7.466  90.688 114.520  0.00  0.00    -0.241 OA
ENDBRANCH   3  22
TORSDOF 7
ENDMDL
