MODEL 1
REMARK VINA RESULT:      -5.4      0.000      0.000
REMARK  7 active torsions:
REMARK  status: ('A' for Active; 'I' for Inactive)
REMARK    1  A    between atoms: C_2  and  C_3 
REMARK    2  A    between atoms: C_3  and  O_6 
REMARK    3  A    between atoms: C_3  and  C_4 
REMARK    4  A    between atoms: C_7  and  O_6 
REMARK    5  A    between atoms: C_9  and  C_10 
REMARK    6  A    between atoms: N_15  and  C_14 
REMARK    7  A    between atoms: N_20  and  C_19 
REMARK       I    between atoms: C_22  and  N_20 
ROOT
ATOM      1  C   LIG d   1      -8.137  75.512 118.131  0.00  0.00     0.161 C 
ATOM      2  C   LIG d   1      -9.232  76.301 118.520  0.00  0.00     0.016 C 
ATOM      3  C   LIG d   1      -9.216  77.715 118.507  0.00  0.00     0.038 C 
ATOM      4  C   LIG d   1      -8.148  78.439 117.956  0.00  0.00     0.028 C 
ATOM      5  C   LIG d   1      -6.817  77.697 118.018  0.00  0.00    -0.047 C 
ATOM      6  C   LIG d   1      -7.004  76.282 117.422  0.00  0.00     0.091 C 
ENDROOT
BRANCH   1   7
ATOM      7  O   LIG d   1      -8.591  74.419 117.307  0.00  0.00    -0.368 OA
BRANCH   7   8
ATOM      8  C   LIG d   1      -8.962  73.206 118.006  0.00  0.00     0.119 C 
BRANCH   8   9
ATOM      9  C   LIG d   1      -8.133  72.054 117.406  0.00  0.00     0.028 C 
ATOM     10  C   LIG d   1      -7.302  72.500 116.192  0.00  0.00     0.006 C 
ENDBRANCH   8   9
BRANCH   8  11
ATOM     11  C   LIG d   1     -10.424  72.835 117.740  0.00  0.00     0.028 C 
ATOM     12  C   LIG d   1     -10.649  71.316 117.663  0.00  0.00     0.006 C 
ENDBRANCH   8  11
ENDBRANCH   7   8
ENDBRANCH   1   7
BRANCH   6  13
ATOM     13  N   LIG d   1      -5.770  75.459 117.520  0.00  0.00    -0.311 N 
ATOM     14  C   LIG d   1      -4.876  75.358 116.538  0.00  0.00     0.210 C 
ATOM     15  C   LIG d   1      -3.687  74.441 116.839  0.00  0.00     0.109 C 
ATOM     16  O   LIG d   1      -4.939  75.966 115.459  0.00  0.00    -0.276 OA
ATOM     17  H   LIG d   1      -5.624  74.956 118.374  0.00  0.00     0.149 HD
ENDBRANCH   6  13
BRANCH   5  18
ATOM     18  N   LIG d   1      -5.822  78.505 117.288  0.00  0.00     0.381 N 
ATOM     19  H   LIG d   1      -5.723  79.398 117.727  0.00  0.00    -0.090 HD
ATOM     20  H   LIG d   1      -6.147  78.650 116.348  0.00  0.00    -0.090 HD
ATOM     21  H   LIG d   1      -4.944  78.034 117.275  0.00  0.00    -0.090 HD
ENDBRANCH   5  18
BRANCH   3  22
ATOM     22  C   LIG d   1     -10.260  78.420 119.086  0.00  0.00     0.382 C 
ATOM     23  O   LIG d   1     -10.587  79.542 118.631  0.00  0.00    -0.241 OA
ATOM     24  O   LIG d   1     -10.851  77.967 120.085  0.00  0.00    -0.241 OA
ENDBRANCH   3  22
TORSDOF 7
ENDMDL
MODEL 2
REMARK VINA RESULT:      -5.1      2.060      5.536
REMARK  7 active torsions:
REMARK  status: ('A' for Active; 'I' for Inactive)
REMARK    1  A    between atoms: C_2  and  C_3 
REMARK    2  A    between atoms: C_3  and  O_6 
REMARK    3  A    between atoms: C_3  and  C_4 
REMARK    4  A    between atoms: C_7  and  O_6 
REMARK    5  A    between atoms: C_9  and  C_10 
REMARK    6  A    between atoms: N_15  and  C_14 
REMARK    7  A    between atoms: N_20  and  C_19 
REMARK       I    between atoms: C_22  and  N_20 
ROOT
ATOM      1  C   LIG d   1      -6.213  75.070 116.730  0.00  0.00     0.161 C 
ATOM      2  C   LIG d   1      -6.745  73.780 116.574  0.00  0.00     0.016 C 
ATOM      3  C   LIG d   1      -7.934  73.347 117.204  0.00  0.00     0.038 C 
ATOM      4  C   LIG d   1      -8.758  74.229 117.918  0.00  0.00     0.028 C 
ATOM      5  C   LIG d   1      -8.004  75.409 118.521  0.00  0.00    -0.047 C 
ATOM      6  C   LIG d   1      -7.157  76.080 117.416  0.00  0.00     0.091 C 
ENDROOT
BRANCH   1   7
ATOM      7  O   LIG d   1      -5.779  75.578 115.453  0.00  0.00    -0.368 OA
BRANCH   7   8
ATOM      8  C   LIG d   1      -4.361  75.474 115.174  0.00  0.00     0.119 C 
BRANCH   8   9
ATOM      9  C   LIG d   1      -3.634  75.315 116.524  0.00  0.00     0.028 C 
ATOM     10  C   LIG d   1      -2.599  74.177 116.502  0.00  0.00     0.006 C 
ENDBRANCH   8   9
BRANCH   8  11
ATOM     11  C   LIG d   1      -3.815  76.771 114.571  0.00  0.00     0.028 C 
ATOM     12  C   LIG d   1      -3.768  77.926 115.584  0.00  0.00     0.006 C 
ENDBRANCH   8  11
ENDBRANCH   7   8
ENDBRANCH   1   7
BRANCH   6  13
ATOM     13  N   LIG d   1      -6.321  77.193 117.939  0.00  0.00    -0.311 N 
ATOM     14  C   LIG d   1      -6.713  78.466 117.938  0.00  0.00     0.210 C 
ATOM     15  C   LIG d   1      -5.691  79.456 118.505  0.00  0.00     0.109 C 
ATOM     16  O   LIG d   1      -7.822  78.865 117.553  0.00  0.00    -0.276 OA
ATOM     17  H   LIG d   1      -5.418  76.954 118.300  0.00  0.00     0.149 HD
ENDBRANCH   6  13
BRANCH   5  18
ATOM     18  N   LIG d   1      -9.001  76.318 119.118  0.00  0.00     0.381 N 
ATOM     19  H   LIG d   1      -9.000  76.215 120.113  0.00  0.00    -0.090 HD
ATOM     20  H   LIG d   1      -9.912  76.070 118.776  0.00  0.00    -0.090 HD
ATOM     21  H   LIG d   1      -8.791  77.261 118.874  0.00  0.00    -0.090 HD
ENDBRANCH   5  18
BRANCH   3  22
ATOM     22  C   LIG d   1      -8.289  72.007 117.156  0.00  0.00     0.382 C 
ATOM     23  O   LIG d   1      -8.649  71.416 118.202  0.00  0.00    -0.241 OA
ATOM     24  O   LIG d   1      -8.210  71.371 116.088  0.00  0.00    -0.241 OA
ENDBRANCH   3  22
TORSDOF 7
ENDMDL
MODEL 3
REMARK VINA RESULT:      -5.0     14.744     17.115
REMARK  7 active torsions:
REMARK  status: ('A' for Active; 'I' for Inactive)
REMARK    1  A    between atoms: C_2  and  C_3 
REMARK    2  A    between atoms: C_3  and  O_6 
REMARK    3  A    between atoms: C_3  and  C_4 
REMARK    4  A    between atoms: C_7  and  O_6 
REMARK    5  A    between atoms: C_9  and  C_10 
REMARK    6  A    between atoms: N_15  and  C_14 
REMARK    7  A    between atoms: N_20  and  C_19 
REMARK       I    between atoms: C_22  and  N_20 
ROOT
ATOM      1  C   LIG d   1      -4.163  91.276 118.002  0.00  0.00     0.161 C 
ATOM      2  C   LIG d   1      -4.681  90.508 116.946  0.00  0.00     0.016 C 
ATOM      3  C   LIG d   1      -5.930  90.767 116.336  0.00  0.00     0.038 C 
ATOM      4  C   LIG d   1      -6.682  91.911 116.642  0.00  0.00     0.028 C 
ATOM      5  C   LIG d   1      -6.439  92.436 118.053  0.00  0.00    -0.047 C 
ATOM      6  C   LIG d   1      -4.918  92.595 118.274  0.00  0.00     0.091 C 
ENDROOT
BRANCH   1   7
ATOM      7  O   LIG d   1      -2.764  91.538 117.776  0.00  0.00    -0.368 OA
BRANCH   7   8
ATOM      8  C   LIG d   1      -1.833  90.706 118.511  0.00  0.00     0.119 C 
BRANCH   8   9
ATOM      9  C   LIG d   1      -0.784  91.638 119.149  0.00  0.00     0.028 C 
ATOM     10  C   LIG d   1      -0.639  92.967 118.388  0.00  0.00     0.006 C 
ENDBRANCH   8   9
BRANCH   8  11
ATOM     11  C   LIG d   1      -1.043  89.789 117.573  0.00  0.00     0.028 C 
ATOM     12  C   LIG d   1      -1.604  88.359 117.527  0.00  0.00     0.006 C 
ENDBRANCH   8  11
ENDBRANCH   7   8
ENDBRANCH   1   7
BRANCH   6  13
ATOM     13  N   LIG d   1      -4.588  93.024 119.659  0.00  0.00    -0.311 N 
ATOM     14  C   LIG d   1      -3.892  94.124 119.939  0.00  0.00     0.210 C 
ATOM     15  C   LIG d   1      -3.646  94.372 121.430  0.00  0.00     0.109 C 
ATOM     16  O   LIG d   1      -3.482  94.936 119.095  0.00  0.00    -0.276 OA
ATOM     17  H   LIG d   1      -4.909  92.440 120.406  0.00  0.00     0.149 HD
ENDBRANCH   6  13
BRANCH   5  18
ATOM     18  N   LIG d   1      -7.178  93.706 118.189  0.00  0.00     0.381 N 
ATOM     19  H   LIG d   1      -7.976  93.572 118.778  0.00  0.00    -0.090 HD
ATOM     20  H   LIG d   1      -7.501  93.993 117.282  0.00  0.00    -0.090 HD
ATOM     21  H   LIG d   1      -6.585  94.406 118.576  0.00  0.00    -0.090 HD
ENDBRANCH   5  18
BRANCH   3  22
ATOM     22  C   LIG d   1      -6.458  89.854 115.436  0.00  0.00     0.382 C 
ATOM     23  O   LIG d   1      -7.657  89.499 115.533  0.00  0.00    -0.241 OA
ATOM     24  O   LIG d   1      -5.737  89.347 114.555  0.00  0.00    -0.241 OA
ENDBRANCH   3  22
TORSDOF 7
ENDMDL
MODEL 4
REMARK VINA RESULT:      -5.0      2.291      3.855
REMARK  7 active torsions:
REMARK  status: ('A' for Active; 'I' for Inactive)
REMARK    1  A    between atoms: C_2  and  C_3 
REMARK    2  A    between atoms: C_3  and  O_6 
REMARK    3  A    between atoms: C_3  and  C_4 
REMARK    4  A    between atoms: C_7  and  O_6 
REMARK    5  A    between atoms: C_9  and  C_10 
REMARK    6  A    between atoms: N_15  and  C_14 
REMARK    7  A    between atoms: N_20  and  C_19 
REMARK       I    between atoms: C_22  and  N_20 
ROOT
ATOM      1  C   LIG d   1      -6.007  77.234 116.775  0.00  0.00     0.161 C 
ATOM      2  C   LIG d   1      -7.342  77.085 117.185  0.00  0.00     0.016 C 
ATOM      3  C   LIG d   1      -8.029  78.047 117.961  0.00  0.00     0.038 C 
ATOM      4  C   LIG d   1      -7.471  79.300 118.254  0.00  0.00     0.028 C 
ATOM      5  C   LIG d   1      -5.946  79.290 118.291  0.00  0.00    -0.047 C 
ATOM      6  C   LIG d   1      -5.417  78.644 116.990  0.00  0.00     0.091 C 
ENDROOT
BRANCH   1   7
ATOM      7  O   LIG d   1      -5.874  76.841 115.395  0.00  0.00    -0.368 OA
BRANCH   7   8
ATOM      8  C   LIG d   1      -5.147  75.612 115.149  0.00  0.00     0.119 C 
BRANCH   8   9
ATOM      9  C   LIG d   1      -6.176  74.538 114.748  0.00  0.00     0.028 C 
ATOM     10  C   LIG d   1      -6.579  73.640 115.930  0.00  0.00     0.006 C 
ENDBRANCH   8   9
BRANCH   8  11
ATOM     11  C   LIG d   1      -4.492  75.087 116.431  0.00  0.00     0.028 C 
ATOM     12  C   LIG d   1      -2.967  74.938 116.303  0.00  0.00     0.006 C 
ENDBRANCH   8  11
ENDBRANCH   7   8
ENDBRANCH   1   7
BRANCH   6  13
ATOM     13  N   LIG d   1      -3.937  78.518 116.982  0.00  0.00    -0.311 N 
ATOM     14  C   LIG d   1      -3.174  78.908 115.962  0.00  0.00     0.210 C 
ATOM     15  C   LIG d   1      -1.672  78.670 116.150  0.00  0.00     0.109 C 
ATOM     16  O   LIG d   1      -3.595  79.458 114.933  0.00  0.00    -0.276 OA
ATOM     17  H   LIG d   1      -3.509  78.111 117.790  0.00  0.00     0.149 HD
ENDBRANCH   6  13
BRANCH   5  18
ATOM     18  N   LIG d   1      -5.496  80.683 118.469  0.00  0.00     0.381 N 
ATOM     19  H   LIG d   1      -6.268  81.307 118.348  0.00  0.00    -0.090 HD
ATOM     20  H   LIG d   1      -4.807  80.894 117.769  0.00  0.00    -0.090 HD
ATOM     21  H   LIG d   1      -5.104  80.801 119.377  0.00  0.00    -0.090 HD
ENDBRANCH   5  18
BRANCH   3  22
ATOM     22  C   LIG d   1      -9.276  77.742 118.488  0.00  0.00     0.382 C 
ATOM     23  O   LIG d   1      -9.524  76.575 118.875  0.00  0.00    -0.241 OA
ATOM     24  O   LIG d   1     -10.169  78.609 118.538  0.00  0.00    -0.241 OA
ENDBRANCH   3  22
TORSDOF 7
ENDMDL
MODEL 5
REMARK VINA RESULT:      -5.0     14.741     16.821
REMARK  7 active torsions:
REMARK  status: ('A' for Active; 'I' for Inactive)
REMARK    1  A    between atoms: C_2  and  C_3 
REMARK    2  A    between atoms: C_3  and  O_6 
REMARK    3  A    between atoms: C_3  and  C_4 
REMARK    4  A    between atoms: C_7  and  O_6 
REMARK    5  A    between atoms: C_9  and  C_10 
REMARK    6  A    between atoms: N_15  and  C_14 
REMARK    7  A    between atoms: N_20  and  C_19 
REMARK       I    between atoms: C_22  and  N_20 
ROOT
ATOM      1  C   LIG d   1      -4.147  91.296 117.992  0.00  0.00     0.161 C 
ATOM      2  C   LIG d   1      -4.703  90.529 116.955  0.00  0.00     0.016 C 
ATOM      3  C   LIG d   1      -5.987  90.766 116.414  0.00  0.00     0.038 C 
ATOM      4  C   LIG d   1      -6.747  91.889 116.773  0.00  0.00     0.028 C 
ATOM      5  C   LIG d   1      -6.442  92.404 118.176  0.00  0.00    -0.047 C 
ATOM      6  C   LIG d   1      -4.915  92.594 118.320  0.00  0.00     0.091 C 
ENDROOT
BRANCH   1   7
ATOM      7  O   LIG d   1      -2.767  91.591 117.696  0.00  0.00    -0.368 OA
BRANCH   7   8
ATOM      8  C   LIG d   1      -1.780  90.876 118.478  0.00  0.00     0.119 C 
BRANCH   8   9
ATOM      9  C   LIG d   1      -1.128  89.828 117.555  0.00  0.00     0.028 C 
ATOM     10  C   LIG d   1      -1.656  88.407 117.816  0.00  0.00     0.006 C 
ENDBRANCH   8   9
BRANCH   8  11
ATOM     11  C   LIG d   1      -2.437  90.072 119.604  0.00  0.00     0.028 C 
ATOM     12  C   LIG d   1      -2.000  90.537 121.002  0.00  0.00     0.006 C 
ENDBRANCH   8  11
ENDBRANCH   7   8
ENDBRANCH   1   7
BRANCH   6  13
ATOM     13  N   LIG d   1      -4.523  93.014 119.690  0.00  0.00    -0.311 N 
ATOM     14  C   LIG d   1      -3.677  94.013 119.936  0.00  0.00     0.210 C 
ATOM     15  C   LIG d   1      -3.393  94.270 121.420  0.00  0.00     0.109 C 
ATOM     16  O   LIG d   1      -3.160  94.733 119.068  0.00  0.00    -0.276 OA
ATOM     17  H   LIG d   1      -4.920  92.505 120.455  0.00  0.00     0.149 HD
ENDBRANCH   6  13
BRANCH   5  18
ATOM     18  N   LIG d   1      -7.201  93.654 118.367  0.00  0.00     0.381 N 
ATOM     19  H   LIG d   1      -8.113  93.446 118.721  0.00  0.00    -0.090 HD
ATOM     20  H   LIG d   1      -7.305  94.110 117.477  0.00  0.00    -0.090 HD
ATOM     21  H   LIG d   1      -6.718  94.252 119.001  0.00  0.00    -0.090 HD
ENDBRANCH   5  18
BRANCH   3  22
ATOM     22  C   LIG d   1      -6.541  89.851 115.531  0.00  0.00     0.382 C 
ATOM     23  O   LIG d   1      -5.867  89.430 114.560  0.00  0.00    -0.241 OA
ATOM     24  O   LIG d   1      -7.720  89.475 115.668  0.00  0.00    -0.241 OA
ENDBRANCH   3  22
TORSDOF 7
ENDMDL
MODEL 6
REMARK VINA RESULT:      -5.0      2.634      6.783
REMARK  7 active torsions:
REMARK  status: ('A' for Active; 'I' for Inactive)
REMARK    1  A    between atoms: C_2  and  C_3 
REMARK    2  A    between atoms: C_3  and  O_6 
REMARK    3  A    between atoms: C_3  and  C_4 
REMARK    4  A    between atoms: C_7  and  O_6 
REMARK    5  A    between atoms: C_9  and  C_10 
REMARK    6  A    between atoms: N_15  and  C_14 
REMARK    7  A    between atoms: N_20  and  C_19 
REMARK       I    between atoms: C_22  and  N_20 
ROOT
ATOM      1  C   LIG d   1      -6.945  78.005 117.704  0.00  0.00     0.161 C 
ATOM      2  C   LIG d   1      -6.116  77.698 116.612  0.00  0.00     0.016 C 
ATOM      3  C   LIG d   1      -6.143  76.454 115.940  0.00  0.00     0.038 C 
ATOM      4  C   LIG d   1      -7.113  75.481 116.222  0.00  0.00     0.028 C 
ATOM      5  C   LIG d   1      -7.642  75.548 117.651  0.00  0.00    -0.047 C 
ATOM      6  C   LIG d   1      -8.086  76.997 117.954  0.00  0.00     0.091 C 
ENDROOT
BRANCH   1   7
ATOM      7  O   LIG d   1      -7.477  79.337 117.554  0.00  0.00    -0.368 OA
BRANCH   7   8
ATOM      8  C   LIG d   1      -7.207  80.257 118.640  0.00  0.00     0.119 C 
BRANCH   8   9
ATOM      9  C   LIG d   1      -8.553  80.867 119.076  0.00  0.00     0.028 C 
ATOM     10  C   LIG d   1      -9.595  80.857 117.944  0.00  0.00     0.006 C 
ENDBRANCH   8   9
BRANCH   8  11
ATOM     11  C   LIG d   1      -6.358  81.441 118.169  0.00  0.00     0.028 C 
ATOM     12  C   LIG d   1      -6.349  82.605 119.173  0.00  0.00     0.006 C 
ENDBRANCH   8  11
ENDBRANCH   7   8
ENDBRANCH   1   7
BRANCH   6  13
ATOM     13  N   LIG d   1      -8.538  77.169 119.359  0.00  0.00    -0.311 N 
ATOM     14  C   LIG d   1      -9.785  77.498 119.693  0.00  0.00     0.210 C 
ATOM     15  C   LIG d   1     -10.034  77.644 121.197  0.00  0.00     0.109 C 
ATOM     16  O   LIG d   1     -10.715  77.652 118.887  0.00  0.00    -0.276 OA
ATOM     17  H   LIG d   1      -7.855  77.032 120.078  0.00  0.00     0.149 HD
ENDBRANCH   6  13
BRANCH   5  18
ATOM     18  N   LIG d   1      -8.741  74.570 117.765  0.00  0.00     0.381 N 
ATOM     19  H   LIG d   1      -9.619  75.032 117.638  0.00  0.00    -0.090 HD
ATOM     20  H   LIG d   1      -8.725  74.170 118.687  0.00  0.00    -0.090 HD
ATOM     21  H   LIG d   1      -8.632  73.853 117.082  0.00  0.00    -0.090 HD
ENDBRANCH   5  18
BRANCH   3  22
ATOM     22  C   LIG d   1      -5.166  76.159 115.002  0.00  0.00     0.382 C 
ATOM     23  O   LIG d   1      -5.058  74.991 114.556  0.00  0.00    -0.241 OA
ATOM     24  O   LIG d   1      -4.363  77.034 114.629  0.00  0.00    -0.241 OA
ENDBRANCH   3  22
TORSDOF 7
ENDMDL
MODEL 7
REMARK VINA RESULT:      -4.9      1.876      5.187
REMARK  7 active torsions:
REMARK  status: ('A' for Active; 'I' for Inactive)
REMARK    1  A    between atoms: C_2  and  C_3 
REMARK    2  A    between atoms: C_3  and  O_6 
REMARK    3  A    between atoms: C_3  and  C_4 
REMARK    4  A    between atoms: C_7  and  O_6 
REMARK    5  A    between atoms: C_9  and  C_10 
REMARK    6  A    between atoms: N_15  and  C_14 
REMARK    7  A    between atoms: N_20  and  C_19 
REMARK       I    between atoms: C_22  and  N_20 
ROOT
ATOM      1  C   LIG d   1      -6.151  75.654 116.461  0.00  0.00     0.161 C 
ATOM      2  C   LIG d   1      -5.066  74.791 116.234  0.00  0.00     0.016 C 
ATOM      3  C   LIG d   1      -3.875  74.821 116.996  0.00  0.00     0.038 C 
ATOM      4  C   LIG d   1      -3.748  75.620 118.141  0.00  0.00     0.028 C 
ATOM      5  C   LIG d   1      -4.622  76.869 118.108  0.00  0.00    -0.047 C 
ATOM      6  C   LIG d   1      -6.074  76.457 117.776  0.00  0.00     0.091 C 
ENDROOT
BRANCH   1   7
ATOM      7  O   LIG d   1      -7.386  74.913 116.397  0.00  0.00    -0.368 OA
BRANCH   7   8
ATOM      8  C   LIG d   1      -7.478  73.752 117.259  0.00  0.00     0.119 C 
BRANCH   8   9
ATOM      9  C   LIG d   1      -7.462  72.503 116.357  0.00  0.00     0.028 C 
ATOM     10  C   LIG d   1      -8.258  71.333 116.960  0.00  0.00     0.006 C 
ENDBRANCH   8   9
BRANCH   8  11
ATOM     11  C   LIG d   1      -8.823  73.707 117.990  0.00  0.00     0.028 C 
ATOM     12  C   LIG d   1      -9.537  75.068 118.010  0.00  0.00     0.006 C 
ENDBRANCH   8  11
ENDBRANCH   7   8
ENDBRANCH   1   7
BRANCH   6  13
ATOM     13  N   LIG d   1      -6.980  77.628 117.641  0.00  0.00    -0.311 N 
ATOM     14  C   LIG d   1      -7.691  78.125 118.652  0.00  0.00     0.210 C 
ATOM     15  C   LIG d   1      -8.576  79.322 118.293  0.00  0.00     0.109 C 
ATOM     16  O   LIG d   1      -7.648  77.707 119.819  0.00  0.00    -0.276 OA
ATOM     17  H   LIG d   1      -7.050  78.048 116.735  0.00  0.00     0.149 HD
ENDBRANCH   6  13
BRANCH   5  18
ATOM     18  N   LIG d   1      -4.496  77.536 119.418  0.00  0.00     0.381 N 
ATOM     19  H   LIG d   1      -3.960  76.964 120.039  0.00  0.00    -0.090 HD
ATOM     20  H   LIG d   1      -5.413  77.657 119.811  0.00  0.00    -0.090 HD
ATOM     21  H   LIG d   1      -4.055  78.423 119.308  0.00  0.00    -0.090 HD
ENDBRANCH   5  18
BRANCH   3  22
ATOM     22  C   LIG d   1      -2.780  74.073 116.589  0.00  0.00     0.382 C 
ATOM     23  O   LIG d   1      -2.395  74.123 115.396  0.00  0.00    -0.241 OA
ATOM     24  O   LIG d   1      -2.200  73.316 117.390  0.00  0.00    -0.241 OA
ENDBRANCH   3  22
TORSDOF 7
ENDMDL
MODEL 8
REMARK VINA RESULT:      -4.8      2.111      4.932
REMARK  7 active torsions:
REMARK  status: ('A' for Active; 'I' for Inactive)
REMARK    1  A    between atoms: C_2  and  C_3 
REMARK    2  A    between atoms: C_3  and  O_6 
REMARK    3  A    between atoms: C_3  and  C_4 
REMARK    4  A    between atoms: C_7  and  O_6 
REMARK    5  A    between atoms: C_9  and  C_10 
REMARK    6  A    between atoms: N_15  and  C_14 
REMARK    7  A    between atoms: N_20  and  C_19 
REMARK       I    between atoms: C_22  and  N_20 
ROOT
ATOM      1  C   LIG d   1      -8.028  75.427 118.115  0.00  0.00     0.161 C 
ATOM      2  C   LIG d   1      -8.701  74.194 118.082  0.00  0.00     0.016 C 
ATOM      3  C   LIG d   1      -8.311  73.116 117.255  0.00  0.00     0.038 C 
ATOM      4  C   LIG d   1      -7.122  73.146 116.510  0.00  0.00     0.028 C 
ATOM      5  C   LIG d   1      -6.684  74.555 116.125  0.00  0.00    -0.047 C 
ATOM      6  C   LIG d   1      -6.665  75.439 117.393  0.00  0.00     0.091 C 
ENDROOT
BRANCH   1   7
ATOM      7  O   LIG d   1      -7.876  75.864 119.480  0.00  0.00    -0.368 OA
BRANCH   7   8
ATOM      8  C   LIG d   1      -8.880  76.785 119.971  0.00  0.00     0.119 C 
BRANCH   8   9
ATOM      9  C   LIG d   1      -8.440  78.207 119.572  0.00  0.00     0.028 C 
ATOM     10  C   LIG d   1      -9.424  78.874 118.596  0.00  0.00     0.006 C 
ENDBRANCH   8   9
BRANCH   8  11
ATOM     11  C   LIG d   1      -8.931  76.791 121.502  0.00  0.00     0.028 C 
ATOM     12  C   LIG d   1      -8.474  75.460 122.118  0.00  0.00     0.006 C 
ENDBRANCH   8  11
ENDBRANCH   7   8
ENDBRANCH   1   7
BRANCH   6  13
ATOM     13  N   LIG d   1      -6.328  76.855 117.092  0.00  0.00    -0.311 N 
ATOM     14  C   LIG d   1      -5.099  77.356 117.203  0.00  0.00     0.210 C 
ATOM     15  C   LIG d   1      -4.974  78.844 116.863  0.00  0.00     0.109 C 
ATOM     16  O   LIG d   1      -4.094  76.701 117.520  0.00  0.00    -0.276 OA
ATOM     17  H   LIG d   1      -7.078  77.450 116.798  0.00  0.00     0.149 HD
ENDBRANCH   6  13
BRANCH   5  18
ATOM     18  N   LIG d   1      -5.365  74.449 115.474  0.00  0.00     0.381 N 
ATOM     19  H   LIG d   1      -5.269  73.550 115.047  0.00  0.00    -0.090 HD
ATOM     20  H   LIG d   1      -4.649  74.546 116.172  0.00  0.00    -0.090 HD
ATOM     21  H   LIG d   1      -5.266  75.163 114.786  0.00  0.00    -0.090 HD
ENDBRANCH   5  18
BRANCH   3  22
ATOM     22  C   LIG d   1      -9.135  72.008 117.136  0.00  0.00     0.382 C 
ATOM     23  O   LIG d   1      -8.869  71.117 116.293  0.00  0.00    -0.241 OA
ATOM     24  O   LIG d   1     -10.164  71.908 117.830  0.00  0.00    -0.241 OA
ENDBRANCH   3  22
TORSDOF 7
ENDMDL
MODEL 9
REMARK VINA RESULT:      -4.8      2.351      4.501
REMARK  7 active torsions:
REMARK  status: ('A' for Active; 'I' for Inactive)
REMARK    1  A    between atoms: C_2  and  C_3 
REMARK    2  A    between atoms: C_3  and  O_6 
REMARK    3  A    between atoms: C_3  and  C_4 
REMARK    4  A    between atoms: C_7  and  O_6 
REMARK    5  A    between atoms: C_9  and  C_10 
REMARK    6  A    between atoms: N_15  and  C_14 
REMARK    7  A    between atoms: N_20  and  C_19 
REMARK       I    between atoms: C_22  and  N_20 
ROOT
ATOM      1  C   LIG d   1      -6.709  77.409 117.366  0.00  0.00     0.161 C 
ATOM      2  C   LIG d   1      -6.423  78.784 117.374  0.00  0.00     0.016 C 
ATOM      3  C   LIG d   1      -7.256  79.748 117.988  0.00  0.00     0.038 C 
ATOM      4  C   LIG d   1      -8.360  79.383 118.772  0.00  0.00     0.028 C 
ATOM      5  C   LIG d   1      -8.970  78.044 118.372  0.00  0.00    -0.047 C 
ATOM      6  C   LIG d   1      -7.850  76.980 118.312  0.00  0.00     0.091 C 
ENDROOT
BRANCH   1   7
ATOM      7  O   LIG d   1      -5.511  76.660 117.655  0.00  0.00    -0.368 OA
BRANCH   7   8
ATOM      8  C   LIG d   1      -4.871  76.021 116.524  0.00  0.00     0.119 C 
BRANCH   8   9
ATOM      9  C   LIG d   1      -5.843  76.108 115.331  0.00  0.00     0.028 C 
ATOM     10  C   LIG d   1      -6.194  74.724 114.758  0.00  0.00     0.006 C 
ENDBRANCH   8   9
BRANCH   8  11
ATOM     11  C   LIG d   1      -4.665  74.524 116.771  0.00  0.00     0.028 C 
ATOM     12  C   LIG d   1      -3.200  74.164 117.065  0.00  0.00     0.006 C 
ENDBRANCH   8  11
ENDBRANCH   7   8
ENDBRANCH   1   7
BRANCH   6  13
ATOM     13  N   LIG d   1      -8.348  75.659 117.846  0.00  0.00    -0.311 N 
ATOM     14  C   LIG d   1      -8.661  74.661 118.671  0.00  0.00     0.210 C 
ATOM     15  C   LIG d   1      -9.135  73.378 117.982  0.00  0.00     0.109 C 
ATOM     16  O   LIG d   1      -8.621  74.728 119.908  0.00  0.00    -0.276 OA
ATOM     17  H   LIG d   1      -8.440  75.529 116.857  0.00  0.00     0.149 HD
ENDBRANCH   6  13
BRANCH   5  18
ATOM     18  N   LIG d   1     -10.022  77.722 119.355  0.00  0.00     0.381 N 
ATOM     19  H   LIG d   1     -10.867  78.200 119.115  0.00  0.00    -0.090 HD
ATOM     20  H   LIG d   1      -9.727  78.038 120.262  0.00  0.00    -0.090 HD
ATOM     21  H   LIG d   1     -10.181  76.738 119.373  0.00  0.00    -0.090 HD
ENDBRANCH   5  18
BRANCH   3  22
ATOM     22  C   LIG d   1      -7.008  81.098 117.787  0.00  0.00     0.382 C 
ATOM     23  O   LIG d   1      -7.551  81.698 116.828  0.00  0.00    -0.241 OA
ATOM     24  O   LIG d   1      -6.215  81.711 118.525  0.00  0.00    -0.241 OA
ENDBRANCH   3  22
TORSDOF 7
ENDMDL
