MODEL 1
REMARK VINA RESULT:      -6.3      0.000      0.000
REMARK  7 active torsions:
REMARK  status: ('A' for Active; 'I' for Inactive)
REMARK    1  A    between atoms: C_2  and  C_3 
REMARK    2  A    between atoms: C_3  and  O_6 
REMARK    3  A    between atoms: C_3  and  C_4 
REMARK    4  A    between atoms: C_7  and  O_6 
REMARK    5  A    between atoms: C_9  and  C_10 
REMARK    6  A    between atoms: N_15  and  C_14 
REMARK    7  A    between atoms: N_20  and  C_19 
REMARK       I    between atoms: C_22  and  N_20 
ROOT
ATOM      1  C   LIG d   1      -7.356  76.804 117.703  0.00  0.00     0.161 C 
ATOM      2  C   LIG d   1      -8.532  77.518 117.986  0.00  0.00     0.016 C 
ATOM      3  C   LIG d   1      -8.565  78.917 118.186  0.00  0.00     0.038 C 
ATOM      4  C   LIG d   1      -7.438  79.724 117.966  0.00  0.00     0.028 C 
ATOM      5  C   LIG d   1      -6.118  78.989 118.173  0.00  0.00    -0.047 C 
ATOM      6  C   LIG d   1      -6.136  77.681 117.350  0.00  0.00     0.091 C 
ENDROOT
BRANCH   1   7
ATOM      7  O   LIG d   1      -7.605  75.847 116.655  0.00  0.00    -0.368 OA
BRANCH   7   8
ATOM      8  C   LIG d   1      -7.922  74.500 117.084  0.00  0.00     0.119 C 
BRANCH   8   9
ATOM      9  C   LIG d   1      -7.088  73.531 116.222  0.00  0.00     0.028 C 
ATOM     10  C   LIG d   1      -6.068  74.265 115.336  0.00  0.00     0.006 C 
ENDBRANCH   8   9
BRANCH   8  11
ATOM     11  C   LIG d   1      -9.383  74.150 116.788  0.00  0.00     0.028 C 
ATOM     12  C   LIG d   1      -9.605  72.644 116.580  0.00  0.00     0.006 C 
ENDBRANCH   8  11
ENDBRANCH   7   8
ENDBRANCH   1   7
BRANCH   6  13
ATOM     13  N   LIG d   1      -4.915  76.861 117.561  0.00  0.00    -0.311 N 
ATOM     14  C   LIG d   1      -3.838  76.935 116.782  0.00  0.00     0.210 C 
ATOM     15  C   LIG d   1      -2.697  75.988 117.164  0.00  0.00     0.109 C 
ATOM     16  O   LIG d   1      -3.706  77.720 115.831  0.00  0.00    -0.276 OA
ATOM     17  H   LIG d   1      -4.924  76.220 118.331  0.00  0.00     0.149 HD
ENDBRANCH   6  13
BRANCH   5  18
ATOM     18  N   LIG d   1      -5.032  79.906 117.778  0.00  0.00     0.381 N 
ATOM     19  H   LIG d   1      -4.883  80.585 118.498  0.00  0.00    -0.090 HD
ATOM     20  H   LIG d   1      -5.303  80.389 116.940  0.00  0.00    -0.090 HD
ATOM     21  H   LIG d   1      -4.193  79.392 117.618  0.00  0.00    -0.090 HD
ENDBRANCH   5  18
BRANCH   3  22
ATOM     22  C   LIG d   1      -9.725  79.518 118.650  0.00  0.00     0.382 C 
ATOM     23  O   LIG d   1     -10.250  80.453 117.999  0.00  0.00    -0.241 OA
ATOM     24  O   LIG d   1     -10.229  79.167 119.734  0.00  0.00    -0.241 OA
ENDBRANCH   3  22
TORSDOF 7
ENDMDL
MODEL 2
REMARK VINA RESULT:      -6.0      2.042      5.312
REMARK  7 active torsions:
REMARK  status: ('A' for Active; 'I' for Inactive)
REMARK    1  A    between atoms: C_2  and  C_3 
REMARK    2  A    between atoms: C_3  and  O_6 
REMARK    3  A    between atoms: C_3  and  C_4 
REMARK    4  A    between atoms: C_7  and  O_6 
REMARK    5  A    between atoms: C_9  and  C_10 
REMARK    6  A    between atoms: N_15  and  C_14 
REMARK    7  A    between atoms: N_20  and  C_19 
REMARK       I    between atoms: C_22  and  N_20 
ROOT
ATOM      1  C   LIG d   1      -5.672  75.819 116.550  0.00  0.00     0.161 C 
ATOM      2  C   LIG d   1      -6.279  74.607 116.183  0.00  0.00     0.016 C 
ATOM      3  C   LIG d   1      -7.642  74.315 116.422  0.00  0.00     0.038 C 
ATOM      4  C   LIG d   1      -8.532  75.281 116.912  0.00  0.00     0.028 C 
ATOM      5  C   LIG d   1      -7.856  76.350 117.765  0.00  0.00    -0.047 C 
ATOM      6  C   LIG d   1      -6.653  76.928 116.985  0.00  0.00     0.091 C 
ENDROOT
BRANCH   1   7
ATOM      7  O   LIG d   1      -4.830  76.288 115.478  0.00  0.00    -0.368 OA
BRANCH   7   8
ATOM      8  C   LIG d   1      -3.421  75.969 115.590  0.00  0.00     0.119 C 
BRANCH   8   9
ATOM      9  C   LIG d   1      -3.098  75.812 117.088  0.00  0.00     0.028 C 
ATOM     10  C   LIG d   1      -1.827  74.982 117.331  0.00  0.00     0.006 C 
ENDBRANCH   8   9
BRANCH   8  11
ATOM     11  C   LIG d   1      -2.547  77.131 115.106  0.00  0.00     0.028 C 
ATOM     12  C   LIG d   1      -2.747  78.411 115.933  0.00  0.00     0.006 C 
ENDBRANCH   8  11
ENDBRANCH   7   8
ENDBRANCH   1   7
BRANCH   6  13
ATOM     13  N   LIG d   1      -5.886  77.921 117.781  0.00  0.00    -0.311 N 
ATOM     14  C   LIG d   1      -6.239  79.200 117.894  0.00  0.00     0.210 C 
ATOM     15  C   LIG d   1      -5.297  80.058 118.745  0.00  0.00     0.109 C 
ATOM     16  O   LIG d   1      -7.259  79.699 117.397  0.00  0.00    -0.276 OA
ATOM     17  H   LIG d   1      -5.060  77.594 118.244  0.00  0.00     0.149 HD
ENDBRANCH   6  13
BRANCH   5  18
ATOM     18  N   LIG d   1      -8.874  77.366 118.094  0.00  0.00     0.381 N 
ATOM     19  H   LIG d   1      -8.611  77.851 118.929  0.00  0.00    -0.090 HD
ATOM     20  H   LIG d   1      -9.751  76.906 118.260  0.00  0.00    -0.090 HD
ATOM     21  H   LIG d   1      -8.966  78.013 117.342  0.00  0.00    -0.090 HD
ENDBRANCH   5  18
BRANCH   3  22
ATOM     22  C   LIG d   1      -8.117  73.030 116.207  0.00  0.00     0.382 C 
ATOM     23  O   LIG d   1      -9.314  72.753 116.464  0.00  0.00    -0.241 OA
ATOM     24  O   LIG d   1      -7.354  72.133 115.802  0.00  0.00    -0.241 OA
ENDBRANCH   3  22
TORSDOF 7
ENDMDL
MODEL 3
REMARK VINA RESULT:      -5.7     18.098     20.233
REMARK  7 active torsions:
REMARK  status: ('A' for Active; 'I' for Inactive)
REMARK    1  A    between atoms: C_2  and  C_3 
REMARK    2  A    between atoms: C_3  and  O_6 
REMARK    3  A    between atoms: C_3  and  C_4 
REMARK    4  A    between atoms: C_7  and  O_6 
REMARK    5  A    between atoms: C_9  and  C_10 
REMARK    6  A    between atoms: N_15  and  C_14 
REMARK    7  A    between atoms: N_20  and  C_19 
REMARK       I    between atoms: C_22  and  N_20 
ROOT
ATOM      1  C   LIG d   1      -0.583  58.704 118.561  0.00  0.00     0.161 C 
ATOM      2  C   LIG d   1      -1.448  59.517 117.810  0.00  0.00     0.016 C 
ATOM      3  C   LIG d   1      -2.267  59.027 116.767  0.00  0.00     0.038 C 
ATOM      4  C   LIG d   1      -2.389  57.654 116.502  0.00  0.00     0.028 C 
ATOM      5  C   LIG d   1      -1.155  56.850 116.898  0.00  0.00    -0.047 C 
ATOM      6  C   LIG d   1      -0.784  57.187 118.360  0.00  0.00     0.091 C 
ENDROOT
BRANCH   1   7
ATOM      7  O   LIG d   1      -0.683  59.042 119.958  0.00  0.00    -0.368 OA
BRANCH   7   8
ATOM      8  C   LIG d   1      -1.423  60.248 120.270  0.00  0.00     0.119 C 
BRANCH   8   9
ATOM      9  C   LIG d   1      -0.460  61.207 120.996  0.00  0.00     0.028 C 
ATOM     10  C   LIG d   1       0.931  60.588 121.216  0.00  0.00     0.006 C 
ENDBRANCH   8   9
BRANCH   8  11
ATOM     11  C   LIG d   1      -2.547  59.968 121.272  0.00  0.00     0.028 C 
ATOM     12  C   LIG d   1      -3.006  58.502 121.258  0.00  0.00     0.006 C 
ENDBRANCH   8  11
ENDBRANCH   7   8
ENDBRANCH   1   7
BRANCH   6  13
ATOM     13  N   LIG d   1       0.462  56.506 118.800  0.00  0.00    -0.311 N 
ATOM     14  C   LIG d   1       0.473  55.329 119.423  0.00  0.00     0.210 C 
ATOM     15  C   LIG d   1       1.863  54.814 119.807  0.00  0.00     0.109 C 
ATOM     16  O   LIG d   1      -0.535  54.647 119.664  0.00  0.00    -0.276 OA
ATOM     17  H   LIG d   1       1.327  56.975 118.616  0.00  0.00     0.149 HD
ENDBRANCH   6  13
BRANCH   5  18
ATOM     18  N   LIG d   1      -1.470  55.423 116.696  0.00  0.00     0.381 N 
ATOM     19  H   LIG d   1      -1.975  55.305 115.840  0.00  0.00    -0.090 HD
ATOM     20  H   LIG d   1      -2.054  55.109 117.451  0.00  0.00    -0.090 HD
ATOM     21  H   LIG d   1      -0.630  54.888 116.671  0.00  0.00    -0.090 HD
ENDBRANCH   5  18
BRANCH   3  22
ATOM     22  C   LIG d   1      -2.946  59.918 115.950  0.00  0.00     0.382 C 
ATOM     23  O   LIG d   1      -2.575  60.087 114.763  0.00  0.00    -0.241 OA
ATOM     24  O   LIG d   1      -3.897  60.587 116.397  0.00  0.00    -0.241 OA
ENDBRANCH   3  22
TORSDOF 7
ENDMDL
MODEL 4
REMARK VINA RESULT:      -5.5      2.028      5.065
REMARK  7 active torsions:
REMARK  status: ('A' for Active; 'I' for Inactive)
REMARK    1  A    between atoms: C_2  and  C_3 
REMARK    2  A    between atoms: C_3  and  O_6 
REMARK    3  A    between atoms: C_3  and  C_4 
REMARK    4  A    between atoms: C_7  and  O_6 
REMARK    5  A    between atoms: C_9  and  C_10 
REMARK    6  A    between atoms: N_15  and  C_14 
REMARK    7  A    between atoms: N_20  and  C_19 
REMARK       I    between atoms: C_22  and  N_20 
ROOT
ATOM      1  C   LIG d   1      -7.246  76.525 117.745  0.00  0.00     0.161 C 
ATOM      2  C   LIG d   1      -7.934  75.321 117.515  0.00  0.00     0.016 C 
ATOM      3  C   LIG d   1      -7.435  74.285 116.693  0.00  0.00     0.038 C 
ATOM      4  C   LIG d   1      -6.136  74.319 116.163  0.00  0.00     0.028 C 
ATOM      5  C   LIG d   1      -5.604  75.732 115.954  0.00  0.00    -0.047 C 
ATOM      6  C   LIG d   1      -5.779  76.533 117.265  0.00  0.00     0.091 C 
ENDROOT
BRANCH   1   7
ATOM      7  O   LIG d   1      -7.317  76.869 119.143  0.00  0.00    -0.368 OA
BRANCH   7   8
ATOM      8  C   LIG d   1      -8.031  78.088 119.463  0.00  0.00     0.119 C 
BRANCH   8   9
ATOM      9  C   LIG d   1      -8.580  78.664 118.143  0.00  0.00     0.028 C 
ATOM     10  C   LIG d   1      -8.154  80.124 117.917  0.00  0.00     0.006 C 
ENDBRANCH   8   9
BRANCH   8  11
ATOM     11  C   LIG d   1      -7.083  79.161 120.009  0.00  0.00     0.028 C 
ATOM     12  C   LIG d   1      -5.876  78.567 120.753  0.00  0.00     0.006 C 
ENDBRANCH   8  11
ENDBRANCH   7   8
ENDBRANCH   1   7
BRANCH   6  13
ATOM     13  N   LIG d   1      -5.361  77.952 117.122  0.00  0.00    -0.311 N 
ATOM     14  C   LIG d   1      -4.157  78.400 117.472  0.00  0.00     0.210 C 
ATOM     15  C   LIG d   1      -3.938  79.901 117.261  0.00  0.00     0.109 C 
ATOM     16  O   LIG d   1      -3.237  77.690 117.908  0.00  0.00    -0.276 OA
ATOM     17  H   LIG d   1      -6.035  78.591 116.748  0.00  0.00     0.149 HD
ENDBRANCH   6  13
BRANCH   5  18
ATOM     18  N   LIG d   1      -4.196  75.620 115.529  0.00  0.00     0.381 N 
ATOM     19  H   LIG d   1      -3.725  76.489 115.684  0.00  0.00    -0.090 HD
ATOM     20  H   LIG d   1      -4.169  75.417 114.545  0.00  0.00    -0.090 HD
ATOM     21  H   LIG d   1      -3.743  74.893 116.038  0.00  0.00    -0.090 HD
ENDBRANCH   5  18
BRANCH   3  22
ATOM     22  C   LIG d   1      -8.254  73.216 116.362  0.00  0.00     0.382 C 
ATOM     23  O   LIG d   1      -9.494  73.299 116.535  0.00  0.00    -0.241 OA
ATOM     24  O   LIG d   1      -7.764  72.154 115.933  0.00  0.00    -0.241 OA
ENDBRANCH   3  22
TORSDOF 7
ENDMDL
MODEL 5
REMARK VINA RESULT:      -5.3     17.987     19.992
REMARK  7 active torsions:
REMARK  status: ('A' for Active; 'I' for Inactive)
REMARK    1  A    between atoms: C_2  and  C_3 
REMARK    2  A    between atoms: C_3  and  O_6 
REMARK    3  A    between atoms: C_3  and  C_4 
REMARK    4  A    between atoms: C_7  and  O_6 
REMARK    5  A    between atoms: C_9  and  C_10 
REMARK    6  A    between atoms: N_15  and  C_14 
REMARK    7  A    between atoms: N_20  and  C_19 
REMARK       I    between atoms: C_22  and  N_20 
ROOT
ATOM      1  C   LIG d   1      -0.942  57.951 118.475  0.00  0.00     0.161 C 
ATOM      2  C   LIG d   1      -1.692  58.883 117.737  0.00  0.00     0.016 C 
ATOM      3  C   LIG d   1      -3.074  59.103 117.938  0.00  0.00     0.038 C 
ATOM      4  C   LIG d   1      -3.773  58.510 119.000  0.00  0.00     0.028 C 
ATOM      5  C   LIG d   1      -3.175  57.182 119.452  0.00  0.00    -0.047 C 
ATOM      6  C   LIG d   1      -1.663  57.375 119.712  0.00  0.00     0.091 C 
ENDROOT
BRANCH   1   7
ATOM      7  O   LIG d   1       0.321  58.531 118.856  0.00  0.00    -0.368 OA
BRANCH   7   8
ATOM      8  C   LIG d   1       0.396  59.978 118.814  0.00  0.00     0.119 C 
BRANCH   8   9
ATOM      9  C   LIG d   1       1.691  60.352 118.068  0.00  0.00     0.028 C 
ATOM     10  C   LIG d   1       1.414  61.039 116.720  0.00  0.00     0.006 C 
ENDBRANCH   8   9
BRANCH   8  11
ATOM     11  C   LIG d   1       0.552  60.569 120.218  0.00  0.00     0.028 C 
ATOM     12  C   LIG d   1      -0.788  61.003 120.834  0.00  0.00     0.006 C 
ENDBRANCH   8  11
ENDBRANCH   7   8
ENDBRANCH   1   7
BRANCH   6  13
ATOM     13  N   LIG d   1      -0.984  56.105 120.077  0.00  0.00    -0.311 N 
ATOM     14  C   LIG d   1      -0.282  55.945 121.198  0.00  0.00     0.210 C 
ATOM     15  C   LIG d   1       0.353  54.561 121.371  0.00  0.00     0.109 C 
ATOM     16  O   LIG d   1      -0.152  56.807 122.080  0.00  0.00    -0.276 OA
ATOM     17  H   LIG d   1      -1.065  55.343 119.433  0.00  0.00     0.149 HD
ENDBRANCH   6  13
BRANCH   5  18
ATOM     18  N   LIG d   1      -3.916  56.745 120.650  0.00  0.00     0.381 N 
ATOM     19  H   LIG d   1      -4.862  57.067 120.599  0.00  0.00    -0.090 HD
ATOM     20  H   LIG d   1      -3.488  57.151 121.464  0.00  0.00    -0.090 HD
ATOM     21  H   LIG d   1      -3.899  55.751 120.718  0.00  0.00    -0.090 HD
ENDBRANCH   5  18
BRANCH   3  22
ATOM     22  C   LIG d   1      -3.780  59.895 117.045  0.00  0.00     0.382 C 
ATOM     23  O   LIG d   1      -4.992  60.143 117.251  0.00  0.00    -0.241 OA
ATOM     24  O   LIG d   1      -3.232  60.327 116.014  0.00  0.00    -0.241 OA
ENDBRANCH   3  22
TORSDOF 7
ENDMDL
MODEL 6
REMARK VINA RESULT:      -5.3      2.207      4.818
REMARK  7 active torsions:
REMARK  status: ('A' for Active; 'I' for Inactive)
REMARK    1  A    between atoms: C_2  and  C_3 
REMARK    2  A    between atoms: C_3  and  O_6 
REMARK    3  A    between atoms: C_3  and  C_4 
REMARK    4  A    between atoms: C_7  and  O_6 
REMARK    5  A    between atoms: C_9  and  C_10 
REMARK    6  A    between atoms: N_15  and  C_14 
REMARK    7  A    between atoms: N_20  and  C_19 
REMARK       I    between atoms: C_22  and  N_20 
ROOT
ATOM      1  C   LIG d   1      -6.265  78.441 117.568  0.00  0.00     0.161 C 
ATOM      2  C   LIG d   1      -5.077  77.774 117.910  0.00  0.00     0.016 C 
ATOM      3  C   LIG d   1      -4.524  77.787 119.211  0.00  0.00     0.038 C 
ATOM      4  C   LIG d   1      -5.207  78.346 120.301  0.00  0.00     0.028 C 
ATOM      5  C   LIG d   1      -6.164  79.465 119.907  0.00  0.00    -0.047 C 
ATOM      6  C   LIG d   1      -7.082  78.963 118.769  0.00  0.00     0.091 C 
ENDROOT
BRANCH   1   7
ATOM      7  O   LIG d   1      -7.082  77.591 116.739  0.00  0.00    -0.368 OA
BRANCH   7   8
ATOM      8  C   LIG d   1      -6.865  76.165 116.880  0.00  0.00     0.119 C 
BRANCH   8   9
ATOM      9  C   LIG d   1      -6.979  75.539 115.476  0.00  0.00     0.028 C 
ATOM     10  C   LIG d   1      -5.610  75.144 114.897  0.00  0.00     0.006 C 
ENDBRANCH   8   9
BRANCH   8  11
ATOM     11  C   LIG d   1      -7.976  75.511 117.707  0.00  0.00     0.028 C 
ATOM     12  C   LIG d   1      -9.178  75.078 116.853  0.00  0.00     0.006 C 
ENDBRANCH   8  11
ENDBRANCH   7   8
ENDBRANCH   1   7
BRANCH   6  13
ATOM     13  N   LIG d   1      -7.993  80.024 118.266  0.00  0.00    -0.311 N 
ATOM     14  C   LIG d   1      -9.307  79.854 118.122  0.00  0.00     0.210 C 
ATOM     15  C   LIG d   1     -10.059  81.069 117.569  0.00  0.00     0.109 C 
ATOM     16  O   LIG d   1      -9.925  78.824 118.429  0.00  0.00    -0.276 OA
ATOM     17  H   LIG d   1      -7.580  80.902 118.022  0.00  0.00     0.149 HD
ENDBRANCH   6  13
BRANCH   5  18
ATOM     18  N   LIG d   1      -6.909  79.862 121.117  0.00  0.00     0.381 N 
ATOM     19  H   LIG d   1      -7.806  80.223 120.860  0.00  0.00    -0.090 HD
ATOM     20  H   LIG d   1      -6.399  80.589 121.588  0.00  0.00    -0.090 HD
ATOM     21  H   LIG d   1      -7.019  79.078 121.722  0.00  0.00    -0.090 HD
ENDBRANCH   5  18
BRANCH   3  22
ATOM     22  C   LIG d   1      -3.255  77.270 119.423  0.00  0.00     0.382 C 
ATOM     23  O   LIG d   1      -2.552  77.702 120.368  0.00  0.00    -0.241 OA
ATOM     24  O   LIG d   1      -2.787  76.408 118.655  0.00  0.00    -0.241 OA
ENDBRANCH   3  22
TORSDOF 7
ENDMDL
MODEL 7
REMARK VINA RESULT:      -5.2     12.284     14.234
REMARK  7 active torsions:
REMARK  status: ('A' for Active; 'I' for Inactive)
REMARK    1  A    between atoms: C_2  and  C_3 
REMARK    2  A    between atoms: C_3  and  O_6 
REMARK    3  A    between atoms: C_3  and  C_4 
REMARK    4  A    between atoms: C_7  and  O_6 
REMARK    5  A    between atoms: C_9  and  C_10 
REMARK    6  A    between atoms: N_15  and  C_14 
REMARK    7  A    between atoms: N_20  and  C_19 
REMARK       I    between atoms: C_22  and  N_20 
ROOT
ATOM      1  C   LIG d   1      -2.882  89.799 117.927  0.00  0.00     0.161 C 
ATOM      2  C   LIG d   1      -3.770  89.210 117.013  0.00  0.00     0.016 C 
ATOM      3  C   LIG d   1      -4.994  89.802 116.624  0.00  0.00     0.038 C 
ATOM      4  C   LIG d   1      -5.343  91.104 117.012  0.00  0.00     0.028 C 
ATOM      5  C   LIG d   1      -4.716  91.532 118.335  0.00  0.00    -0.047 C 
ATOM      6  C   LIG d   1      -3.193  91.270 118.275  0.00  0.00     0.091 C 
ENDROOT
BRANCH   1   7
ATOM      7  O   LIG d   1      -1.530  89.675 117.444  0.00  0.00    -0.368 OA
BRANCH   7   8
ATOM      8  C   LIG d   1      -0.628  88.896 118.269  0.00  0.00     0.119 C 
BRANCH   8   9
ATOM      9  C   LIG d   1       0.109  87.908 117.344  0.00  0.00     0.028 C 
ATOM     10  C   LIG d   1      -0.830  86.835 116.766  0.00  0.00     0.006 C 
ENDBRANCH   8   9
BRANCH   8  11
ATOM     11  C   LIG d   1      -1.396  88.024 119.265  0.00  0.00     0.028 C 
ATOM     12  C   LIG d   1      -0.988  88.284 120.724  0.00  0.00     0.006 C 
ENDBRANCH   8  11
ENDBRANCH   7   8
ENDBRANCH   1   7
BRANCH   6  13
ATOM     13  N   LIG d   1      -2.514  91.582 119.560  0.00  0.00    -0.311 N 
ATOM     14  C   LIG d   1      -1.617  92.557 119.697  0.00  0.00     0.210 C 
ATOM     15  C   LIG d   1      -1.023  92.696 121.102  0.00  0.00     0.109 C 
ATOM     16  O   LIG d   1      -1.281  93.340 118.796  0.00  0.00    -0.276 OA
ATOM     17  H   LIG d   1      -2.751  91.015 120.350  0.00  0.00     0.149 HD
ENDBRANCH   6  13
BRANCH   5  18
ATOM     18  N   LIG d   1      -5.051  92.952 118.549  0.00  0.00     0.381 N 
ATOM     19  H   LIG d   1      -4.858  93.474 117.717  0.00  0.00    -0.090 HD
ATOM     20  H   LIG d   1      -4.475  93.314 119.289  0.00  0.00    -0.090 HD
ATOM     21  H   LIG d   1      -6.012  93.043 118.792  0.00  0.00    -0.090 HD
ENDBRANCH   5  18
BRANCH   3  22
ATOM     22  C   LIG d   1      -5.902  89.074 115.871  0.00  0.00     0.382 C 
ATOM     23  O   LIG d   1      -6.921  88.586 116.417  0.00  0.00    -0.241 OA
ATOM     24  O   LIG d   1      -5.692  88.861 114.662  0.00  0.00    -0.241 OA
ENDBRANCH   3  22
TORSDOF 7
ENDMDL
MODEL 8
REMARK VINA RESULT:      -5.0     12.956     15.391
REMARK  7 active torsions:
REMARK  status: ('A' for Active; 'I' for Inactive)
REMARK    1  A    between atoms: C_2  and  C_3 
REMARK    2  A    between atoms: C_3  and  O_6 
REMARK    3  A    between atoms: C_3  and  C_4 
REMARK    4  A    between atoms: C_7  and  O_6 
REMARK    5  A    between atoms: C_9  and  C_10 
REMARK    6  A    between atoms: N_15  and  C_14 
REMARK    7  A    between atoms: N_20  and  C_19 
REMARK       I    between atoms: C_22  and  N_20 
ROOT
ATOM      1  C   LIG d   1      -4.363  91.607 118.214  0.00  0.00     0.161 C 
ATOM      2  C   LIG d   1      -5.313  91.582 117.179  0.00  0.00     0.016 C 
ATOM      3  C   LIG d   1      -5.417  90.527 116.244  0.00  0.00     0.038 C 
ATOM      4  C   LIG d   1      -4.671  89.346 116.372  0.00  0.00     0.028 C 
ATOM      5  C   LIG d   1      -3.348  89.542 117.103  0.00  0.00    -0.047 C 
ATOM      6  C   LIG d   1      -3.615  90.276 118.437  0.00  0.00     0.091 C 
ENDROOT
BRANCH   1   7
ATOM      7  O   LIG d   1      -4.986  92.043 119.439  0.00  0.00    -0.368 OA
BRANCH   7   8
ATOM      8  C   LIG d   1      -5.103  93.476 119.619  0.00  0.00     0.119 C 
BRANCH   8   9
ATOM      9  C   LIG d   1      -4.357  93.842 120.916  0.00  0.00     0.028 C 
ATOM     10  C   LIG d   1      -2.862  94.110 120.677  0.00  0.00     0.006 C 
ENDBRANCH   8   9
BRANCH   8  11
ATOM     11  C   LIG d   1      -6.559  93.890 119.857  0.00  0.00     0.028 C 
ATOM     12  C   LIG d   1      -7.218  94.496 118.608  0.00  0.00     0.006 C 
ENDBRANCH   8  11
ENDBRANCH   7   8
ENDBRANCH   1   7
BRANCH   6  13
ATOM     13  N   LIG d   1      -2.362  90.583 119.176  0.00  0.00    -0.311 N 
ATOM     14  C   LIG d   1      -2.224  90.406 120.489  0.00  0.00     0.210 C 
ATOM     15  C   LIG d   1      -0.857  90.804 121.054  0.00  0.00     0.109 C 
ATOM     16  O   LIG d   1      -3.093  89.928 121.234  0.00  0.00    -0.276 OA
ATOM     17  H   LIG d   1      -1.596  90.946 118.644  0.00  0.00     0.149 HD
ENDBRANCH   6  13
BRANCH   5  18
ATOM     18  N   LIG d   1      -2.739  88.211 117.288  0.00  0.00     0.381 N 
ATOM     19  H   LIG d   1      -2.082  88.240 118.041  0.00  0.00    -0.090 HD
ATOM     20  H   LIG d   1      -2.246  87.960 116.449  0.00  0.00    -0.090 HD
ATOM     21  H   LIG d   1      -3.446  87.536 117.481  0.00  0.00    -0.090 HD
ENDBRANCH   5  18
BRANCH   3  22
ATOM     22  C   LIG d   1      -6.247  90.665 115.142  0.00  0.00     0.382 C 
ATOM     23  O   LIG d   1      -6.874  89.672 114.701  0.00  0.00    -0.241 OA
ATOM     24  O   LIG d   1      -6.343  91.760 114.556  0.00  0.00    -0.241 OA
ENDBRANCH   3  22
TORSDOF 7
ENDMDL
MODEL 9
REMARK VINA RESULT:      -4.9     17.834     19.490
REMARK  7 active torsions:
REMARK  status: ('A' for Active; 'I' for Inactive)
REMARK    1  A    between atoms: C_2  and  C_3 
REMARK    2  A    between atoms: C_3  and  O_6 
REMARK    3  A    between atoms: C_3  and  C_4 
REMARK    4  A    between atoms: C_7  and  O_6 
REMARK    5  A    between atoms: C_9  and  C_10 
REMARK    6  A    between atoms: N_15  and  C_14 
REMARK    7  A    between atoms: N_20  and  C_19 
REMARK       I    between atoms: C_22  and  N_20 
ROOT
ATOM      1  C   LIG d   1      -1.476  59.706 119.982  0.00  0.00     0.161 C 
ATOM      2  C   LIG d   1      -1.920  60.211 118.749  0.00  0.00     0.016 C 
ATOM      3  C   LIG d   1      -2.996  59.652 118.021  0.00  0.00     0.038 C 
ATOM      4  C   LIG d   1      -3.803  58.636 118.554  0.00  0.00     0.028 C 
ATOM      5  C   LIG d   1      -3.080  57.760 119.573  0.00  0.00    -0.047 C 
ATOM      6  C   LIG d   1      -2.414  58.668 120.632  0.00  0.00     0.091 C 
ENDROOT
BRANCH   1   7
ATOM      7  O   LIG d   1      -1.225  60.794 120.893  0.00  0.00    -0.368 OA
BRANCH   7   8
ATOM      8  C   LIG d   1       0.165  61.158 121.084  0.00  0.00     0.119 C 
BRANCH   8   9
ATOM      9  C   LIG d   1       1.019  59.925 120.732  0.00  0.00     0.028 C 
ATOM     10  C   LIG d   1       2.217  60.278 119.834  0.00  0.00     0.006 C 
ENDBRANCH   8   9
BRANCH   8  11
ATOM     11  C   LIG d   1       0.467  61.454 122.556  0.00  0.00     0.028 C 
ATOM     12  C   LIG d   1       0.690  60.180 123.386  0.00  0.00     0.006 C 
ENDBRANCH   8  11
ENDBRANCH   7   8
ENDBRANCH   1   7
BRANCH   6  13
ATOM     13  N   LIG d   1      -1.615  57.895 121.619  0.00  0.00    -0.311 N 
ATOM     14  C   LIG d   1      -2.085  57.516 122.806  0.00  0.00     0.210 C 
ATOM     15  C   LIG d   1      -1.090  56.746 123.679  0.00  0.00     0.109 C 
ATOM     16  O   LIG d   1      -3.241  57.718 123.206  0.00  0.00    -0.276 OA
ATOM     17  H   LIG d   1      -0.676  57.662 121.363  0.00  0.00     0.149 HD
ENDBRANCH   6  13
BRANCH   5  18
ATOM     18  N   LIG d   1      -4.074  56.834 120.148  0.00  0.00     0.381 N 
ATOM     19  H   LIG d   1      -3.753  56.502 121.036  0.00  0.00    -0.090 HD
ATOM     20  H   LIG d   1      -4.175  56.044 119.534  0.00  0.00    -0.090 HD
ATOM     21  H   LIG d   1      -4.950  57.296 120.254  0.00  0.00    -0.090 HD
ENDBRANCH   5  18
BRANCH   3  22
ATOM     22  C   LIG d   1      -3.249  60.084 116.728  0.00  0.00     0.382 C 
ATOM     23  O   LIG d   1      -4.278  60.758 116.482  0.00  0.00    -0.241 OA
ATOM     24  O   LIG d   1      -2.484  59.770 115.796  0.00  0.00    -0.241 OA
ENDBRANCH   3  22
TORSDOF 7
ENDMDL
