MODEL 1
REMARK VINA RESULT:      -6.0      0.000      0.000
REMARK  7 active torsions:
REMARK  status: ('A' for Active; 'I' for Inactive)
REMARK    1  A    between atoms: C_2  and  C_3 
REMARK    2  A    between atoms: C_3  and  O_6 
REMARK    3  A    between atoms: C_3  and  C_4 
REMARK    4  A    between atoms: C_7  and  O_6 
REMARK    5  A    between atoms: C_9  and  C_10 
REMARK    6  A    between atoms: N_15  and  C_14 
REMARK    7  A    between atoms: N_20  and  C_19 
REMARK       I    between atoms: C_22  and  N_20 
ROOT
ATOM      1  C   LIG d   1      -7.574  76.082 117.655  0.00  0.00     0.161 C 
ATOM      2  C   LIG d   1      -8.885  76.397 118.050  0.00  0.00     0.016 C 
ATOM      3  C   LIG d   1      -9.327  77.717 118.297  0.00  0.00     0.038 C 
ATOM      4  C   LIG d   1      -8.524  78.832 118.018  0.00  0.00     0.028 C 
ATOM      5  C   LIG d   1      -7.030  78.539 118.099  0.00  0.00    -0.047 C 
ATOM      6  C   LIG d   1      -6.715  77.294 117.238  0.00  0.00     0.091 C 
ENDROOT
BRANCH   1   7
ATOM      7  O   LIG d   1      -7.604  75.102 116.599  0.00  0.00    -0.368 OA
BRANCH   7   8
ATOM      8  C   LIG d   1      -6.929  73.849 116.872  0.00  0.00     0.119 C 
BRANCH   8   9
ATOM      9  C   LIG d   1      -6.429  73.290 115.526  0.00  0.00     0.028 C 
ATOM     10  C   LIG d   1      -5.607  74.318 114.731  0.00  0.00     0.006 C 
ENDBRANCH   8   9
BRANCH   8  11
ATOM     11  C   LIG d   1      -7.902  72.798 117.412  0.00  0.00     0.028 C 
ATOM     12  C   LIG d   1      -8.351  71.794 116.339  0.00  0.00     0.006 C 
ENDBRANCH   8  11
ENDBRANCH   7   8
ENDBRANCH   1   7
BRANCH   6  13
ATOM     13  N   LIG d   1      -5.289  76.888 117.329  0.00  0.00    -0.311 N 
ATOM     14  C   LIG d   1      -4.360  77.272 116.455  0.00  0.00     0.210 C 
ATOM     15  C   LIG d   1      -2.955  76.723 116.722  0.00  0.00     0.109 C 
ATOM     16  O   LIG d   1      -4.560  78.040 115.502  0.00  0.00    -0.276 OA
ATOM     17  H   LIG d   1      -5.033  76.290 118.090  0.00  0.00     0.149 HD
ENDBRANCH   6  13
BRANCH   5  18
ATOM     18  N   LIG d   1      -6.313  79.748 117.652  0.00  0.00     0.381 N 
ATOM     19  H   LIG d   1      -6.433  79.868 116.666  0.00  0.00    -0.090 HD
ATOM     20  H   LIG d   1      -5.333  79.632 117.839  0.00  0.00    -0.090 HD
ATOM     21  H   LIG d   1      -6.659  80.548 118.135  0.00  0.00    -0.090 HD
ENDBRANCH   5  18
BRANCH   3  22
ATOM     22  C   LIG d   1     -10.573  77.928 118.867  0.00  0.00     0.382 C 
ATOM     23  O   LIG d   1     -11.516  77.135 118.627  0.00  0.00    -0.241 OA
ATOM     24  O   LIG d   1     -10.779  78.926 119.583  0.00  0.00    -0.241 OA
ENDBRANCH   3  22
TORSDOF 7
ENDMDL
MODEL 2
REMARK VINA RESULT:      -5.8     14.075     16.723
REMARK  7 active torsions:
REMARK  status: ('A' for Active; 'I' for Inactive)
REMARK    1  A    between atoms: C_2  and  C_3 
REMARK    2  A    between atoms: C_3  and  O_6 
REMARK    3  A    between atoms: C_3  and  C_4 
REMARK    4  A    between atoms: C_7  and  O_6 
REMARK    5  A    between atoms: C_9  and  C_10 
REMARK    6  A    between atoms: N_15  and  C_14 
REMARK    7  A    between atoms: N_20  and  C_19 
REMARK       I    between atoms: C_22  and  N_20 
ROOT
ATOM      1  C   LIG d   1      -5.886  92.686 117.624  0.00  0.00     0.161 C 
ATOM      2  C   LIG d   1      -6.839  91.795 117.101  0.00  0.00     0.016 C 
ATOM      3  C   LIG d   1      -6.517  90.505 116.621  0.00  0.00     0.038 C 
ATOM      4  C   LIG d   1      -5.235  89.956 116.772  0.00  0.00     0.028 C 
ATOM      5  C   LIG d   1      -4.130  91.006 116.833  0.00  0.00    -0.047 C 
ATOM      6  C   LIG d   1      -4.501  92.063 117.898  0.00  0.00     0.091 C 
ENDROOT
BRANCH   1   7
ATOM      7  O   LIG d   1      -6.401  93.308 118.817  0.00  0.00    -0.368 OA
BRANCH   7   8
ATOM      8  C   LIG d   1      -6.862  94.674 118.676  0.00  0.00     0.119 C 
BRANCH   8   9
ATOM      9  C   LIG d   1      -6.346  95.465 119.895  0.00  0.00     0.028 C 
ATOM     10  C   LIG d   1      -5.414  94.627 120.786  0.00  0.00     0.006 C 
ENDBRANCH   8   9
BRANCH   8  11
ATOM     11  C   LIG d   1      -8.389  94.759 118.755  0.00  0.00     0.028 C 
ATOM     12  C   LIG d   1      -9.007  93.616 119.575  0.00  0.00     0.006 C 
ENDBRANCH   8  11
ENDBRANCH   7   8
ENDBRANCH   1   7
BRANCH   6  13
ATOM     13  N   LIG d   1      -3.514  93.172 117.963  0.00  0.00    -0.311 N 
ATOM     14  C   LIG d   1      -2.498  93.200 118.824  0.00  0.00     0.210 C 
ATOM     15  C   LIG d   1      -1.611  94.446 118.737  0.00  0.00     0.109 C 
ATOM     16  O   LIG d   1      -2.229  92.296 119.630  0.00  0.00    -0.276 OA
ATOM     17  H   LIG d   1      -3.639  93.933 117.324  0.00  0.00     0.149 HD
ENDBRANCH   6  13
BRANCH   5  18
ATOM     18  N   LIG d   1      -2.866  90.306 117.129  0.00  0.00     0.381 N 
ATOM     19  H   LIG d   1      -2.389  90.770 117.876  0.00  0.00    -0.090 HD
ATOM     20  H   LIG d   1      -2.280  90.335 116.313  0.00  0.00    -0.090 HD
ATOM     21  H   LIG d   1      -3.051  89.360 117.380  0.00  0.00    -0.090 HD
ENDBRANCH   5  18
BRANCH   3  22
ATOM     22  C   LIG d   1      -7.475  89.764 115.947  0.00  0.00     0.382 C 
ATOM     23  O   LIG d   1      -7.902  88.692 116.440  0.00  0.00    -0.241 OA
ATOM     24  O   LIG d   1      -7.887  90.131 114.830  0.00  0.00    -0.241 OA
ENDBRANCH   3  22
TORSDOF 7
ENDMDL
MODEL 3
REMARK VINA RESULT:      -5.5      1.288      1.981
REMARK  7 active torsions:
REMARK  status: ('A' for Active; 'I' for Inactive)
REMARK    1  A    between atoms: C_2  and  C_3 
REMARK    2  A    between atoms: C_3  and  O_6 
REMARK    3  A    between atoms: C_3  and  C_4 
REMARK    4  A    between atoms: C_7  and  O_6 
REMARK    5  A    between atoms: C_9  and  C_10 
REMARK    6  A    between atoms: N_15  and  C_14 
REMARK    7  A    between atoms: N_20  and  C_19 
REMARK       I    between atoms: C_22  and  N_20 
ROOT
ATOM      1  C   LIG d   1      -7.674  76.488 118.752  0.00  0.00     0.161 C 
ATOM      2  C   LIG d   1      -9.047  76.337 119.010  0.00  0.00     0.016 C 
ATOM      3  C   LIG d   1      -9.982  77.390 118.890  0.00  0.00     0.038 C 
ATOM      4  C   LIG d   1      -9.629  78.638 118.354  0.00  0.00     0.028 C 
ATOM      5  C   LIG d   1      -8.159  78.989 118.556  0.00  0.00    -0.047 C 
ATOM      6  C   LIG d   1      -7.289  77.812 118.060  0.00  0.00     0.091 C 
ENDROOT
BRANCH   1   7
ATOM      7  O   LIG d   1      -7.194  75.365 117.988  0.00  0.00    -0.368 OA
BRANCH   7   8
ATOM      8  C   LIG d   1      -7.994  74.985 116.841  0.00  0.00     0.119 C 
BRANCH   8   9
ATOM      9  C   LIG d   1      -7.943  73.449 116.729  0.00  0.00     0.028 C 
ATOM     10  C   LIG d   1      -7.701  72.769 118.087  0.00  0.00     0.006 C 
ENDBRANCH   8   9
BRANCH   8  11
ATOM     11  C   LIG d   1      -7.382  75.507 115.538  0.00  0.00     0.028 C 
ATOM     12  C   LIG d   1      -6.061  74.810 115.178  0.00  0.00     0.006 C 
ENDBRANCH   8  11
ENDBRANCH   7   8
ENDBRANCH   1   7
BRANCH   6  13
ATOM     13  N   LIG d   1      -5.839  78.039 118.298  0.00  0.00    -0.311 N 
ATOM     14  C   LIG d   1      -4.948  78.178 117.319  0.00  0.00     0.210 C 
ATOM     15  C   LIG d   1      -3.503  78.383 117.783  0.00  0.00     0.109 C 
ATOM     16  O   LIG d   1      -5.222  78.182 116.109  0.00  0.00    -0.276 OA
ATOM     17  H   LIG d   1      -5.535  78.080 119.251  0.00  0.00     0.149 HD
ENDBRANCH   6  13
BRANCH   5  18
ATOM     18  N   LIG d   1      -7.898  80.247 117.831  0.00  0.00     0.381 N 
ATOM     19  H   LIG d   1      -8.583  80.932 118.083  0.00  0.00    -0.090 HD
ATOM     20  H   LIG d   1      -7.973  80.075 116.844  0.00  0.00    -0.090 HD
ATOM     21  H   LIG d   1      -6.986  80.584 118.049  0.00  0.00    -0.090 HD
ENDBRANCH   5  18
BRANCH   3  22
ATOM     22  C   LIG d   1     -11.280  77.213 119.346  0.00  0.00     0.382 C 
ATOM     23  O   LIG d   1     -12.176  76.831 118.555  0.00  0.00    -0.241 OA
ATOM     24  O   LIG d   1     -11.575  77.472 120.528  0.00  0.00    -0.241 OA
ENDBRANCH   3  22
TORSDOF 7
ENDMDL
MODEL 4
REMARK VINA RESULT:      -5.4      2.005      5.074
REMARK  7 active torsions:
REMARK  status: ('A' for Active; 'I' for Inactive)
REMARK    1  A    between atoms: C_2  and  C_3 
REMARK    2  A    between atoms: C_3  and  O_6 
REMARK    3  A    between atoms: C_3  and  C_4 
REMARK    4  A    between atoms: C_7  and  O_6 
REMARK    5  A    between atoms: C_9  and  C_10 
REMARK    6  A    between atoms: N_15  and  C_14 
REMARK    7  A    between atoms: N_20  and  C_19 
REMARK       I    between atoms: C_22  and  N_20 
ROOT
ATOM      1  C   LIG d   1      -7.857  76.115 117.346  0.00  0.00     0.161 C 
ATOM      2  C   LIG d   1      -8.033  74.750 117.067  0.00  0.00     0.016 C 
ATOM      3  C   LIG d   1      -7.122  73.988 116.300  0.00  0.00     0.038 C 
ATOM      4  C   LIG d   1      -5.887  74.508 115.884  0.00  0.00     0.028 C 
ATOM      5  C   LIG d   1      -5.895  76.023 115.711  0.00  0.00    -0.047 C 
ATOM      6  C   LIG d   1      -6.461  76.672 116.995  0.00  0.00     0.091 C 
ENDROOT
BRANCH   1   7
ATOM      7  O   LIG d   1      -8.166  76.375 118.730  0.00  0.00    -0.368 OA
BRANCH   7   8
ATOM      8  C   LIG d   1      -9.432  77.030 118.988  0.00  0.00     0.119 C 
BRANCH   8   9
ATOM      9  C   LIG d   1      -9.125  78.467 119.449  0.00  0.00     0.028 C 
ATOM     10  C   LIG d   1      -9.736  79.526 118.516  0.00  0.00     0.006 C 
ENDBRANCH   8   9
BRANCH   8  11
ATOM     11  C   LIG d   1     -10.168  76.376 120.161  0.00  0.00     0.028 C 
ATOM     12  C   LIG d   1     -11.664  76.729 120.197  0.00  0.00     0.006 C 
ENDBRANCH   8  11
ENDBRANCH   7   8
ENDBRANCH   1   7
BRANCH   6  13
ATOM     13  N   LIG d   1      -6.582  78.149 116.878  0.00  0.00    -0.311 N 
ATOM     14  C   LIG d   1      -5.925  79.003 117.661  0.00  0.00     0.210 C 
ATOM     15  C   LIG d   1      -6.209  80.482 117.385  0.00  0.00     0.109 C 
ATOM     16  O   LIG d   1      -5.110  78.676 118.536  0.00  0.00    -0.276 OA
ATOM     17  H   LIG d   1      -7.199  78.501 116.173  0.00  0.00     0.149 HD
ENDBRANCH   6  13
BRANCH   5  18
ATOM     18  N   LIG d   1      -4.514  76.445 115.410  0.00  0.00     0.381 N 
ATOM     19  H   LIG d   1      -4.479  77.440 115.306  0.00  0.00    -0.090 HD
ATOM     20  H   LIG d   1      -4.228  76.027 114.542  0.00  0.00    -0.090 HD
ATOM     21  H   LIG d   1      -3.903  76.159 116.143  0.00  0.00    -0.090 HD
ENDBRANCH   5  18
BRANCH   3  22
ATOM     22  C   LIG d   1      -7.461  72.702 115.907  0.00  0.00     0.382 C 
ATOM     23  O   LIG d   1      -8.570  72.218 116.238  0.00  0.00    -0.241 OA
ATOM     24  O   LIG d   1      -6.653  72.005 115.264  0.00  0.00    -0.241 OA
ENDBRANCH   3  22
TORSDOF 7
ENDMDL
MODEL 5
REMARK VINA RESULT:      -5.4      2.167      5.152
REMARK  7 active torsions:
REMARK  status: ('A' for Active; 'I' for Inactive)
REMARK    1  A    between atoms: C_2  and  C_3 
REMARK    2  A    between atoms: C_3  and  O_6 
REMARK    3  A    between atoms: C_3  and  C_4 
REMARK    4  A    between atoms: C_7  and  O_6 
REMARK    5  A    between atoms: C_9  and  C_10 
REMARK    6  A    between atoms: N_15  and  C_14 
REMARK    7  A    between atoms: N_20  and  C_19 
REMARK       I    between atoms: C_22  and  N_20 
ROOT
ATOM      1  C   LIG d   1      -5.566  75.997 116.110  0.00  0.00     0.161 C 
ATOM      2  C   LIG d   1      -5.923  74.709 115.676  0.00  0.00     0.016 C 
ATOM      3  C   LIG d   1      -7.112  74.056 116.073  0.00  0.00     0.038 C 
ATOM      4  C   LIG d   1      -8.106  74.711 116.816  0.00  0.00     0.028 C 
ATOM      5  C   LIG d   1      -7.563  75.832 117.696  0.00  0.00    -0.047 C 
ATOM      6  C   LIG d   1      -6.690  76.770 116.832  0.00  0.00     0.091 C 
ENDROOT
BRANCH   1   7
ATOM      7  O   LIG d   1      -5.063  76.765 114.999  0.00  0.00    -0.368 OA
BRANCH   7   8
ATOM      8  C   LIG d   1      -3.621  76.850 114.884  0.00  0.00     0.119 C 
BRANCH   8   9
ATOM      9  C   LIG d   1      -3.027  76.545 116.273  0.00  0.00     0.028 C 
ATOM     10  C   LIG d   1      -1.949  75.450 116.222  0.00  0.00     0.006 C 
ENDBRANCH   8   9
BRANCH   8  11
ATOM     11  C   LIG d   1      -3.172  78.277 114.556  0.00  0.00     0.028 C 
ATOM     12  C   LIG d   1      -3.254  79.221 115.765  0.00  0.00     0.006 C 
ENDBRANCH   8  11
ENDBRANCH   7   8
ENDBRANCH   1   7
BRANCH   6  13
ATOM     13  N   LIG d   1      -6.052  77.848 117.632  0.00  0.00    -0.311 N 
ATOM     14  C   LIG d   1      -6.577  79.063 117.776  0.00  0.00     0.210 C 
ATOM     15  C   LIG d   1      -5.747  80.030 118.627  0.00  0.00     0.109 C 
ATOM     16  O   LIG d   1      -7.667  79.423 117.307  0.00  0.00    -0.276 OA
ATOM     17  H   LIG d   1      -5.179  77.632 118.074  0.00  0.00     0.149 HD
ENDBRANCH   6  13
BRANCH   5  18
ATOM     18  N   LIG d   1      -8.718  76.517 118.307  0.00  0.00     0.381 N 
ATOM     19  H   LIG d   1      -9.490  76.514 117.670  0.00  0.00    -0.090 HD
ATOM     20  H   LIG d   1      -8.468  77.473 118.494  0.00  0.00    -0.090 HD
ATOM     21  H   LIG d   1      -8.975  76.062 119.155  0.00  0.00    -0.090 HD
ENDBRANCH   5  18
BRANCH   3  22
ATOM     22  C   LIG d   1      -7.299  72.718 115.759  0.00  0.00     0.382 C 
ATOM     23  O   LIG d   1      -8.324  72.117 116.162  0.00  0.00    -0.241 OA
ATOM     24  O   LIG d   1      -6.435  72.094 115.115  0.00  0.00    -0.241 OA
ENDBRANCH   3  22
TORSDOF 7
ENDMDL
MODEL 6
REMARK VINA RESULT:      -5.4      2.172      5.479
REMARK  7 active torsions:
REMARK  status: ('A' for Active; 'I' for Inactive)
REMARK    1  A    between atoms: C_2  and  C_3 
REMARK    2  A    between atoms: C_3  and  O_6 
REMARK    3  A    between atoms: C_3  and  C_4 
REMARK    4  A    between atoms: C_7  and  O_6 
REMARK    5  A    between atoms: C_9  and  C_10 
REMARK    6  A    between atoms: N_15  and  C_14 
REMARK    7  A    between atoms: N_20  and  C_19 
REMARK       I    between atoms: C_22  and  N_20 
ROOT
ATOM      1  C   LIG d   1      -5.064  76.532 115.808  0.00  0.00     0.161 C 
ATOM      2  C   LIG d   1      -3.867  75.838 115.563  0.00  0.00     0.016 C 
ATOM      3  C   LIG d   1      -2.755  75.873 116.435  0.00  0.00     0.038 C 
ATOM      4  C   LIG d   1      -2.819  76.486 117.695  0.00  0.00     0.028 C 
ATOM      5  C   LIG d   1      -3.833  77.623 117.764  0.00  0.00    -0.047 C 
ATOM      6  C   LIG d   1      -5.193  77.116 117.230  0.00  0.00     0.091 C 
ENDROOT
BRANCH   1   7
ATOM      7  O   LIG d   1      -6.190  75.684 115.511  0.00  0.00    -0.368 OA
BRANCH   7   8
ATOM      8  C   LIG d   1      -6.354  74.521 116.360  0.00  0.00     0.119 C 
BRANCH   8   9
ATOM      9  C   LIG d   1      -6.325  73.277 115.452  0.00  0.00     0.028 C 
ATOM     10  C   LIG d   1      -7.265  72.165 115.949  0.00  0.00     0.006 C 
ENDBRANCH   8   9
BRANCH   8  11
ATOM     11  C   LIG d   1      -7.734  74.506 117.025  0.00  0.00     0.028 C 
ATOM     12  C   LIG d   1      -8.678  75.581 116.462  0.00  0.00     0.006 C 
ENDBRANCH   8  11
ENDBRANCH   7   8
ENDBRANCH   1   7
BRANCH   6  13
ATOM     13  N   LIG d   1      -6.219  78.190 117.185  0.00  0.00    -0.311 N 
ATOM     14  C   LIG d   1      -7.091  78.414 118.167  0.00  0.00     0.210 C 
ATOM     15  C   LIG d   1      -8.077  79.557 117.908  0.00  0.00     0.109 C 
ATOM     16  O   LIG d   1      -7.119  77.795 119.241  0.00  0.00    -0.276 OA
ATOM     17  H   LIG d   1      -6.246  78.760 116.362  0.00  0.00     0.149 HD
ENDBRANCH   6  13
BRANCH   5  18
ATOM     18  N   LIG d   1      -3.896  78.080 119.165  0.00  0.00     0.381 N 
ATOM     19  H   LIG d   1      -3.897  79.080 119.195  0.00  0.00    -0.090 HD
ATOM     20  H   LIG d   1      -3.080  77.751 119.651  0.00  0.00    -0.090 HD
ATOM     21  H   LIG d   1      -4.717  77.726 119.603  0.00  0.00    -0.090 HD
ENDBRANCH   5  18
BRANCH   3  22
ATOM     22  C   LIG d   1      -1.548  75.322 116.031  0.00  0.00     0.382 C 
ATOM     23  O   LIG d   1      -1.051  74.364 116.671  0.00  0.00    -0.241 OA
ATOM     24  O   LIG d   1      -0.928  75.800 115.062  0.00  0.00    -0.241 OA
ENDBRANCH   3  22
TORSDOF 7
ENDMDL
MODEL 7
REMARK VINA RESULT:      -5.3     14.041     16.470
REMARK  7 active torsions:
REMARK  status: ('A' for Active; 'I' for Inactive)
REMARK    1  A    between atoms: C_2  and  C_3 
REMARK    2  A    between atoms: C_3  and  O_6 
REMARK    3  A    between atoms: C_3  and  C_4 
REMARK    4  A    between atoms: C_7  and  O_6 
REMARK    5  A    between atoms: C_9  and  C_10 
REMARK    6  A    between atoms: N_15  and  C_14 
REMARK    7  A    between atoms: N_20  and  C_19 
REMARK       I    between atoms: C_22  and  N_20 
ROOT
ATOM      1  C   LIG d   1      -5.666  91.457 118.882  0.00  0.00     0.161 C 
ATOM      2  C   LIG d   1      -5.852  90.557 117.819  0.00  0.00     0.016 C 
ATOM      3  C   LIG d   1      -6.747  90.790 116.750  0.00  0.00     0.038 C 
ATOM      4  C   LIG d   1      -7.410  92.016 116.591  0.00  0.00     0.028 C 
ATOM      5  C   LIG d   1      -7.639  92.755 117.905  0.00  0.00    -0.047 C 
ATOM      6  C   LIG d   1      -6.297  92.849 118.668  0.00  0.00     0.091 C 
ENDROOT
BRANCH   1   7
ATOM      7  O   LIG d   1      -4.260  91.585 119.174  0.00  0.00    -0.368 OA
BRANCH   7   8
ATOM      8  C   LIG d   1      -3.371  91.609 118.030  0.00  0.00     0.119 C 
BRANCH   8   9
ATOM      9  C   LIG d   1      -2.373  90.447 118.195  0.00  0.00     0.028 C 
ATOM     10  C   LIG d   1      -2.337  89.903 119.633  0.00  0.00     0.006 C 
ENDBRANCH   8   9
BRANCH   8  11
ATOM     11  C   LIG d   1      -2.516  92.879 118.016  0.00  0.00     0.028 C 
ATOM     12  C   LIG d   1      -2.728  93.754 119.262  0.00  0.00     0.006 C 
ENDBRANCH   8  11
ENDBRANCH   7   8
ENDBRANCH   1   7
BRANCH   6  13
ATOM     13  N   LIG d   1      -6.448  93.484 120.003  0.00  0.00    -0.311 N 
ATOM     14  C   LIG d   1      -6.269  94.786 120.220  0.00  0.00     0.210 C 
ATOM     15  C   LIG d   1      -6.454  95.231 121.674  0.00  0.00     0.109 C 
ATOM     16  O   LIG d   1      -6.007  95.620 119.340  0.00  0.00    -0.276 OA
ATOM     17  H   LIG d   1      -6.690  92.886 120.768  0.00  0.00     0.149 HD
ENDBRANCH   6  13
BRANCH   5  18
ATOM     18  N   LIG d   1      -8.212  94.075 117.580  0.00  0.00     0.381 N 
ATOM     19  H   LIG d   1      -7.509  94.781 117.669  0.00  0.00    -0.090 HD
ATOM     20  H   LIG d   1      -8.949  94.278 118.232  0.00  0.00    -0.090 HD
ATOM     21  H   LIG d   1      -8.573  94.070 116.651  0.00  0.00    -0.090 HD
ENDBRANCH   5  18
BRANCH   3  22
ATOM     22  C   LIG d   1      -7.017  89.773 115.846  0.00  0.00     0.382 C 
ATOM     23  O   LIG d   1      -8.112  89.163 115.897  0.00  0.00    -0.241 OA
ATOM     24  O   LIG d   1      -6.161  89.429 115.009  0.00  0.00    -0.241 OA
ENDBRANCH   3  22
TORSDOF 7
ENDMDL
MODEL 8
REMARK VINA RESULT:      -5.3      2.024      5.074
REMARK  7 active torsions:
REMARK  status: ('A' for Active; 'I' for Inactive)
REMARK    1  A    between atoms: C_2  and  C_3 
REMARK    2  A    between atoms: C_3  and  O_6 
REMARK    3  A    between atoms: C_3  and  C_4 
REMARK    4  A    between atoms: C_7  and  O_6 
REMARK    5  A    between atoms: C_9  and  C_10 
REMARK    6  A    between atoms: N_15  and  C_14 
REMARK    7  A    between atoms: N_20  and  C_19 
REMARK       I    between atoms: C_22  and  N_20 
ROOT
ATOM      1  C   LIG d   1      -7.502  76.147 117.546  0.00  0.00     0.161 C 
ATOM      2  C   LIG d   1      -7.770  74.799 117.255  0.00  0.00     0.016 C 
ATOM      3  C   LIG d   1      -7.011  74.034 116.339  0.00  0.00     0.038 C 
ATOM      4  C   LIG d   1      -5.831  74.526 115.761  0.00  0.00     0.028 C 
ATOM      5  C   LIG d   1      -5.806  76.046 115.637  0.00  0.00    -0.047 C 
ATOM      6  C   LIG d   1      -6.152  76.668 117.009  0.00  0.00     0.091 C 
ENDROOT
BRANCH   1   7
ATOM      7  O   LIG d   1      -7.595  76.368 118.967  0.00  0.00    -0.368 OA
BRANCH   7   8
ATOM      8  C   LIG d   1      -8.700  77.193 119.412  0.00  0.00     0.119 C 
BRANCH   8   9
ATOM      9  C   LIG d   1      -9.808  76.249 119.918  0.00  0.00     0.028 C 
ATOM     10  C   LIG d   1     -11.194  76.916 119.914  0.00  0.00     0.006 C 
ENDBRANCH   8   9
BRANCH   8  11
ATOM     11  C   LIG d   1      -9.325  77.964 118.246  0.00  0.00     0.028 C 
ATOM     12  C   LIG d   1      -9.152  79.485 118.377  0.00  0.00     0.006 C 
ENDBRANCH   8  11
ENDBRANCH   7   8
ENDBRANCH   1   7
BRANCH   6  13
ATOM     13  N   LIG d   1      -6.232  78.151 116.956  0.00  0.00    -0.311 N 
ATOM     14  C   LIG d   1      -5.218  78.952 117.281  0.00  0.00     0.210 C 
ATOM     15  C   LIG d   1      -5.519  80.450 117.175  0.00  0.00     0.109 C 
ATOM     16  O   LIG d   1      -4.089  78.563 117.616  0.00  0.00    -0.276 OA
ATOM     17  H   LIG d   1      -7.102  78.551 116.664  0.00  0.00     0.149 HD
ENDBRANCH   6  13
BRANCH   5  18
ATOM     18  N   LIG d   1      -4.468  76.431 115.149  0.00  0.00     0.381 N 
ATOM     19  H   LIG d   1      -4.105  75.713 114.554  0.00  0.00    -0.090 HD
ATOM     20  H   LIG d   1      -3.851  76.530 115.936  0.00  0.00    -0.090 HD
ATOM     21  H   LIG d   1      -4.522  77.291 114.649  0.00  0.00    -0.090 HD
ENDBRANCH   5  18
BRANCH   3  22
ATOM     22  C   LIG d   1      -7.453  72.775 115.962  0.00  0.00     0.382 C 
ATOM     23  O   LIG d   1      -6.709  72.026 115.285  0.00  0.00    -0.241 OA
ATOM     24  O   LIG d   1      -8.604  72.397 116.253  0.00  0.00    -0.241 OA
ENDBRANCH   3  22
TORSDOF 7
ENDMDL
MODEL 9
REMARK VINA RESULT:      -5.2      2.567      4.814
REMARK  7 active torsions:
REMARK  status: ('A' for Active; 'I' for Inactive)
REMARK    1  A    between atoms: C_2  and  C_3 
REMARK    2  A    between atoms: C_3  and  O_6 
REMARK    3  A    between atoms: C_3  and  C_4 
REMARK    4  A    between atoms: C_7  and  O_6 
REMARK    5  A    between atoms: C_9  and  C_10 
REMARK    6  A    between atoms: N_15  and  C_14 
REMARK    7  A    between atoms: N_20  and  C_19 
REMARK       I    between atoms: C_22  and  N_20 
ROOT
ATOM      1  C   LIG d   1      -5.913  76.263 116.132  0.00  0.00     0.161 C 
ATOM      2  C   LIG d   1      -5.647  77.621 116.374  0.00  0.00     0.016 C 
ATOM      3  C   LIG d   1      -6.423  78.424 117.241  0.00  0.00     0.038 C 
ATOM      4  C   LIG d   1      -7.435  77.881 118.046  0.00  0.00     0.028 C 
ATOM      5  C   LIG d   1      -8.066  76.622 117.461  0.00  0.00    -0.047 C 
ATOM      6  C   LIG d   1      -6.945  75.626 117.086  0.00  0.00     0.091 C 
ENDROOT
BRANCH   1   7
ATOM      7  O   LIG d   1      -4.683  75.513 116.151  0.00  0.00    -0.368 OA
BRANCH   7   8
ATOM      8  C   LIG d   1      -3.467  76.277 115.954  0.00  0.00     0.119 C 
BRANCH   8   9
ATOM      9  C   LIG d   1      -2.891  75.884 114.580  0.00  0.00     0.028 C 
ATOM     10  C   LIG d   1      -1.354  75.925 114.555  0.00  0.00     0.006 C 
ENDBRANCH   8   9
BRANCH   8  11
ATOM     11  C   LIG d   1      -2.392  75.885 116.972  0.00  0.00     0.028 C 
ATOM     12  C   LIG d   1      -2.440  76.739 118.249  0.00  0.00     0.006 C 
ENDBRANCH   8  11
ENDBRANCH   7   8
ENDBRANCH   1   7
BRANCH   6  13
ATOM     13  N   LIG d   1      -7.470  74.401 116.429  0.00  0.00    -0.311 N 
ATOM     14  C   LIG d   1      -7.786  73.291 117.092  0.00  0.00     0.210 C 
ATOM     15  C   LIG d   1      -8.291  72.137 116.219  0.00  0.00     0.109 C 
ATOM     16  O   LIG d   1      -7.725  73.161 118.324  0.00  0.00    -0.276 OA
ATOM     17  H   LIG d   1      -7.581  74.430 115.434  0.00  0.00     0.149 HD
ENDBRANCH   6  13
BRANCH   5  18
ATOM     18  N   LIG d   1      -9.005  76.085 118.464  0.00  0.00     0.381 N 
ATOM     19  H   LIG d   1      -8.518  75.896 119.317  0.00  0.00    -0.090 HD
ATOM     20  H   LIG d   1      -9.388  75.222 118.121  0.00  0.00    -0.090 HD
ATOM     21  H   LIG d   1      -9.738  76.740 118.629  0.00  0.00    -0.090 HD
ENDBRANCH   5  18
BRANCH   3  22
ATOM     22  C   LIG d   1      -6.216  79.794 117.278  0.00  0.00     0.382 C 
ATOM     23  O   LIG d   1      -5.054  80.249 117.406  0.00  0.00    -0.241 OA
ATOM     24  O   LIG d   1      -7.181  80.580 117.230  0.00  0.00    -0.241 OA
ENDBRANCH   3  22
TORSDOF 7
ENDMDL
