MODEL 1
REMARK VINA RESULT:      -5.8      0.000      0.000
REMARK  7 active torsions:
REMARK  status: ('A' for Active; 'I' for Inactive)
REMARK    1  A    between atoms: C_2  and  C_3 
REMARK    2  A    between atoms: C_3  and  O_6 
REMARK    3  A    between atoms: C_3  and  C_4 
REMARK    4  A    between atoms: C_7  and  O_6 
REMARK    5  A    between atoms: C_9  and  C_10 
REMARK    6  A    between atoms: N_15  and  C_14 
REMARK    7  A    between atoms: N_20  and  C_19 
REMARK       I    between atoms: C_22  and  N_20 
ROOT
ATOM      1  C   LIG d   1      -6.571  75.610 116.658  0.00  0.00     0.161 C 
ATOM      2  C   LIG d   1      -5.722  76.099 115.651  0.00  0.00     0.016 C 
ATOM      3  C   LIG d   1      -5.011  75.264 114.759  0.00  0.00     0.038 C 
ATOM      4  C   LIG d   1      -5.219  73.877 114.717  0.00  0.00     0.028 C 
ATOM      5  C   LIG d   1      -5.683  73.293 116.047  0.00  0.00    -0.047 C 
ATOM      6  C   LIG d   1      -6.896  74.105 116.555  0.00  0.00     0.091 C 
ENDROOT
BRANCH   1   7
ATOM      7  O   LIG d   1      -7.786  76.384 116.692  0.00  0.00    -0.368 OA
BRANCH   7   8
ATOM      8  C   LIG d   1      -8.167  76.917 117.985  0.00  0.00     0.119 C 
BRANCH   8   9
ATOM      9  C   LIG d   1      -9.616  76.472 118.260  0.00  0.00     0.028 C 
ATOM     10  C   LIG d   1     -10.403  77.510 119.078  0.00  0.00     0.006 C 
ENDBRANCH   8   9
BRANCH   8  11
ATOM     11  C   LIG d   1      -8.209  78.447 117.966  0.00  0.00     0.028 C 
ATOM     12  C   LIG d   1      -6.818  79.080 117.798  0.00  0.00     0.006 C 
ENDBRANCH   8  11
ENDBRANCH   7   8
ENDBRANCH   1   7
BRANCH   6  13
ATOM     13  N   LIG d   1      -7.361  73.653 117.893  0.00  0.00    -0.311 N 
ATOM     14  C   LIG d   1      -8.364  72.795 118.069  0.00  0.00     0.210 C 
ATOM     15  C   LIG d   1      -8.694  72.478 119.531  0.00  0.00     0.109 C 
ATOM     16  O   LIG d   1      -8.992  72.243 117.153  0.00  0.00    -0.276 OA
ATOM     17  H   LIG d   1      -6.886  74.028 118.691  0.00  0.00     0.149 HD
ENDBRANCH   6  13
BRANCH   5  18
ATOM     18  N   LIG d   1      -5.993  71.868 115.824  0.00  0.00     0.381 N 
ATOM     19  H   LIG d   1      -5.959  71.663 114.846  0.00  0.00    -0.090 HD
ATOM     20  H   LIG d   1      -6.925  71.683 116.152  0.00  0.00    -0.090 HD
ATOM     21  H   LIG d   1      -5.341  71.296 116.314  0.00  0.00    -0.090 HD
ENDBRANCH   5  18
BRANCH   3  22
ATOM     22  C   LIG d   1      -4.050  75.811 113.924  0.00  0.00     0.382 C 
ATOM     23  O   LIG d   1      -4.397  76.520 112.949  0.00  0.00    -0.241 OA
ATOM     24  O   LIG d   1      -2.842  75.569 114.106  0.00  0.00    -0.241 OA
ENDBRANCH   3  22
TORSDOF 7
ENDMDL
MODEL 2
REMARK VINA RESULT:      -5.6      2.306      4.436
REMARK  7 active torsions:
REMARK  status: ('A' for Active; 'I' for Inactive)
REMARK    1  A    between atoms: C_2  and  C_3 
REMARK    2  A    between atoms: C_3  and  O_6 
REMARK    3  A    between atoms: C_3  and  C_4 
REMARK    4  A    between atoms: C_7  and  O_6 
REMARK    5  A    between atoms: C_9  and  C_10 
REMARK    6  A    between atoms: N_15  and  C_14 
REMARK    7  A    between atoms: N_20  and  C_19 
REMARK       I    between atoms: C_22  and  N_20 
ROOT
ATOM      1  C   LIG d   1      -7.876  75.265 116.674  0.00  0.00     0.161 C 
ATOM      2  C   LIG d   1      -6.875  74.518 116.030  0.00  0.00     0.016 C 
ATOM      3  C   LIG d   1      -5.520  74.918 115.973  0.00  0.00     0.038 C 
ATOM      4  C   LIG d   1      -5.043  76.026 116.689  0.00  0.00     0.028 C 
ATOM      5  C   LIG d   1      -6.107  77.090 116.937  0.00  0.00    -0.047 C 
ATOM      6  C   LIG d   1      -7.354  76.419 117.556  0.00  0.00     0.091 C 
ENDROOT
BRANCH   1   7
ATOM      7  O   LIG d   1      -8.721  74.388 117.444  0.00  0.00    -0.368 OA
BRANCH   7   8
ATOM      8  C   LIG d   1      -8.137  73.122 117.838  0.00  0.00     0.119 C 
BRANCH   8   9
ATOM      9  C   LIG d   1      -8.896  72.009 117.090  0.00  0.00     0.028 C 
ATOM     10  C   LIG d   1      -8.791  70.649 117.799  0.00  0.00     0.006 C 
ENDBRANCH   8   9
BRANCH   8  11
ATOM     11  C   LIG d   1      -8.366  72.841 119.326  0.00  0.00     0.028 C 
ATOM     12  C   LIG d   1      -8.652  74.115 120.136  0.00  0.00     0.006 C 
ENDBRANCH   8  11
ENDBRANCH   7   8
ENDBRANCH   1   7
BRANCH   6  13
ATOM     13  N   LIG d   1      -8.474  77.376 117.752  0.00  0.00    -0.311 N 
ATOM     14  C   LIG d   1      -8.708  78.005 118.903  0.00  0.00     0.210 C 
ATOM     15  C   LIG d   1      -9.926  78.934 118.896  0.00  0.00     0.109 C 
ATOM     16  O   LIG d   1      -8.003  77.906 119.918  0.00  0.00    -0.276 OA
ATOM     17  H   LIG d   1      -9.078  77.539 116.970  0.00  0.00     0.149 HD
ENDBRANCH   6  13
BRANCH   5  18
ATOM     18  N   LIG d   1      -5.512  78.120 117.810  0.00  0.00     0.381 N 
ATOM     19  H   LIG d   1      -6.210  78.487 118.426  0.00  0.00    -0.090 HD
ATOM     20  H   LIG d   1      -5.169  78.872 117.238  0.00  0.00    -0.090 HD
ATOM     21  H   LIG d   1      -4.764  77.728 118.339  0.00  0.00    -0.090 HD
ENDBRANCH   5  18
BRANCH   3  22
ATOM     22  C   LIG d   1      -4.634  74.229 115.159  0.00  0.00     0.382 C 
ATOM     23  O   LIG d   1      -3.403  74.270 115.397  0.00  0.00    -0.241 OA
ATOM     24  O   LIG d   1      -5.046  73.604 114.163  0.00  0.00    -0.241 OA
ENDBRANCH   3  22
TORSDOF 7
ENDMDL
MODEL 3
REMARK VINA RESULT:      -5.3      3.949      6.376
REMARK  7 active torsions:
REMARK  status: ('A' for Active; 'I' for Inactive)
REMARK    1  A    between atoms: C_2  and  C_3 
REMARK    2  A    between atoms: C_3  and  O_6 
REMARK    3  A    between atoms: C_3  and  C_4 
REMARK    4  A    between atoms: C_7  and  O_6 
REMARK    5  A    between atoms: C_9  and  C_10 
REMARK    6  A    between atoms: N_15  and  C_14 
REMARK    7  A    between atoms: N_20  and  C_19 
REMARK       I    between atoms: C_22  and  N_20 
ROOT
ATOM      1  C   LIG d   1      -2.989  74.739 115.966  0.00  0.00     0.161 C 
ATOM      2  C   LIG d   1      -2.568  73.982 117.072  0.00  0.00     0.016 C 
ATOM      3  C   LIG d   1      -1.211  73.826 117.437  0.00  0.00     0.038 C 
ATOM      4  C   LIG d   1      -0.185  74.544 116.804  0.00  0.00     0.028 C 
ATOM      5  C   LIG d   1      -0.512  74.925 115.364  0.00  0.00    -0.047 C 
ATOM      6  C   LIG d   1      -1.893  75.620 115.330  0.00  0.00     0.091 C 
ENDROOT
BRANCH   1   7
ATOM      7  O   LIG d   1      -4.129  75.542 116.328  0.00  0.00    -0.368 OA
BRANCH   7   8
ATOM      8  C   LIG d   1      -5.429  74.945 116.098  0.00  0.00     0.119 C 
BRANCH   8   9
ATOM      9  C   LIG d   1      -5.229  73.760 115.133  0.00  0.00     0.028 C 
ATOM     10  C   LIG d   1      -5.835  72.454 115.674  0.00  0.00     0.006 C 
ENDBRANCH   8   9
BRANCH   8  11
ATOM     11  C   LIG d   1      -6.364  75.912 115.365  0.00  0.00     0.028 C 
ATOM     12  C   LIG d   1      -6.245  75.812 113.836  0.00  0.00     0.006 C 
ENDBRANCH   8  11
ENDBRANCH   7   8
ENDBRANCH   1   7
BRANCH   6  13
ATOM     13  N   LIG d   1      -2.327  75.950 113.948  0.00  0.00    -0.311 N 
ATOM     14  C   LIG d   1      -2.852  77.126 113.605  0.00  0.00     0.210 C 
ATOM     15  C   LIG d   1      -3.251  77.251 112.132  0.00  0.00     0.109 C 
ATOM     16  O   LIG d   1      -2.995  78.087 114.375  0.00  0.00    -0.276 OA
ATOM     17  H   LIG d   1      -2.218  75.238 113.252  0.00  0.00     0.149 HD
ENDBRANCH   6  13
BRANCH   5  18
ATOM     18  N   LIG d   1       0.580  75.785 114.872  0.00  0.00     0.381 N 
ATOM     19  H   LIG d   1       1.074  75.318 114.137  0.00  0.00    -0.090 HD
ATOM     20  H   LIG d   1       1.223  75.957 115.624  0.00  0.00    -0.090 HD
ATOM     21  H   LIG d   1       0.211  76.648 114.537  0.00  0.00    -0.090 HD
ENDBRANCH   5  18
BRANCH   3  22
ATOM     22  C   LIG d   1      -0.865  72.911 118.420  0.00  0.00     0.382 C 
ATOM     23  O   LIG d   1      -0.209  71.885 118.119  0.00  0.00    -0.241 OA
ATOM     24  O   LIG d   1      -1.239  73.077 119.596  0.00  0.00    -0.241 OA
ENDBRANCH   3  22
TORSDOF 7
ENDMDL
MODEL 4
REMARK VINA RESULT:      -5.3      2.203      5.028
REMARK  7 active torsions:
REMARK  status: ('A' for Active; 'I' for Inactive)
REMARK    1  A    between atoms: C_2  and  C_3 
REMARK    2  A    between atoms: C_3  and  O_6 
REMARK    3  A    between atoms: C_3  and  C_4 
REMARK    4  A    between atoms: C_7  and  O_6 
REMARK    5  A    between atoms: C_9  and  C_10 
REMARK    6  A    between atoms: N_15  and  C_14 
REMARK    7  A    between atoms: N_20  and  C_19 
REMARK       I    between atoms: C_22  and  N_20 
ROOT
ATOM      1  C   LIG d   1      -6.471  76.146 117.004  0.00  0.00     0.161 C 
ATOM      2  C   LIG d   1      -6.208  77.522 117.112  0.00  0.00     0.016 C 
ATOM      3  C   LIG d   1      -7.082  78.434 117.747  0.00  0.00     0.038 C 
ATOM      4  C   LIG d   1      -8.215  78.004 118.454  0.00  0.00     0.028 C 
ATOM      5  C   LIG d   1      -8.786  76.686 117.942  0.00  0.00    -0.047 C 
ATOM      6  C   LIG d   1      -7.648  75.643 117.866  0.00  0.00     0.091 C 
ENDROOT
BRANCH   1   7
ATOM      7  O   LIG d   1      -5.276  75.396 117.299  0.00  0.00    -0.368 OA
BRANCH   7   8
ATOM      8  C   LIG d   1      -4.371  75.177 116.189  0.00  0.00     0.119 C 
BRANCH   8   9
ATOM      9  C   LIG d   1      -5.149  74.411 115.101  0.00  0.00     0.028 C 
ATOM     10  C   LIG d   1      -5.447  72.958 115.506  0.00  0.00     0.006 C 
ENDBRANCH   8   9
BRANCH   8  11
ATOM     11  C   LIG d   1      -3.215  74.253 116.587  0.00  0.00     0.028 C 
ATOM     12  C   LIG d   1      -1.979  74.426 115.691  0.00  0.00     0.006 C 
ENDBRANCH   8  11
ENDBRANCH   7   8
ENDBRANCH   1   7
BRANCH   6  13
ATOM     13  N   LIG d   1      -8.102  74.349 117.295  0.00  0.00    -0.311 N 
ATOM     14  C   LIG d   1      -8.466  73.306 118.039  0.00  0.00     0.210 C 
ATOM     15  C   LIG d   1      -8.882  72.061 117.250  0.00  0.00     0.109 C 
ATOM     16  O   LIG d   1      -8.514  73.304 119.279  0.00  0.00    -0.276 OA
ATOM     17  H   LIG d   1      -8.124  74.273 116.296  0.00  0.00     0.149 HD
ENDBRANCH   6  13
BRANCH   5  18
ATOM     18  N   LIG d   1      -9.875  76.288 118.853  0.00  0.00     0.381 N 
ATOM     19  H   LIG d   1      -9.681  76.618 119.777  0.00  0.00    -0.090 HD
ATOM     20  H   LIG d   1      -9.926  75.285 118.881  0.00  0.00    -0.090 HD
ATOM     21  H   LIG d   1     -10.741  76.663 118.534  0.00  0.00    -0.090 HD
ENDBRANCH   5  18
BRANCH   3  22
ATOM     22  C   LIG d   1      -6.848  79.796 117.644  0.00  0.00     0.382 C 
ATOM     23  O   LIG d   1      -5.670  80.230 117.621  0.00  0.00    -0.241 OA
ATOM     24  O   LIG d   1      -7.798  80.601 117.617  0.00  0.00    -0.241 OA
ENDBRANCH   3  22
TORSDOF 7
ENDMDL
MODEL 5
REMARK VINA RESULT:      -5.3      4.524      6.280
REMARK  7 active torsions:
REMARK  status: ('A' for Active; 'I' for Inactive)
REMARK    1  A    between atoms: C_2  and  C_3 
REMARK    2  A    between atoms: C_3  and  O_6 
REMARK    3  A    between atoms: C_3  and  C_4 
REMARK    4  A    between atoms: C_7  and  O_6 
REMARK    5  A    between atoms: C_9  and  C_10 
REMARK    6  A    between atoms: N_15  and  C_14 
REMARK    7  A    between atoms: N_20  and  C_19 
REMARK       I    between atoms: C_22  and  N_20 
ROOT
ATOM      1  C   LIG d   1      -1.553  78.268 115.260  0.00  0.00     0.161 C 
ATOM      2  C   LIG d   1      -1.964  79.484 114.689  0.00  0.00     0.016 C 
ATOM      3  C   LIG d   1      -2.254  79.638 113.313  0.00  0.00     0.038 C 
ATOM      4  C   LIG d   1      -2.299  78.543 112.438  0.00  0.00     0.028 C 
ATOM      5  C   LIG d   1      -1.401  77.387 112.867  0.00  0.00    -0.047 C 
ATOM      6  C   LIG d   1      -1.704  77.037 114.342  0.00  0.00     0.091 C 
ENDROOT
BRANCH   1   7
ATOM      7  O   LIG d   1      -2.250  78.053 116.504  0.00  0.00    -0.368 OA
BRANCH   7   8
ATOM      8  C   LIG d   1      -3.668  77.777 116.401  0.00  0.00     0.119 C 
BRANCH   8   9
ATOM      9  C   LIG d   1      -4.414  78.909 117.133  0.00  0.00     0.028 C 
ATOM     10  C   LIG d   1      -5.879  78.548 117.434  0.00  0.00     0.006 C 
ENDBRANCH   8   9
BRANCH   8  11
ATOM     11  C   LIG d   1      -4.042  76.494 117.149  0.00  0.00     0.028 C 
ATOM     12  C   LIG d   1      -2.965  76.056 118.155  0.00  0.00     0.006 C 
ENDBRANCH   8  11
ENDBRANCH   7   8
ENDBRANCH   1   7
BRANCH   6  13
ATOM     13  N   LIG d   1      -0.810  75.972 114.867  0.00  0.00    -0.311 N 
ATOM     14  C   LIG d   1      -1.228  74.741 115.156  0.00  0.00     0.210 C 
ATOM     15  C   LIG d   1      -0.148  73.803 115.704  0.00  0.00     0.109 C 
ATOM     16  O   LIG d   1      -2.384  74.327 114.980  0.00  0.00    -0.276 OA
ATOM     17  H   LIG d   1       0.151  76.213 115.010  0.00  0.00     0.149 HD
ENDBRANCH   6  13
BRANCH   5  18
ATOM     18  N   LIG d   1      -1.650  76.263 111.944  0.00  0.00     0.381 N 
ATOM     19  H   LIG d   1      -2.602  75.965 112.021  0.00  0.00    -0.090 HD
ATOM     20  H   LIG d   1      -1.056  75.494 112.201  0.00  0.00    -0.090 HD
ATOM     21  H   LIG d   1      -1.457  76.543 111.007  0.00  0.00    -0.090 HD
ENDBRANCH   5  18
BRANCH   3  22
ATOM     22  C   LIG d   1      -2.465  80.906 112.793  0.00  0.00     0.382 C 
ATOM     23  O   LIG d   1      -1.490  81.593 112.403  0.00  0.00    -0.241 OA
ATOM     24  O   LIG d   1      -3.612  81.389 112.751  0.00  0.00    -0.241 OA
ENDBRANCH   3  22
TORSDOF 7
ENDMDL
MODEL 6
REMARK VINA RESULT:      -5.1      2.237      5.093
REMARK  7 active torsions:
REMARK  status: ('A' for Active; 'I' for Inactive)
REMARK    1  A    between atoms: C_2  and  C_3 
REMARK    2  A    between atoms: C_3  and  O_6 
REMARK    3  A    between atoms: C_3  and  C_4 
REMARK    4  A    between atoms: C_7  and  O_6 
REMARK    5  A    between atoms: C_9  and  C_10 
REMARK    6  A    between atoms: N_15  and  C_14 
REMARK    7  A    between atoms: N_20  and  C_19 
REMARK       I    between atoms: C_22  and  N_20 
ROOT
ATOM      1  C   LIG d   1      -8.189  75.258 117.011  0.00  0.00     0.161 C 
ATOM      2  C   LIG d   1      -8.108  76.596 117.429  0.00  0.00     0.016 C 
ATOM      3  C   LIG d   1      -8.224  76.998 118.779  0.00  0.00     0.038 C 
ATOM      4  C   LIG d   1      -8.278  76.068 119.828  0.00  0.00     0.028 C 
ATOM      5  C   LIG d   1      -8.869  74.724 119.415  0.00  0.00    -0.047 C 
ATOM      6  C   LIG d   1      -8.136  74.220 118.151  0.00  0.00     0.091 C 
ENDROOT
BRANCH   1   7
ATOM      7  O   LIG d   1      -7.159  74.987 116.039  0.00  0.00    -0.368 OA
BRANCH   7   8
ATOM      8  C   LIG d   1      -5.892  74.521 116.565  0.00  0.00     0.119 C 
BRANCH   8   9
ATOM      9  C   LIG d   1      -4.935  75.727 116.601  0.00  0.00     0.028 C 
ATOM     10  C   LIG d   1      -4.524  76.108 118.033  0.00  0.00     0.006 C 
ENDBRANCH   8   9
BRANCH   8  11
ATOM     11  C   LIG d   1      -5.235  73.509 115.621  0.00  0.00     0.028 C 
ATOM     12  C   LIG d   1      -5.904  72.127 115.670  0.00  0.00     0.006 C 
ENDBRANCH   8  11
ENDBRANCH   7   8
ENDBRANCH   1   7
BRANCH   6  13
ATOM     13  N   LIG d   1      -8.709  72.951 117.632  0.00  0.00    -0.311 N 
ATOM     14  C   LIG d   1      -8.397  71.751 118.120  0.00  0.00     0.210 C 
ATOM     15  C   LIG d   1      -9.086  70.572 117.427  0.00  0.00     0.109 C 
ATOM     16  O   LIG d   1      -7.640  71.555 119.082  0.00  0.00    -0.276 OA
ATOM     17  H   LIG d   1      -9.356  73.020 116.871  0.00  0.00     0.149 HD
ENDBRANCH   6  13
BRANCH   5  18
ATOM     18  N   LIG d   1      -8.738  73.808 120.564  0.00  0.00     0.381 N 
ATOM     19  H   LIG d   1      -8.174  73.023 120.308  0.00  0.00    -0.090 HD
ATOM     20  H   LIG d   1      -9.650  73.472 120.817  0.00  0.00    -0.090 HD
ATOM     21  H   LIG d   1      -8.326  74.285 121.335  0.00  0.00    -0.090 HD
ENDBRANCH   5  18
BRANCH   3  22
ATOM     22  C   LIG d   1      -8.328  78.346 119.089  0.00  0.00     0.382 C 
ATOM     23  O   LIG d   1      -8.348  78.714 120.288  0.00  0.00    -0.241 OA
ATOM     24  O   LIG d   1      -8.445  79.195 118.184  0.00  0.00    -0.241 OA
ENDBRANCH   3  22
TORSDOF 7
ENDMDL
MODEL 7
REMARK VINA RESULT:      -5.0     11.314     13.506
REMARK  7 active torsions:
REMARK  status: ('A' for Active; 'I' for Inactive)
REMARK    1  A    between atoms: C_2  and  C_3 
REMARK    2  A    between atoms: C_3  and  O_6 
REMARK    3  A    between atoms: C_3  and  C_4 
REMARK    4  A    between atoms: C_7  and  O_6 
REMARK    5  A    between atoms: C_9  and  C_10 
REMARK    6  A    between atoms: N_15  and  C_14 
REMARK    7  A    between atoms: N_20  and  C_19 
REMARK       I    between atoms: C_22  and  N_20 
ROOT
ATOM      1  C   LIG d   1     -15.716  66.080 117.816  0.00  0.00     0.161 C 
ATOM      2  C   LIG d   1     -16.144  65.704 116.532  0.00  0.00     0.016 C 
ATOM      3  C   LIG d   1     -16.567  66.629 115.551  0.00  0.00     0.038 C 
ATOM      4  C   LIG d   1     -16.446  68.014 115.736  0.00  0.00     0.028 C 
ATOM      5  C   LIG d   1     -16.493  68.436 117.201  0.00  0.00    -0.047 C 
ATOM      6  C   LIG d   1     -15.471  67.593 117.998  0.00  0.00     0.091 C 
ENDROOT
BRANCH   1   7
ATOM      7  O   LIG d   1     -14.535  65.335 118.175  0.00  0.00    -0.368 OA
BRANCH   7   8
ATOM      8  C   LIG d   1     -14.709  64.317 119.191  0.00  0.00     0.119 C 
BRANCH   8   9
ATOM      9  C   LIG d   1     -13.515  64.422 120.160  0.00  0.00     0.028 C 
ATOM     10  C   LIG d   1     -12.646  63.153 120.160  0.00  0.00     0.006 C 
ENDBRANCH   8   9
BRANCH   8  11
ATOM     11  C   LIG d   1     -14.622  62.911 118.591  0.00  0.00     0.028 C 
ATOM     12  C   LIG d   1     -16.000  62.319 118.257  0.00  0.00     0.006 C 
ENDBRANCH   8  11
ENDBRANCH   7   8
ENDBRANCH   1   7
BRANCH   6  13
ATOM     13  N   LIG d   1     -15.512  67.883 119.456  0.00  0.00    -0.311 N 
ATOM     14  C   LIG d   1     -14.423  68.099 120.191  0.00  0.00     0.210 C 
ATOM     15  C   LIG d   1     -14.687  68.359 121.677  0.00  0.00     0.109 C 
ATOM     16  O   LIG d   1     -13.265  68.131 119.747  0.00  0.00    -0.276 OA
ATOM     17  H   LIG d   1     -16.414  67.906 119.891  0.00  0.00     0.149 HD
ENDBRANCH   6  13
BRANCH   5  18
ATOM     18  N   LIG d   1     -16.218  69.884 117.257  0.00  0.00     0.381 N 
ATOM     19  H   LIG d   1     -15.698  70.161 116.449  0.00  0.00    -0.090 HD
ATOM     20  H   LIG d   1     -15.662  70.077 118.072  0.00  0.00    -0.090 HD
ATOM     21  H   LIG d   1     -17.074  70.392 117.301  0.00  0.00    -0.090 HD
ENDBRANCH   5  18
BRANCH   3  22
ATOM     22  C   LIG d   1     -17.156  66.170 114.382  0.00  0.00     0.382 C 
ATOM     23  O   LIG d   1     -17.311  66.949 113.410  0.00  0.00    -0.241 OA
ATOM     24  O   LIG d   1     -17.574  65.000 114.303  0.00  0.00    -0.241 OA
ENDBRANCH   3  22
TORSDOF 7
ENDMDL
MODEL 8
REMARK VINA RESULT:      -5.0      2.402      5.784
REMARK  7 active torsions:
REMARK  status: ('A' for Active; 'I' for Inactive)
REMARK    1  A    between atoms: C_2  and  C_3 
REMARK    2  A    between atoms: C_3  and  O_6 
REMARK    3  A    between atoms: C_3  and  C_4 
REMARK    4  A    between atoms: C_7  and  O_6 
REMARK    5  A    between atoms: C_9  and  C_10 
REMARK    6  A    between atoms: N_15  and  C_14 
REMARK    7  A    between atoms: N_20  and  C_19 
REMARK       I    between atoms: C_22  and  N_20 
ROOT
ATOM      1  C   LIG d   1      -5.505  74.494 116.778  0.00  0.00     0.161 C 
ATOM      2  C   LIG d   1      -6.147  73.251 116.652  0.00  0.00     0.016 C 
ATOM      3  C   LIG d   1      -7.455  73.000 117.125  0.00  0.00     0.038 C 
ATOM      4  C   LIG d   1      -8.273  74.024 117.624  0.00  0.00     0.028 C 
ATOM      5  C   LIG d   1      -7.489  75.181 118.234  0.00  0.00    -0.047 C 
ATOM      6  C   LIG d   1      -6.422  75.654 117.221  0.00  0.00     0.091 C 
ENDROOT
BRANCH   1   7
ATOM      7  O   LIG d   1      -4.836  74.827 115.546  0.00  0.00    -0.368 OA
BRANCH   7   8
ATOM      8  C   LIG d   1      -3.417  74.542 115.493  0.00  0.00     0.119 C 
BRANCH   8   9
ATOM      9  C   LIG d   1      -2.879  74.602 116.936  0.00  0.00     0.028 C 
ATOM     10  C   LIG d   1      -1.736  73.602 117.179  0.00  0.00     0.006 C 
ENDBRANCH   8   9
BRANCH   8  11
ATOM     11  C   LIG d   1      -2.657  75.632 114.731  0.00  0.00     0.028 C 
ATOM     12  C   LIG d   1      -3.136  77.049 115.083  0.00  0.00     0.006 C 
ENDBRANCH   8  11
ENDBRANCH   7   8
ENDBRANCH   1   7
BRANCH   6  13
ATOM     13  N   LIG d   1      -5.555  76.729 117.770  0.00  0.00    -0.311 N 
ATOM     14  C   LIG d   1      -5.777  78.026 117.565  0.00  0.00     0.210 C 
ATOM     15  C   LIG d   1      -4.750  78.966 118.205  0.00  0.00     0.109 C 
ATOM     16  O   LIG d   1      -6.744  78.488 116.942  0.00  0.00    -0.276 OA
ATOM     17  H   LIG d   1      -4.765  76.444 118.315  0.00  0.00     0.149 HD
ENDBRANCH   6  13
BRANCH   5  18
ATOM     18  N   LIG d   1      -8.457  76.237 118.589  0.00  0.00     0.381 N 
ATOM     19  H   LIG d   1      -8.257  77.068 118.070  0.00  0.00    -0.090 HD
ATOM     20  H   LIG d   1      -8.365  76.446 119.567  0.00  0.00    -0.090 HD
ATOM     21  H   LIG d   1      -9.384  75.929 118.393  0.00  0.00    -0.090 HD
ENDBRANCH   5  18
BRANCH   3  22
ATOM     22  C   LIG d   1      -7.944  71.702 117.136  0.00  0.00     0.382 C 
ATOM     23  O   LIG d   1      -9.128  71.475 116.791  0.00  0.00    -0.241 OA
ATOM     24  O   LIG d   1      -7.228  70.761 117.531  0.00  0.00    -0.241 OA
ENDBRANCH   3  22
TORSDOF 7
ENDMDL
MODEL 9
REMARK VINA RESULT:      -4.8     11.063     13.492
REMARK  7 active torsions:
REMARK  status: ('A' for Active; 'I' for Inactive)
REMARK    1  A    between atoms: C_2  and  C_3 
REMARK    2  A    between atoms: C_3  and  O_6 
REMARK    3  A    between atoms: C_3  and  C_4 
REMARK    4  A    between atoms: C_7  and  O_6 
REMARK    5  A    between atoms: C_9  and  C_10 
REMARK    6  A    between atoms: N_15  and  C_14 
REMARK    7  A    between atoms: N_20  and  C_19 
REMARK       I    between atoms: C_22  and  N_20 
ROOT
ATOM      1  C   LIG d   1     -14.896  66.358 117.518  0.00  0.00     0.161 C 
ATOM      2  C   LIG d   1     -14.307  66.819 118.707  0.00  0.00     0.016 C 
ATOM      3  C   LIG d   1     -14.732  67.985 119.384  0.00  0.00     0.038 C 
ATOM      4  C   LIG d   1     -15.882  68.690 118.998  0.00  0.00     0.028 C 
ATOM      5  C   LIG d   1     -16.207  68.551 117.514  0.00  0.00    -0.047 C 
ATOM      6  C   LIG d   1     -16.223  67.051 117.142  0.00  0.00     0.091 C 
ENDROOT
BRANCH   1   7
ATOM      7  O   LIG d   1     -15.080  64.930 117.585  0.00  0.00    -0.368 OA
BRANCH   7   8
ATOM      8  C   LIG d   1     -15.167  64.360 118.915  0.00  0.00     0.119 C 
BRANCH   8   9
ATOM      9  C   LIG d   1     -14.386  63.032 118.902  0.00  0.00     0.028 C 
ATOM     10  C   LIG d   1     -13.076  63.114 119.705  0.00  0.00     0.006 C 
ENDBRANCH   8   9
BRANCH   8  11
ATOM     11  C   LIG d   1     -16.609  63.979 119.264  0.00  0.00     0.028 C 
ATOM     12  C   LIG d   1     -17.312  65.036 120.130  0.00  0.00     0.006 C 
ENDBRANCH   8  11
ENDBRANCH   7   8
ENDBRANCH   1   7
BRANCH   6  13
ATOM     13  N   LIG d   1     -16.450  66.830 115.690  0.00  0.00    -0.311 N 
ATOM     14  C   LIG d   1     -17.646  66.565 115.167  0.00  0.00     0.210 C 
ATOM     15  C   LIG d   1     -17.655  66.351 113.650  0.00  0.00     0.109 C 
ATOM     16  O   LIG d   1     -18.705  66.519 115.810  0.00  0.00    -0.276 OA
ATOM     17  H   LIG d   1     -15.649  66.880 115.090  0.00  0.00     0.149 HD
ENDBRANCH   6  13
BRANCH   5  18
ATOM     18  N   LIG d   1     -17.500  69.220 117.277  0.00  0.00     0.381 N 
ATOM     19  H   LIG d   1     -18.202  68.820 117.867  0.00  0.00    -0.090 HD
ATOM     20  H   LIG d   1     -17.772  69.073 116.321  0.00  0.00    -0.090 HD
ATOM     21  H   LIG d   1     -17.419  70.196 117.460  0.00  0.00    -0.090 HD
ENDBRANCH   5  18
BRANCH   3  22
ATOM     22  C   LIG d   1     -13.980  68.479 120.439  0.00  0.00     0.382 C 
ATOM     23  O   LIG d   1     -12.728  68.476 120.372  0.00  0.00    -0.241 OA
ATOM     24  O   LIG d   1     -14.538  68.888 121.476  0.00  0.00    -0.241 OA
ENDBRANCH   3  22
TORSDOF 7
ENDMDL
