MODEL 1
REMARK VINA RESULT:      -5.8      0.000      0.000
REMARK  7 active torsions:
REMARK  status: ('A' for Active; 'I' for Inactive)
REMARK    1  A    between atoms: C_2  and  C_3 
REMARK    2  A    between atoms: C_3  and  O_6 
REMARK    3  A    between atoms: C_3  and  C_4 
REMARK    4  A    between atoms: C_7  and  O_6 
REMARK    5  A    between atoms: C_9  and  C_10 
REMARK    6  A    between atoms: N_15  and  C_14 
REMARK    7  A    between atoms: N_20  and  C_19 
REMARK       I    between atoms: C_22  and  N_20 
ROOT
ATOM      1  C   LIG d   1      -8.146  75.843 117.936  0.00  0.00     0.161 C 
ATOM      2  C   LIG d   1      -9.513  75.826 118.258  0.00  0.00     0.016 C 
ATOM      3  C   LIG d   1     -10.234  76.976 118.655  0.00  0.00     0.038 C 
ATOM      4  C   LIG d   1      -9.667  78.258 118.610  0.00  0.00     0.028 C 
ATOM      5  C   LIG d   1      -8.151  78.257 118.776  0.00  0.00    -0.047 C 
ATOM      6  C   LIG d   1      -7.537  77.252 117.775  0.00  0.00     0.091 C 
ENDROOT
BRANCH   1   7
ATOM      7  O   LIG d   1      -7.913  75.058 116.751  0.00  0.00    -0.368 OA
BRANCH   7   8
ATOM      8  C   LIG d   1      -7.380  73.727 116.962  0.00  0.00     0.119 C 
BRANCH   8   9
ATOM      9  C   LIG d   1      -6.416  73.424 115.798  0.00  0.00     0.028 C 
ATOM     10  C   LIG d   1      -5.857  74.703 115.151  0.00  0.00     0.006 C 
ENDBRANCH   8   9
BRANCH   8  11
ATOM     11  C   LIG d   1      -8.479  72.665 116.866  0.00  0.00     0.028 C 
ATOM     12  C   LIG d   1      -7.928  71.266 116.545  0.00  0.00     0.006 C 
ENDBRANCH   8  11
ENDBRANCH   7   8
ENDBRANCH   1   7
BRANCH   6  13
ATOM     13  N   LIG d   1      -6.065  77.126 117.928  0.00  0.00    -0.311 N 
ATOM     14  C   LIG d   1      -5.190  77.822 117.204  0.00  0.00     0.210 C 
ATOM     15  C   LIG d   1      -3.718  77.525 117.508  0.00  0.00     0.109 C 
ATOM     16  O   LIG d   1      -5.493  78.679 116.361  0.00  0.00    -0.276 OA
ATOM     17  H   LIG d   1      -5.731  76.475 118.612  0.00  0.00     0.149 HD
ENDBRANCH   6  13
BRANCH   5  18
ATOM     18  N   LIG d   1      -7.679  79.639 118.572  0.00  0.00     0.381 N 
ATOM     19  H   LIG d   1      -7.403  79.765 117.619  0.00  0.00    -0.090 HD
ATOM     20  H   LIG d   1      -6.877  79.798 119.156  0.00  0.00    -0.090 HD
ATOM     21  H   LIG d   1      -8.401  80.284 118.804  0.00  0.00    -0.090 HD
ENDBRANCH   5  18
BRANCH   3  22
ATOM     22  C   LIG d   1     -11.526  76.844 119.140  0.00  0.00     0.382 C 
ATOM     23  O   LIG d   1     -12.479  76.665 118.344  0.00  0.00    -0.241 OA
ATOM     24  O   LIG d   1     -11.756  76.946 120.360  0.00  0.00    -0.241 OA
ENDBRANCH   3  22
TORSDOF 7
ENDMDL
MODEL 2
REMARK VINA RESULT:      -5.7      2.111      4.973
REMARK  7 active torsions:
REMARK  status: ('A' for Active; 'I' for Inactive)
REMARK    1  A    between atoms: C_2  and  C_3 
REMARK    2  A    between atoms: C_3  and  O_6 
REMARK    3  A    between atoms: C_3  and  C_4 
REMARK    4  A    between atoms: C_7  and  O_6 
REMARK    5  A    between atoms: C_9  and  C_10 
REMARK    6  A    between atoms: N_15  and  C_14 
REMARK    7  A    between atoms: N_20  and  C_19 
REMARK       I    between atoms: C_22  and  N_20 
ROOT
ATOM      1  C   LIG d   1      -7.615  75.527 117.609  0.00  0.00     0.161 C 
ATOM      2  C   LIG d   1      -8.268  74.283 117.576  0.00  0.00     0.016 C 
ATOM      3  C   LIG d   1      -7.842  73.202 116.771  0.00  0.00     0.038 C 
ATOM      4  C   LIG d   1      -6.638  73.242 116.052  0.00  0.00     0.028 C 
ATOM      5  C   LIG d   1      -6.213  74.653 115.659  0.00  0.00    -0.047 C 
ATOM      6  C   LIG d   1      -6.236  75.552 116.916  0.00  0.00     0.091 C 
ENDROOT
BRANCH   1   7
ATOM      7  O   LIG d   1      -7.500  75.983 118.971  0.00  0.00    -0.368 OA
BRANCH   7   8
ATOM      8  C   LIG d   1      -8.310  77.129 119.330  0.00  0.00     0.119 C 
BRANCH   8   9
ATOM      9  C   LIG d   1      -9.583  76.600 120.018  0.00  0.00     0.028 C 
ATOM     10  C   LIG d   1     -10.838  76.777 119.147  0.00  0.00     0.006 C 
ENDBRANCH   8   9
BRANCH   8  11
ATOM     11  C   LIG d   1      -8.801  77.876 118.087  0.00  0.00     0.028 C 
ATOM     12  C   LIG d   1      -8.362  79.348 118.063  0.00  0.00     0.006 C 
ENDBRANCH   8  11
ENDBRANCH   7   8
ENDBRANCH   1   7
BRANCH   6  13
ATOM     13  N   LIG d   1      -5.915  76.969 116.605  0.00  0.00    -0.311 N 
ATOM     14  C   LIG d   1      -5.009  77.680 117.276  0.00  0.00     0.210 C 
ATOM     15  C   LIG d   1      -4.847  79.129 116.805  0.00  0.00     0.109 C 
ATOM     16  O   LIG d   1      -4.302  77.238 118.194  0.00  0.00    -0.276 OA
ATOM     17  H   LIG d   1      -6.420  77.397 115.854  0.00  0.00     0.149 HD
ENDBRANCH   6  13
BRANCH   5  18
ATOM     18  N   LIG d   1      -4.878  74.560 115.039  0.00  0.00     0.381 N 
ATOM     19  H   LIG d   1      -4.793  73.693 114.546  0.00  0.00    -0.090 HD
ATOM     20  H   LIG d   1      -4.181  74.580 115.763  0.00  0.00    -0.090 HD
ATOM     21  H   LIG d   1      -4.740  75.322 114.413  0.00  0.00    -0.090 HD
ENDBRANCH   5  18
BRANCH   3  22
ATOM     22  C   LIG d   1      -8.646  72.079 116.648  0.00  0.00     0.382 C 
ATOM     23  O   LIG d   1      -9.887  72.177 116.801  0.00  0.00    -0.241 OA
ATOM     24  O   LIG d   1      -8.141  70.961 116.429  0.00  0.00    -0.241 OA
ENDBRANCH   3  22
TORSDOF 7
ENDMDL
MODEL 3
REMARK VINA RESULT:      -5.4      2.809      4.495
REMARK  7 active torsions:
REMARK  status: ('A' for Active; 'I' for Inactive)
REMARK    1  A    between atoms: C_2  and  C_3 
REMARK    2  A    between atoms: C_3  and  O_6 
REMARK    3  A    between atoms: C_3  and  C_4 
REMARK    4  A    between atoms: C_7  and  O_6 
REMARK    5  A    between atoms: C_9  and  C_10 
REMARK    6  A    between atoms: N_15  and  C_14 
REMARK    7  A    between atoms: N_20  and  C_19 
REMARK       I    between atoms: C_22  and  N_20 
ROOT
ATOM      1  C   LIG d   1      -5.990  74.872 116.567  0.00  0.00     0.161 C 
ATOM      2  C   LIG d   1      -6.599  73.642 116.270  0.00  0.00     0.016 C 
ATOM      3  C   LIG d   1      -7.886  73.279 116.732  0.00  0.00     0.038 C 
ATOM      4  C   LIG d   1      -8.717  74.190 117.401  0.00  0.00     0.028 C 
ATOM      5  C   LIG d   1      -7.949  75.267 118.160  0.00  0.00    -0.047 C 
ATOM      6  C   LIG d   1      -6.926  75.921 117.203  0.00  0.00     0.091 C 
ENDROOT
BRANCH   1   7
ATOM      7  O   LIG d   1      -5.368  75.408 115.383  0.00  0.00    -0.368 OA
BRANCH   7   8
ATOM      8  C   LIG d   1      -4.004  74.988 115.133  0.00  0.00     0.119 C 
BRANCH   8   9
ATOM      9  C   LIG d   1      -3.363  74.662 116.496  0.00  0.00     0.028 C 
ATOM     10  C   LIG d   1      -1.840  74.476 116.400  0.00  0.00     0.006 C 
ENDBRANCH   8   9
BRANCH   8  11
ATOM     11  C   LIG d   1      -3.166  76.132 114.555  0.00  0.00     0.028 C 
ATOM     12  C   LIG d   1      -3.524  77.499 115.160  0.00  0.00     0.006 C 
ENDBRANCH   8  11
ENDBRANCH   7   8
ENDBRANCH   1   7
BRANCH   6  13
ATOM     13  N   LIG d   1      -6.074  76.929 117.887  0.00  0.00    -0.311 N 
ATOM     14  C   LIG d   1      -6.012  78.207 117.519  0.00  0.00     0.210 C 
ATOM     15  C   LIG d   1      -5.056  79.072 118.346  0.00  0.00     0.109 C 
ATOM     16  O   LIG d   1      -6.682  78.714 116.607  0.00  0.00    -0.276 OA
ATOM     17  H   LIG d   1      -5.520  76.610 118.658  0.00  0.00     0.149 HD
ENDBRANCH   6  13
BRANCH   5  18
ATOM     18  N   LIG d   1      -8.935  76.225 118.694  0.00  0.00     0.381 N 
ATOM     19  H   LIG d   1      -8.552  77.149 118.681  0.00  0.00    -0.090 HD
ATOM     20  H   LIG d   1      -9.140  75.982 119.648  0.00  0.00    -0.090 HD
ATOM     21  H   LIG d   1      -9.769  76.195 118.150  0.00  0.00    -0.090 HD
ENDBRANCH   5  18
BRANCH   3  22
ATOM     22  C   LIG d   1      -8.337  71.980 116.560  0.00  0.00     0.382 C 
ATOM     23  O   LIG d   1      -7.590  71.122 116.029  0.00  0.00    -0.241 OA
ATOM     24  O   LIG d   1      -9.496  71.664 116.888  0.00  0.00    -0.241 OA
ENDBRANCH   3  22
TORSDOF 7
ENDMDL
MODEL 4
REMARK VINA RESULT:      -5.3     14.844     17.827
REMARK  7 active torsions:
REMARK  status: ('A' for Active; 'I' for Inactive)
REMARK    1  A    between atoms: C_2  and  C_3 
REMARK    2  A    between atoms: C_3  and  O_6 
REMARK    3  A    between atoms: C_3  and  C_4 
REMARK    4  A    between atoms: C_7  and  O_6 
REMARK    5  A    between atoms: C_9  and  C_10 
REMARK    6  A    between atoms: N_15  and  C_14 
REMARK    7  A    between atoms: N_20  and  C_19 
REMARK       I    between atoms: C_22  and  N_20 
ROOT
ATOM      1  C   LIG d   1      -6.048  92.494 118.850  0.00  0.00     0.161 C 
ATOM      2  C   LIG d   1      -4.930  92.998 119.535  0.00  0.00     0.016 C 
ATOM      3  C   LIG d   1      -3.603  92.597 119.259  0.00  0.00     0.038 C 
ATOM      4  C   LIG d   1      -3.289  91.771 118.170  0.00  0.00     0.028 C 
ATOM      5  C   LIG d   1      -4.429  90.841 117.767  0.00  0.00    -0.047 C 
ATOM      6  C   LIG d   1      -5.717  91.676 117.584  0.00  0.00     0.091 C 
ENDROOT
BRANCH   1   7
ATOM      7  O   LIG d   1      -6.951  93.571 118.528  0.00  0.00    -0.368 OA
BRANCH   7   8
ATOM      8  C   LIG d   1      -6.909  94.722 119.407  0.00  0.00     0.119 C 
BRANCH   8   9
ATOM      9  C   LIG d   1      -8.355  95.021 119.847  0.00  0.00     0.028 C 
ATOM     10  C   LIG d   1      -9.060  96.016 118.910  0.00  0.00     0.006 C 
ENDBRANCH   8   9
BRANCH   8  11
ATOM     11  C   LIG d   1      -6.444  95.976 118.662  0.00  0.00     0.028 C 
ATOM     12  C   LIG d   1      -5.188  96.607 119.283  0.00  0.00     0.006 C 
ENDBRANCH   8  11
ENDBRANCH   7   8
ENDBRANCH   1   7
BRANCH   6  13
ATOM     13  N   LIG d   1      -6.900  90.832 117.272  0.00  0.00    -0.311 N 
ATOM     14  C   LIG d   1      -7.255  90.499 116.032  0.00  0.00     0.210 C 
ATOM     15  C   LIG d   1      -8.519  89.638 115.931  0.00  0.00     0.109 C 
ATOM     16  O   LIG d   1      -6.626  90.807 115.009  0.00  0.00    -0.276 OA
ATOM     17  H   LIG d   1      -7.449  90.512 118.045  0.00  0.00     0.149 HD
ENDBRANCH   6  13
BRANCH   5  18
ATOM     18  N   LIG d   1      -4.017  90.137 116.537  0.00  0.00     0.381 N 
ATOM     19  H   LIG d   1      -4.825  89.815 116.045  0.00  0.00    -0.090 HD
ATOM     20  H   LIG d   1      -3.462  89.339 116.790  0.00  0.00    -0.090 HD
ATOM     21  H   LIG d   1      -3.487  90.749 115.956  0.00  0.00    -0.090 HD
ENDBRANCH   5  18
BRANCH   3  22
ATOM     22  C   LIG d   1      -2.576  92.992 120.103  0.00  0.00     0.382 C 
ATOM     23  O   LIG d   1      -2.685  94.049 120.770  0.00  0.00    -0.241 OA
ATOM     24  O   LIG d   1      -1.524  92.328 120.172  0.00  0.00    -0.241 OA
ENDBRANCH   3  22
TORSDOF 7
ENDMDL
MODEL 5
REMARK VINA RESULT:      -5.1      2.677      6.982
REMARK  7 active torsions:
REMARK  status: ('A' for Active; 'I' for Inactive)
REMARK    1  A    between atoms: C_2  and  C_3 
REMARK    2  A    between atoms: C_3  and  O_6 
REMARK    3  A    between atoms: C_3  and  C_4 
REMARK    4  A    between atoms: C_7  and  O_6 
REMARK    5  A    between atoms: C_9  and  C_10 
REMARK    6  A    between atoms: N_15  and  C_14 
REMARK    7  A    between atoms: N_20  and  C_19 
REMARK       I    between atoms: C_22  and  N_20 
ROOT
ATOM      1  C   LIG d   1      -8.321  78.997 118.210  0.00  0.00     0.161 C 
ATOM      2  C   LIG d   1      -7.217  78.943 117.344  0.00  0.00     0.016 C 
ATOM      3  C   LIG d   1      -6.820  77.771 116.660  0.00  0.00     0.038 C 
ATOM      4  C   LIG d   1      -7.597  76.603 116.679  0.00  0.00     0.028 C 
ATOM      5  C   LIG d   1      -8.444  76.459 117.939  0.00  0.00    -0.047 C 
ATOM      6  C   LIG d   1      -9.246  77.762 118.156  0.00  0.00     0.091 C 
ENDROOT
BRANCH   1   7
ATOM      7  O   LIG d   1      -9.077  80.199 117.964  0.00  0.00    -0.368 OA
BRANCH   7   8
ATOM      8  C   LIG d   1      -9.026  81.207 119.003  0.00  0.00     0.119 C 
BRANCH   8   9
ATOM      9  C   LIG d   1     -10.473  81.655 119.285  0.00  0.00     0.028 C 
ATOM     10  C   LIG d   1     -10.886  82.872 118.440  0.00  0.00     0.006 C 
ENDBRANCH   8   9
BRANCH   8  11
ATOM     11  C   LIG d   1      -8.298  82.467 118.522  0.00  0.00     0.028 C 
ATOM     12  C   LIG d   1      -6.786  82.419 118.789  0.00  0.00     0.006 C 
ENDBRANCH   8  11
ENDBRANCH   7   8
ENDBRANCH   1   7
BRANCH   6  13
ATOM     13  N   LIG d   1     -10.037  77.738 119.414  0.00  0.00    -0.311 N 
ATOM     14  C   LIG d   1     -11.284  77.275 119.486  0.00  0.00     0.210 C 
ATOM     15  C   LIG d   1     -11.925  77.360 120.875  0.00  0.00     0.109 C 
ATOM     16  O   LIG d   1     -11.908  76.773 118.540  0.00  0.00    -0.276 OA
ATOM     17  H   LIG d   1      -9.596  78.098 120.237  0.00  0.00     0.149 HD
ENDBRANCH   6  13
BRANCH   5  18
ATOM     18  N   LIG d   1      -9.303  75.273 117.765  0.00  0.00     0.381 N 
ATOM     19  H   LIG d   1      -9.810  75.095 118.609  0.00  0.00    -0.090 HD
ATOM     20  H   LIG d   1      -8.723  74.476 117.571  0.00  0.00    -0.090 HD
ATOM     21  H   LIG d   1      -9.939  75.420 117.012  0.00  0.00    -0.090 HD
ENDBRANCH   5  18
BRANCH   3  22
ATOM     22  C   LIG d   1      -5.612  77.748 115.979  0.00  0.00     0.382 C 
ATOM     23  O   LIG d   1      -4.722  78.588 116.253  0.00  0.00    -0.241 OA
ATOM     24  O   LIG d   1      -5.419  76.925 115.063  0.00  0.00    -0.241 OA
ENDBRANCH   3  22
TORSDOF 7
ENDMDL
MODEL 6
REMARK VINA RESULT:      -5.0     13.096     15.672
REMARK  7 active torsions:
REMARK  status: ('A' for Active; 'I' for Inactive)
REMARK    1  A    between atoms: C_2  and  C_3 
REMARK    2  A    between atoms: C_3  and  O_6 
REMARK    3  A    between atoms: C_3  and  C_4 
REMARK    4  A    between atoms: C_7  and  O_6 
REMARK    5  A    between atoms: C_9  and  C_10 
REMARK    6  A    between atoms: N_15  and  C_14 
REMARK    7  A    between atoms: N_20  and  C_19 
REMARK       I    between atoms: C_22  and  N_20 
ROOT
ATOM      1  C   LIG d   1      -3.802  90.826 117.823  0.00  0.00     0.161 C 
ATOM      2  C   LIG d   1      -2.994  91.426 118.802  0.00  0.00     0.016 C 
ATOM      3  C   LIG d   1      -3.471  92.385 119.725  0.00  0.00     0.038 C 
ATOM      4  C   LIG d   1      -4.834  92.699 119.829  0.00  0.00     0.028 C 
ATOM      5  C   LIG d   1      -5.604  92.495 118.529  0.00  0.00    -0.047 C 
ATOM      6  C   LIG d   1      -5.316  91.074 117.993  0.00  0.00     0.091 C 
ENDROOT
BRANCH   1   7
ATOM      7  O   LIG d   1      -3.530  89.412 117.763  0.00  0.00    -0.368 OA
BRANCH   7   8
ATOM      8  C   LIG d   1      -2.456  88.934 118.610  0.00  0.00     0.119 C 
BRANCH   8   9
ATOM      9  C   LIG d   1      -1.484  88.136 117.719  0.00  0.00     0.028 C 
ATOM     10  C   LIG d   1      -0.238  88.951 117.332  0.00  0.00     0.006 C 
ENDBRANCH   8   9
BRANCH   8  11
ATOM     11  C   LIG d   1      -2.969  87.932 119.648  0.00  0.00     0.028 C 
ATOM     12  C   LIG d   1      -2.042  86.718 119.815  0.00  0.00     0.006 C 
ENDBRANCH   8  11
ENDBRANCH   7   8
ENDBRANCH   1   7
BRANCH   6  13
ATOM     13  N   LIG d   1      -5.964  90.821 116.680  0.00  0.00    -0.311 N 
ATOM     14  C   LIG d   1      -7.184  90.303 116.552  0.00  0.00     0.210 C 
ATOM     15  C   LIG d   1      -7.655  90.106 115.108  0.00  0.00     0.109 C 
ATOM     16  O   LIG d   1      -7.934  90.018 117.498  0.00  0.00    -0.276 OA
ATOM     17  H   LIG d   1      -5.438  91.052 115.860  0.00  0.00     0.149 HD
ENDBRANCH   6  13
BRANCH   5  18
ATOM     18  N   LIG d   1      -7.032  92.726 118.816  0.00  0.00     0.381 N 
ATOM     19  H   LIG d   1      -7.147  93.608 119.274  0.00  0.00    -0.090 HD
ATOM     20  H   LIG d   1      -7.361  92.005 119.433  0.00  0.00    -0.090 HD
ATOM     21  H   LIG d   1      -7.557  92.713 117.969  0.00  0.00    -0.090 HD
ENDBRANCH   5  18
BRANCH   3  22
ATOM     22  C   LIG d   1      -2.573  93.070 120.529  0.00  0.00     0.382 C 
ATOM     23  O   LIG d   1      -1.388  93.233 120.150  0.00  0.00    -0.241 OA
ATOM     24  O   LIG d   1      -2.922  93.490 121.649  0.00  0.00    -0.241 OA
ENDBRANCH   3  22
TORSDOF 7
ENDMDL
MODEL 7
REMARK VINA RESULT:      -4.8      2.220      4.642
REMARK  7 active torsions:
REMARK  status: ('A' for Active; 'I' for Inactive)
REMARK    1  A    between atoms: C_2  and  C_3 
REMARK    2  A    between atoms: C_3  and  O_6 
REMARK    3  A    between atoms: C_3  and  C_4 
REMARK    4  A    between atoms: C_7  and  O_6 
REMARK    5  A    between atoms: C_9  and  C_10 
REMARK    6  A    between atoms: N_15  and  C_14 
REMARK    7  A    between atoms: N_20  and  C_19 
REMARK       I    between atoms: C_22  and  N_20 
ROOT
ATOM      1  C   LIG d   1      -7.144  77.242 117.007  0.00  0.00     0.161 C 
ATOM      2  C   LIG d   1      -8.449  77.293 117.523  0.00  0.00     0.016 C 
ATOM      3  C   LIG d   1      -9.269  76.152 117.680  0.00  0.00     0.038 C 
ATOM      4  C   LIG d   1      -8.782  74.854 117.469  0.00  0.00     0.028 C 
ATOM      5  C   LIG d   1      -7.634  74.793 116.467  0.00  0.00    -0.047 C 
ATOM      6  C   LIG d   1      -6.555  75.821 116.876  0.00  0.00     0.091 C 
ENDROOT
BRANCH   1   7
ATOM      7  O   LIG d   1      -6.272  78.074 117.797  0.00  0.00    -0.368 OA
BRANCH   7   8
ATOM      8  C   LIG d   1      -5.686  79.210 117.116  0.00  0.00     0.119 C 
BRANCH   8   9
ATOM      9  C   LIG d   1      -4.199  79.274 117.517  0.00  0.00     0.028 C 
ATOM     10  C   LIG d   1      -3.267  78.791 116.393  0.00  0.00     0.006 C 
ENDBRANCH   8   9
BRANCH   8  11
ATOM     11  C   LIG d   1      -6.294  80.528 117.606  0.00  0.00     0.028 C 
ATOM     12  C   LIG d   1      -5.729  80.978 118.962  0.00  0.00     0.006 C 
ENDBRANCH   8  11
ENDBRANCH   7   8
ENDBRANCH   1   7
BRANCH   6  13
ATOM     13  N   LIG d   1      -5.435  75.886 115.901  0.00  0.00    -0.311 N 
ATOM     14  C   LIG d   1      -4.319  75.170 116.019  0.00  0.00     0.210 C 
ATOM     15  C   LIG d   1      -3.282  75.403 114.915  0.00  0.00     0.109 C 
ATOM     16  O   LIG d   1      -4.101  74.341 116.915  0.00  0.00    -0.276 OA
ATOM     17  H   LIG d   1      -5.541  76.511 115.126  0.00  0.00     0.149 HD
ENDBRANCH   6  13
BRANCH   5  18
ATOM     18  N   LIG d   1      -7.133  73.406 116.447  0.00  0.00     0.381 N 
ATOM     19  H   LIG d   1      -7.055  73.087 115.502  0.00  0.00    -0.090 HD
ATOM     20  H   LIG d   1      -7.791  72.815 116.925  0.00  0.00    -0.090 HD
ATOM     21  H   LIG d   1      -6.245  73.357 116.896  0.00  0.00    -0.090 HD
ENDBRANCH   5  18
BRANCH   3  22
ATOM     22  C   LIG d   1     -10.607  76.308 118.012  0.00  0.00     0.382 C 
ATOM     23  O   LIG d   1     -11.442  75.435 117.675  0.00  0.00    -0.241 OA
ATOM     24  O   LIG d   1     -10.995  77.331 118.607  0.00  0.00    -0.241 OA
ENDBRANCH   3  22
TORSDOF 7
ENDMDL
MODEL 8
REMARK VINA RESULT:      -4.8     14.523     17.096
REMARK  7 active torsions:
REMARK  status: ('A' for Active; 'I' for Inactive)
REMARK    1  A    between atoms: C_2  and  C_3 
REMARK    2  A    between atoms: C_3  and  O_6 
REMARK    3  A    between atoms: C_3  and  C_4 
REMARK    4  A    between atoms: C_7  and  O_6 
REMARK    5  A    between atoms: C_9  and  C_10 
REMARK    6  A    between atoms: N_15  and  C_14 
REMARK    7  A    between atoms: N_20  and  C_19 
REMARK       I    between atoms: C_22  and  N_20 
ROOT
ATOM      1  C   LIG d   1      -5.244  92.589 118.744  0.00  0.00     0.161 C 
ATOM      2  C   LIG d   1      -6.286  92.007 118.002  0.00  0.00     0.016 C 
ATOM      3  C   LIG d   1      -6.094  90.937 117.099  0.00  0.00     0.038 C 
ATOM      4  C   LIG d   1      -4.865  90.271 116.988  0.00  0.00     0.028 C 
ATOM      5  C   LIG d   1      -3.667  91.147 117.342  0.00  0.00    -0.047 C 
ATOM      6  C   LIG d   1      -3.916  91.803 118.719  0.00  0.00     0.091 C 
ENDROOT
BRANCH   1   7
ATOM      7  O   LIG d   1      -5.673  92.805 120.103  0.00  0.00    -0.368 OA
BRANCH   7   8
ATOM      8  C   LIG d   1      -6.611  93.889 120.310  0.00  0.00     0.119 C 
BRANCH   8   9
ATOM      9  C   LIG d   1      -5.857  95.209 120.056  0.00  0.00     0.028 C 
ATOM     10  C   LIG d   1      -6.562  96.096 119.017  0.00  0.00     0.006 C 
ENDBRANCH   8   9
BRANCH   8  11
ATOM     11  C   LIG d   1      -7.069  93.958 121.770  0.00  0.00     0.028 C 
ATOM     12  C   LIG d   1      -8.595  94.075 121.911  0.00  0.00     0.006 C 
ENDBRANCH   8  11
ENDBRANCH   7   8
ENDBRANCH   1   7
BRANCH   6  13
ATOM     13  N   LIG d   1      -2.830  92.743 119.104  0.00  0.00    -0.311 N 
ATOM     14  C   LIG d   1      -1.783  92.389 119.847  0.00  0.00     0.210 C 
ATOM     15  C   LIG d   1      -0.790  93.517 120.144  0.00  0.00     0.109 C 
ATOM     16  O   LIG d   1      -1.566  91.240 120.262  0.00  0.00    -0.276 OA
ATOM     17  H   LIG d   1      -2.911  93.688 118.783  0.00  0.00     0.149 HD
ENDBRANCH   6  13
BRANCH   5  18
ATOM     18  N   LIG d   1      -2.466  90.291 117.317  0.00  0.00     0.381 N 
ATOM     19  H   LIG d   1      -1.723  90.736 117.818  0.00  0.00    -0.090 HD
ATOM     20  H   LIG d   1      -2.175  90.167 116.364  0.00  0.00    -0.090 HD
ATOM     21  H   LIG d   1      -2.669  89.406 117.728  0.00  0.00    -0.090 HD
ENDBRANCH   5  18
BRANCH   3  22
ATOM     22  C   LIG d   1      -7.131  90.548 116.265  0.00  0.00     0.382 C 
ATOM     23  O   LIG d   1      -7.789  91.413 115.636  0.00  0.00    -0.241 OA
ATOM     24  O   LIG d   1      -7.447  89.347 116.167  0.00  0.00    -0.241 OA
ENDBRANCH   3  22
TORSDOF 7
ENDMDL
MODEL 9
REMARK VINA RESULT:      -4.7     13.687     15.762
REMARK  7 active torsions:
REMARK  status: ('A' for Active; 'I' for Inactive)
REMARK    1  A    between atoms: C_2  and  C_3 
REMARK    2  A    between atoms: C_3  and  O_6 
REMARK    3  A    between atoms: C_3  and  C_4 
REMARK    4  A    between atoms: C_7  and  O_6 
REMARK    5  A    between atoms: C_9  and  C_10 
REMARK    6  A    between atoms: N_15  and  C_14 
REMARK    7  A    between atoms: N_20  and  C_19 
REMARK       I    between atoms: C_22  and  N_20 
ROOT
ATOM      1  C   LIG d   1      -4.163  90.878 118.203  0.00  0.00     0.161 C 
ATOM      2  C   LIG d   1      -4.638  90.290 117.019  0.00  0.00     0.016 C 
ATOM      3  C   LIG d   1      -5.737  90.794 116.286  0.00  0.00     0.038 C 
ATOM      4  C   LIG d   1      -6.346  92.015 116.609  0.00  0.00     0.028 C 
ATOM      5  C   LIG d   1      -6.227  92.380 118.085  0.00  0.00    -0.047 C 
ATOM      6  C   LIG d   1      -4.744  92.274 118.510  0.00  0.00     0.091 C 
ENDROOT
BRANCH   1   7
ATOM      7  O   LIG d   1      -2.723  90.928 118.180  0.00  0.00    -0.368 OA
BRANCH   7   8
ATOM      8  C   LIG d   1      -2.040  90.073 119.129  0.00  0.00     0.119 C 
BRANCH   8   9
ATOM      9  C   LIG d   1      -1.197  89.066 118.322  0.00  0.00     0.028 C 
ATOM     10  C   LIG d   1      -0.389  89.743 117.202  0.00  0.00     0.006 C 
ENDBRANCH   8   9
BRANCH   8  11
ATOM     11  C   LIG d   1      -3.033  89.222 119.927  0.00  0.00     0.028 C 
ATOM     12  C   LIG d   1      -2.817  87.713 119.731  0.00  0.00     0.006 C 
ENDBRANCH   8  11
ENDBRANCH   7   8
ENDBRANCH   1   7
BRANCH   6  13
ATOM     13  N   LIG d   1      -4.551  92.532 119.961  0.00  0.00    -0.311 N 
ATOM     14  C   LIG d   1      -3.710  93.450 120.436  0.00  0.00     0.210 C 
ATOM     15  C   LIG d   1      -3.648  93.540 121.964  0.00  0.00     0.109 C 
ATOM     16  O   LIG d   1      -3.034  94.219 119.737  0.00  0.00    -0.276 OA
ATOM     17  H   LIG d   1      -5.083  91.974 120.599  0.00  0.00     0.149 HD
ENDBRANCH   6  13
BRANCH   5  18
ATOM     18  N   LIG d   1      -6.781  93.736 118.255  0.00  0.00     0.381 N 
ATOM     19  H   LIG d   1      -6.976  94.137 117.360  0.00  0.00    -0.090 HD
ATOM     20  H   LIG d   1      -6.098  94.311 118.716  0.00  0.00    -0.090 HD
ATOM     21  H   LIG d   1      -7.615  93.698 118.799  0.00  0.00    -0.090 HD
ENDBRANCH   5  18
BRANCH   3  22
ATOM     22  C   LIG d   1      -6.264  90.051 115.240  0.00  0.00     0.382 C 
ATOM     23  O   LIG d   1      -7.444  90.249 114.863  0.00  0.00    -0.241 OA
ATOM     24  O   LIG d   1      -5.588  89.157 114.697  0.00  0.00    -0.241 OA
ENDBRANCH   3  22
TORSDOF 7
ENDMDL
