MODEL 1
REMARK VINA RESULT:      -5.7      0.000      0.000
REMARK  7 active torsions:
REMARK  status: ('A' for Active; 'I' for Inactive)
REMARK    1  A    between atoms: C_2  and  C_3 
REMARK    2  A    between atoms: C_3  and  O_6 
REMARK    3  A    between atoms: C_3  and  C_4 
REMARK    4  A    between atoms: C_7  and  O_6 
REMARK    5  A    between atoms: C_9  and  C_10 
REMARK    6  A    between atoms: N_15  and  C_14 
REMARK    7  A    between atoms: N_20  and  C_19 
REMARK       I    between atoms: C_22  and  N_20 
ROOT
ATOM      1  C   LIG d   1      -7.337  76.800 117.558  0.00  0.00     0.161 C 
ATOM      2  C   LIG d   1      -8.496  77.532 117.863  0.00  0.00     0.016 C 
ATOM      3  C   LIG d   1      -8.531  78.944 117.926  0.00  0.00     0.038 C 
ATOM      4  C   LIG d   1      -7.437  79.731 117.536  0.00  0.00     0.028 C 
ATOM      5  C   LIG d   1      -6.095  79.028 117.707  0.00  0.00    -0.047 C 
ATOM      6  C   LIG d   1      -6.162  77.644 117.022  0.00  0.00     0.091 C 
ENDROOT
BRANCH   1   7
ATOM      7  O   LIG d   1      -7.657  75.742 116.633  0.00  0.00    -0.368 OA
BRANCH   7   8
ATOM      8  C   LIG d   1      -7.860  74.429 117.212  0.00  0.00     0.119 C 
BRANCH   8   9
ATOM      9  C   LIG d   1      -6.840  73.474 116.564  0.00  0.00     0.028 C 
ATOM     10  C   LIG d   1      -6.195  74.072 115.302  0.00  0.00     0.006 C 
ENDBRANCH   8   9
BRANCH   8  11
ATOM     11  C   LIG d   1      -9.235  73.864 116.844  0.00  0.00     0.028 C 
ATOM     12  C   LIG d   1      -9.258  72.328 116.806  0.00  0.00     0.006 C 
ENDBRANCH   8  11
ENDBRANCH   7   8
ENDBRANCH   1   7
BRANCH   6  13
ATOM     13  N   LIG d   1      -4.917  76.855 117.214  0.00  0.00    -0.311 N 
ATOM     14  C   LIG d   1      -3.923  76.826 116.328  0.00  0.00     0.210 C 
ATOM     15  C   LIG d   1      -2.739  75.933 116.713  0.00  0.00     0.109 C 
ATOM     16  O   LIG d   1      -3.895  77.481 115.275  0.00  0.00    -0.276 OA
ATOM     17  H   LIG d   1      -4.842  76.319 118.056  0.00  0.00     0.149 HD
ENDBRANCH   6  13
BRANCH   5  18
ATOM     18  N   LIG d   1      -5.056  79.906 117.136  0.00  0.00     0.381 N 
ATOM     19  H   LIG d   1      -5.421  80.829 117.017  0.00  0.00    -0.090 HD
ATOM     20  H   LIG d   1      -4.791  79.552 116.234  0.00  0.00    -0.090 HD
ATOM     21  H   LIG d   1      -4.262  79.931 117.738  0.00  0.00    -0.090 HD
ENDBRANCH   5  18
BRANCH   3  22
ATOM     22  C   LIG d   1      -9.659  79.582 118.420  0.00  0.00     0.382 C 
ATOM     23  O   LIG d   1     -10.144  79.232 119.523  0.00  0.00    -0.241 OA
ATOM     24  O   LIG d   1     -10.222  80.474 117.757  0.00  0.00    -0.241 OA
ENDBRANCH   3  22
TORSDOF 7
ENDMDL
MODEL 2
REMARK VINA RESULT:      -5.7     13.181     15.301
REMARK  7 active torsions:
REMARK  status: ('A' for Active; 'I' for Inactive)
REMARK    1  A    between atoms: C_2  and  C_3 
REMARK    2  A    between atoms: C_3  and  O_6 
REMARK    3  A    between atoms: C_3  and  C_4 
REMARK    4  A    between atoms: C_7  and  O_6 
REMARK    5  A    between atoms: C_9  and  C_10 
REMARK    6  A    between atoms: N_15  and  C_14 
REMARK    7  A    between atoms: N_20  and  C_19 
REMARK       I    between atoms: C_22  and  N_20 
ROOT
ATOM      1  C   LIG d   1      -5.407  91.682 118.639  0.00  0.00     0.161 C 
ATOM      2  C   LIG d   1      -6.569  91.195 118.019  0.00  0.00     0.016 C 
ATOM      3  C   LIG d   1      -6.551  90.340 116.893  0.00  0.00     0.038 C 
ATOM      4  C   LIG d   1      -5.358  89.788 116.401  0.00  0.00     0.028 C 
ATOM      5  C   LIG d   1      -4.132  90.650 116.680  0.00  0.00    -0.047 C 
ATOM      6  C   LIG d   1      -4.098  91.003 118.185  0.00  0.00     0.091 C 
ENDROOT
BRANCH   1   7
ATOM      7  O   LIG d   1      -5.545  91.596 120.071  0.00  0.00    -0.368 OA
BRANCH   7   8
ATOM      8  C   LIG d   1      -5.279  92.813 120.811  0.00  0.00     0.119 C 
BRANCH   8   9
ATOM      9  C   LIG d   1      -6.030  92.713 122.153  0.00  0.00     0.028 C 
ATOM     10  C   LIG d   1      -5.527  91.547 123.021  0.00  0.00     0.006 C 
ENDBRANCH   8   9
BRANCH   8  11
ATOM     11  C   LIG d   1      -5.873  94.036 120.105  0.00  0.00     0.028 C 
ATOM     12  C   LIG d   1      -7.349  94.273 120.463  0.00  0.00     0.006 C 
ENDBRANCH   8  11
ENDBRANCH   7   8
ENDBRANCH   1   7
BRANCH   6  13
ATOM     13  N   LIG d   1      -2.975  91.914 118.528  0.00  0.00    -0.311 N 
ATOM     14  C   LIG d   1      -1.794  91.487 118.971  0.00  0.00     0.210 C 
ATOM     15  C   LIG d   1      -0.783  92.594 119.286  0.00  0.00     0.109 C 
ATOM     16  O   LIG d   1      -1.476  90.296 119.103  0.00  0.00    -0.276 OA
ATOM     17  H   LIG d   1      -3.136  92.896 118.421  0.00  0.00     0.149 HD
ENDBRANCH   6  13
BRANCH   5  18
ATOM     18  N   LIG d   1      -2.945  89.894 116.237  0.00  0.00     0.381 N 
ATOM     19  H   LIG d   1      -2.604  89.329 116.988  0.00  0.00    -0.090 HD
ATOM     20  H   LIG d   1      -2.224  90.544 115.978  0.00  0.00    -0.090 HD
ATOM     21  H   LIG d   1      -3.179  89.318 115.458  0.00  0.00    -0.090 HD
ENDBRANCH   5  18
BRANCH   3  22
ATOM     22  C   LIG d   1      -7.732  90.059 116.224  0.00  0.00     0.382 C 
ATOM     23  O   LIG d   1      -8.510  89.180 116.666  0.00  0.00    -0.241 OA
ATOM     24  O   LIG d   1      -8.008  90.643 115.158  0.00  0.00    -0.241 OA
ENDBRANCH   3  22
TORSDOF 7
ENDMDL
MODEL 3
REMARK VINA RESULT:      -5.6     13.222     15.363
REMARK  7 active torsions:
REMARK  status: ('A' for Active; 'I' for Inactive)
REMARK    1  A    between atoms: C_2  and  C_3 
REMARK    2  A    between atoms: C_3  and  O_6 
REMARK    3  A    between atoms: C_3  and  C_4 
REMARK    4  A    between atoms: C_7  and  O_6 
REMARK    5  A    between atoms: C_9  and  C_10 
REMARK    6  A    between atoms: N_15  and  C_14 
REMARK    7  A    between atoms: N_20  and  C_19 
REMARK       I    between atoms: C_22  and  N_20 
ROOT
ATOM      1  C   LIG d   1      -5.357  91.600 118.781  0.00  0.00     0.161 C 
ATOM      2  C   LIG d   1      -6.491  91.117 118.107  0.00  0.00     0.016 C 
ATOM      3  C   LIG d   1      -6.423  90.336 116.931  0.00  0.00     0.038 C 
ATOM      4  C   LIG d   1      -5.204  89.854 116.430  0.00  0.00     0.028 C 
ATOM      5  C   LIG d   1      -4.012  90.735 116.788  0.00  0.00    -0.047 C 
ATOM      6  C   LIG d   1      -4.018  90.992 118.312  0.00  0.00     0.091 C 
ENDROOT
BRANCH   1   7
ATOM      7  O   LIG d   1      -5.519  91.420 120.201  0.00  0.00    -0.368 OA
BRANCH   7   8
ATOM      8  C   LIG d   1      -5.645  92.631 120.987  0.00  0.00     0.119 C 
BRANCH   8   9
ATOM      9  C   LIG d   1      -5.679  93.818 120.006  0.00  0.00     0.028 C 
ATOM     10  C   LIG d   1      -4.715  94.945 120.415  0.00  0.00     0.006 C 
ENDBRANCH   8   9
BRANCH   8  11
ATOM     11  C   LIG d   1      -4.407  92.860 121.859  0.00  0.00     0.028 C 
ATOM     12  C   LIG d   1      -3.762  91.549 122.336  0.00  0.00     0.006 C 
ENDBRANCH   8  11
ENDBRANCH   7   8
ENDBRANCH   1   7
BRANCH   6  13
ATOM     13  N   LIG d   1      -2.933  91.915 118.736  0.00  0.00    -0.311 N 
ATOM     14  C   LIG d   1      -1.754  91.498 119.196  0.00  0.00     0.210 C 
ATOM     15  C   LIG d   1      -0.785  92.615 119.596  0.00  0.00     0.109 C 
ATOM     16  O   LIG d   1      -1.408  90.310 119.280  0.00  0.00    -0.276 OA
ATOM     17  H   LIG d   1      -3.117  92.897 118.671  0.00  0.00     0.149 HD
ENDBRANCH   6  13
BRANCH   5  18
ATOM     18  N   LIG d   1      -2.793  90.046 116.323  0.00  0.00     0.381 N 
ATOM     19  H   LIG d   1      -2.734  89.140 116.745  0.00  0.00    -0.090 HD
ATOM     20  H   LIG d   1      -1.990  90.579 116.607  0.00  0.00    -0.090 HD
ATOM     21  H   LIG d   1      -2.808  89.958 115.331  0.00  0.00    -0.090 HD
ENDBRANCH   5  18
BRANCH   3  22
ATOM     22  C   LIG d   1      -7.581  90.061 116.220  0.00  0.00     0.382 C 
ATOM     23  O   LIG d   1      -8.320  89.109 116.568  0.00  0.00    -0.241 OA
ATOM     24  O   LIG d   1      -7.874  90.726 115.208  0.00  0.00    -0.241 OA
ENDBRANCH   3  22
TORSDOF 7
ENDMDL
MODEL 4
REMARK VINA RESULT:      -5.2     12.899     14.547
REMARK  7 active torsions:
REMARK  status: ('A' for Active; 'I' for Inactive)
REMARK    1  A    between atoms: C_2  and  C_3 
REMARK    2  A    between atoms: C_3  and  O_6 
REMARK    3  A    between atoms: C_3  and  C_4 
REMARK    4  A    between atoms: C_7  and  O_6 
REMARK    5  A    between atoms: C_9  and  C_10 
REMARK    6  A    between atoms: N_15  and  C_14 
REMARK    7  A    between atoms: N_20  and  C_19 
REMARK       I    between atoms: C_22  and  N_20 
ROOT
ATOM      1  C   LIG d   1      -3.118  89.272 118.348  0.00  0.00     0.161 C 
ATOM      2  C   LIG d   1      -3.588  89.430 117.033  0.00  0.00     0.016 C 
ATOM      3  C   LIG d   1      -4.678  90.263 116.692  0.00  0.00     0.038 C 
ATOM      4  C   LIG d   1      -5.280  91.117 117.627  0.00  0.00     0.028 C 
ATOM      5  C   LIG d   1      -5.169  90.617 119.064  0.00  0.00    -0.047 C 
ATOM      6  C   LIG d   1      -3.691  90.281 119.365  0.00  0.00     0.091 C 
ENDROOT
BRANCH   1   7
ATOM      7  O   LIG d   1      -1.677  89.312 118.359  0.00  0.00    -0.368 OA
BRANCH   7   8
ATOM      8  C   LIG d   1      -1.046  89.896 117.193  0.00  0.00     0.119 C 
BRANCH   8   9
ATOM      9  C   LIG d   1       0.053  88.923 116.725  0.00  0.00     0.028 C 
ATOM     10  C   LIG d   1      -0.421  87.460 116.724  0.00  0.00     0.006 C 
ENDBRANCH   8   9
BRANCH   8  11
ATOM     11  C   LIG d   1      -0.314  91.195 117.547  0.00  0.00     0.028 C 
ATOM     12  C   LIG d   1      -1.261  92.400 117.660  0.00  0.00     0.006 C 
ENDBRANCH   8  11
ENDBRANCH   7   8
ENDBRANCH   1   7
BRANCH   6  13
ATOM     13  N   LIG d   1      -3.505  89.705 120.722  0.00  0.00    -0.311 N 
ATOM     14  C   LIG d   1      -3.194  90.435 121.792  0.00  0.00     0.210 C 
ATOM     15  C   LIG d   1      -3.029  89.640 123.091  0.00  0.00     0.109 C 
ATOM     16  O   LIG d   1      -3.069  91.669 121.795  0.00  0.00    -0.276 OA
ATOM     17  H   LIG d   1      -3.619  88.715 120.817  0.00  0.00     0.149 HD
ENDBRANCH   6  13
BRANCH   5  18
ATOM     18  N   LIG d   1      -5.715  91.667 119.945  0.00  0.00     0.381 N 
ATOM     19  H   LIG d   1      -6.025  92.443 119.395  0.00  0.00    -0.090 HD
ATOM     20  H   LIG d   1      -4.986  91.986 120.559  0.00  0.00    -0.090 HD
ATOM     21  H   LIG d   1      -6.474  91.304 120.478  0.00  0.00    -0.090 HD
ENDBRANCH   5  18
BRANCH   3  22
ATOM     22  C   LIG d   1      -5.203  90.216 115.409  0.00  0.00     0.382 C 
ATOM     23  O   LIG d   1      -5.120  89.161 114.736  0.00  0.00    -0.241 OA
ATOM     24  O   LIG d   1      -5.718  91.230 114.900  0.00  0.00    -0.241 OA
ENDBRANCH   3  22
TORSDOF 7
ENDMDL
MODEL 5
REMARK VINA RESULT:      -5.0      2.129      5.178
REMARK  7 active torsions:
REMARK  status: ('A' for Active; 'I' for Inactive)
REMARK    1  A    between atoms: C_2  and  C_3 
REMARK    2  A    between atoms: C_3  and  O_6 
REMARK    3  A    between atoms: C_3  and  C_4 
REMARK    4  A    between atoms: C_7  and  O_6 
REMARK    5  A    between atoms: C_9  and  C_10 
REMARK    6  A    between atoms: N_15  and  C_14 
REMARK    7  A    between atoms: N_20  and  C_19 
REMARK       I    between atoms: C_22  and  N_20 
ROOT
ATOM      1  C   LIG d   1      -7.024  76.436 117.314  0.00  0.00     0.161 C 
ATOM      2  C   LIG d   1      -7.909  75.375 117.063  0.00  0.00     0.016 C 
ATOM      3  C   LIG d   1      -7.503  74.022 117.002  0.00  0.00     0.038 C 
ATOM      4  C   LIG d   1      -6.201  73.622 117.339  0.00  0.00     0.028 C 
ATOM      5  C   LIG d   1      -5.155  74.707 117.105  0.00  0.00    -0.047 C 
ATOM      6  C   LIG d   1      -5.621  76.010 117.794  0.00  0.00     0.091 C 
ENDROOT
BRANCH   1   7
ATOM      7  O   LIG d   1      -7.617  77.355 118.254  0.00  0.00    -0.368 OA
BRANCH   7   8
ATOM      8  C   LIG d   1      -8.072  78.618 117.709  0.00  0.00     0.119 C 
BRANCH   8   9
ATOM      9  C   LIG d   1      -7.207  79.730 118.333  0.00  0.00     0.028 C 
ATOM     10  C   LIG d   1      -7.261  81.038 117.527  0.00  0.00     0.006 C 
ENDBRANCH   8   9
BRANCH   8  11
ATOM     11  C   LIG d   1      -9.507  78.928 118.145  0.00  0.00     0.028 C 
ATOM     12  C   LIG d   1      -9.651  79.062 119.670  0.00  0.00     0.006 C 
ENDBRANCH   8  11
ENDBRANCH   7   8
ENDBRANCH   1   7
BRANCH   6  13
ATOM     13  N   LIG d   1      -4.696  77.145 117.544  0.00  0.00    -0.311 N 
ATOM     14  C   LIG d   1      -4.034  77.778 118.511  0.00  0.00     0.210 C 
ATOM     15  C   LIG d   1      -3.147  78.934 118.038  0.00  0.00     0.109 C 
ATOM     16  O   LIG d   1      -4.072  77.472 119.712  0.00  0.00    -0.276 OA
ATOM     17  H   LIG d   1      -4.581  77.440 116.594  0.00  0.00     0.149 HD
ENDBRANCH   6  13
BRANCH   5  18
ATOM     18  N   LIG d   1      -3.870  74.205 117.626  0.00  0.00     0.381 N 
ATOM     19  H   LIG d   1      -3.285  74.975 117.885  0.00  0.00    -0.090 HD
ATOM     20  H   LIG d   1      -3.405  73.687 116.901  0.00  0.00    -0.090 HD
ATOM     21  H   LIG d   1      -4.027  73.618 118.416  0.00  0.00    -0.090 HD
ENDBRANCH   5  18
BRANCH   3  22
ATOM     22  C   LIG d   1      -8.395  73.056 116.560  0.00  0.00     0.382 C 
ATOM     23  O   LIG d   1      -9.519  72.945 117.107  0.00  0.00    -0.241 OA
ATOM     24  O   LIG d   1      -8.073  72.266 115.653  0.00  0.00    -0.241 OA
ENDBRANCH   3  22
TORSDOF 7
ENDMDL
MODEL 6
REMARK VINA RESULT:      -4.8      2.381      5.279
REMARK  7 active torsions:
REMARK  status: ('A' for Active; 'I' for Inactive)
REMARK    1  A    between atoms: C_2  and  C_3 
REMARK    2  A    between atoms: C_3  and  O_6 
REMARK    3  A    between atoms: C_3  and  C_4 
REMARK    4  A    between atoms: C_7  and  O_6 
REMARK    5  A    between atoms: C_9  and  C_10 
REMARK    6  A    between atoms: N_15  and  C_14 
REMARK    7  A    between atoms: N_20  and  C_19 
REMARK       I    between atoms: C_22  and  N_20 
ROOT
ATOM      1  C   LIG d   1      -5.301  75.393 117.168  0.00  0.00     0.161 C 
ATOM      2  C   LIG d   1      -6.006  74.229 116.817  0.00  0.00     0.016 C 
ATOM      3  C   LIG d   1      -7.415  74.171 116.724  0.00  0.00     0.038 C 
ATOM      4  C   LIG d   1      -8.213  75.320 116.831  0.00  0.00     0.028 C 
ATOM      5  C   LIG d   1      -7.585  76.417 117.683  0.00  0.00    -0.047 C 
ATOM      6  C   LIG d   1      -6.148  76.683 117.179  0.00  0.00     0.091 C 
ENDROOT
BRANCH   1   7
ATOM      7  O   LIG d   1      -4.158  75.551 116.305  0.00  0.00    -0.368 OA
BRANCH   7   8
ATOM      8  C   LIG d   1      -2.942  74.887 116.730  0.00  0.00     0.119 C 
BRANCH   8   9
ATOM      9  C   LIG d   1      -2.564  75.452 118.112  0.00  0.00     0.028 C 
ATOM     10  C   LIG d   1      -1.933  76.852 118.021  0.00  0.00     0.006 C 
ENDBRANCH   8   9
BRANCH   8  11
ATOM     11  C   LIG d   1      -1.766  75.237 115.813  0.00  0.00     0.028 C 
ATOM     12  C   LIG d   1      -0.708  74.125 115.749  0.00  0.00     0.006 C 
ENDBRANCH   8  11
ENDBRANCH   7   8
ENDBRANCH   1   7
BRANCH   6  13
ATOM     13  N   LIG d   1      -5.431  77.684 118.011  0.00  0.00    -0.311 N 
ATOM     14  C   LIG d   1      -5.403  78.985 117.730  0.00  0.00     0.210 C 
ATOM     15  C   LIG d   1      -4.590  79.841 118.707  0.00  0.00     0.109 C 
ATOM     16  O   LIG d   1      -5.999  79.517 116.782  0.00  0.00    -0.276 OA
ATOM     17  H   LIG d   1      -4.946  77.343 118.818  0.00  0.00     0.149 HD
ENDBRANCH   6  13
BRANCH   5  18
ATOM     18  N   LIG d   1      -8.457  77.604 117.595  0.00  0.00     0.381 N 
ATOM     19  H   LIG d   1      -7.905  78.435 117.659  0.00  0.00    -0.090 HD
ATOM     20  H   LIG d   1      -9.100  77.592 118.367  0.00  0.00    -0.090 HD
ATOM     21  H   LIG d   1      -8.959  77.595 116.735  0.00  0.00    -0.090 HD
ENDBRANCH   5  18
BRANCH   3  22
ATOM     22  C   LIG d   1      -8.043  72.945 116.563  0.00  0.00     0.382 C 
ATOM     23  O   LIG d   1      -7.762  72.222 115.577  0.00  0.00    -0.241 OA
ATOM     24  O   LIG d   1      -8.919  72.573 117.366  0.00  0.00    -0.241 OA
ENDBRANCH   3  22
TORSDOF 7
ENDMDL
MODEL 7
REMARK VINA RESULT:      -4.6      2.352      5.947
REMARK  7 active torsions:
REMARK  status: ('A' for Active; 'I' for Inactive)
REMARK    1  A    between atoms: C_2  and  C_3 
REMARK    2  A    between atoms: C_3  and  O_6 
REMARK    3  A    between atoms: C_3  and  C_4 
REMARK    4  A    between atoms: C_7  and  O_6 
REMARK    5  A    between atoms: C_9  and  C_10 
REMARK    6  A    between atoms: N_15  and  C_14 
REMARK    7  A    between atoms: N_20  and  C_19 
REMARK       I    between atoms: C_22  and  N_20 
ROOT
ATOM      1  C   LIG d   1      -5.985  78.135 117.366  0.00  0.00     0.161 C 
ATOM      2  C   LIG d   1      -6.022  76.792 116.956  0.00  0.00     0.016 C 
ATOM      3  C   LIG d   1      -7.207  76.022 116.921  0.00  0.00     0.038 C 
ATOM      4  C   LIG d   1      -8.469  76.590 117.152  0.00  0.00     0.028 C 
ATOM      5  C   LIG d   1      -8.424  77.815 118.059  0.00  0.00    -0.047 C 
ATOM      6  C   LIG d   1      -7.368  78.804 117.515  0.00  0.00     0.091 C 
ENDROOT
BRANCH   1   7
ATOM      7  O   LIG d   1      -5.154  78.898 116.469  0.00  0.00    -0.368 OA
BRANCH   7   8
ATOM      8  C   LIG d   1      -3.916  79.405 117.024  0.00  0.00     0.119 C 
BRANCH   8   9
ATOM      9  C   LIG d   1      -3.936  80.939 116.875  0.00  0.00     0.028 C 
ATOM     10  C   LIG d   1      -3.065  81.643 117.929  0.00  0.00     0.006 C 
ENDBRANCH   8   9
BRANCH   8  11
ATOM     11  C   LIG d   1      -2.706  78.935 116.210  0.00  0.00     0.028 C 
ATOM     12  C   LIG d   1      -1.856  77.893 116.954  0.00  0.00     0.006 C 
ENDBRANCH   8  11
ENDBRANCH   7   8
ENDBRANCH   1   7
BRANCH   6  13
ATOM     13  N   LIG d   1      -7.200  79.993 118.391  0.00  0.00    -0.311 N 
ATOM     14  C   LIG d   1      -7.473  81.237 118.000  0.00  0.00     0.210 C 
ATOM     15  C   LIG d   1      -7.211  82.318 119.053  0.00  0.00     0.109 C 
ATOM     16  O   LIG d   1      -7.937  81.543 116.892  0.00  0.00    -0.276 OA
ATOM     17  H   LIG d   1      -6.857  79.832 119.318  0.00  0.00     0.149 HD
ENDBRANCH   6  13
BRANCH   5  18
ATOM     18  N   LIG d   1      -9.783  78.387 118.104  0.00  0.00     0.381 N 
ATOM     19  H   LIG d   1     -10.404  77.749 118.560  0.00  0.00    -0.090 HD
ATOM     20  H   LIG d   1     -10.108  78.526 117.163  0.00  0.00    -0.090 HD
ATOM     21  H   LIG d   1      -9.772  79.256 118.590  0.00  0.00    -0.090 HD
ENDBRANCH   5  18
BRANCH   3  22
ATOM     22  C   LIG d   1      -7.132  74.656 116.692  0.00  0.00     0.382 C 
ATOM     23  O   LIG d   1      -6.226  74.192 115.958  0.00  0.00    -0.241 OA
ATOM     24  O   LIG d   1      -7.986  73.887 117.172  0.00  0.00    -0.241 OA
ENDBRANCH   3  22
TORSDOF 7
ENDMDL
MODEL 8
REMARK VINA RESULT:      -4.6      2.772      6.510
REMARK  7 active torsions:
REMARK  status: ('A' for Active; 'I' for Inactive)
REMARK    1  A    between atoms: C_2  and  C_3 
REMARK    2  A    between atoms: C_3  and  O_6 
REMARK    3  A    between atoms: C_3  and  C_4 
REMARK    4  A    between atoms: C_7  and  O_6 
REMARK    5  A    between atoms: C_9  and  C_10 
REMARK    6  A    between atoms: N_15  and  C_14 
REMARK    7  A    between atoms: N_20  and  C_19 
REMARK       I    between atoms: C_22  and  N_20 
ROOT
ATOM      1  C   LIG d   1      -6.486  79.566 117.571  0.00  0.00     0.161 C 
ATOM      2  C   LIG d   1      -6.152  78.290 117.088  0.00  0.00     0.016 C 
ATOM      3  C   LIG d   1      -7.046  77.194 117.101  0.00  0.00     0.038 C 
ATOM      4  C   LIG d   1      -8.393  77.341 117.462  0.00  0.00     0.028 C 
ATOM      5  C   LIG d   1      -8.639  78.492 118.432  0.00  0.00    -0.047 C 
ATOM      6  C   LIG d   1      -7.986  79.774 117.865  0.00  0.00     0.091 C 
ENDROOT
BRANCH   1   7
ATOM      7  O   LIG d   1      -6.010  80.574 116.657  0.00  0.00    -0.368 OA
BRANCH   7   8
ATOM      8  C   LIG d   1      -4.892  81.373 117.115  0.00  0.00     0.119 C 
BRANCH   8   9
ATOM      9  C   LIG d   1      -3.622  80.824 116.436  0.00  0.00     0.028 C 
ATOM     10  C   LIG d   1      -3.033  81.807 115.411  0.00  0.00     0.006 C 
ENDBRANCH   8   9
BRANCH   8  11
ATOM     11  C   LIG d   1      -4.658  81.194 118.618  0.00  0.00     0.028 C 
ATOM     12  C   LIG d   1      -3.231  81.570 119.048  0.00  0.00     0.006 C 
ENDBRANCH   8  11
ENDBRANCH   7   8
ENDBRANCH   1   7
BRANCH   6  13
ATOM     13  N   LIG d   1      -8.107  80.929 118.793  0.00  0.00    -0.311 N 
ATOM     14  C   LIG d   1      -9.116  81.797 118.754  0.00  0.00     0.210 C 
ATOM     15  C   LIG d   1      -9.037  82.926 119.787  0.00  0.00     0.109 C 
ATOM     16  O   LIG d   1     -10.085  81.722 117.985  0.00  0.00    -0.276 OA
ATOM     17  H   LIG d   1      -7.379  81.047 119.470  0.00  0.00     0.149 HD
ENDBRANCH   6  13
BRANCH   5  18
ATOM     18  N   LIG d   1     -10.097  78.618 118.614  0.00  0.00     0.381 N 
ATOM     19  H   LIG d   1     -10.573  78.212 117.833  0.00  0.00    -0.090 HD
ATOM     20  H   LIG d   1     -10.337  79.593 118.657  0.00  0.00    -0.090 HD
ATOM     21  H   LIG d   1     -10.376  78.162 119.455  0.00  0.00    -0.090 HD
ENDBRANCH   5  18
BRANCH   3  22
ATOM     22  C   LIG d   1      -6.582  75.925 116.788  0.00  0.00     0.382 C 
ATOM     23  O   LIG d   1      -7.101  74.918 117.327  0.00  0.00    -0.241 OA
ATOM     24  O   LIG d   1      -5.623  75.778 116.007  0.00  0.00    -0.241 OA
ENDBRANCH   3  22
TORSDOF 7
ENDMDL
MODEL 9
REMARK VINA RESULT:      -4.6     10.656     13.041
REMARK  7 active torsions:
REMARK  status: ('A' for Active; 'I' for Inactive)
REMARK    1  A    between atoms: C_2  and  C_3 
REMARK    2  A    between atoms: C_3  and  O_6 
REMARK    3  A    between atoms: C_3  and  C_4 
REMARK    4  A    between atoms: C_7  and  O_6 
REMARK    5  A    between atoms: C_9  and  C_10 
REMARK    6  A    between atoms: N_15  and  C_14 
REMARK    7  A    between atoms: N_20  and  C_19 
REMARK       I    between atoms: C_22  and  N_20 
ROOT
ATOM      1  C   LIG d   1     -18.830  77.236 119.003  0.00  0.00     0.161 C 
ATOM      2  C   LIG d   1     -19.842  78.123 119.407  0.00  0.00     0.016 C 
ATOM      3  C   LIG d   1     -21.078  77.699 119.948  0.00  0.00     0.038 C 
ATOM      4  C   LIG d   1     -21.327  76.355 120.264  0.00  0.00     0.028 C 
ATOM      5  C   LIG d   1     -20.532  75.374 119.409  0.00  0.00    -0.047 C 
ATOM      6  C   LIG d   1     -19.039  75.772 119.444  0.00  0.00     0.091 C 
ENDROOT
BRANCH   1   7
ATOM      7  O   LIG d   1     -17.550  77.718 119.457  0.00  0.00    -0.368 OA
BRANCH   7   8
ATOM      8  C   LIG d   1     -17.381  77.826 120.892  0.00  0.00     0.119 C 
BRANCH   8   9
ATOM      9  C   LIG d   1     -16.784  79.216 121.185  0.00  0.00     0.028 C 
ATOM     10  C   LIG d   1     -17.773  80.137 121.918  0.00  0.00     0.006 C 
ENDBRANCH   8   9
BRANCH   8  11
ATOM     11  C   LIG d   1     -16.345  76.823 121.408  0.00  0.00     0.028 C 
ATOM     12  C   LIG d   1     -16.870  75.971 122.574  0.00  0.00     0.006 C 
ENDBRANCH   8  11
ENDBRANCH   7   8
ENDBRANCH   1   7
BRANCH   6  13
ATOM     13  N   LIG d   1     -18.202  74.914 118.565  0.00  0.00    -0.311 N 
ATOM     14  C   LIG d   1     -17.536  73.847 119.002  0.00  0.00     0.210 C 
ATOM     15  C   LIG d   1     -16.718  73.114 117.934  0.00  0.00     0.109 C 
ATOM     16  O   LIG d   1     -17.571  73.418 120.165  0.00  0.00    -0.276 OA
ATOM     17  H   LIG d   1     -18.143  75.171 117.599  0.00  0.00     0.149 HD
ENDBRANCH   6  13
BRANCH   5  18
ATOM     18  N   LIG d   1     -20.782  74.019 119.936  0.00  0.00     0.381 N 
ATOM     19  H   LIG d   1     -20.380  73.338 119.323  0.00  0.00    -0.090 HD
ATOM     20  H   LIG d   1     -21.774  73.863 119.974  0.00  0.00    -0.090 HD
ATOM     21  H   LIG d   1     -20.389  73.930 120.847  0.00  0.00    -0.090 HD
ENDBRANCH   5  18
BRANCH   3  22
ATOM     22  C   LIG d   1     -22.096  78.620 120.140  0.00  0.00     0.382 C 
ATOM     23  O   LIG d   1     -21.822  79.835 120.291  0.00  0.00    -0.241 OA
ATOM     24  O   LIG d   1     -23.282  78.245 120.210  0.00  0.00    -0.241 OA
ENDBRANCH   3  22
TORSDOF 7
ENDMDL
