MODEL 1
REMARK VINA RESULT:      -6.0      0.000      0.000
REMARK  7 active torsions:
REMARK  status: ('A' for Active; 'I' for Inactive)
REMARK    1  A    between atoms: C_2  and  C_3 
REMARK    2  A    between atoms: C_3  and  O_6 
REMARK    3  A    between atoms: C_3  and  C_4 
REMARK    4  A    between atoms: C_7  and  O_6 
REMARK    5  A    between atoms: C_9  and  C_10 
REMARK    6  A    between atoms: N_15  and  C_14 
REMARK    7  A    between atoms: N_20  and  C_19 
REMARK       I    between atoms: C_22  and  N_20 
ROOT
ATOM      1  C   LIG d   1      -8.611  75.487 118.387  0.00  0.00     0.161 C 
ATOM      2  C   LIG d   1      -9.859  75.855 118.916  0.00  0.00     0.016 C 
ATOM      3  C   LIG d   1     -10.246  77.197 119.137  0.00  0.00     0.038 C 
ATOM      4  C   LIG d   1      -9.462  78.276 118.701  0.00  0.00     0.028 C 
ATOM      5  C   LIG d   1      -7.975  77.951 118.621  0.00  0.00    -0.047 C 
ATOM      6  C   LIG d   1      -7.787  76.654 117.802  0.00  0.00     0.091 C 
ENDROOT
BRANCH   1   7
ATOM      7  O   LIG d   1      -8.785  74.452 117.399  0.00  0.00    -0.368 OA
BRANCH   7   8
ATOM      8  C   LIG d   1      -8.827  73.093 117.901  0.00  0.00     0.119 C 
BRANCH   8   9
ATOM      9  C   LIG d   1      -7.429  72.479 117.694  0.00  0.00     0.028 C 
ATOM     10  C   LIG d   1      -6.804  72.884 116.348  0.00  0.00     0.006 C 
ENDBRANCH   8   9
BRANCH   8  11
ATOM     11  C   LIG d   1      -9.779  72.224 117.074  0.00  0.00     0.028 C 
ATOM     12  C   LIG d   1      -9.726  70.740 117.470  0.00  0.00     0.006 C 
ENDBRANCH   8  11
ENDBRANCH   7   8
ENDBRANCH   1   7
BRANCH   6  13
ATOM     13  N   LIG d   1      -6.368  76.218 117.746  0.00  0.00    -0.311 N 
ATOM     14  C   LIG d   1      -5.541  76.538 116.752  0.00  0.00     0.210 C 
ATOM     15  C   LIG d   1      -4.124  75.969 116.880  0.00  0.00     0.109 C 
ATOM     16  O   LIG d   1      -5.837  77.266 115.792  0.00  0.00    -0.276 OA
ATOM     17  H   LIG d   1      -6.035  75.650 118.500  0.00  0.00     0.149 HD
ENDBRANCH   6  13
BRANCH   5  18
ATOM     18  N   LIG d   1      -7.295  79.116 118.023  0.00  0.00     0.381 N 
ATOM     19  H   LIG d   1      -6.855  79.657 118.741  0.00  0.00    -0.090 HD
ATOM     20  H   LIG d   1      -7.980  79.693 117.568  0.00  0.00    -0.090 HD
ATOM     21  H   LIG d   1      -6.615  78.811 117.362  0.00  0.00    -0.090 HD
ENDBRANCH   5  18
BRANCH   3  22
ATOM     22  C   LIG d   1     -11.410  77.470 119.838  0.00  0.00     0.382 C 
ATOM     23  O   LIG d   1     -12.493  76.942 119.486  0.00  0.00    -0.241 OA
ATOM     24  O   LIG d   1     -11.401  78.273 120.791  0.00  0.00    -0.241 OA
ENDBRANCH   3  22
TORSDOF 7
ENDMDL
MODEL 2
REMARK VINA RESULT:      -5.9      2.174      4.822
REMARK  7 active torsions:
REMARK  status: ('A' for Active; 'I' for Inactive)
REMARK    1  A    between atoms: C_2  and  C_3 
REMARK    2  A    between atoms: C_3  and  O_6 
REMARK    3  A    between atoms: C_3  and  C_4 
REMARK    4  A    between atoms: C_7  and  O_6 
REMARK    5  A    between atoms: C_9  and  C_10 
REMARK    6  A    between atoms: N_15  and  C_14 
REMARK    7  A    between atoms: N_20  and  C_19 
REMARK       I    between atoms: C_22  and  N_20 
ROOT
ATOM      1  C   LIG d   1      -8.032  75.707 117.187  0.00  0.00     0.161 C 
ATOM      2  C   LIG d   1      -7.368  75.372 115.995  0.00  0.00     0.016 C 
ATOM      3  C   LIG d   1      -6.233  76.066 115.515  0.00  0.00     0.038 C 
ATOM      4  C   LIG d   1      -5.591  77.053 116.277  0.00  0.00     0.028 C 
ATOM      5  C   LIG d   1      -6.521  77.766 117.253  0.00  0.00    -0.047 C 
ATOM      6  C   LIG d   1      -7.279  76.709 118.087  0.00  0.00     0.091 C 
ENDROOT
BRANCH   1   7
ATOM      7  O   LIG d   1      -8.346  74.509 117.924  0.00  0.00    -0.368 OA
BRANCH   7   8
ATOM      8  C   LIG d   1      -8.525  73.305 117.137  0.00  0.00     0.119 C 
BRANCH   8   9
ATOM      9  C   LIG d   1      -9.875  72.683 117.544  0.00  0.00     0.028 C 
ATOM     10  C   LIG d   1      -9.808  71.149 117.643  0.00  0.00     0.006 C 
ENDBRANCH   8   9
BRANCH   8  11
ATOM     11  C   LIG d   1      -7.471  72.250 117.485  0.00  0.00     0.028 C 
ATOM     12  C   LIG d   1      -6.579  71.881 116.289  0.00  0.00     0.006 C 
ENDBRANCH   8  11
ENDBRANCH   7   8
ENDBRANCH   1   7
BRANCH   6  13
ATOM     13  N   LIG d   1      -8.273  77.320 119.008  0.00  0.00    -0.311 N 
ATOM     14  C   LIG d   1      -8.300  77.081 120.319  0.00  0.00     0.210 C 
ATOM     15  C   LIG d   1      -9.419  77.797 121.082  0.00  0.00     0.109 C 
ATOM     16  O   LIG d   1      -7.485  76.371 120.926  0.00  0.00    -0.276 OA
ATOM     17  H   LIG d   1      -8.952  77.934 118.604  0.00  0.00     0.149 HD
ENDBRANCH   6  13
BRANCH   5  18
ATOM     18  N   LIG d   1      -5.695  78.669 118.077  0.00  0.00     0.381 N 
ATOM     19  H   LIG d   1      -5.720  79.594 117.695  0.00  0.00    -0.090 HD
ATOM     20  H   LIG d   1      -4.744  78.346 118.059  0.00  0.00    -0.090 HD
ATOM     21  H   LIG d   1      -6.033  78.680 119.014  0.00  0.00    -0.090 HD
ENDBRANCH   5  18
BRANCH   3  22
ATOM     22  C   LIG d   1      -5.754  75.802 114.241  0.00  0.00     0.382 C 
ATOM     23  O   LIG d   1      -6.259  76.380 113.248  0.00  0.00    -0.241 OA
ATOM     24  O   LIG d   1      -4.853  74.960 114.067  0.00  0.00    -0.241 OA
ENDBRANCH   3  22
TORSDOF 7
ENDMDL
MODEL 3
REMARK VINA RESULT:      -5.7      2.279      4.979
REMARK  7 active torsions:
REMARK  status: ('A' for Active; 'I' for Inactive)
REMARK    1  A    between atoms: C_2  and  C_3 
REMARK    2  A    between atoms: C_3  and  O_6 
REMARK    3  A    between atoms: C_3  and  C_4 
REMARK    4  A    between atoms: C_7  and  O_6 
REMARK    5  A    between atoms: C_9  and  C_10 
REMARK    6  A    between atoms: N_15  and  C_14 
REMARK    7  A    between atoms: N_20  and  C_19 
REMARK       I    between atoms: C_22  and  N_20 
ROOT
ATOM      1  C   LIG d   1      -7.845  75.945 117.300  0.00  0.00     0.161 C 
ATOM      2  C   LIG d   1      -7.264  75.478 116.108  0.00  0.00     0.016 C 
ATOM      3  C   LIG d   1      -6.111  76.054 115.527  0.00  0.00     0.038 C 
ATOM      4  C   LIG d   1      -5.368  77.047 116.182  0.00  0.00     0.028 C 
ATOM      5  C   LIG d   1      -6.199  77.893 117.141  0.00  0.00    -0.047 C 
ATOM      6  C   LIG d   1      -6.984  76.955 118.086  0.00  0.00     0.091 C 
ENDROOT
BRANCH   1   7
ATOM      7  O   LIG d   1      -8.201  74.829 118.140  0.00  0.00    -0.368 OA
BRANCH   7   8
ATOM      8  C   LIG d   1      -9.607  74.482 118.176  0.00  0.00     0.119 C 
BRANCH   8   9
ATOM      9  C   LIG d   1      -9.853  73.430 117.077  0.00  0.00     0.028 C 
ATOM     10  C   LIG d   1      -9.822  71.993 117.622  0.00  0.00     0.006 C 
ENDBRANCH   8   9
BRANCH   8  11
ATOM     11  C   LIG d   1     -10.486  75.677 117.798  0.00  0.00     0.028 C 
ATOM     12  C   LIG d   1     -11.081  76.390 119.023  0.00  0.00     0.006 C 
ENDBRANCH   8  11
ENDBRANCH   7   8
ENDBRANCH   1   7
BRANCH   6  13
ATOM     13  N   LIG d   1      -7.887  77.700 119.002  0.00  0.00    -0.311 N 
ATOM     14  C   LIG d   1      -7.550  78.048 120.242  0.00  0.00     0.210 C 
ATOM     15  C   LIG d   1      -8.637  78.793 121.023  0.00  0.00     0.109 C 
ATOM     16  O   LIG d   1      -6.442  77.839 120.758  0.00  0.00    -0.276 OA
ATOM     17  H   LIG d   1      -8.795  77.937 118.653  0.00  0.00     0.149 HD
ENDBRANCH   6  13
BRANCH   5  18
ATOM     18  N   LIG d   1      -5.275  78.794 117.856  0.00  0.00     0.381 N 
ATOM     19  H   LIG d   1      -5.403  79.733 117.536  0.00  0.00    -0.090 HD
ATOM     20  H   LIG d   1      -4.331  78.518 117.654  0.00  0.00    -0.090 HD
ATOM     21  H   LIG d   1      -5.441  78.744 118.837  0.00  0.00    -0.090 HD
ENDBRANCH   5  18
BRANCH   3  22
ATOM     22  C   LIG d   1      -5.714  75.664 114.257  0.00  0.00     0.382 C 
ATOM     23  O   LIG d   1      -6.079  76.326 113.255  0.00  0.00    -0.241 OA
ATOM     24  O   LIG d   1      -5.033  74.634 114.097  0.00  0.00    -0.241 OA
ENDBRANCH   3  22
TORSDOF 7
ENDMDL
MODEL 4
REMARK VINA RESULT:      -5.5     15.356     18.142
REMARK  7 active torsions:
REMARK  status: ('A' for Active; 'I' for Inactive)
REMARK    1  A    between atoms: C_2  and  C_3 
REMARK    2  A    between atoms: C_3  and  O_6 
REMARK    3  A    between atoms: C_3  and  C_4 
REMARK    4  A    between atoms: C_7  and  O_6 
REMARK    5  A    between atoms: C_9  and  C_10 
REMARK    6  A    between atoms: N_15  and  C_14 
REMARK    7  A    between atoms: N_20  and  C_19 
REMARK       I    between atoms: C_22  and  N_20 
ROOT
ATOM      1  C   LIG d   1      -6.442  93.131 117.347  0.00  0.00     0.161 C 
ATOM      2  C   LIG d   1      -7.169  92.198 116.589  0.00  0.00     0.016 C 
ATOM      3  C   LIG d   1      -6.623  90.979 116.124  0.00  0.00     0.038 C 
ATOM      4  C   LIG d   1      -5.350  90.539 116.516  0.00  0.00     0.028 C 
ATOM      5  C   LIG d   1      -4.397  91.677 116.865  0.00  0.00    -0.047 C 
ATOM      6  C   LIG d   1      -5.087  92.618 117.878  0.00  0.00     0.091 C 
ENDROOT
BRANCH   1   7
ATOM      7  O   LIG d   1      -7.255  93.618 118.433  0.00  0.00    -0.368 OA
BRANCH   7   8
ATOM      8  C   LIG d   1      -7.320  95.057 118.585  0.00  0.00     0.119 C 
BRANCH   8   9
ATOM      9  C   LIG d   1      -6.968  95.384 120.050  0.00  0.00     0.028 C 
ATOM     10  C   LIG d   1      -6.839  94.121 120.918  0.00  0.00     0.006 C 
ENDBRANCH   8   9
BRANCH   8  11
ATOM     11  C   LIG d   1      -8.747  95.574 118.386  0.00  0.00     0.028 C 
ATOM     12  C   LIG d   1      -8.800  97.085 118.105  0.00  0.00     0.006 C 
ENDBRANCH   8  11
ENDBRANCH   7   8
ENDBRANCH   1   7
BRANCH   6  13
ATOM     13  N   LIG d   1      -4.255  93.804 118.209  0.00  0.00    -0.311 N 
ATOM     14  C   LIG d   1      -3.468  93.872 119.281  0.00  0.00     0.210 C 
ATOM     15  C   LIG d   1      -2.711  95.193 119.445  0.00  0.00     0.109 C 
ATOM     16  O   LIG d   1      -3.300  92.951 120.094  0.00  0.00    -0.276 OA
ATOM     17  H   LIG d   1      -4.307  94.586 117.585  0.00  0.00     0.149 HD
ENDBRANCH   6  13
BRANCH   5  18
ATOM     18  N   LIG d   1      -3.156  91.074 117.388  0.00  0.00     0.381 N 
ATOM     19  H   LIG d   1      -2.465  91.785 117.523  0.00  0.00    -0.090 HD
ATOM     20  H   LIG d   1      -2.805  90.417 116.714  0.00  0.00    -0.090 HD
ATOM     21  H   LIG d   1      -3.339  90.611 118.250  0.00  0.00    -0.090 HD
ENDBRANCH   5  18
BRANCH   3  22
ATOM     22  C   LIG d   1      -7.339  90.205 115.224  0.00  0.00     0.382 C 
ATOM     23  O   LIG d   1      -7.174  90.364 113.990  0.00  0.00    -0.241 OA
ATOM     24  O   LIG d   1      -8.180  89.380 115.629  0.00  0.00    -0.241 OA
ENDBRANCH   3  22
TORSDOF 7
ENDMDL
MODEL 5
REMARK VINA RESULT:      -5.4     15.268     17.350
REMARK  7 active torsions:
REMARK  status: ('A' for Active; 'I' for Inactive)
REMARK    1  A    between atoms: C_2  and  C_3 
REMARK    2  A    between atoms: C_3  and  O_6 
REMARK    3  A    between atoms: C_3  and  C_4 
REMARK    4  A    between atoms: C_7  and  O_6 
REMARK    5  A    between atoms: C_9  and  C_10 
REMARK    6  A    between atoms: N_15  and  C_14 
REMARK    7  A    between atoms: N_20  and  C_19 
REMARK       I    between atoms: C_22  and  N_20 
ROOT
ATOM      1  C   LIG d   1      -4.718  91.931 117.741  0.00  0.00     0.161 C 
ATOM      2  C   LIG d   1      -4.979  91.212 116.563  0.00  0.00     0.016 C 
ATOM      3  C   LIG d   1      -6.121  91.427 115.757  0.00  0.00     0.038 C 
ATOM      4  C   LIG d   1      -7.009  92.486 115.996  0.00  0.00     0.028 C 
ATOM      5  C   LIG d   1      -7.059  92.916 117.458  0.00  0.00    -0.047 C 
ATOM      6  C   LIG d   1      -5.618  93.166 117.958  0.00  0.00     0.091 C 
ENDROOT
BRANCH   1   7
ATOM      7  O   LIG d   1      -3.328  92.310 117.785  0.00  0.00    -0.368 OA
BRANCH   7   8
ATOM      8  C   LIG d   1      -2.494  91.566 118.707  0.00  0.00     0.119 C 
BRANCH   8   9
ATOM      9  C   LIG d   1      -1.769  90.474 117.897  0.00  0.00     0.028 C 
ATOM     10  C   LIG d   1      -2.296  89.064 118.210  0.00  0.00     0.006 C 
ENDBRANCH   8   9
BRANCH   8  11
ATOM     11  C   LIG d   1      -3.338  90.813 119.739  0.00  0.00     0.028 C 
ATOM     12  C   LIG d   1      -3.146  91.344 121.168  0.00  0.00     0.006 C 
ENDBRANCH   8  11
ENDBRANCH   7   8
ENDBRANCH   1   7
BRANCH   6  13
ATOM     13  N   LIG d   1      -5.571  93.509 119.403  0.00  0.00    -0.311 N 
ATOM     14  C   LIG d   1      -5.638  94.757 119.863  0.00  0.00     0.210 C 
ATOM     15  C   LIG d   1      -5.551  94.891 121.387  0.00  0.00     0.109 C 
ATOM     16  O   LIG d   1      -5.795  95.764 119.156  0.00  0.00    -0.276 OA
ATOM     17  H   LIG d   1      -5.476  92.750 120.049  0.00  0.00     0.149 HD
ENDBRANCH   6  13
BRANCH   5  18
ATOM     18  N   LIG d   1      -7.916  94.114 117.541  0.00  0.00     0.381 N 
ATOM     19  H   LIG d   1      -7.419  94.910 117.196  0.00  0.00    -0.090 HD
ATOM     20  H   LIG d   1      -8.149  94.281 118.504  0.00  0.00    -0.090 HD
ATOM     21  H   LIG d   1      -8.747  93.976 117.010  0.00  0.00    -0.090 HD
ENDBRANCH   5  18
BRANCH   3  22
ATOM     22  C   LIG d   1      -6.405  90.550 114.721  0.00  0.00     0.382 C 
ATOM     23  O   LIG d   1      -7.136  90.919 113.770  0.00  0.00    -0.241 OA
ATOM     24  O   LIG d   1      -5.976  89.381 114.747  0.00  0.00    -0.241 OA
ENDBRANCH   3  22
TORSDOF 7
ENDMDL
MODEL 6
REMARK VINA RESULT:      -5.3     15.662     18.372
REMARK  7 active torsions:
REMARK  status: ('A' for Active; 'I' for Inactive)
REMARK    1  A    between atoms: C_2  and  C_3 
REMARK    2  A    between atoms: C_3  and  O_6 
REMARK    3  A    between atoms: C_3  and  C_4 
REMARK    4  A    between atoms: C_7  and  O_6 
REMARK    5  A    between atoms: C_9  and  C_10 
REMARK    6  A    between atoms: N_15  and  C_14 
REMARK    7  A    between atoms: N_20  and  C_19 
REMARK       I    between atoms: C_22  and  N_20 
ROOT
ATOM      1  C   LIG d   1      -5.984  93.536 117.991  0.00  0.00     0.161 C 
ATOM      2  C   LIG d   1      -6.940  92.680 117.418  0.00  0.00     0.016 C 
ATOM      3  C   LIG d   1      -6.620  91.426 116.849  0.00  0.00     0.038 C 
ATOM      4  C   LIG d   1      -5.335  90.873 116.950  0.00  0.00     0.028 C 
ATOM      5  C   LIG d   1      -4.232  91.919 117.072  0.00  0.00    -0.047 C 
ATOM      6  C   LIG d   1      -4.596  92.900 118.210  0.00  0.00     0.091 C 
ENDROOT
BRANCH   1   7
ATOM      7  O   LIG d   1      -6.490  94.073 119.230  0.00  0.00    -0.368 OA
BRANCH   7   8
ATOM      8  C   LIG d   1      -7.712  94.846 119.137  0.00  0.00     0.119 C 
BRANCH   8   9
ATOM      9  C   LIG d   1      -7.360  96.190 118.471  0.00  0.00     0.028 C 
ATOM     10  C   LIG d   1      -8.607  97.030 118.148  0.00  0.00     0.006 C 
ENDBRANCH   8   9
BRANCH   8  11
ATOM     11  C   LIG d   1      -8.248  95.209 120.525  0.00  0.00     0.028 C 
ATOM     12  C   LIG d   1      -9.481  94.382 120.923  0.00  0.00     0.006 C 
ENDBRANCH   8  11
ENDBRANCH   7   8
ENDBRANCH   1   7
BRANCH   6  13
ATOM     13  N   LIG d   1      -3.611  94.005 118.342  0.00  0.00    -0.311 N 
ATOM     14  C   LIG d   1      -2.875  94.204 119.434  0.00  0.00     0.210 C 
ATOM     15  C   LIG d   1      -1.936  95.413 119.369  0.00  0.00     0.109 C 
ATOM     16  O   LIG d   1      -2.887  93.476 120.438  0.00  0.00    -0.276 OA
ATOM     17  H   LIG d   1      -3.514  94.625 117.562  0.00  0.00     0.149 HD
ENDBRANCH   6  13
BRANCH   5  18
ATOM     18  N   LIG d   1      -2.964  91.204 117.308  0.00  0.00     0.381 N 
ATOM     19  H   LIG d   1      -2.195  91.770 117.009  0.00  0.00    -0.090 HD
ATOM     20  H   LIG d   1      -2.962  90.358 116.766  0.00  0.00    -0.090 HD
ATOM     21  H   LIG d   1      -2.869  90.988 118.276  0.00  0.00    -0.090 HD
ENDBRANCH   5  18
BRANCH   3  22
ATOM     22  C   LIG d   1      -7.582  90.730 116.133  0.00  0.00     0.382 C 
ATOM     23  O   LIG d   1      -7.594  89.476 116.154  0.00  0.00    -0.241 OA
ATOM     24  O   LIG d   1      -8.412  91.340 115.433  0.00  0.00    -0.241 OA
ENDBRANCH   3  22
TORSDOF 7
ENDMDL
MODEL 7
REMARK VINA RESULT:      -5.2     15.693     17.793
REMARK  7 active torsions:
REMARK  status: ('A' for Active; 'I' for Inactive)
REMARK    1  A    between atoms: C_2  and  C_3 
REMARK    2  A    between atoms: C_3  and  O_6 
REMARK    3  A    between atoms: C_3  and  C_4 
REMARK    4  A    between atoms: C_7  and  O_6 
REMARK    5  A    between atoms: C_9  and  C_10 
REMARK    6  A    between atoms: N_15  and  C_14 
REMARK    7  A    between atoms: N_20  and  C_19 
REMARK       I    between atoms: C_22  and  N_20 
ROOT
ATOM      1  C   LIG d   1      -4.698  91.910 117.677  0.00  0.00     0.161 C 
ATOM      2  C   LIG d   1      -4.968  91.183 116.505  0.00  0.00     0.016 C 
ATOM      3  C   LIG d   1      -6.129  91.376 115.721  0.00  0.00     0.038 C 
ATOM      4  C   LIG d   1      -7.030  92.420 115.974  0.00  0.00     0.028 C 
ATOM      5  C   LIG d   1      -7.061  92.853 117.436  0.00  0.00    -0.047 C 
ATOM      6  C   LIG d   1      -5.615  93.129 117.908  0.00  0.00     0.091 C 
ENDROOT
BRANCH   1   7
ATOM      7  O   LIG d   1      -3.314  92.313 117.693  0.00  0.00    -0.368 OA
BRANCH   7   8
ATOM      8  C   LIG d   1      -2.475  91.671 118.684  0.00  0.00     0.119 C 
BRANCH   8   9
ATOM      9  C   LIG d   1      -1.540  92.748 119.267  0.00  0.00     0.028 C 
ATOM     10  C   LIG d   1      -2.010  94.175 118.937  0.00  0.00     0.006 C 
ENDBRANCH   8   9
BRANCH   8  11
ATOM     11  C   LIG d   1      -1.549  90.634 118.043  0.00  0.00     0.028 C 
ATOM     12  C   LIG d   1      -0.069  91.047 118.088  0.00  0.00     0.006 C 
ENDBRANCH   8  11
ENDBRANCH   7   8
ENDBRANCH   1   7
BRANCH   6  13
ATOM     13  N   LIG d   1      -5.546  93.477 119.351  0.00  0.00    -0.311 N 
ATOM     14  C   LIG d   1      -5.652  94.722 119.811  0.00  0.00     0.210 C 
ATOM     15  C   LIG d   1      -5.533  94.862 121.332  0.00  0.00     0.109 C 
ATOM     16  O   LIG d   1      -5.866  95.720 119.107  0.00  0.00    -0.276 OA
ATOM     17  H   LIG d   1      -5.406  92.723 119.995  0.00  0.00     0.149 HD
ENDBRANCH   6  13
BRANCH   5  18
ATOM     18  N   LIG d   1      -7.937  94.035 117.533  0.00  0.00     0.381 N 
ATOM     19  H   LIG d   1      -8.744  93.907 116.956  0.00  0.00    -0.090 HD
ATOM     20  H   LIG d   1      -7.435  94.840 117.199  0.00  0.00    -0.090 HD
ATOM     21  H   LIG d   1      -8.215  94.177 118.479  0.00  0.00    -0.090 HD
ENDBRANCH   5  18
BRANCH   3  22
ATOM     22  C   LIG d   1      -6.417  90.492 114.692  0.00  0.00     0.382 C 
ATOM     23  O   LIG d   1      -7.211  90.828 113.780  0.00  0.00    -0.241 OA
ATOM     24  O   LIG d   1      -5.929  89.346 114.688  0.00  0.00    -0.241 OA
ENDBRANCH   3  22
TORSDOF 7
ENDMDL
MODEL 8
REMARK VINA RESULT:      -4.9     14.365     16.707
REMARK  7 active torsions:
REMARK  status: ('A' for Active; 'I' for Inactive)
REMARK    1  A    between atoms: C_2  and  C_3 
REMARK    2  A    between atoms: C_3  and  O_6 
REMARK    3  A    between atoms: C_3  and  C_4 
REMARK    4  A    between atoms: C_7  and  O_6 
REMARK    5  A    between atoms: C_9  and  C_10 
REMARK    6  A    between atoms: N_15  and  C_14 
REMARK    7  A    between atoms: N_20  and  C_19 
REMARK       I    between atoms: C_22  and  N_20 
ROOT
ATOM      1  C   LIG d   1      -4.927  91.735 117.731  0.00  0.00     0.161 C 
ATOM      2  C   LIG d   1      -5.079  92.830 118.598  0.00  0.00     0.016 C 
ATOM      3  C   LIG d   1      -6.120  93.779 118.478  0.00  0.00     0.038 C 
ATOM      4  C   LIG d   1      -7.175  93.612 117.569  0.00  0.00     0.028 C 
ATOM      5  C   LIG d   1      -6.791  92.794 116.340  0.00  0.00    -0.047 C 
ATOM      6  C   LIG d   1      -6.132  91.474 116.802  0.00  0.00     0.091 C 
ENDROOT
BRANCH   1   7
ATOM      7  O   LIG d   1      -4.615  90.551 118.491  0.00  0.00    -0.368 OA
BRANCH   7   8
ATOM      8  C   LIG d   1      -3.287  90.003 118.298  0.00  0.00     0.119 C 
BRANCH   8   9
ATOM      9  C   LIG d   1      -2.789  89.505 119.669  0.00  0.00     0.028 C 
ATOM     10  C   LIG d   1      -2.528  87.989 119.684  0.00  0.00     0.006 C 
ENDBRANCH   8   9
BRANCH   8  11
ATOM     11  C   LIG d   1      -2.293  91.087 117.874  0.00  0.00     0.028 C 
ATOM     12  C   LIG d   1      -0.901  90.524 117.546  0.00  0.00     0.006 C 
ENDBRANCH   8  11
ENDBRANCH   7   8
ENDBRANCH   1   7
BRANCH   6  13
ATOM     13  N   LIG d   1      -5.650  90.652 115.662  0.00  0.00    -0.311 N 
ATOM     14  C   LIG d   1      -6.413  89.768 115.021  0.00  0.00     0.210 C 
ATOM     15  C   LIG d   1      -5.714  89.012 113.887  0.00  0.00     0.109 C 
ATOM     16  O   LIG d   1      -7.612  89.563 115.263  0.00  0.00    -0.276 OA
ATOM     17  H   LIG d   1      -4.698  90.778 115.379  0.00  0.00     0.149 HD
ENDBRANCH   6  13
BRANCH   5  18
ATOM     18  N   LIG d   1      -8.016  92.581 115.546  0.00  0.00     0.381 N 
ATOM     19  H   LIG d   1      -7.902  92.977 114.635  0.00  0.00    -0.090 HD
ATOM     20  H   LIG d   1      -8.782  93.046 116.000  0.00  0.00    -0.090 HD
ATOM     21  H   LIG d   1      -8.208  91.606 115.471  0.00  0.00    -0.090 HD
ENDBRANCH   5  18
BRANCH   3  22
ATOM     22  C   LIG d   1      -6.091  94.933 119.248  0.00  0.00     0.382 C 
ATOM     23  O   LIG d   1      -6.815  95.910 118.940  0.00  0.00    -0.241 OA
ATOM     24  O   LIG d   1      -5.317  95.024 120.219  0.00  0.00    -0.241 OA
ENDBRANCH   3  22
TORSDOF 7
ENDMDL
MODEL 9
REMARK VINA RESULT:      -4.9     16.368     19.100
REMARK  7 active torsions:
REMARK  status: ('A' for Active; 'I' for Inactive)
REMARK    1  A    between atoms: C_2  and  C_3 
REMARK    2  A    between atoms: C_3  and  O_6 
REMARK    3  A    between atoms: C_3  and  C_4 
REMARK    4  A    between atoms: C_7  and  O_6 
REMARK    5  A    between atoms: C_9  and  C_10 
REMARK    6  A    between atoms: N_15  and  C_14 
REMARK    7  A    between atoms: N_20  and  C_19 
REMARK       I    between atoms: C_22  and  N_20 
ROOT
ATOM      1  C   LIG d   1      -4.756  93.532 118.711  0.00  0.00     0.161 C 
ATOM      2  C   LIG d   1      -4.726  92.569 117.688  0.00  0.00     0.016 C 
ATOM      3  C   LIG d   1      -5.816  92.320 116.822  0.00  0.00     0.038 C 
ATOM      4  C   LIG d   1      -6.963  93.128 116.823  0.00  0.00     0.028 C 
ATOM      5  C   LIG d   1      -7.240  93.785 118.171  0.00  0.00    -0.047 C 
ATOM      6  C   LIG d   1      -5.957  94.498 118.655  0.00  0.00     0.091 C 
ENDROOT
BRANCH   1   7
ATOM      7  O   LIG d   1      -3.518  94.271 118.721  0.00  0.00    -0.368 OA
BRANCH   7   8
ATOM      8  C   LIG d   1      -2.344  93.554 118.267  0.00  0.00     0.119 C 
BRANCH   8   9
ATOM      9  C   LIG d   1      -1.546  93.133 119.516  0.00  0.00     0.028 C 
ATOM     10  C   LIG d   1      -1.768  91.657 119.884  0.00  0.00     0.006 C 
ENDBRANCH   8   9
BRANCH   8  11
ATOM     11  C   LIG d   1      -1.405  94.469 117.475  0.00  0.00     0.028 C 
ATOM     12  C   LIG d   1      -0.648  95.464 118.369  0.00  0.00     0.006 C 
ENDBRANCH   8  11
ENDBRANCH   7   8
ENDBRANCH   1   7
BRANCH   6  13
ATOM     13  N   LIG d   1      -6.116  95.096 120.006  0.00  0.00    -0.311 N 
ATOM     14  C   LIG d   1      -6.042  96.405 120.242  0.00  0.00     0.210 C 
ATOM     15  C   LIG d   1      -6.215  96.808 121.710  0.00  0.00     0.109 C 
ATOM     16  O   LIG d   1      -5.882  97.273 119.371  0.00  0.00    -0.276 OA
ATOM     17  H   LIG d   1      -6.281  94.467 120.767  0.00  0.00     0.149 HD
ENDBRANCH   6  13
BRANCH   5  18
ATOM     18  N   LIG d   1      -8.380  94.704 117.993  0.00  0.00     0.381 N 
ATOM     19  H   LIG d   1      -8.375  95.074 117.064  0.00  0.00    -0.090 HD
ATOM     20  H   LIG d   1      -8.285  95.469 118.638  0.00  0.00    -0.090 HD
ATOM     21  H   LIG d   1      -9.236  94.222 118.161  0.00  0.00    -0.090 HD
ENDBRANCH   5  18
BRANCH   3  22
ATOM     22  C   LIG d   1      -5.781  91.228 115.969  0.00  0.00     0.382 C 
ATOM     23  O   LIG d   1      -5.450  90.100 116.408  0.00  0.00    -0.241 OA
ATOM     24  O   LIG d   1      -6.032  91.364 114.757  0.00  0.00    -0.241 OA
ENDBRANCH   3  22
TORSDOF 7
ENDMDL
