MODEL 1
REMARK VINA RESULT:      -4.8      0.000      0.000
REMARK  7 active torsions:
REMARK  status: ('A' for Active; 'I' for Inactive)
REMARK    1  A    between atoms: C_2  and  C_3 
REMARK    2  A    between atoms: C_3  and  O_6 
REMARK    3  A    between atoms: C_3  and  C_4 
REMARK    4  A    between atoms: C_7  and  O_6 
REMARK    5  A    between atoms: C_9  and  C_10 
REMARK    6  A    between atoms: N_15  and  C_14 
REMARK    7  A    between atoms: N_20  and  C_19 
REMARK       I    between atoms: C_22  and  N_20 
ROOT
ATOM      1  C   LIG d   1      -7.215  76.659 119.381  0.00  0.00     0.161 C 
ATOM      2  C   LIG d   1      -8.527  77.149 119.268  0.00  0.00     0.016 C 
ATOM      3  C   LIG d   1      -8.843  78.399 118.687  0.00  0.00     0.038 C 
ATOM      4  C   LIG d   1      -7.876  79.180 118.038  0.00  0.00     0.028 C 
ATOM      5  C   LIG d   1      -6.464  78.963 118.571  0.00  0.00    -0.047 C 
ATOM      6  C   LIG d   1      -6.159  77.447 118.579  0.00  0.00     0.091 C 
ENDROOT
BRANCH   1   7
ATOM      7  O   LIG d   1      -7.182  75.264 119.017  0.00  0.00    -0.368 OA
BRANCH   7   8
ATOM      8  C   LIG d   1      -8.467  74.632 118.799  0.00  0.00     0.119 C 
BRANCH   8   9
ATOM      9  C   LIG d   1      -8.579  73.456 119.790  0.00  0.00     0.028 C 
ATOM     10  C   LIG d   1      -8.473  73.911 121.255  0.00  0.00     0.006 C 
ENDBRANCH   8   9
BRANCH   8  11
ATOM     11  C   LIG d   1      -8.548  73.998 117.407  0.00  0.00     0.028 C 
ATOM     12  C   LIG d   1      -8.716  72.472 117.456  0.00  0.00     0.006 C 
ENDBRANCH   8  11
ENDBRANCH   7   8
ENDBRANCH   1   7
BRANCH   6  13
ATOM     13  N   LIG d   1      -4.828  77.140 119.166  0.00  0.00    -0.311 N 
ATOM     14  C   LIG d   1      -3.730  76.956 118.435  0.00  0.00     0.210 C 
ATOM     15  C   LIG d   1      -2.466  76.630 119.237  0.00  0.00     0.109 C 
ATOM     16  O   LIG d   1      -3.675  77.064 117.201  0.00  0.00    -0.276 OA
ATOM     17  H   LIG d   1      -4.775  77.065 120.163  0.00  0.00     0.149 HD
ENDBRANCH   6  13
BRANCH   5  18
ATOM     18  N   LIG d   1      -5.541  79.733 117.717  0.00  0.00     0.381 N 
ATOM     19  H   LIG d   1      -5.759  79.575 116.753  0.00  0.00    -0.090 HD
ATOM     20  H   LIG d   1      -4.602  79.416 117.884  0.00  0.00    -0.090 HD
ATOM     21  H   LIG d   1      -5.613  80.705 117.926  0.00  0.00    -0.090 HD
ENDBRANCH   5  18
BRANCH   3  22
ATOM     22  C   LIG d   1     -10.134  78.896 118.786  0.00  0.00     0.382 C 
ATOM     23  O   LIG d   1     -11.065  78.150 119.173  0.00  0.00    -0.241 OA
ATOM     24  O   LIG d   1     -10.386  80.069 118.451  0.00  0.00    -0.241 OA
ENDBRANCH   3  22
TORSDOF 7
ENDMDL
MODEL 2
REMARK VINA RESULT:      -4.8      3.264      4.860
REMARK  7 active torsions:
REMARK  status: ('A' for Active; 'I' for Inactive)
REMARK    1  A    between atoms: C_2  and  C_3 
REMARK    2  A    between atoms: C_3  and  O_6 
REMARK    3  A    between atoms: C_3  and  C_4 
REMARK    4  A    between atoms: C_7  and  O_6 
REMARK    5  A    between atoms: C_9  and  C_10 
REMARK    6  A    between atoms: N_15  and  C_14 
REMARK    7  A    between atoms: N_20  and  C_19 
REMARK       I    between atoms: C_22  and  N_20 
ROOT
ATOM      1  C   LIG d   1      -9.281  77.711 118.941  0.00  0.00     0.161 C 
ATOM      2  C   LIG d   1      -8.485  78.679 118.307  0.00  0.00     0.016 C 
ATOM      3  C   LIG d   1      -8.602  80.066 118.553  0.00  0.00     0.038 C 
ATOM      4  C   LIG d   1      -9.426  80.572 119.570  0.00  0.00     0.028 C 
ATOM      5  C   LIG d   1     -10.616  79.674 119.888  0.00  0.00    -0.047 C 
ATOM      6  C   LIG d   1     -10.108  78.235 120.135  0.00  0.00     0.091 C 
ENDROOT
BRANCH   1   7
ATOM      7  O   LIG d   1      -8.464  76.597 119.349  0.00  0.00    -0.368 OA
BRANCH   7   8
ATOM      8  C   LIG d   1      -8.848  75.300 118.829  0.00  0.00     0.119 C 
BRANCH   8   9
ATOM      9  C   LIG d   1      -8.712  74.282 119.978  0.00  0.00     0.028 C 
ATOM     10  C   LIG d   1      -8.191  74.925 121.274  0.00  0.00     0.006 C 
ENDBRANCH   8   9
BRANCH   8  11
ATOM     11  C   LIG d   1      -7.874  74.823 117.748  0.00  0.00     0.028 C 
ATOM     12  C   LIG d   1      -7.971  73.312 117.483  0.00  0.00     0.006 C 
ENDBRANCH   8  11
ENDBRANCH   7   8
ENDBRANCH   1   7
BRANCH   6  13
ATOM     13  N   LIG d   1     -11.217  77.274 120.370  0.00  0.00    -0.311 N 
ATOM     14  C   LIG d   1     -11.629  76.912 121.583  0.00  0.00     0.210 C 
ATOM     15  C   LIG d   1     -12.774  75.895 121.601  0.00  0.00     0.109 C 
ATOM     16  O   LIG d   1     -11.176  77.361 122.647  0.00  0.00    -0.276 OA
ATOM     17  H   LIG d   1     -11.662  76.885 119.562  0.00  0.00     0.149 HD
ENDBRANCH   6  13
BRANCH   5  18
ATOM     18  N   LIG d   1     -11.310  80.250 121.055  0.00  0.00     0.381 N 
ATOM     19  H   LIG d   1     -11.536  81.208 120.876  0.00  0.00    -0.090 HD
ATOM     20  H   LIG d   1     -10.696  80.214 121.849  0.00  0.00    -0.090 HD
ATOM     21  H   LIG d   1     -12.142  79.735 121.246  0.00  0.00    -0.090 HD
ENDBRANCH   5  18
BRANCH   3  22
ATOM     22  C   LIG d   1      -7.919  80.967 117.750  0.00  0.00     0.382 C 
ATOM     23  O   LIG d   1      -8.541  81.896 117.180  0.00  0.00    -0.241 OA
ATOM     24  O   LIG d   1      -6.696  80.836 117.553  0.00  0.00    -0.241 OA
ENDBRANCH   3  22
TORSDOF 7
ENDMDL
MODEL 3
REMARK VINA RESULT:      -4.7     11.600     14.937
REMARK  7 active torsions:
REMARK  status: ('A' for Active; 'I' for Inactive)
REMARK    1  A    between atoms: C_2  and  C_3 
REMARK    2  A    between atoms: C_3  and  O_6 
REMARK    3  A    between atoms: C_3  and  C_4 
REMARK    4  A    between atoms: C_7  and  O_6 
REMARK    5  A    between atoms: C_9  and  C_10 
REMARK    6  A    between atoms: N_15  and  C_14 
REMARK    7  A    between atoms: N_20  and  C_19 
REMARK       I    between atoms: C_22  and  N_20 
ROOT
ATOM      1  C   LIG d   1     -13.869  64.556 120.809  0.00  0.00     0.161 C 
ATOM      2  C   LIG d   1     -13.547  63.236 121.168  0.00  0.00     0.016 C 
ATOM      3  C   LIG d   1     -13.887  62.111 120.383  0.00  0.00     0.038 C 
ATOM      4  C   LIG d   1     -14.444  62.242 119.102  0.00  0.00     0.028 C 
ATOM      5  C   LIG d   1     -15.244  63.527 118.918  0.00  0.00    -0.047 C 
ATOM      6  C   LIG d   1     -14.377  64.726 119.362  0.00  0.00     0.091 C 
ENDROOT
BRANCH   1   7
ATOM      7  O   LIG d   1     -12.738  65.417 121.048  0.00  0.00    -0.368 OA
BRANCH   7   8
ATOM      8  C   LIG d   1     -12.750  66.155 122.294  0.00  0.00     0.119 C 
BRANCH   8   9
ATOM      9  C   LIG d   1     -13.265  67.575 121.986  0.00  0.00     0.028 C 
ATOM     10  C   LIG d   1     -12.390  68.304 120.953  0.00  0.00     0.006 C 
ENDBRANCH   8   9
BRANCH   8  11
ATOM     11  C   LIG d   1     -11.333  66.348 122.842  0.00  0.00     0.028 C 
ATOM     12  C   LIG d   1     -10.676  65.026 123.272  0.00  0.00     0.006 C 
ENDBRANCH   8  11
ENDBRANCH   7   8
ENDBRANCH   1   7
BRANCH   6  13
ATOM     13  N   LIG d   1     -15.114  66.015 119.294  0.00  0.00    -0.311 N 
ATOM     14  C   LIG d   1     -14.739  67.034 118.523  0.00  0.00     0.210 C 
ATOM     15  C   LIG d   1     -15.629  68.278 118.617  0.00  0.00     0.109 C 
ATOM     16  O   LIG d   1     -13.773  67.015 117.746  0.00  0.00    -0.276 OA
ATOM     17  H   LIG d   1     -15.929  66.105 119.869  0.00  0.00     0.149 HD
ENDBRANCH   6  13
BRANCH   5  18
ATOM     18  N   LIG d   1     -15.650  63.600 117.501  0.00  0.00     0.381 N 
ATOM     19  H   LIG d   1     -14.849  63.483 116.913  0.00  0.00    -0.090 HD
ATOM     20  H   LIG d   1     -16.043  64.507 117.322  0.00  0.00    -0.090 HD
ATOM     21  H   LIG d   1     -16.323  62.893 117.302  0.00  0.00    -0.090 HD
ENDBRANCH   5  18
BRANCH   3  22
ATOM     22  C   LIG d   1     -13.707  60.835 120.895  0.00  0.00     0.382 C 
ATOM     23  O   LIG d   1     -13.613  59.855 120.118  0.00  0.00    -0.241 OA
ATOM     24  O   LIG d   1     -13.681  60.647 122.126  0.00  0.00    -0.241 OA
ENDBRANCH   3  22
TORSDOF 7
ENDMDL
MODEL 4
REMARK VINA RESULT:      -4.7      3.183      5.388
REMARK  7 active torsions:
REMARK  status: ('A' for Active; 'I' for Inactive)
REMARK    1  A    between atoms: C_2  and  C_3 
REMARK    2  A    between atoms: C_3  and  O_6 
REMARK    3  A    between atoms: C_3  and  C_4 
REMARK    4  A    between atoms: C_7  and  O_6 
REMARK    5  A    between atoms: C_9  and  C_10 
REMARK    6  A    between atoms: N_15  and  C_14 
REMARK    7  A    between atoms: N_20  and  C_19 
REMARK       I    between atoms: C_22  and  N_20 
ROOT
ATOM      1  C   LIG d   1     -10.034  77.132 118.746  0.00  0.00     0.161 C 
ATOM      2  C   LIG d   1      -8.909  77.801 118.236  0.00  0.00     0.016 C 
ATOM      3  C   LIG d   1      -8.567  79.128 118.585  0.00  0.00     0.038 C 
ATOM      4  C   LIG d   1      -9.249  79.829 119.590  0.00  0.00     0.028 C 
ATOM      5  C   LIG d   1     -10.695  79.379 119.769  0.00  0.00    -0.047 C 
ATOM      6  C   LIG d   1     -10.726  77.842 119.929  0.00  0.00     0.091 C 
ENDROOT
BRANCH   1   7
ATOM      7  O   LIG d   1      -9.678  75.784 119.110  0.00  0.00    -0.368 OA
BRANCH   7   8
ATOM      8  C   LIG d   1      -8.262  75.519 119.267  0.00  0.00     0.119 C 
BRANCH   8   9
ATOM      9  C   LIG d   1      -7.974  74.147 118.626  0.00  0.00     0.028 C 
ATOM     10  C   LIG d   1      -8.537  74.037 117.199  0.00  0.00     0.006 C 
ENDBRANCH   8   9
BRANCH   8  11
ATOM     11  C   LIG d   1      -7.885  75.364 120.744  0.00  0.00     0.028 C 
ATOM     12  C   LIG d   1      -7.159  76.596 121.306  0.00  0.00     0.006 C 
ENDBRANCH   8  11
ENDBRANCH   7   8
ENDBRANCH   1   7
BRANCH   6  13
ATOM     13  N   LIG d   1     -12.111  77.310 120.024  0.00  0.00    -0.311 N 
ATOM     14  C   LIG d   1     -12.482  76.386 120.910  0.00  0.00     0.210 C 
ATOM     15  C   LIG d   1     -13.952  75.963 120.824  0.00  0.00     0.109 C 
ATOM     16  O   LIG d   1     -11.742  75.901 121.778  0.00  0.00    -0.276 OA
ATOM     17  H   LIG d   1     -12.784  77.671 119.377  0.00  0.00     0.149 HD
ENDBRANCH   6  13
BRANCH   5  18
ATOM     18  N   LIG d   1     -11.244  80.093 120.937  0.00  0.00     0.381 N 
ATOM     19  H   LIG d   1     -11.000  79.607 121.776  0.00  0.00    -0.090 HD
ATOM     20  H   LIG d   1     -12.246  80.115 120.864  0.00  0.00    -0.090 HD
ATOM     21  H   LIG d   1     -10.885  81.022 120.967  0.00  0.00    -0.090 HD
ENDBRANCH   5  18
BRANCH   3  22
ATOM     22  C   LIG d   1      -7.558  79.781 117.895  0.00  0.00     0.382 C 
ATOM     23  O   LIG d   1      -7.740  80.949 117.474  0.00  0.00    -0.241 OA
ATOM     24  O   LIG d   1      -6.483  79.202 117.650  0.00  0.00    -0.241 OA
ENDBRANCH   3  22
TORSDOF 7
ENDMDL
MODEL 5
REMARK VINA RESULT:      -4.6     18.160     19.617
REMARK  7 active torsions:
REMARK  status: ('A' for Active; 'I' for Inactive)
REMARK    1  A    between atoms: C_2  and  C_3 
REMARK    2  A    between atoms: C_3  and  O_6 
REMARK    3  A    between atoms: C_3  and  C_4 
REMARK    4  A    between atoms: C_7  and  O_6 
REMARK    5  A    between atoms: C_9  and  C_10 
REMARK    6  A    between atoms: N_15  and  C_14 
REMARK    7  A    between atoms: N_20  and  C_19 
REMARK       I    between atoms: C_22  and  N_20 
ROOT
ATOM      1  C   LIG d   1      -0.452  59.225 120.648  0.00  0.00     0.161 C 
ATOM      2  C   LIG d   1      -0.364  60.154 121.698  0.00  0.00     0.016 C 
ATOM      3  C   LIG d   1       0.837  60.433 122.390  0.00  0.00     0.038 C 
ATOM      4  C   LIG d   1       2.071  59.908 121.977  0.00  0.00     0.028 C 
ATOM      5  C   LIG d   1       1.947  58.578 121.242  0.00  0.00    -0.047 C 
ATOM      6  C   LIG d   1       0.905  58.725 120.110  0.00  0.00     0.091 C 
ENDROOT
BRANCH   1   7
ATOM      7  O   LIG d   1      -1.245  59.773 119.576  0.00  0.00    -0.368 OA
BRANCH   7   8
ATOM      8  C   LIG d   1      -2.591  59.252 119.448  0.00  0.00     0.119 C 
BRANCH   8   9
ATOM      9  C   LIG d   1      -2.673  57.968 120.295  0.00  0.00     0.028 C 
ATOM     10  C   LIG d   1      -2.979  56.723 119.445  0.00  0.00     0.006 C 
ENDBRANCH   8   9
BRANCH   8  11
ATOM     11  C   LIG d   1      -2.883  58.810 118.011  0.00  0.00     0.028 C 
ATOM     12  C   LIG d   1      -4.003  59.630 117.351  0.00  0.00     0.006 C 
ENDBRANCH   8  11
ENDBRANCH   7   8
ENDBRANCH   1   7
BRANCH   6  13
ATOM     13  N   LIG d   1       0.662  57.446 119.393  0.00  0.00    -0.311 N 
ATOM     14  C   LIG d   1       0.572  57.353 118.068  0.00  0.00     0.210 C 
ATOM     15  C   LIG d   1       0.298  55.943 117.535  0.00  0.00     0.109 C 
ATOM     16  O   LIG d   1       0.726  58.299 117.281  0.00  0.00    -0.276 OA
ATOM     17  H   LIG d   1       0.556  56.623 119.953  0.00  0.00     0.149 HD
ENDBRANCH   6  13
BRANCH   5  18
ATOM     18  N   LIG d   1       3.289  58.215 120.748  0.00  0.00     0.381 N 
ATOM     19  H   LIG d   1       3.431  58.602 119.837  0.00  0.00    -0.090 HD
ATOM     20  H   LIG d   1       3.351  57.215 120.679  0.00  0.00    -0.090 HD
ATOM     21  H   LIG d   1       3.986  58.556 121.374  0.00  0.00    -0.090 HD
ENDBRANCH   5  18
BRANCH   3  22
ATOM     22  C   LIG d   1       0.804  61.214 123.535  0.00  0.00     0.382 C 
ATOM     23  O   LIG d   1       0.263  60.775 124.579  0.00  0.00    -0.241 OA
ATOM     24  O   LIG d   1       1.269  62.370 123.525  0.00  0.00    -0.241 OA
ENDBRANCH   3  22
TORSDOF 7
ENDMDL
MODEL 6
REMARK VINA RESULT:      -4.5      9.112     11.317
REMARK  7 active torsions:
REMARK  status: ('A' for Active; 'I' for Inactive)
REMARK    1  A    between atoms: C_2  and  C_3 
REMARK    2  A    between atoms: C_3  and  O_6 
REMARK    3  A    between atoms: C_3  and  C_4 
REMARK    4  A    between atoms: C_7  and  O_6 
REMARK    5  A    between atoms: C_9  and  C_10 
REMARK    6  A    between atoms: N_15  and  C_14 
REMARK    7  A    between atoms: N_20  and  C_19 
REMARK       I    between atoms: C_22  and  N_20 
ROOT
ATOM      1  C   LIG d   1     -16.331  72.879 120.343  0.00  0.00     0.161 C 
ATOM      2  C   LIG d   1     -15.292  73.803 120.146  0.00  0.00     0.016 C 
ATOM      3  C   LIG d   1     -15.510  75.164 119.832  0.00  0.00     0.038 C 
ATOM      4  C   LIG d   1     -16.794  75.731 119.841  0.00  0.00     0.028 C 
ATOM      5  C   LIG d   1     -17.901  74.727 119.537  0.00  0.00    -0.047 C 
ATOM      6  C   LIG d   1     -17.737  73.503 120.466  0.00  0.00     0.091 C 
ENDROOT
BRANCH   1   7
ATOM      7  O   LIG d   1     -16.044  72.058 121.492  0.00  0.00    -0.368 OA
BRANCH   7   8
ATOM      8  C   LIG d   1     -15.607  70.705 121.216  0.00  0.00     0.119 C 
BRANCH   8   9
ATOM      9  C   LIG d   1     -15.802  70.454 119.708  0.00  0.00     0.028 C 
ATOM     10  C   LIG d   1     -16.842  69.356 119.426  0.00  0.00     0.006 C 
ENDBRANCH   8   9
BRANCH   8  11
ATOM     11  C   LIG d   1     -16.499  69.677 121.918  0.00  0.00     0.028 C 
ATOM     12  C   LIG d   1     -15.925  69.211 123.265  0.00  0.00     0.006 C 
ENDBRANCH   8  11
ENDBRANCH   7   8
ENDBRANCH   1   7
BRANCH   6  13
ATOM     13  N   LIG d   1     -18.730  72.435 120.178  0.00  0.00    -0.311 N 
ATOM     14  C   LIG d   1     -19.420  71.801 121.124  0.00  0.00     0.210 C 
ATOM     15  C   LIG d   1     -20.377  70.720 120.611  0.00  0.00     0.109 C 
ATOM     16  O   LIG d   1     -19.355  72.053 122.336  0.00  0.00    -0.276 OA
ATOM     17  H   LIG d   1     -18.868  72.189 119.217  0.00  0.00     0.149 HD
ENDBRANCH   6  13
BRANCH   5  18
ATOM     18  N   LIG d   1     -19.191  75.420 119.715  0.00  0.00     0.381 N 
ATOM     19  H   LIG d   1     -19.034  76.397 119.863  0.00  0.00    -0.090 HD
ATOM     20  H   LIG d   1     -19.650  75.048 120.529  0.00  0.00    -0.090 HD
ATOM     21  H   LIG d   1     -19.764  75.285 118.911  0.00  0.00    -0.090 HD
ENDBRANCH   5  18
BRANCH   3  22
ATOM     22  C   LIG d   1     -14.439  75.965 119.464  0.00  0.00     0.382 C 
ATOM     23  O   LIG d   1     -14.366  76.416 118.296  0.00  0.00    -0.241 OA
ATOM     24  O   LIG d   1     -13.523  76.206 120.273  0.00  0.00    -0.241 OA
ENDBRANCH   3  22
TORSDOF 7
ENDMDL
MODEL 7
REMARK VINA RESULT:      -4.4     11.608     14.119
REMARK  7 active torsions:
REMARK  status: ('A' for Active; 'I' for Inactive)
REMARK    1  A    between atoms: C_2  and  C_3 
REMARK    2  A    between atoms: C_3  and  O_6 
REMARK    3  A    between atoms: C_3  and  C_4 
REMARK    4  A    between atoms: C_7  and  O_6 
REMARK    5  A    between atoms: C_9  and  C_10 
REMARK    6  A    between atoms: N_15  and  C_14 
REMARK    7  A    between atoms: N_20  and  C_19 
REMARK       I    between atoms: C_22  and  N_20 
ROOT
ATOM      1  C   LIG d   1     -13.062  65.829 121.206  0.00  0.00     0.161 C 
ATOM      2  C   LIG d   1     -11.919  65.330 121.853  0.00  0.00     0.016 C 
ATOM      3  C   LIG d   1     -11.404  64.032 121.632  0.00  0.00     0.038 C 
ATOM      4  C   LIG d   1     -11.913  63.194 120.628  0.00  0.00     0.028 C 
ATOM      5  C   LIG d   1     -13.378  63.461 120.301  0.00  0.00    -0.047 C 
ATOM      6  C   LIG d   1     -13.564  64.971 120.026  0.00  0.00     0.091 C 
ENDROOT
BRANCH   1   7
ATOM      7  O   LIG d   1     -12.826  67.184 120.775  0.00  0.00    -0.368 OA
BRANCH   7   8
ATOM      8  C   LIG d   1     -13.600  68.210 121.443  0.00  0.00     0.119 C 
BRANCH   8   9
ATOM      9  C   LIG d   1     -14.587  67.501 122.391  0.00  0.00     0.028 C 
ATOM     10  C   LIG d   1     -14.331  67.845 123.868  0.00  0.00     0.006 C 
ENDBRANCH   8   9
BRANCH   8  11
ATOM     11  C   LIG d   1     -14.475  68.983 120.452  0.00  0.00     0.028 C 
ATOM     12  C   LIG d   1     -15.159  70.204 121.087  0.00  0.00     0.006 C 
ENDBRANCH   8  11
ENDBRANCH   7   8
ENDBRANCH   1   7
BRANCH   6  13
ATOM     13  N   LIG d   1     -14.985  65.331 119.781  0.00  0.00    -0.311 N 
ATOM     14  C   LIG d   1     -15.420  65.861 118.638  0.00  0.00     0.210 C 
ATOM     15  C   LIG d   1     -16.918  66.176 118.601  0.00  0.00     0.109 C 
ATOM     16  O   LIG d   1     -14.712  66.070 117.641  0.00  0.00    -0.276 OA
ATOM     17  H   LIG d   1     -15.633  65.166 120.526  0.00  0.00     0.149 HD
ENDBRANCH   6  13
BRANCH   5  18
ATOM     18  N   LIG d   1     -13.738  62.615 119.147  0.00  0.00     0.381 N 
ATOM     19  H   LIG d   1     -14.635  62.886 118.795  0.00  0.00    -0.090 HD
ATOM     20  H   LIG d   1     -13.795  61.659 119.451  0.00  0.00    -0.090 HD
ATOM     21  H   LIG d   1     -13.051  62.704 118.431  0.00  0.00    -0.090 HD
ENDBRANCH   5  18
BRANCH   3  22
ATOM     22  C   LIG d   1     -10.394  63.545 122.447  0.00  0.00     0.382 C 
ATOM     23  O   LIG d   1     -10.468  63.688 123.691  0.00  0.00    -0.241 OA
ATOM     24  O   LIG d   1      -9.387  63.005 121.951  0.00  0.00    -0.241 OA
ENDBRANCH   3  22
TORSDOF 7
ENDMDL
MODEL 8
REMARK VINA RESULT:      -4.4     13.213     15.257
REMARK  7 active torsions:
REMARK  status: ('A' for Active; 'I' for Inactive)
REMARK    1  A    between atoms: C_2  and  C_3 
REMARK    2  A    between atoms: C_3  and  O_6 
REMARK    3  A    between atoms: C_3  and  C_4 
REMARK    4  A    between atoms: C_7  and  O_6 
REMARK    5  A    between atoms: C_9  and  C_10 
REMARK    6  A    between atoms: N_15  and  C_14 
REMARK    7  A    between atoms: N_20  and  C_19 
REMARK       I    between atoms: C_22  and  N_20 
ROOT
ATOM      1  C   LIG d   1     -12.777  63.529 119.770  0.00  0.00     0.161 C 
ATOM      2  C   LIG d   1     -11.703  63.197 120.611  0.00  0.00     0.016 C 
ATOM      3  C   LIG d   1     -11.337  63.959 121.745  0.00  0.00     0.038 C 
ATOM      4  C   LIG d   1     -12.121  65.029 122.203  0.00  0.00     0.028 C 
ATOM      5  C   LIG d   1     -12.926  65.707 121.099  0.00  0.00    -0.047 C 
ATOM      6  C   LIG d   1     -13.711  64.629 120.317  0.00  0.00     0.091 C 
ENDROOT
BRANCH   1   7
ATOM      7  O   LIG d   1     -13.533  62.344 119.451  0.00  0.00    -0.368 OA
BRANCH   7   8
ATOM      8  C   LIG d   1     -14.423  61.857 120.485  0.00  0.00     0.119 C 
BRANCH   8   9
ATOM      9  C   LIG d   1     -13.997  60.415 120.822  0.00  0.00     0.028 C 
ATOM     10  C   LIG d   1     -13.481  60.277 122.265  0.00  0.00     0.006 C 
ENDBRANCH   8   9
BRANCH   8  11
ATOM     11  C   LIG d   1     -15.862  61.746 119.975  0.00  0.00     0.028 C 
ATOM     12  C   LIG d   1     -15.973  61.947 118.455  0.00  0.00     0.006 C 
ENDBRANCH   8  11
ENDBRANCH   7   8
ENDBRANCH   1   7
BRANCH   6  13
ATOM     13  N   LIG d   1     -14.460  65.197 119.165  0.00  0.00    -0.311 N 
ATOM     14  C   LIG d   1     -15.742  65.552 119.228  0.00  0.00     0.210 C 
ATOM     15  C   LIG d   1     -16.326  66.097 117.921  0.00  0.00     0.109 C 
ATOM     16  O   LIG d   1     -16.442  65.497 120.250  0.00  0.00    -0.276 OA
ATOM     17  H   LIG d   1     -13.960  65.305 118.305  0.00  0.00     0.149 HD
ENDBRANCH   6  13
BRANCH   5  18
ATOM     18  N   LIG d   1     -13.799  66.710 121.736  0.00  0.00     0.381 N 
ATOM     19  H   LIG d   1     -14.487  66.252 122.299  0.00  0.00    -0.090 HD
ATOM     20  H   LIG d   1     -14.273  67.230 121.019  0.00  0.00    -0.090 HD
ATOM     21  H   LIG d   1     -13.256  67.327 122.299  0.00  0.00    -0.090 HD
ENDBRANCH   5  18
BRANCH   3  22
ATOM     22  C   LIG d   1     -10.154  63.678 122.410  0.00  0.00     0.382 C 
ATOM     23  O   LIG d   1      -9.865  64.295 123.464  0.00  0.00    -0.241 OA
ATOM     24  O   LIG d   1      -9.350  62.847 121.946  0.00  0.00    -0.241 OA
ENDBRANCH   3  22
TORSDOF 7
ENDMDL
MODEL 9
REMARK VINA RESULT:      -4.4     11.181     13.675
REMARK  7 active torsions:
REMARK  status: ('A' for Active; 'I' for Inactive)
REMARK    1  A    between atoms: C_2  and  C_3 
REMARK    2  A    between atoms: C_3  and  O_6 
REMARK    3  A    between atoms: C_3  and  C_4 
REMARK    4  A    between atoms: C_7  and  O_6 
REMARK    5  A    between atoms: C_9  and  C_10 
REMARK    6  A    between atoms: N_15  and  C_14 
REMARK    7  A    between atoms: N_20  and  C_19 
REMARK       I    between atoms: C_22  and  N_20 
ROOT
ATOM      1  C   LIG d   1     -13.529  64.916 120.945  0.00  0.00     0.161 C 
ATOM      2  C   LIG d   1     -14.007  66.123 120.408  0.00  0.00     0.016 C 
ATOM      3  C   LIG d   1     -13.490  67.391 120.761  0.00  0.00     0.038 C 
ATOM      4  C   LIG d   1     -12.350  67.528 121.567  0.00  0.00     0.028 C 
ATOM      5  C   LIG d   1     -12.147  66.365 122.532  0.00  0.00    -0.047 C 
ATOM      6  C   LIG d   1     -12.213  65.039 121.741  0.00  0.00     0.091 C 
ENDROOT
BRANCH   1   7
ATOM      7  O   LIG d   1     -13.391  63.936 119.897  0.00  0.00    -0.368 OA
BRANCH   7   8
ATOM      8  C   LIG d   1     -14.512  63.036 119.716  0.00  0.00     0.119 C 
BRANCH   8   9
ATOM      9  C   LIG d   1     -13.980  61.597 119.870  0.00  0.00     0.028 C 
ATOM     10  C   LIG d   1     -14.053  61.098 121.322  0.00  0.00     0.006 C 
ENDBRANCH   8   9
BRANCH   8  11
ATOM     11  C   LIG d   1     -15.063  63.113 118.289  0.00  0.00     0.028 C 
ATOM     12  C   LIG d   1     -16.230  62.142 118.047  0.00  0.00     0.006 C 
ENDBRANCH   8  11
ENDBRANCH   7   8
ENDBRANCH   1   7
BRANCH   6  13
ATOM     13  N   LIG d   1     -12.107  63.847 122.623  0.00  0.00    -0.311 N 
ATOM     14  C   LIG d   1     -10.957  63.230 122.886  0.00  0.00     0.210 C 
ATOM     15  C   LIG d   1     -11.074  62.008 123.804  0.00  0.00     0.109 C 
ATOM     16  O   LIG d   1      -9.846  63.597 122.474  0.00  0.00    -0.276 OA
ATOM     17  H   LIG d   1     -12.956  63.501 123.025  0.00  0.00     0.149 HD
ENDBRANCH   6  13
BRANCH   5  18
ATOM     18  N   LIG d   1     -10.853  66.570 123.211  0.00  0.00     0.381 N 
ATOM     19  H   LIG d   1     -11.003  66.990 124.106  0.00  0.00    -0.090 HD
ATOM     20  H   LIG d   1     -10.292  67.195 122.659  0.00  0.00    -0.090 HD
ATOM     21  H   LIG d   1     -10.383  65.698 123.320  0.00  0.00    -0.090 HD
ENDBRANCH   5  18
BRANCH   3  22
ATOM     22  C   LIG d   1     -14.139  68.540 120.337  0.00  0.00     0.382 C 
ATOM     23  O   LIG d   1     -14.254  69.518 121.115  0.00  0.00    -0.241 OA
ATOM     24  O   LIG d   1     -14.652  68.595 119.203  0.00  0.00    -0.241 OA
ENDBRANCH   3  22
TORSDOF 7
ENDMDL
