MODEL 1
REMARK VINA RESULT:      -4.8      0.000      0.000
REMARK  7 active torsions:
REMARK  status: ('A' for Active; 'I' for Inactive)
REMARK    1  A    between atoms: C_2  and  C_3 
REMARK    2  A    between atoms: C_3  and  O_6 
REMARK    3  A    between atoms: C_3  and  C_4 
REMARK    4  A    between atoms: C_7  and  O_6 
REMARK    5  A    between atoms: C_9  and  C_10 
REMARK    6  A    between atoms: N_15  and  C_14 
REMARK    7  A    between atoms: N_20  and  C_19 
REMARK       I    between atoms: C_22  and  N_20 
ROOT
ATOM      1  C   LIG d   1     -10.180  81.630 121.267  0.00  0.00     0.161 C 
ATOM      2  C   LIG d   1     -10.899  82.675 121.872  0.00  0.00     0.016 C 
ATOM      3  C   LIG d   1     -11.582  83.674 121.141  0.00  0.00     0.038 C 
ATOM      4  C   LIG d   1     -11.721  83.609 119.746  0.00  0.00     0.028 C 
ATOM      5  C   LIG d   1     -10.588  82.852 119.060  0.00  0.00    -0.047 C 
ATOM      6  C   LIG d   1     -10.412  81.480 119.749  0.00  0.00     0.091 C 
ENDROOT
BRANCH   1   7
ATOM      7  O   LIG d   1     -10.462  80.389 121.943  0.00  0.00    -0.368 OA
BRANCH   7   8
ATOM      8  C   LIG d   1     -11.766  80.283 122.565  0.00  0.00     0.119 C 
BRANCH   8   9
ATOM      9  C   LIG d   1     -11.549  79.823 124.019  0.00  0.00     0.028 C 
ATOM     10  C   LIG d   1     -10.066  79.571 124.340  0.00  0.00     0.006 C 
ENDBRANCH   8   9
BRANCH   8  11
ATOM     11  C   LIG d   1     -12.607  79.182 121.912  0.00  0.00     0.028 C 
ATOM     12  C   LIG d   1     -13.988  79.020 122.567  0.00  0.00     0.006 C 
ENDBRANCH   8  11
ENDBRANCH   7   8
ENDBRANCH   1   7
BRANCH   6  13
ATOM     13  N   LIG d   1      -9.269  80.709 119.193  0.00  0.00    -0.311 N 
ATOM     14  C   LIG d   1      -9.410  79.559 118.536  0.00  0.00     0.210 C 
ATOM     15  C   LIG d   1      -8.101  78.919 118.065  0.00  0.00     0.109 C 
ATOM     16  O   LIG d   1     -10.497  79.025 118.271  0.00  0.00    -0.276 OA
ATOM     17  H   LIG d   1      -8.352  81.086 119.336  0.00  0.00     0.149 HD
ENDBRANCH   6  13
BRANCH   5  18
ATOM     18  N   LIG d   1     -10.929  82.742 117.629  0.00  0.00     0.381 N 
ATOM     19  H   LIG d   1     -11.923  82.737 117.517  0.00  0.00    -0.090 HD
ATOM     20  H   LIG d   1     -10.568  81.873 117.275  0.00  0.00    -0.090 HD
ATOM     21  H   LIG d   1     -10.534  83.504 117.125  0.00  0.00    -0.090 HD
ENDBRANCH   5  18
BRANCH   3  22
ATOM     22  C   LIG d   1     -12.103  84.775 121.804  0.00  0.00     0.382 C 
ATOM     23  O   LIG d   1     -13.239  84.709 122.333  0.00  0.00    -0.241 OA
ATOM     24  O   LIG d   1     -11.471  85.847 121.841  0.00  0.00    -0.241 OA
ENDBRANCH   3  22
TORSDOF 7
ENDMDL
MODEL 2
REMARK VINA RESULT:      -4.7      6.934      9.909
REMARK  7 active torsions:
REMARK  status: ('A' for Active; 'I' for Inactive)
REMARK    1  A    between atoms: C_2  and  C_3 
REMARK    2  A    between atoms: C_3  and  O_6 
REMARK    3  A    between atoms: C_3  and  C_4 
REMARK    4  A    between atoms: C_7  and  O_6 
REMARK    5  A    between atoms: C_9  and  C_10 
REMARK    6  A    between atoms: N_15  and  C_14 
REMARK    7  A    between atoms: N_20  and  C_19 
REMARK       I    between atoms: C_22  and  N_20 
ROOT
ATOM      1  C   LIG d   1     -16.583  75.337 121.039  0.00  0.00     0.161 C 
ATOM      2  C   LIG d   1     -16.121  74.273 120.246  0.00  0.00     0.016 C 
ATOM      3  C   LIG d   1     -16.854  73.733 119.165  0.00  0.00     0.038 C 
ATOM      4  C   LIG d   1     -18.041  74.322 118.705  0.00  0.00     0.028 C 
ATOM      5  C   LIG d   1     -18.797  75.085 119.788  0.00  0.00    -0.047 C 
ATOM      6  C   LIG d   1     -17.825  76.065 120.483  0.00  0.00     0.091 C 
ENDROOT
BRANCH   1   7
ATOM      7  O   LIG d   1     -15.514  76.275 121.270  0.00  0.00    -0.368 OA
BRANCH   7   8
ATOM      8  C   LIG d   1     -14.694  76.032 122.439  0.00  0.00     0.119 C 
BRANCH   8   9
ATOM      9  C   LIG d   1     -14.819  77.263 123.357  0.00  0.00     0.028 C 
ATOM     10  C   LIG d   1     -15.409  78.482 122.627  0.00  0.00     0.006 C 
ENDBRANCH   8   9
BRANCH   8  11
ATOM     11  C   LIG d   1     -13.209  75.950 122.071  0.00  0.00     0.028 C 
ATOM     12  C   LIG d   1     -12.383  75.161 123.099  0.00  0.00     0.006 C 
ENDBRANCH   8  11
ENDBRANCH   7   8
ENDBRANCH   1   7
BRANCH   6  13
ATOM     13  N   LIG d   1     -18.463  76.791 121.612  0.00  0.00    -0.311 N 
ATOM     14  C   LIG d   1     -18.992  78.008 121.496  0.00  0.00     0.210 C 
ATOM     15  C   LIG d   1     -19.582  78.583 122.788  0.00  0.00     0.109 C 
ATOM     16  O   LIG d   1     -19.058  78.652 120.438  0.00  0.00    -0.276 OA
ATOM     17  H   LIG d   1     -18.481  76.328 122.500  0.00  0.00     0.149 HD
ENDBRANCH   6  13
BRANCH   5  18
ATOM     18  N   LIG d   1     -19.938  75.762 119.142  0.00  0.00     0.381 N 
ATOM     19  H   LIG d   1     -20.102  75.363 118.240  0.00  0.00    -0.090 HD
ATOM     20  H   LIG d   1     -19.713  76.734 119.021  0.00  0.00    -0.090 HD
ATOM     21  H   LIG d   1     -20.753  75.670 119.708  0.00  0.00    -0.090 HD
ENDBRANCH   5  18
BRANCH   3  22
ATOM     22  C   LIG d   1     -16.420  72.565 118.556  0.00  0.00     0.382 C 
ATOM     23  O   LIG d   1     -16.213  71.538 119.246  0.00  0.00    -0.241 OA
ATOM     24  O   LIG d   1     -16.191  72.538 117.332  0.00  0.00    -0.241 OA
ENDBRANCH   3  22
TORSDOF 7
ENDMDL
MODEL 3
REMARK VINA RESULT:      -4.6      7.911      9.437
REMARK  7 active torsions:
REMARK  status: ('A' for Active; 'I' for Inactive)
REMARK    1  A    between atoms: C_2  and  C_3 
REMARK    2  A    between atoms: C_3  and  O_6 
REMARK    3  A    between atoms: C_3  and  C_4 
REMARK    4  A    between atoms: C_7  and  O_6 
REMARK    5  A    between atoms: C_9  and  C_10 
REMARK    6  A    between atoms: N_15  and  C_14 
REMARK    7  A    between atoms: N_20  and  C_19 
REMARK       I    between atoms: C_22  and  N_20 
ROOT
ATOM      1  C   LIG d   1     -18.297  76.080 120.013  0.00  0.00     0.161 C 
ATOM      2  C   LIG d   1     -19.231  76.975 119.466  0.00  0.00     0.016 C 
ATOM      3  C   LIG d   1     -19.409  78.297 119.935  0.00  0.00     0.038 C 
ATOM      4  C   LIG d   1     -18.553  78.867 120.888  0.00  0.00     0.028 C 
ATOM      5  C   LIG d   1     -17.921  77.842 121.825  0.00  0.00    -0.047 C 
ATOM      6  C   LIG d   1     -17.278  76.719 120.979  0.00  0.00     0.091 C 
ENDROOT
BRANCH   1   7
ATOM      7  O   LIG d   1     -17.612  75.381 118.954  0.00  0.00    -0.368 OA
BRANCH   7   8
ATOM      8  C   LIG d   1     -17.908  73.968 118.827  0.00  0.00     0.119 C 
BRANCH   8   9
ATOM      9  C   LIG d   1     -18.887  73.597 119.958  0.00  0.00     0.028 C 
ATOM     10  C   LIG d   1     -18.364  72.445 120.832  0.00  0.00     0.006 C 
ENDBRANCH   8   9
BRANCH   8  11
ATOM     11  C   LIG d   1     -16.661  73.114 119.074  0.00  0.00     0.028 C 
ATOM     12  C   LIG d   1     -16.280  72.251 117.860  0.00  0.00     0.006 C 
ENDBRANCH   8  11
ENDBRANCH   7   8
ENDBRANCH   1   7
BRANCH   6  13
ATOM     13  N   LIG d   1     -16.710  75.632 121.819  0.00  0.00    -0.311 N 
ATOM     14  C   LIG d   1     -15.429  75.270 121.782  0.00  0.00     0.210 C 
ATOM     15  C   LIG d   1     -15.057  74.113 122.714  0.00  0.00     0.109 C 
ATOM     16  O   LIG d   1     -14.559  75.819 121.090  0.00  0.00    -0.276 OA
ATOM     17  H   LIG d   1     -17.340  75.153 122.432  0.00  0.00     0.149 HD
ENDBRANCH   6  13
BRANCH   5  18
ATOM     18  N   LIG d   1     -16.950  78.554 122.675  0.00  0.00     0.381 N 
ATOM     19  H   LIG d   1     -17.395  79.333 123.119  0.00  0.00    -0.090 HD
ATOM     20  H   LIG d   1     -16.206  78.903 122.097  0.00  0.00    -0.090 HD
ATOM     21  H   LIG d   1     -16.582  77.936 123.365  0.00  0.00    -0.090 HD
ENDBRANCH   5  18
BRANCH   3  22
ATOM     22  C   LIG d   1     -20.478  79.051 119.476  0.00  0.00     0.382 C 
ATOM     23  O   LIG d   1     -21.647  78.602 119.568  0.00  0.00    -0.241 OA
ATOM     24  O   LIG d   1     -20.286  80.154 118.930  0.00  0.00    -0.241 OA
ENDBRANCH   3  22
TORSDOF 7
ENDMDL
MODEL 4
REMARK VINA RESULT:      -4.6      2.780      3.941
REMARK  7 active torsions:
REMARK  status: ('A' for Active; 'I' for Inactive)
REMARK    1  A    between atoms: C_2  and  C_3 
REMARK    2  A    between atoms: C_3  and  O_6 
REMARK    3  A    between atoms: C_3  and  C_4 
REMARK    4  A    between atoms: C_7  and  O_6 
REMARK    5  A    between atoms: C_9  and  C_10 
REMARK    6  A    between atoms: N_15  and  C_14 
REMARK    7  A    between atoms: N_20  and  C_19 
REMARK       I    between atoms: C_22  and  N_20 
ROOT
ATOM      1  C   LIG d   1     -10.721  83.623 120.930  0.00  0.00     0.161 C 
ATOM      2  C   LIG d   1     -11.892  84.350 121.201  0.00  0.00     0.016 C 
ATOM      3  C   LIG d   1     -11.904  85.570 121.916  0.00  0.00     0.038 C 
ATOM      4  C   LIG d   1     -10.719  86.227 122.281  0.00  0.00     0.028 C 
ATOM      5  C   LIG d   1      -9.537  85.282 122.472  0.00  0.00    -0.047 C 
ATOM      6  C   LIG d   1      -9.409  84.380 121.224  0.00  0.00     0.091 C 
ENDROOT
BRANCH   1   7
ATOM      7  O   LIG d   1     -10.738  83.160 119.566  0.00  0.00    -0.368 OA
BRANCH   7   8
ATOM      8  C   LIG d   1     -11.214  81.807 119.358  0.00  0.00     0.119 C 
BRANCH   8   9
ATOM      9  C   LIG d   1     -10.660  80.940 120.506  0.00  0.00     0.028 C 
ATOM     10  C   LIG d   1     -11.741  80.051 121.144  0.00  0.00     0.006 C 
ENDBRANCH   8   9
BRANCH   8  11
ATOM     11  C   LIG d   1     -10.633  81.202 118.076  0.00  0.00     0.028 C 
ATOM     12  C   LIG d   1      -9.315  80.450 118.317  0.00  0.00     0.006 C 
ENDBRANCH   8  11
ENDBRANCH   7   8
ENDBRANCH   1   7
BRANCH   6  13
ATOM     13  N   LIG d   1      -8.328  83.369 121.364  0.00  0.00    -0.311 N 
ATOM     14  C   LIG d   1      -7.518  83.019 120.367  0.00  0.00     0.210 C 
ATOM     15  C   LIG d   1      -6.485  81.943 120.719  0.00  0.00     0.109 C 
ATOM     16  O   LIG d   1      -7.534  83.520 119.232  0.00  0.00    -0.276 OA
ATOM     17  H   LIG d   1      -8.224  82.934 122.260  0.00  0.00     0.149 HD
ENDBRANCH   6  13
BRANCH   5  18
ATOM     18  N   LIG d   1      -8.340  86.109 122.714  0.00  0.00     0.381 N 
ATOM     19  H   LIG d   1      -7.546  85.694 122.269  0.00  0.00    -0.090 HD
ATOM     20  H   LIG d   1      -8.165  86.146 123.702  0.00  0.00    -0.090 HD
ATOM     21  H   LIG d   1      -8.485  87.030 122.360  0.00  0.00    -0.090 HD
ENDBRANCH   5  18
BRANCH   3  22
ATOM     22  C   LIG d   1     -13.113  86.125 122.308  0.00  0.00     0.382 C 
ATOM     23  O   LIG d   1     -13.903  85.464 123.025  0.00  0.00    -0.241 OA
ATOM     24  O   LIG d   1     -13.442  87.261 121.918  0.00  0.00    -0.241 OA
ENDBRANCH   3  22
TORSDOF 7
ENDMDL
MODEL 5
REMARK VINA RESULT:      -4.5      2.845      5.822
REMARK  7 active torsions:
REMARK  status: ('A' for Active; 'I' for Inactive)
REMARK    1  A    between atoms: C_2  and  C_3 
REMARK    2  A    between atoms: C_3  and  O_6 
REMARK    3  A    between atoms: C_3  and  C_4 
REMARK    4  A    between atoms: C_7  and  O_6 
REMARK    5  A    between atoms: C_9  and  C_10 
REMARK    6  A    between atoms: N_15  and  C_14 
REMARK    7  A    between atoms: N_20  and  C_19 
REMARK       I    between atoms: C_22  and  N_20 
ROOT
ATOM      1  C   LIG d   1      -9.353  82.178 121.192  0.00  0.00     0.161 C 
ATOM      2  C   LIG d   1      -8.481  81.598 120.256  0.00  0.00     0.016 C 
ATOM      3  C   LIG d   1      -8.754  81.539 118.870  0.00  0.00     0.038 C 
ATOM      4  C   LIG d   1      -9.856  82.197 118.303  0.00  0.00     0.028 C 
ATOM      5  C   LIG d   1     -11.025  82.363 119.269  0.00  0.00    -0.047 C 
ATOM      6  C   LIG d   1     -10.507  82.999 120.579  0.00  0.00     0.091 C 
ENDROOT
BRANCH   1   7
ATOM      7  O   LIG d   1      -8.604  82.985 122.123  0.00  0.00    -0.368 OA
BRANCH   7   8
ATOM      8  C   LIG d   1      -8.163  84.276 121.635  0.00  0.00     0.119 C 
BRANCH   8   9
ATOM      9  C   LIG d   1      -6.626  84.231 121.531  0.00  0.00     0.028 C 
ATOM     10  C   LIG d   1      -5.978  85.600 121.798  0.00  0.00     0.006 C 
ENDBRANCH   8   9
BRANCH   8  11
ATOM     11  C   LIG d   1      -8.468  85.387 122.644  0.00  0.00     0.028 C 
ATOM     12  C   LIG d   1      -8.974  84.846 123.991  0.00  0.00     0.006 C 
ENDBRANCH   8  11
ENDBRANCH   7   8
ENDBRANCH   1   7
BRANCH   6  13
ATOM     13  N   LIG d   1     -11.571  83.119 121.610  0.00  0.00    -0.311 N 
ATOM     14  C   LIG d   1     -12.064  84.286 122.021  0.00  0.00     0.210 C 
ATOM     15  C   LIG d   1     -13.141  84.186 123.107  0.00  0.00     0.109 C 
ATOM     16  O   LIG d   1     -11.736  85.392 121.568  0.00  0.00    -0.276 OA
ATOM     17  H   LIG d   1     -11.918  82.269 122.009  0.00  0.00     0.149 HD
ENDBRANCH   6  13
BRANCH   5  18
ATOM     18  N   LIG d   1     -12.048  83.183 118.593  0.00  0.00     0.381 N 
ATOM     19  H   LIG d   1     -12.784  83.402 119.234  0.00  0.00    -0.090 HD
ATOM     20  H   LIG d   1     -12.439  82.654 117.833  0.00  0.00    -0.090 HD
ATOM     21  H   LIG d   1     -11.638  84.022 118.247  0.00  0.00    -0.090 HD
ENDBRANCH   5  18
BRANCH   3  22
ATOM     22  C   LIG d   1      -7.941  80.782 118.041  0.00  0.00     0.382 C 
ATOM     23  O   LIG d   1      -8.177  79.562 117.875  0.00  0.00    -0.241 OA
ATOM     24  O   LIG d   1      -6.947  81.295 117.492  0.00  0.00    -0.241 OA
ENDBRANCH   3  22
TORSDOF 7
ENDMDL
MODEL 6
REMARK VINA RESULT:      -4.5      2.843      4.119
REMARK  7 active torsions:
REMARK  status: ('A' for Active; 'I' for Inactive)
REMARK    1  A    between atoms: C_2  and  C_3 
REMARK    2  A    between atoms: C_3  and  O_6 
REMARK    3  A    between atoms: C_3  and  C_4 
REMARK    4  A    between atoms: C_7  and  O_6 
REMARK    5  A    between atoms: C_9  and  C_10 
REMARK    6  A    between atoms: N_15  and  C_14 
REMARK    7  A    between atoms: N_20  and  C_19 
REMARK       I    between atoms: C_22  and  N_20 
ROOT
ATOM      1  C   LIG d   1      -9.105  83.712 121.348  0.00  0.00     0.161 C 
ATOM      2  C   LIG d   1     -10.002  84.564 122.013  0.00  0.00     0.016 C 
ATOM      3  C   LIG d   1     -11.354  84.720 121.632  0.00  0.00     0.038 C 
ATOM      4  C   LIG d   1     -11.945  83.914 120.647  0.00  0.00     0.028 C 
ATOM      5  C   LIG d   1     -10.952  83.399 119.610  0.00  0.00    -0.047 C 
ATOM      6  C   LIG d   1      -9.759  82.742 120.342  0.00  0.00     0.091 C 
ENDROOT
BRANCH   1   7
ATOM      7  O   LIG d   1      -8.321  82.980 122.312  0.00  0.00    -0.368 OA
BRANCH   7   8
ATOM      8  C   LIG d   1      -6.992  83.493 122.574  0.00  0.00     0.119 C 
BRANCH   8   9
ATOM      9  C   LIG d   1      -6.589  84.370 121.373  0.00  0.00     0.028 C 
ATOM     10  C   LIG d   1      -6.000  85.724 121.805  0.00  0.00     0.006 C 
ENDBRANCH   8   9
BRANCH   8  11
ATOM     11  C   LIG d   1      -5.957  82.365 122.618  0.00  0.00     0.028 C 
ATOM     12  C   LIG d   1      -5.254  82.148 121.269  0.00  0.00     0.006 C 
ENDBRANCH   8  11
ENDBRANCH   7   8
ENDBRANCH   1   7
BRANCH   6  13
ATOM     13  N   LIG d   1      -8.701  82.286 119.403  0.00  0.00    -0.311 N 
ATOM     14  C   LIG d   1      -8.270  81.027 119.340  0.00  0.00     0.210 C 
ATOM     15  C   LIG d   1      -7.158  80.775 118.317  0.00  0.00     0.109 C 
ATOM     16  O   LIG d   1      -8.725  80.089 120.012  0.00  0.00    -0.276 OA
ATOM     17  H   LIG d   1      -8.298  82.976 118.800  0.00  0.00     0.149 HD
ENDBRANCH   6  13
BRANCH   5  18
ATOM     18  N   LIG d   1     -11.674  82.465 118.727  0.00  0.00     0.381 N 
ATOM     19  H   LIG d   1     -11.199  82.392 117.849  0.00  0.00    -0.090 HD
ATOM     20  H   LIG d   1     -12.597  82.825 118.557  0.00  0.00    -0.090 HD
ATOM     21  H   LIG d   1     -11.734  81.567 119.156  0.00  0.00    -0.090 HD
ENDBRANCH   5  18
BRANCH   3  22
ATOM     22  C   LIG d   1     -12.121  85.719 122.212  0.00  0.00     0.382 C 
ATOM     23  O   LIG d   1     -13.361  85.568 122.332  0.00  0.00    -0.241 OA
ATOM     24  O   LIG d   1     -11.595  86.788 122.577  0.00  0.00    -0.241 OA
ENDBRANCH   3  22
TORSDOF 7
ENDMDL
MODEL 7
REMARK VINA RESULT:      -4.5     12.332     14.545
REMARK  7 active torsions:
REMARK  status: ('A' for Active; 'I' for Inactive)
REMARK    1  A    between atoms: C_2  and  C_3 
REMARK    2  A    between atoms: C_3  and  O_6 
REMARK    3  A    between atoms: C_3  and  C_4 
REMARK    4  A    between atoms: C_7  and  O_6 
REMARK    5  A    between atoms: C_9  and  C_10 
REMARK    6  A    between atoms: N_15  and  C_14 
REMARK    7  A    between atoms: N_20  and  C_19 
REMARK       I    between atoms: C_22  and  N_20 
ROOT
ATOM      1  C   LIG d   1      -5.788  93.445 120.326  0.00  0.00     0.161 C 
ATOM      2  C   LIG d   1      -4.665  92.743 119.856  0.00  0.00     0.016 C 
ATOM      3  C   LIG d   1      -4.630  92.077 118.610  0.00  0.00     0.038 C 
ATOM      4  C   LIG d   1      -5.670  92.194 117.676  0.00  0.00     0.028 C 
ATOM      5  C   LIG d   1      -7.027  92.474 118.313  0.00  0.00    -0.047 C 
ATOM      6  C   LIG d   1      -6.892  93.678 119.273  0.00  0.00     0.091 C 
ENDROOT
BRANCH   1   7
ATOM      7  O   LIG d   1      -5.374  94.699 120.904  0.00  0.00    -0.368 OA
BRANCH   7   8
ATOM      8  C   LIG d   1      -5.028  95.749 119.967  0.00  0.00     0.119 C 
BRANCH   8   9
ATOM      9  C   LIG d   1      -3.600  96.219 120.306  0.00  0.00     0.028 C 
ATOM     10  C   LIG d   1      -2.558  95.702 119.300  0.00  0.00     0.006 C 
ENDBRANCH   8   9
BRANCH   8  11
ATOM     11  C   LIG d   1      -5.917  96.981 120.158  0.00  0.00     0.028 C 
ATOM     12  C   LIG d   1      -6.652  96.982 121.507  0.00  0.00     0.006 C 
ENDBRANCH   8  11
ENDBRANCH   7   8
ENDBRANCH   1   7
BRANCH   6  13
ATOM     13  N   LIG d   1      -8.155  93.965 120.002  0.00  0.00    -0.311 N 
ATOM     14  C   LIG d   1      -9.055  94.855 119.587  0.00  0.00     0.210 C 
ATOM     15  C   LIG d   1     -10.277  95.012 120.497  0.00  0.00     0.109 C 
ATOM     16  O   LIG d   1      -8.972  95.506 118.534  0.00  0.00    -0.276 OA
ATOM     17  H   LIG d   1      -8.317  93.459 120.851  0.00  0.00     0.149 HD
ENDBRANCH   6  13
BRANCH   5  18
ATOM     18  N   LIG d   1      -7.991  92.710 117.222  0.00  0.00     0.381 N 
ATOM     19  H   LIG d   1      -8.038  93.688 117.017  0.00  0.00    -0.090 HD
ATOM     20  H   LIG d   1      -8.901  92.407 117.522  0.00  0.00    -0.090 HD
ATOM     21  H   LIG d   1      -7.716  92.205 116.409  0.00  0.00    -0.090 HD
ENDBRANCH   5  18
BRANCH   3  22
ATOM     22  C   LIG d   1      -3.560  91.249 118.304  0.00  0.00     0.382 C 
ATOM     23  O   LIG d   1      -2.392  91.706 118.306  0.00  0.00    -0.241 OA
ATOM     24  O   LIG d   1      -3.753  90.061 117.982  0.00  0.00    -0.241 OA
ENDBRANCH   3  22
TORSDOF 7
ENDMDL
MODEL 8
REMARK VINA RESULT:      -4.4     13.479     15.779
REMARK  7 active torsions:
REMARK  status: ('A' for Active; 'I' for Inactive)
REMARK    1  A    between atoms: C_2  and  C_3 
REMARK    2  A    between atoms: C_3  and  O_6 
REMARK    3  A    between atoms: C_3  and  C_4 
REMARK    4  A    between atoms: C_7  and  O_6 
REMARK    5  A    between atoms: C_9  and  C_10 
REMARK    6  A    between atoms: N_15  and  C_14 
REMARK    7  A    between atoms: N_20  and  C_19 
REMARK       I    between atoms: C_22  and  N_20 
ROOT
ATOM      1  C   LIG d   1     -12.606  66.030 122.411  0.00  0.00     0.161 C 
ATOM      2  C   LIG d   1     -13.417  66.670 121.459  0.00  0.00     0.016 C 
ATOM      3  C   LIG d   1     -13.650  68.064 121.446  0.00  0.00     0.038 C 
ATOM      4  C   LIG d   1     -12.962  68.939 122.301  0.00  0.00     0.028 C 
ATOM      5  C   LIG d   1     -12.520  68.287 123.607  0.00  0.00    -0.047 C 
ATOM      6  C   LIG d   1     -11.759  66.981 123.283  0.00  0.00     0.091 C 
ENDROOT
BRANCH   1   7
ATOM      7  O   LIG d   1     -11.761  65.061 121.761  0.00  0.00    -0.368 OA
BRANCH   7   8
ATOM      8  C   LIG d   1     -11.884  63.694 122.225  0.00  0.00     0.119 C 
BRANCH   8   9
ATOM      9  C   LIG d   1     -10.505  63.024 122.067  0.00  0.00     0.028 C 
ATOM     10  C   LIG d   1      -9.378  64.048 121.852  0.00  0.00     0.006 C 
ENDBRANCH   8   9
BRANCH   8  11
ATOM     11  C   LIG d   1     -12.832  62.886 121.333  0.00  0.00     0.028 C 
ATOM     12  C   LIG d   1     -12.596  63.134 119.835  0.00  0.00     0.006 C 
ENDBRANCH   8  11
ENDBRANCH   7   8
ENDBRANCH   1   7
BRANCH   6  13
ATOM     13  N   LIG d   1     -11.364  66.237 124.507  0.00  0.00    -0.311 N 
ATOM     14  C   LIG d   1     -10.172  66.360 125.088  0.00  0.00     0.210 C 
ATOM     15  C   LIG d   1      -9.964  65.487 126.329  0.00  0.00     0.109 C 
ATOM     16  O   LIG d   1      -9.279  67.134 124.711  0.00  0.00    -0.276 OA
ATOM     17  H   LIG d   1     -12.040  65.610 124.898  0.00  0.00     0.149 HD
ENDBRANCH   6  13
BRANCH   5  18
ATOM     18  N   LIG d   1     -11.698  69.269 124.339  0.00  0.00     0.381 N 
ATOM     19  H   LIG d   1     -11.023  69.673 123.721  0.00  0.00    -0.090 HD
ATOM     20  H   LIG d   1     -11.207  68.796 125.077  0.00  0.00    -0.090 HD
ATOM     21  H   LIG d   1     -12.279  69.982 124.721  0.00  0.00    -0.090 HD
ENDBRANCH   5  18
BRANCH   3  22
ATOM     22  C   LIG d   1     -14.611  68.593 120.598  0.00  0.00     0.382 C 
ATOM     23  O   LIG d   1     -15.557  69.271 121.066  0.00  0.00    -0.241 OA
ATOM     24  O   LIG d   1     -14.568  68.363 119.374  0.00  0.00    -0.241 OA
ENDBRANCH   3  22
TORSDOF 7
ENDMDL
MODEL 9
REMARK VINA RESULT:      -4.4     22.916     25.019
REMARK  7 active torsions:
REMARK  status: ('A' for Active; 'I' for Inactive)
REMARK    1  A    between atoms: C_2  and  C_3 
REMARK    2  A    between atoms: C_3  and  O_6 
REMARK    3  A    between atoms: C_3  and  C_4 
REMARK    4  A    between atoms: C_7  and  O_6 
REMARK    5  A    between atoms: C_9  and  C_10 
REMARK    6  A    between atoms: N_15  and  C_14 
REMARK    7  A    between atoms: N_20  and  C_19 
REMARK       I    between atoms: C_22  and  N_20 
ROOT
ATOM      1  C   LIG d   1       1.459  59.821 120.613  0.00  0.00     0.161 C 
ATOM      2  C   LIG d   1       0.651  59.805 119.463  0.00  0.00     0.016 C 
ATOM      3  C   LIG d   1      -0.643  60.372 119.413  0.00  0.00     0.038 C 
ATOM      4  C   LIG d   1      -1.161  61.132 120.473  0.00  0.00     0.028 C 
ATOM      5  C   LIG d   1      -0.588  60.745 121.832  0.00  0.00    -0.047 C 
ATOM      6  C   LIG d   1       0.955  60.742 121.744  0.00  0.00     0.091 C 
ENDROOT
BRANCH   1   7
ATOM      7  O   LIG d   1       2.812  60.161 120.254  0.00  0.00    -0.368 OA
BRANCH   7   8
ATOM      8  C   LIG d   1       3.223  59.810 118.910  0.00  0.00     0.119 C 
BRANCH   8   9
ATOM      9  C   LIG d   1       4.082  58.535 119.007  0.00  0.00     0.028 C 
ATOM     10  C   LIG d   1       3.663  57.466 117.984  0.00  0.00     0.006 C 
ENDBRANCH   8   9
BRANCH   8  11
ATOM     11  C   LIG d   1       4.147  60.877 118.313  0.00  0.00     0.028 C 
ATOM     12  C   LIG d   1       3.482  61.674 117.180  0.00  0.00     0.006 C 
ENDBRANCH   8  11
ENDBRANCH   7   8
ENDBRANCH   1   7
BRANCH   6  13
ATOM     13  N   LIG d   1       1.595  60.292 123.008  0.00  0.00    -0.311 N 
ATOM     14  C   LIG d   1       1.983  61.127 123.970  0.00  0.00     0.210 C 
ATOM     15  C   LIG d   1       2.639  60.457 125.182  0.00  0.00     0.109 C 
ATOM     16  O   LIG d   1       1.818  62.356 123.950  0.00  0.00    -0.276 OA
ATOM     17  H   LIG d   1       1.738  59.308 123.122  0.00  0.00     0.149 HD
ENDBRANCH   6  13
BRANCH   5  18
ATOM     18  N   LIG d   1      -1.108  61.704 122.825  0.00  0.00     0.381 N 
ATOM     19  H   LIG d   1      -1.051  62.634 122.459  0.00  0.00    -0.090 HD
ATOM     20  H   LIG d   1      -0.541  61.655 123.653  0.00  0.00    -0.090 HD
ATOM     21  H   LIG d   1      -2.054  61.485 123.048  0.00  0.00    -0.090 HD
ENDBRANCH   5  18
BRANCH   3  22
ATOM     22  C   LIG d   1      -1.450  60.147 118.308  0.00  0.00     0.382 C 
ATOM     23  O   LIG d   1      -0.938  59.778 117.224  0.00  0.00    -0.241 OA
ATOM     24  O   LIG d   1      -2.677  60.351 118.370  0.00  0.00    -0.241 OA
ENDBRANCH   3  22
TORSDOF 7
ENDMDL
