MODEL 1
REMARK VINA RESULT:      -4.7      0.000      0.000
REMARK  7 active torsions:
REMARK  status: ('A' for Active; 'I' for Inactive)
REMARK    1  A    between atoms: C_2  and  C_3 
REMARK    2  A    between atoms: C_3  and  O_6 
REMARK    3  A    between atoms: C_3  and  C_4 
REMARK    4  A    between atoms: C_7  and  O_6 
REMARK    5  A    between atoms: C_9  and  C_10 
REMARK    6  A    between atoms: N_15  and  C_14 
REMARK    7  A    between atoms: N_20  and  C_19 
REMARK       I    between atoms: C_22  and  N_20 
ROOT
ATOM      1  C   LIG d   1     -10.267  80.206 120.781  0.00  0.00     0.161 C 
ATOM      2  C   LIG d   1     -10.158  78.956 120.150  0.00  0.00     0.016 C 
ATOM      3  C   LIG d   1      -9.927  78.801 118.764  0.00  0.00     0.038 C 
ATOM      4  C   LIG d   1      -9.635  79.894 117.934  0.00  0.00     0.028 C 
ATOM      5  C   LIG d   1     -10.233  81.207 118.430  0.00  0.00    -0.047 C 
ATOM      6  C   LIG d   1      -9.842  81.408 119.912  0.00  0.00     0.091 C 
ENDROOT
BRANCH   1   7
ATOM      7  O   LIG d   1      -9.527  80.195 122.018  0.00  0.00    -0.368 OA
BRANCH   7   8
ATOM      8  C   LIG d   1     -10.316  80.248 123.232  0.00  0.00     0.119 C 
BRANCH   8   9
ATOM      9  C   LIG d   1     -10.196  78.874 123.921  0.00  0.00     0.028 C 
ATOM     10  C   LIG d   1     -11.386  77.953 123.603  0.00  0.00     0.006 C 
ENDBRANCH   8   9
BRANCH   8  11
ATOM     11  C   LIG d   1     -11.806  80.418 122.923  0.00  0.00     0.028 C 
ATOM     12  C   LIG d   1     -12.393  81.711 123.512  0.00  0.00     0.006 C 
ENDBRANCH   8  11
ENDBRANCH   7   8
ENDBRANCH   1   7
BRANCH   6  13
ATOM     13  N   LIG d   1     -10.456  82.627 120.500  0.00  0.00    -0.311 N 
ATOM     14  C   LIG d   1      -9.796  83.471 121.292  0.00  0.00     0.210 C 
ATOM     15  C   LIG d   1     -10.622  84.655 121.806  0.00  0.00     0.109 C 
ATOM     16  O   LIG d   1      -8.597  83.370 121.591  0.00  0.00    -0.276 OA
ATOM     17  H   LIG d   1     -11.417  82.804 120.283  0.00  0.00     0.149 HD
ENDBRANCH   6  13
BRANCH   5  18
ATOM     18  N   LIG d   1      -9.738  82.282 117.550  0.00  0.00     0.381 N 
ATOM     19  H   LIG d   1      -9.461  83.070 118.101  0.00  0.00    -0.090 HD
ATOM     20  H   LIG d   1     -10.481  82.571 116.939  0.00  0.00    -0.090 HD
ATOM     21  H   LIG d   1      -8.964  81.955 117.014  0.00  0.00    -0.090 HD
ENDBRANCH   5  18
BRANCH   3  22
ATOM     22  C   LIG d   1     -10.024  77.544 118.187  0.00  0.00     0.382 C 
ATOM     23  O   LIG d   1     -11.122  76.937 118.189  0.00  0.00    -0.241 OA
ATOM     24  O   LIG d   1      -9.019  76.991 117.702  0.00  0.00    -0.241 OA
ENDBRANCH   3  22
TORSDOF 7
ENDMDL
MODEL 2
REMARK VINA RESULT:      -4.7      1.397      2.062
REMARK  7 active torsions:
REMARK  status: ('A' for Active; 'I' for Inactive)
REMARK    1  A    between atoms: C_2  and  C_3 
REMARK    2  A    between atoms: C_3  and  O_6 
REMARK    3  A    between atoms: C_3  and  C_4 
REMARK    4  A    between atoms: C_7  and  O_6 
REMARK    5  A    between atoms: C_9  and  C_10 
REMARK    6  A    between atoms: N_15  and  C_14 
REMARK    7  A    between atoms: N_20  and  C_19 
REMARK       I    between atoms: C_22  and  N_20 
ROOT
ATOM      1  C   LIG d   1     -10.256  80.242 120.791  0.00  0.00     0.161 C 
ATOM      2  C   LIG d   1     -10.157  78.989 120.166  0.00  0.00     0.016 C 
ATOM      3  C   LIG d   1      -9.936  78.827 118.779  0.00  0.00     0.038 C 
ATOM      4  C   LIG d   1      -9.646  79.915 117.942  0.00  0.00     0.028 C 
ATOM      5  C   LIG d   1     -10.234  81.232 118.436  0.00  0.00    -0.047 C 
ATOM      6  C   LIG d   1      -9.832  81.439 119.914  0.00  0.00     0.091 C 
ENDROOT
BRANCH   1   7
ATOM      7  O   LIG d   1      -9.508  80.234 122.023  0.00  0.00    -0.368 OA
BRANCH   7   8
ATOM      8  C   LIG d   1      -8.376  79.331 122.075  0.00  0.00     0.119 C 
BRANCH   8   9
ATOM      9  C   LIG d   1      -8.394  78.645 123.455  0.00  0.00     0.028 C 
ATOM     10  C   LIG d   1      -9.089  77.274 123.420  0.00  0.00     0.006 C 
ENDBRANCH   8   9
BRANCH   8  11
ATOM     11  C   LIG d   1      -7.050  80.096 122.019  0.00  0.00     0.028 C 
ATOM     12  C   LIG d   1      -6.448  80.142 120.606  0.00  0.00     0.006 C 
ENDBRANCH   8  11
ENDBRANCH   7   8
ENDBRANCH   1   7
BRANCH   6  13
ATOM     13  N   LIG d   1     -10.437  82.663 120.500  0.00  0.00    -0.311 N 
ATOM     14  C   LIG d   1      -9.772  83.502 121.293  0.00  0.00     0.210 C 
ATOM     15  C   LIG d   1     -10.589  84.692 121.806  0.00  0.00     0.109 C 
ATOM     16  O   LIG d   1      -8.574  83.390 121.595  0.00  0.00    -0.276 OA
ATOM     17  H   LIG d   1     -11.396  82.847 120.282  0.00  0.00     0.149 HD
ENDBRANCH   6  13
BRANCH   5  18
ATOM     18  N   LIG d   1      -9.741  82.302 117.548  0.00  0.00     0.381 N 
ATOM     19  H   LIG d   1     -10.345  82.389 116.755  0.00  0.00    -0.090 HD
ATOM     20  H   LIG d   1      -8.824  82.054 117.219  0.00  0.00    -0.090 HD
ATOM     21  H   LIG d   1      -9.702  83.165 118.043  0.00  0.00    -0.090 HD
ENDBRANCH   5  18
BRANCH   3  22
ATOM     22  C   LIG d   1     -10.043  77.568 118.208  0.00  0.00     0.382 C 
ATOM     23  O   LIG d   1     -11.140  76.960 118.231  0.00  0.00    -0.241 OA
ATOM     24  O   LIG d   1      -9.045  77.013 117.709  0.00  0.00    -0.241 OA
ENDBRANCH   3  22
TORSDOF 7
ENDMDL
MODEL 3
REMARK VINA RESULT:      -4.6      2.671      3.944
REMARK  7 active torsions:
REMARK  status: ('A' for Active; 'I' for Inactive)
REMARK    1  A    between atoms: C_2  and  C_3 
REMARK    2  A    between atoms: C_3  and  O_6 
REMARK    3  A    between atoms: C_3  and  C_4 
REMARK    4  A    between atoms: C_7  and  O_6 
REMARK    5  A    between atoms: C_9  and  C_10 
REMARK    6  A    between atoms: N_15  and  C_14 
REMARK    7  A    between atoms: N_20  and  C_19 
REMARK       I    between atoms: C_22  and  N_20 
ROOT
ATOM      1  C   LIG d   1      -8.364  80.650 120.519  0.00  0.00     0.161 C 
ATOM      2  C   LIG d   1      -8.620  79.328 120.118  0.00  0.00     0.016 C 
ATOM      3  C   LIG d   1      -9.354  78.994 118.956  0.00  0.00     0.038 C 
ATOM      4  C   LIG d   1      -9.755  79.967 118.029  0.00  0.00     0.028 C 
ATOM      5  C   LIG d   1      -9.958  81.346 118.647  0.00  0.00    -0.047 C 
ATOM      6  C   LIG d   1      -8.699  81.722 119.461  0.00  0.00     0.091 C 
ENDROOT
BRANCH   1   7
ATOM      7  O   LIG d   1      -6.993  80.775 120.943  0.00  0.00    -0.368 OA
BRANCH   7   8
ATOM      8  C   LIG d   1      -6.055  81.238 119.940  0.00  0.00     0.119 C 
BRANCH   8   9
ATOM      9  C   LIG d   1      -5.213  80.025 119.499  0.00  0.00     0.028 C 
ATOM     10  C   LIG d   1      -5.611  79.511 118.105  0.00  0.00     0.006 C 
ENDBRANCH   8   9
BRANCH   8  11
ATOM     11  C   LIG d   1      -5.052  82.233 120.532  0.00  0.00     0.028 C 
ATOM     12  C   LIG d   1      -3.593  81.786 120.355  0.00  0.00     0.006 C 
ENDBRANCH   8  11
ENDBRANCH   7   8
ENDBRANCH   1   7
BRANCH   6  13
ATOM     13  N   LIG d   1      -8.847  83.021 120.168  0.00  0.00    -0.311 N 
ATOM     14  C   LIG d   1      -9.725  83.226 121.148  0.00  0.00     0.210 C 
ATOM     15  C   LIG d   1      -9.728  84.644 121.727  0.00  0.00     0.109 C 
ATOM     16  O   LIG d   1     -10.480  82.359 121.614  0.00  0.00    -0.276 OA
ATOM     17  H   LIG d   1      -8.252  83.770 119.874  0.00  0.00     0.149 HD
ENDBRANCH   6  13
BRANCH   5  18
ATOM     18  N   LIG d   1     -10.239  82.290 117.548  0.00  0.00     0.381 N 
ATOM     19  H   LIG d   1     -11.191  82.195 117.255  0.00  0.00    -0.090 HD
ATOM     20  H   LIG d   1      -9.646  82.067 116.768  0.00  0.00    -0.090 HD
ATOM     21  H   LIG d   1     -10.068  83.224 117.849  0.00  0.00    -0.090 HD
ENDBRANCH   5  18
BRANCH   3  22
ATOM     22  C   LIG d   1      -9.728  77.678 118.734  0.00  0.00     0.382 C 
ATOM     23  O   LIG d   1     -10.903  77.410 118.388  0.00  0.00    -0.241 OA
ATOM     24  O   LIG d   1      -8.916  76.751 118.918  0.00  0.00    -0.241 OA
ENDBRANCH   3  22
TORSDOF 7
ENDMDL
MODEL 4
REMARK VINA RESULT:      -4.6     22.396     24.925
REMARK  7 active torsions:
REMARK  status: ('A' for Active; 'I' for Inactive)
REMARK    1  A    between atoms: C_2  and  C_3 
REMARK    2  A    between atoms: C_3  and  O_6 
REMARK    3  A    between atoms: C_3  and  C_4 
REMARK    4  A    between atoms: C_7  and  O_6 
REMARK    5  A    between atoms: C_9  and  C_10 
REMARK    6  A    between atoms: N_15  and  C_14 
REMARK    7  A    between atoms: N_20  and  C_19 
REMARK       I    between atoms: C_22  and  N_20 
ROOT
ATOM      1  C   LIG d   1      -2.623  56.756 120.273  0.00  0.00     0.161 C 
ATOM      2  C   LIG d   1      -2.275  57.599 119.204  0.00  0.00     0.016 C 
ATOM      3  C   LIG d   1      -2.302  59.011 119.286  0.00  0.00     0.038 C 
ATOM      4  C   LIG d   1      -2.535  59.679 120.497  0.00  0.00     0.028 C 
ATOM      5  C   LIG d   1      -3.383  58.877 121.478  0.00  0.00    -0.047 C 
ATOM      6  C   LIG d   1      -2.771  57.466 121.635  0.00  0.00     0.091 C 
ENDROOT
BRANCH   1   7
ATOM      7  O   LIG d   1      -1.673  55.677 120.372  0.00  0.00    -0.368 OA
BRANCH   7   8
ATOM      8  C   LIG d   1      -0.315  55.984 119.971  0.00  0.00     0.119 C 
BRANCH   8   9
ATOM      9  C   LIG d   1       0.252  54.738 119.264  0.00  0.00     0.028 C 
ATOM     10  C   LIG d   1       1.058  55.094 118.004  0.00  0.00     0.006 C 
ENDBRANCH   8   9
BRANCH   8  11
ATOM     11  C   LIG d   1       0.589  56.205 121.188  0.00  0.00     0.028 C 
ATOM     12  C   LIG d   1       0.965  57.681 121.390  0.00  0.00     0.006 C 
ENDBRANCH   8  11
ENDBRANCH   7   8
ENDBRANCH   1   7
BRANCH   6  13
ATOM     13  N   LIG d   1      -3.588  56.589 122.513  0.00  0.00    -0.311 N 
ATOM     14  C   LIG d   1      -3.106  55.985 123.598  0.00  0.00     0.210 C 
ATOM     15  C   LIG d   1      -4.112  55.108 124.351  0.00  0.00     0.109 C 
ATOM     16  O   LIG d   1      -1.950  56.118 124.027  0.00  0.00    -0.276 OA
ATOM     17  H   LIG d   1      -4.545  56.450 122.257  0.00  0.00     0.149 HD
ENDBRANCH   6  13
BRANCH   5  18
ATOM     18  N   LIG d   1      -3.431  59.631 122.746  0.00  0.00     0.381 N 
ATOM     19  H   LIG d   1      -2.671  60.280 122.782  0.00  0.00    -0.090 HD
ATOM     20  H   LIG d   1      -3.332  58.987 123.511  0.00  0.00    -0.090 HD
ATOM     21  H   LIG d   1      -4.297  60.117 122.821  0.00  0.00    -0.090 HD
ENDBRANCH   5  18
BRANCH   3  22
ATOM     22  C   LIG d   1      -2.134  59.769 118.137  0.00  0.00     0.382 C 
ATOM     23  O   LIG d   1      -1.207  60.611 118.072  0.00  0.00    -0.241 OA
ATOM     24  O   LIG d   1      -2.925  59.652 117.182  0.00  0.00    -0.241 OA
ENDBRANCH   3  22
TORSDOF 7
ENDMDL
MODEL 5
REMARK VINA RESULT:      -4.3      2.994      4.396
REMARK  7 active torsions:
REMARK  status: ('A' for Active; 'I' for Inactive)
REMARK    1  A    between atoms: C_2  and  C_3 
REMARK    2  A    between atoms: C_3  and  O_6 
REMARK    3  A    between atoms: C_3  and  C_4 
REMARK    4  A    between atoms: C_7  and  O_6 
REMARK    5  A    between atoms: C_9  and  C_10 
REMARK    6  A    between atoms: N_15  and  C_14 
REMARK    7  A    between atoms: N_20  and  C_19 
REMARK       I    between atoms: C_22  and  N_20 
ROOT
ATOM      1  C   LIG d   1      -7.681  81.315 119.796  0.00  0.00     0.161 C 
ATOM      2  C   LIG d   1      -7.708  79.982 119.354  0.00  0.00     0.016 C 
ATOM      3  C   LIG d   1      -8.734  79.454 118.537  0.00  0.00     0.038 C 
ATOM      4  C   LIG d   1      -9.729  80.269 117.977  0.00  0.00     0.028 C 
ATOM      5  C   LIG d   1     -10.027  81.515 118.803  0.00  0.00    -0.047 C 
ATOM      6  C   LIG d   1      -8.699  82.246 119.105  0.00  0.00     0.091 C 
ENDROOT
BRANCH   1   7
ATOM      7  O   LIG d   1      -6.347  81.845 119.666  0.00  0.00    -0.368 OA
BRANCH   7   8
ATOM      8  C   LIG d   1      -5.519  81.788 120.853  0.00  0.00     0.119 C 
BRANCH   8   9
ATOM      9  C   LIG d   1      -5.751  83.091 121.643  0.00  0.00     0.028 C 
ATOM     10  C   LIG d   1      -4.512  84.001 121.650  0.00  0.00     0.006 C 
ENDBRANCH   8   9
BRANCH   8  11
ATOM     11  C   LIG d   1      -4.030  81.790 120.495  0.00  0.00     0.028 C 
ATOM     12  C   LIG d   1      -3.589  80.509 119.770  0.00  0.00     0.006 C 
ENDBRANCH   8  11
ENDBRANCH   7   8
ENDBRANCH   1   7
BRANCH   6  13
ATOM     13  N   LIG d   1      -8.890  83.432 119.981  0.00  0.00    -0.311 N 
ATOM     14  C   LIG d   1      -9.551  83.391 121.136  0.00  0.00     0.210 C 
ATOM     15  C   LIG d   1      -9.650  84.730 121.873  0.00  0.00     0.109 C 
ATOM     16  O   LIG d   1     -10.038  82.365 121.636  0.00  0.00    -0.276 OA
ATOM     17  H   LIG d   1      -8.500  84.299 119.666  0.00  0.00     0.149 HD
ENDBRANCH   6  13
BRANCH   5  18
ATOM     18  N   LIG d   1     -10.980  82.340 118.038  0.00  0.00     0.381 N 
ATOM     19  H   LIG d   1     -11.898  82.244 118.424  0.00  0.00    -0.090 HD
ATOM     20  H   LIG d   1     -11.001  82.015 117.087  0.00  0.00    -0.090 HD
ATOM     21  H   LIG d   1     -10.700  83.296 118.063  0.00  0.00    -0.090 HD
ENDBRANCH   5  18
BRANCH   3  22
ATOM     22  C   LIG d   1      -8.793  78.088 118.304  0.00  0.00     0.382 C 
ATOM     23  O   LIG d   1      -7.882  77.524 117.651  0.00  0.00    -0.241 OA
ATOM     24  O   LIG d   1      -9.767  77.421 118.700  0.00  0.00    -0.241 OA
ENDBRANCH   3  22
TORSDOF 7
ENDMDL
MODEL 6
REMARK VINA RESULT:      -4.2     23.152     25.682
REMARK  7 active torsions:
REMARK  status: ('A' for Active; 'I' for Inactive)
REMARK    1  A    between atoms: C_2  and  C_3 
REMARK    2  A    between atoms: C_3  and  O_6 
REMARK    3  A    between atoms: C_3  and  C_4 
REMARK    4  A    between atoms: C_7  and  O_6 
REMARK    5  A    between atoms: C_9  and  C_10 
REMARK    6  A    between atoms: N_15  and  C_14 
REMARK    7  A    between atoms: N_20  and  C_19 
REMARK       I    between atoms: C_22  and  N_20 
ROOT
ATOM      1  C   LIG d   1       0.492  57.729 118.946  0.00  0.00     0.161 C 
ATOM      2  C   LIG d   1       1.764  57.564 118.373  0.00  0.00     0.016 C 
ATOM      3  C   LIG d   1       2.889  57.101 119.094  0.00  0.00     0.038 C 
ATOM      4  C   LIG d   1       2.781  56.624 120.409  0.00  0.00     0.028 C 
ATOM      5  C   LIG d   1       1.624  57.243 121.185  0.00  0.00    -0.047 C 
ATOM      6  C   LIG d   1       0.330  57.108 120.350  0.00  0.00     0.091 C 
ENDROOT
BRANCH   1   7
ATOM      7  O   LIG d   1      -0.516  57.217 118.053  0.00  0.00    -0.368 OA
BRANCH   7   8
ATOM      8  C   LIG d   1      -1.202  58.198 117.237  0.00  0.00     0.119 C 
BRANCH   8   9
ATOM      9  C   LIG d   1      -1.063  59.563 117.938  0.00  0.00     0.028 C 
ATOM     10  C   LIG d   1      -2.333  59.958 118.710  0.00  0.00     0.006 C 
ENDBRANCH   8   9
BRANCH   8  11
ATOM     11  C   LIG d   1      -2.707  57.922 117.181  0.00  0.00     0.028 C 
ATOM     12  C   LIG d   1      -3.077  56.526 117.706  0.00  0.00     0.006 C 
ENDBRANCH   8  11
ENDBRANCH   7   8
ENDBRANCH   1   7
BRANCH   6  13
ATOM     13  N   LIG d   1      -0.835  57.763 121.000  0.00  0.00    -0.311 N 
ATOM     14  C   LIG d   1      -1.980  57.134 121.258  0.00  0.00     0.210 C 
ATOM     15  C   LIG d   1      -3.060  58.000 121.914  0.00  0.00     0.109 C 
ATOM     16  O   LIG d   1      -2.193  55.933 121.035  0.00  0.00    -0.276 OA
ATOM     17  H   LIG d   1      -0.738  58.730 121.243  0.00  0.00     0.149 HD
ENDBRANCH   6  13
BRANCH   5  18
ATOM     18  N   LIG d   1       1.544  56.557 122.489  0.00  0.00     0.381 N 
ATOM     19  H   LIG d   1       1.955  57.130 123.199  0.00  0.00    -0.090 HD
ATOM     20  H   LIG d   1       2.063  55.699 122.437  0.00  0.00    -0.090 HD
ATOM     21  H   LIG d   1       0.593  56.366 122.716  0.00  0.00    -0.090 HD
ENDBRANCH   5  18
BRANCH   3  22
ATOM     22  C   LIG d   1       4.146  57.149 118.512  0.00  0.00     0.382 C 
ATOM     23  O   LIG d   1       4.808  58.215 118.537  0.00  0.00    -0.241 OA
ATOM     24  O   LIG d   1       4.609  56.153 117.923  0.00  0.00    -0.241 OA
ENDBRANCH   3  22
TORSDOF 7
ENDMDL
MODEL 7
REMARK VINA RESULT:      -4.1      4.463      7.380
REMARK  7 active torsions:
REMARK  status: ('A' for Active; 'I' for Inactive)
REMARK    1  A    between atoms: C_2  and  C_3 
REMARK    2  A    between atoms: C_3  and  O_6 
REMARK    3  A    between atoms: C_3  and  C_4 
REMARK    4  A    between atoms: C_7  and  O_6 
REMARK    5  A    between atoms: C_9  and  C_10 
REMARK    6  A    between atoms: N_15  and  C_14 
REMARK    7  A    between atoms: N_20  and  C_19 
REMARK       I    between atoms: C_22  and  N_20 
ROOT
ATOM      1  C   LIG d   1      -6.567  78.791 117.803  0.00  0.00     0.161 C 
ATOM      2  C   LIG d   1      -6.905  80.142 117.992  0.00  0.00     0.016 C 
ATOM      3  C   LIG d   1      -8.218  80.583 118.278  0.00  0.00     0.038 C 
ATOM      4  C   LIG d   1      -9.261  79.683 118.544  0.00  0.00     0.028 C 
ATOM      5  C   LIG d   1      -9.079  78.328 117.868  0.00  0.00    -0.047 C 
ATOM      6  C   LIG d   1      -7.670  77.787 118.199  0.00  0.00     0.091 C 
ENDROOT
BRANCH   1   7
ATOM      7  O   LIG d   1      -5.342  78.492 118.501  0.00  0.00    -0.368 OA
BRANCH   7   8
ATOM      8  C   LIG d   1      -4.131  78.529 117.707  0.00  0.00     0.119 C 
BRANCH   8   9
ATOM      9  C   LIG d   1      -3.792  77.079 117.312  0.00  0.00     0.028 C 
ATOM     10  C   LIG d   1      -3.912  76.104 118.496  0.00  0.00     0.006 C 
ENDBRANCH   8   9
BRANCH   8  11
ATOM     11  C   LIG d   1      -2.937  79.014 118.534  0.00  0.00     0.028 C 
ATOM     12  C   LIG d   1      -1.611  78.953 117.759  0.00  0.00     0.006 C 
ENDBRANCH   8  11
ENDBRANCH   7   8
ENDBRANCH   1   7
BRANCH   6  13
ATOM     13  N   LIG d   1      -7.378  76.504 117.509  0.00  0.00    -0.311 N 
ATOM     14  C   LIG d   1      -7.596  75.310 118.058  0.00  0.00     0.210 C 
ATOM     15  C   LIG d   1      -7.207  74.115 117.182  0.00  0.00     0.109 C 
ATOM     16  O   LIG d   1      -8.104  75.127 119.174  0.00  0.00    -0.276 OA
ATOM     17  H   LIG d   1      -6.993  76.559 116.586  0.00  0.00     0.149 HD
ENDBRANCH   6  13
BRANCH   5  18
ATOM     18  N   LIG d   1     -10.163  77.446 118.341  0.00  0.00     0.381 N 
ATOM     19  H   LIG d   1     -10.951  77.520 117.729  0.00  0.00    -0.090 HD
ATOM     20  H   LIG d   1     -10.447  77.742 119.258  0.00  0.00    -0.090 HD
ATOM     21  H   LIG d   1      -9.845  76.502 118.372  0.00  0.00    -0.090 HD
ENDBRANCH   5  18
BRANCH   3  22
ATOM     22  C   LIG d   1      -8.507  81.939 118.259  0.00  0.00     0.382 C 
ATOM     23  O   LIG d   1      -7.881  82.723 119.012  0.00  0.00    -0.241 OA
ATOM     24  O   LIG d   1      -9.415  82.381 117.531  0.00  0.00    -0.241 OA
ENDBRANCH   3  22
TORSDOF 7
ENDMDL
MODEL 8
REMARK VINA RESULT:      -4.1      9.304     11.055
REMARK  7 active torsions:
REMARK  status: ('A' for Active; 'I' for Inactive)
REMARK    1  A    between atoms: C_2  and  C_3 
REMARK    2  A    between atoms: C_3  and  O_6 
REMARK    3  A    between atoms: C_3  and  C_4 
REMARK    4  A    between atoms: C_7  and  O_6 
REMARK    5  A    between atoms: C_9  and  C_10 
REMARK    6  A    between atoms: N_15  and  C_14 
REMARK    7  A    between atoms: N_20  and  C_19 
REMARK       I    between atoms: C_22  and  N_20 
ROOT
ATOM      1  C   LIG d   1     -18.611  76.777 119.490  0.00  0.00     0.161 C 
ATOM      2  C   LIG d   1     -19.080  78.101 119.460  0.00  0.00     0.016 C 
ATOM      3  C   LIG d   1     -20.445  78.446 119.590  0.00  0.00     0.038 C 
ATOM      4  C   LIG d   1     -21.423  77.493 119.913  0.00  0.00     0.028 C 
ATOM      5  C   LIG d   1     -21.069  76.083 119.453  0.00  0.00    -0.047 C 
ATOM      6  C   LIG d   1     -19.649  75.733 119.953  0.00  0.00     0.091 C 
ENDROOT
BRANCH   1   7
ATOM      7  O   LIG d   1     -17.424  76.698 120.305  0.00  0.00    -0.368 OA
BRANCH   7   8
ATOM      8  C   LIG d   1     -17.602  76.959 121.718  0.00  0.00     0.119 C 
BRANCH   8   9
ATOM      9  C   LIG d   1     -16.451  77.879 122.168  0.00  0.00     0.028 C 
ATOM     10  C   LIG d   1     -15.162  77.098 122.476  0.00  0.00     0.006 C 
ENDBRANCH   8   9
BRANCH   8  11
ATOM     11  C   LIG d   1     -17.446  75.680 122.546  0.00  0.00     0.028 C 
ATOM     12  C   LIG d   1     -18.568  75.499 123.581  0.00  0.00     0.006 C 
ENDBRANCH   8  11
ENDBRANCH   7   8
ENDBRANCH   1   7
BRANCH   6  13
ATOM     13  N   LIG d   1     -19.192  74.402 119.475  0.00  0.00    -0.311 N 
ATOM     14  C   LIG d   1     -19.347  73.280 120.174  0.00  0.00     0.210 C 
ATOM     15  C   LIG d   1     -18.786  72.020 119.508  0.00  0.00     0.109 C 
ATOM     16  O   LIG d   1     -19.925  73.202 121.269  0.00  0.00    -0.276 OA
ATOM     17  H   LIG d   1     -18.740  74.369 118.582  0.00  0.00     0.149 HD
ENDBRANCH   6  13
BRANCH   5  18
ATOM     18  N   LIG d   1     -22.106  75.172 119.974  0.00  0.00     0.381 N 
ATOM     19  H   LIG d   1     -22.720  75.671 120.585  0.00  0.00    -0.090 HD
ATOM     20  H   LIG d   1     -21.661  74.442 120.502  0.00  0.00    -0.090 HD
ATOM     21  H   LIG d   1     -22.624  74.777 119.220  0.00  0.00    -0.090 HD
ENDBRANCH   5  18
BRANCH   3  22
ATOM     22  C   LIG d   1     -20.849  79.752 119.358  0.00  0.00     0.382 C 
ATOM     23  O   LIG d   1     -20.006  80.619 119.024  0.00  0.00    -0.241 OA
ATOM     24  O   LIG d   1     -22.038  80.084 119.521  0.00  0.00    -0.241 OA
ENDBRANCH   3  22
TORSDOF 7
ENDMDL
MODEL 9
REMARK VINA RESULT:      -4.1     22.984     25.387
REMARK  7 active torsions:
REMARK  status: ('A' for Active; 'I' for Inactive)
REMARK    1  A    between atoms: C_2  and  C_3 
REMARK    2  A    between atoms: C_3  and  O_6 
REMARK    3  A    between atoms: C_3  and  C_4 
REMARK    4  A    between atoms: C_7  and  O_6 
REMARK    5  A    between atoms: C_9  and  C_10 
REMARK    6  A    between atoms: N_15  and  C_14 
REMARK    7  A    between atoms: N_20  and  C_19 
REMARK       I    between atoms: C_22  and  N_20 
ROOT
ATOM      1  C   LIG d   1      -0.733  56.669 120.659  0.00  0.00     0.161 C 
ATOM      2  C   LIG d   1      -1.662  56.621 119.606  0.00  0.00     0.016 C 
ATOM      3  C   LIG d   1      -2.480  57.715 119.240  0.00  0.00     0.038 C 
ATOM      4  C   LIG d   1      -2.316  58.986 119.809  0.00  0.00     0.028 C 
ATOM      5  C   LIG d   1      -1.740  58.949 121.221  0.00  0.00    -0.047 C 
ATOM      6  C   LIG d   1      -0.461  58.081 121.219  0.00  0.00     0.091 C 
ENDROOT
BRANCH   1   7
ATOM      7  O   LIG d   1       0.501  56.046 120.251  0.00  0.00    -0.368 OA
BRANCH   7   8
ATOM      8  C   LIG d   1       0.767  56.031 118.827  0.00  0.00     0.119 C 
BRANCH   8   9
ATOM      9  C   LIG d   1       1.382  54.661 118.484  0.00  0.00     0.028 C 
ATOM     10  C   LIG d   1       2.909  54.729 118.313  0.00  0.00     0.006 C 
ENDBRANCH   8   9
BRANCH   8  11
ATOM     11  C   LIG d   1       1.835  57.061 118.449  0.00  0.00     0.028 C 
ATOM     12  C   LIG d   1       1.278  58.214 117.598  0.00  0.00     0.006 C 
ENDBRANCH   8  11
ENDBRANCH   7   8
ENDBRANCH   1   7
BRANCH   6  13
ATOM     13  N   LIG d   1       0.119  57.922 122.578  0.00  0.00    -0.311 N 
ATOM     14  C   LIG d   1       1.429  57.889 122.817  0.00  0.00     0.210 C 
ATOM     15  C   LIG d   1       1.813  57.698 124.287  0.00  0.00     0.109 C 
ATOM     16  O   LIG d   1       2.308  58.032 121.955  0.00  0.00    -0.276 OA
ATOM     17  H   LIG d   1      -0.524  57.830 123.340  0.00  0.00     0.149 HD
ENDBRANCH   6  13
BRANCH   5  18
ATOM     18  N   LIG d   1      -1.493  60.342 121.639  0.00  0.00     0.381 N 
ATOM     19  H   LIG d   1      -1.332  60.913 120.834  0.00  0.00    -0.090 HD
ATOM     20  H   LIG d   1      -0.670  60.367 122.214  0.00  0.00    -0.090 HD
ATOM     21  H   LIG d   1      -2.275  60.688 122.150  0.00  0.00    -0.090 HD
ENDBRANCH   5  18
BRANCH   3  22
ATOM     22  C   LIG d   1      -3.503  57.531 118.322  0.00  0.00     0.382 C 
ATOM     23  O   LIG d   1      -3.918  58.501 117.644  0.00  0.00    -0.241 OA
ATOM     24  O   LIG d   1      -4.045  56.417 118.196  0.00  0.00    -0.241 OA
ENDBRANCH   3  22
TORSDOF 7
ENDMDL
