MODEL 1
REMARK VINA RESULT:      -4.6      0.000      0.000
REMARK  7 active torsions:
REMARK  status: ('A' for Active; 'I' for Inactive)
REMARK    1  A    between atoms: C_2  and  C_3 
REMARK    2  A    between atoms: C_3  and  O_6 
REMARK    3  A    between atoms: C_3  and  C_4 
REMARK    4  A    between atoms: C_7  and  O_6 
REMARK    5  A    between atoms: C_9  and  C_10 
REMARK    6  A    between atoms: N_15  and  C_14 
REMARK    7  A    between atoms: N_20  and  C_19 
REMARK       I    between atoms: C_22  and  N_20 
ROOT
ATOM      1  C   LIG d   1      -8.588  78.324 120.068  0.00  0.00     0.161 C 
ATOM      2  C   LIG d   1      -8.657  77.054 120.665  0.00  0.00     0.016 C 
ATOM      3  C   LIG d   1      -9.705  76.655 121.527  0.00  0.00     0.038 C 
ATOM      4  C   LIG d   1     -10.840  77.453 121.732  0.00  0.00     0.028 C 
ATOM      5  C   LIG d   1     -10.574  78.944 121.552  0.00  0.00    -0.047 C 
ATOM      6  C   LIG d   1      -9.874  79.167 120.192  0.00  0.00     0.091 C 
ENDROOT
BRANCH   1   7
ATOM      7  O   LIG d   1      -8.205  78.193 118.685  0.00  0.00    -0.368 OA
BRANCH   7   8
ATOM      8  C   LIG d   1      -6.784  78.258 118.408  0.00  0.00     0.119 C 
BRANCH   8   9
ATOM      9  C   LIG d   1      -6.454  79.712 118.021  0.00  0.00     0.028 C 
ATOM     10  C   LIG d   1      -5.775  80.484 119.165  0.00  0.00     0.006 C 
ENDBRANCH   8   9
BRANCH   8  11
ATOM     11  C   LIG d   1      -6.417  77.418 117.181  0.00  0.00     0.028 C 
ATOM     12  C   LIG d   1      -6.525  75.907 117.439  0.00  0.00     0.006 C 
ENDBRANCH   8  11
ENDBRANCH   7   8
ENDBRANCH   1   7
BRANCH   6  13
ATOM     13  N   LIG d   1      -9.501  80.589 119.973  0.00  0.00    -0.311 N 
ATOM     14  C   LIG d   1      -9.693  81.229 118.821  0.00  0.00     0.210 C 
ATOM     15  C   LIG d   1      -9.219  82.685 118.803  0.00  0.00     0.109 C 
ATOM     16  O   LIG d   1     -10.240  80.738 117.822  0.00  0.00    -0.276 OA
ATOM     17  H   LIG d   1      -9.079  81.074 120.742  0.00  0.00     0.149 HD
ENDBRANCH   6  13
BRANCH   5  18
ATOM     18  N   LIG d   1     -11.868  79.644 121.658  0.00  0.00     0.381 N 
ATOM     19  H   LIG d   1     -12.566  79.015 122.002  0.00  0.00    -0.090 HD
ATOM     20  H   LIG d   1     -12.145  79.954 120.744  0.00  0.00    -0.090 HD
ATOM     21  H   LIG d   1     -11.783  80.425 122.271  0.00  0.00    -0.090 HD
ENDBRANCH   5  18
BRANCH   3  22
ATOM     22  C   LIG d   1      -9.603  75.462 122.226  0.00  0.00     0.382 C 
ATOM     23  O   LIG d   1     -10.629  74.772 122.441  0.00  0.00    -0.241 OA
ATOM     24  O   LIG d   1      -8.506  75.089 122.683  0.00  0.00    -0.241 OA
ENDBRANCH   3  22
TORSDOF 7
ENDMDL
MODEL 2
REMARK VINA RESULT:      -4.6      3.271      4.448
REMARK  7 active torsions:
REMARK  status: ('A' for Active; 'I' for Inactive)
REMARK    1  A    between atoms: C_2  and  C_3 
REMARK    2  A    between atoms: C_3  and  O_6 
REMARK    3  A    between atoms: C_3  and  C_4 
REMARK    4  A    between atoms: C_7  and  O_6 
REMARK    5  A    between atoms: C_9  and  C_10 
REMARK    6  A    between atoms: N_15  and  C_14 
REMARK    7  A    between atoms: N_20  and  C_19 
REMARK       I    between atoms: C_22  and  N_20 
ROOT
ATOM      1  C   LIG d   1      -7.398  81.288 119.828  0.00  0.00     0.161 C 
ATOM      2  C   LIG d   1      -7.523  79.998 119.288  0.00  0.00     0.016 C 
ATOM      3  C   LIG d   1      -8.614  79.593 118.485  0.00  0.00     0.038 C 
ATOM      4  C   LIG d   1      -9.585  80.502 118.040  0.00  0.00     0.028 C 
ATOM      5  C   LIG d   1      -9.772  81.694 118.973  0.00  0.00    -0.047 C 
ATOM      6  C   LIG d   1      -8.391  82.325 119.262  0.00  0.00     0.091 C 
ENDROOT
BRANCH   1   7
ATOM      7  O   LIG d   1      -6.043  81.754 119.672  0.00  0.00    -0.368 OA
BRANCH   7   8
ATOM      8  C   LIG d   1      -5.165  81.554 120.807  0.00  0.00     0.119 C 
BRANCH   8   9
ATOM      9  C   LIG d   1      -5.032  82.907 121.532  0.00  0.00     0.028 C 
ATOM     10  C   LIG d   1      -3.581  83.418 121.558  0.00  0.00     0.006 C 
ENDBRANCH   8   9
BRANCH   8  11
ATOM     11  C   LIG d   1      -3.747  81.193 120.357  0.00  0.00     0.028 C 
ATOM     12  C   LIG d   1      -3.677  79.837 119.638  0.00  0.00     0.006 C 
ENDBRANCH   8  11
ENDBRANCH   7   8
ENDBRANCH   1   7
BRANCH   6  13
ATOM     13  N   LIG d   1      -8.473  83.447 120.234  0.00  0.00    -0.311 N 
ATOM     14  C   LIG d   1      -8.958  83.314 121.467  0.00  0.00     0.210 C 
ATOM     15  C   LIG d   1      -8.971  84.601 122.299  0.00  0.00     0.109 C 
ATOM     16  O   LIG d   1      -9.351  82.247 121.962  0.00  0.00    -0.276 OA
ATOM     17  H   LIG d   1      -8.147  84.342 119.926  0.00  0.00     0.149 HD
ENDBRANCH   6  13
BRANCH   5  18
ATOM     18  N   LIG d   1     -10.709  82.628 118.321  0.00  0.00     0.381 N 
ATOM     19  H   LIG d   1     -11.632  82.240 118.326  0.00  0.00    -0.090 HD
ATOM     20  H   LIG d   1     -10.427  82.758 117.365  0.00  0.00    -0.090 HD
ATOM     21  H   LIG d   1     -10.706  83.502 118.798  0.00  0.00    -0.090 HD
ENDBRANCH   5  18
BRANCH   3  22
ATOM     22  C   LIG d   1      -8.763  78.255 118.152  0.00  0.00     0.382 C 
ATOM     23  O   LIG d   1      -9.911  77.768 118.010  0.00  0.00    -0.241 OA
ATOM     24  O   LIG d   1      -7.765  77.518 118.035  0.00  0.00    -0.241 OA
ENDBRANCH   3  22
TORSDOF 7
ENDMDL
MODEL 3
REMARK VINA RESULT:      -4.6     11.082     13.971
REMARK  7 active torsions:
REMARK  status: ('A' for Active; 'I' for Inactive)
REMARK    1  A    between atoms: C_2  and  C_3 
REMARK    2  A    between atoms: C_3  and  O_6 
REMARK    3  A    between atoms: C_3  and  C_4 
REMARK    4  A    between atoms: C_7  and  O_6 
REMARK    5  A    between atoms: C_9  and  C_10 
REMARK    6  A    between atoms: N_15  and  C_14 
REMARK    7  A    between atoms: N_20  and  C_19 
REMARK       I    between atoms: C_22  and  N_20 
ROOT
ATOM      1  C   LIG d   1     -14.345  66.924 121.080  0.00  0.00     0.161 C 
ATOM      2  C   LIG d   1     -13.903  68.147 121.611  0.00  0.00     0.016 C 
ATOM      3  C   LIG d   1     -12.799  68.261 122.487  0.00  0.00     0.038 C 
ATOM      4  C   LIG d   1     -11.963  67.171 122.773  0.00  0.00     0.028 C 
ATOM      5  C   LIG d   1     -12.667  65.823 122.661  0.00  0.00    -0.047 C 
ATOM      6  C   LIG d   1     -13.378  65.740 121.292  0.00  0.00     0.091 C 
ENDROOT
BRANCH   1   7
ATOM      7  O   LIG d   1     -14.646  67.081 119.679  0.00  0.00    -0.368 OA
BRANCH   7   8
ATOM      8  C   LIG d   1     -16.049  67.036 119.320  0.00  0.00     0.119 C 
BRANCH   8   9
ATOM      9  C   LIG d   1     -16.240  65.858 118.345  0.00  0.00     0.028 C 
ATOM     10  C   LIG d   1     -17.397  64.934 118.761  0.00  0.00     0.006 C 
ENDBRANCH   8   9
BRANCH   8  11
ATOM     11  C   LIG d   1     -16.463  68.284 118.534  0.00  0.00     0.028 C 
ATOM     12  C   LIG d   1     -15.744  68.401 117.181  0.00  0.00     0.006 C 
ENDBRANCH   8  11
ENDBRANCH   7   8
ENDBRANCH   1   7
BRANCH   6  13
ATOM     13  N   LIG d   1     -14.162  64.487 121.135  0.00  0.00    -0.311 N 
ATOM     14  C   LIG d   1     -13.872  63.549 120.235  0.00  0.00     0.210 C 
ATOM     15  C   LIG d   1     -14.819  62.345 120.227  0.00  0.00     0.109 C 
ATOM     16  O   LIG d   1     -12.902  63.585 119.463  0.00  0.00    -0.276 OA
ATOM     17  H   LIG d   1     -14.948  64.361 121.742  0.00  0.00     0.149 HD
ENDBRANCH   6  13
BRANCH   5  18
ATOM     18  N   LIG d   1     -11.649  64.772 122.849  0.00  0.00     0.381 N 
ATOM     19  H   LIG d   1     -10.739  65.146 122.669  0.00  0.00    -0.090 HD
ATOM     20  H   LIG d   1     -11.821  64.032 122.192  0.00  0.00    -0.090 HD
ATOM     21  H   LIG d   1     -11.692  64.418 123.779  0.00  0.00    -0.090 HD
ENDBRANCH   5  18
BRANCH   3  22
ATOM     22  C   LIG d   1     -12.545  69.469 123.119  0.00  0.00     0.382 C 
ATOM     23  O   LIG d   1     -13.229  70.482 122.834  0.00  0.00    -0.241 OA
ATOM     24  O   LIG d   1     -11.611  69.570 123.937  0.00  0.00    -0.241 OA
ENDBRANCH   3  22
TORSDOF 7
ENDMDL
MODEL 4
REMARK VINA RESULT:      -4.6      8.133     10.443
REMARK  7 active torsions:
REMARK  status: ('A' for Active; 'I' for Inactive)
REMARK    1  A    between atoms: C_2  and  C_3 
REMARK    2  A    between atoms: C_3  and  O_6 
REMARK    3  A    between atoms: C_3  and  C_4 
REMARK    4  A    between atoms: C_7  and  O_6 
REMARK    5  A    between atoms: C_9  and  C_10 
REMARK    6  A    between atoms: N_15  and  C_14 
REMARK    7  A    between atoms: N_20  and  C_19 
REMARK       I    between atoms: C_22  and  N_20 
ROOT
ATOM      1  C   LIG d   1     -18.100  77.158 119.816  0.00  0.00     0.161 C 
ATOM      2  C   LIG d   1     -17.114  76.244 120.222  0.00  0.00     0.016 C 
ATOM      3  C   LIG d   1     -16.237  76.476 121.307  0.00  0.00     0.038 C 
ATOM      4  C   LIG d   1     -16.388  77.580 122.159  0.00  0.00     0.028 C 
ATOM      5  C   LIG d   1     -17.045  78.780 121.485  0.00  0.00    -0.047 C 
ATOM      6  C   LIG d   1     -18.353  78.318 120.802  0.00  0.00     0.091 C 
ENDROOT
BRANCH   1   7
ATOM      7  O   LIG d   1     -19.330  76.459 119.539  0.00  0.00    -0.368 OA
BRANCH   7   8
ATOM      8  C   LIG d   1     -19.857  75.645 120.615  0.00  0.00     0.119 C 
BRANCH   8   9
ATOM      9  C   LIG d   1     -20.347  74.321 119.997  0.00  0.00     0.028 C 
ATOM     10  C   LIG d   1     -19.251  73.242 119.978  0.00  0.00     0.006 C 
ENDBRANCH   8   9
BRANCH   8  11
ATOM     11  C   LIG d   1     -21.100  76.285 121.241  0.00  0.00     0.028 C 
ATOM     12  C   LIG d   1     -21.994  76.986 120.206  0.00  0.00     0.006 C 
ENDBRANCH   8  11
ENDBRANCH   7   8
ENDBRANCH   1   7
BRANCH   6  13
ATOM     13  N   LIG d   1     -19.016  79.413 120.048  0.00  0.00    -0.311 N 
ATOM     14  C   LIG d   1     -19.998  80.159 120.551  0.00  0.00     0.210 C 
ATOM     15  C   LIG d   1     -20.556  81.222 119.598  0.00  0.00     0.109 C 
ATOM     16  O   LIG d   1     -20.437  80.064 121.707  0.00  0.00    -0.276 OA
ATOM     17  H   LIG d   1     -18.700  79.580 119.113  0.00  0.00     0.149 HD
ENDBRANCH   6  13
BRANCH   5  18
ATOM     18  N   LIG d   1     -17.266  79.807 122.521  0.00  0.00     0.381 N 
ATOM     19  H   LIG d   1     -17.677  79.388 123.331  0.00  0.00    -0.090 HD
ATOM     20  H   LIG d   1     -17.903  80.496 122.164  0.00  0.00    -0.090 HD
ATOM     21  H   LIG d   1     -16.401  80.237 122.763  0.00  0.00    -0.090 HD
ENDBRANCH   5  18
BRANCH   3  22
ATOM     22  C   LIG d   1     -15.170  75.617 121.523  0.00  0.00     0.382 C 
ATOM     23  O   LIG d   1     -14.091  75.791 120.907  0.00  0.00    -0.241 OA
ATOM     24  O   LIG d   1     -15.287  74.645 122.293  0.00  0.00    -0.241 OA
ENDBRANCH   3  22
TORSDOF 7
ENDMDL
MODEL 5
REMARK VINA RESULT:      -4.5      2.988      4.838
REMARK  7 active torsions:
REMARK  status: ('A' for Active; 'I' for Inactive)
REMARK    1  A    between atoms: C_2  and  C_3 
REMARK    2  A    between atoms: C_3  and  O_6 
REMARK    3  A    between atoms: C_3  and  C_4 
REMARK    4  A    between atoms: C_7  and  O_6 
REMARK    5  A    between atoms: C_9  and  C_10 
REMARK    6  A    between atoms: N_15  and  C_14 
REMARK    7  A    between atoms: N_20  and  C_19 
REMARK       I    between atoms: C_22  and  N_20 
ROOT
ATOM      1  C   LIG d   1      -8.726  80.362 121.007  0.00  0.00     0.161 C 
ATOM      2  C   LIG d   1      -8.142  79.425 120.138  0.00  0.00     0.016 C 
ATOM      3  C   LIG d   1      -8.358  79.421 118.741  0.00  0.00     0.038 C 
ATOM      4  C   LIG d   1      -9.056  80.452 118.095  0.00  0.00     0.028 C 
ATOM      5  C   LIG d   1     -10.084  81.139 118.987  0.00  0.00    -0.047 C 
ATOM      6  C   LIG d   1      -9.400  81.561 120.307  0.00  0.00     0.091 C 
ENDROOT
BRANCH   1   7
ATOM      7  O   LIG d   1      -7.745  80.824 121.957  0.00  0.00    -0.368 OA
BRANCH   7   8
ATOM      8  C   LIG d   1      -6.766  81.767 121.456  0.00  0.00     0.119 C 
BRANCH   8   9
ATOM      9  C   LIG d   1      -5.399  81.055 121.450  0.00  0.00     0.028 C 
ATOM     10  C   LIG d   1      -4.808  80.931 120.035  0.00  0.00     0.006 C 
ENDBRANCH   8   9
BRANCH   8  11
ATOM     11  C   LIG d   1      -6.599  82.956 122.406  0.00  0.00     0.028 C 
ATOM     12  C   LIG d   1      -5.791  84.106 121.785  0.00  0.00     0.006 C 
ENDBRANCH   8  11
ENDBRANCH   7   8
ENDBRANCH   1   7
BRANCH   6  13
ATOM     13  N   LIG d   1     -10.355  82.166 121.272  0.00  0.00    -0.311 N 
ATOM     14  C   LIG d   1     -10.290  83.435 121.671  0.00  0.00     0.210 C 
ATOM     15  C   LIG d   1     -11.360  83.850 122.686  0.00  0.00     0.109 C 
ATOM     16  O   LIG d   1      -9.467  84.265 121.257  0.00  0.00    -0.276 OA
ATOM     17  H   LIG d   1     -11.074  81.571 121.635  0.00  0.00     0.149 HD
ENDBRANCH   6  13
BRANCH   5  18
ATOM     18  N   LIG d   1     -10.638  82.279 118.233  0.00  0.00     0.381 N 
ATOM     19  H   LIG d   1      -9.902  82.909 117.982  0.00  0.00    -0.090 HD
ATOM     20  H   LIG d   1     -11.288  82.772 118.819  0.00  0.00    -0.090 HD
ATOM     21  H   LIG d   1     -11.100  81.953 117.412  0.00  0.00    -0.090 HD
ENDBRANCH   5  18
BRANCH   3  22
ATOM     22  C   LIG d   1      -7.905  78.354 117.979  0.00  0.00     0.382 C 
ATOM     23  O   LIG d   1      -6.748  78.374 117.496  0.00  0.00    -0.241 OA
ATOM     24  O   LIG d   1      -8.656  77.391 117.732  0.00  0.00    -0.241 OA
ENDBRANCH   3  22
TORSDOF 7
ENDMDL
MODEL 6
REMARK VINA RESULT:      -4.5      3.184      4.499
REMARK  7 active torsions:
REMARK  status: ('A' for Active; 'I' for Inactive)
REMARK    1  A    between atoms: C_2  and  C_3 
REMARK    2  A    between atoms: C_3  and  O_6 
REMARK    3  A    between atoms: C_3  and  C_4 
REMARK    4  A    between atoms: C_7  and  O_6 
REMARK    5  A    between atoms: C_9  and  C_10 
REMARK    6  A    between atoms: N_15  and  C_14 
REMARK    7  A    between atoms: N_20  and  C_19 
REMARK       I    between atoms: C_22  and  N_20 
ROOT
ATOM      1  C   LIG d   1      -7.169  80.554 120.568  0.00  0.00     0.161 C 
ATOM      2  C   LIG d   1      -7.750  79.416 119.984  0.00  0.00     0.016 C 
ATOM      3  C   LIG d   1      -8.619  79.470 118.870  0.00  0.00     0.038 C 
ATOM      4  C   LIG d   1      -8.848  80.662 118.166  0.00  0.00     0.028 C 
ATOM      5  C   LIG d   1      -8.684  81.913 119.023  0.00  0.00    -0.047 C 
ATOM      6  C   LIG d   1      -7.319  81.851 119.745  0.00  0.00     0.091 C 
ENDROOT
BRANCH   1   7
ATOM      7  O   LIG d   1      -5.779  80.300 120.855  0.00  0.00    -0.368 OA
BRANCH   7   8
ATOM      8  C   LIG d   1      -4.867  80.414 119.735  0.00  0.00     0.119 C 
BRANCH   8   9
ATOM      9  C   LIG d   1      -4.513  78.985 119.279  0.00  0.00     0.028 C 
ATOM     10  C   LIG d   1      -5.010  78.683 117.856  0.00  0.00     0.006 C 
ENDBRANCH   8   9
BRANCH   8  11
ATOM     11  C   LIG d   1      -3.537  81.044 120.161  0.00  0.00     0.028 C 
ATOM     12  C   LIG d   1      -3.720  82.222 121.131  0.00  0.00     0.006 C 
ENDBRANCH   8  11
ENDBRANCH   7   8
ENDBRANCH   1   7
BRANCH   6  13
ATOM     13  N   LIG d   1      -7.115  82.996 120.670  0.00  0.00    -0.311 N 
ATOM     14  C   LIG d   1      -7.961  83.307 121.650  0.00  0.00     0.210 C 
ATOM     15  C   LIG d   1      -7.572  84.538 122.474  0.00  0.00     0.109 C 
ATOM     16  O   LIG d   1      -8.981  82.662 121.935  0.00  0.00    -0.276 OA
ATOM     17  H   LIG d   1      -6.296  83.555 120.530  0.00  0.00     0.149 HD
ENDBRANCH   6  13
BRANCH   5  18
ATOM     18  N   LIG d   1      -8.816  83.082 118.134  0.00  0.00     0.381 N 
ATOM     19  H   LIG d   1      -9.110  83.879 118.663  0.00  0.00    -0.090 HD
ATOM     20  H   LIG d   1      -9.517  82.887 117.442  0.00  0.00    -0.090 HD
ATOM     21  H   LIG d   1      -7.944  83.272 117.690  0.00  0.00    -0.090 HD
ENDBRANCH   5  18
BRANCH   3  22
ATOM     22  C   LIG d   1      -9.301  78.330 118.475  0.00  0.00     0.382 C 
ATOM     23  O   LIG d   1      -8.691  77.409 117.879  0.00  0.00    -0.241 OA
ATOM     24  O   LIG d   1     -10.528  78.229 118.666  0.00  0.00    -0.241 OA
ENDBRANCH   3  22
TORSDOF 7
ENDMDL
MODEL 7
REMARK VINA RESULT:      -4.5      1.552      4.770
REMARK  7 active torsions:
REMARK  status: ('A' for Active; 'I' for Inactive)
REMARK    1  A    between atoms: C_2  and  C_3 
REMARK    2  A    between atoms: C_3  and  O_6 
REMARK    3  A    between atoms: C_3  and  C_4 
REMARK    4  A    between atoms: C_7  and  O_6 
REMARK    5  A    between atoms: C_9  and  C_10 
REMARK    6  A    between atoms: N_15  and  C_14 
REMARK    7  A    between atoms: N_20  and  C_19 
REMARK       I    between atoms: C_22  and  N_20 
ROOT
ATOM      1  C   LIG d   1      -9.987  78.705 119.098  0.00  0.00     0.161 C 
ATOM      2  C   LIG d   1      -9.795  80.032 118.680  0.00  0.00     0.016 C 
ATOM      3  C   LIG d   1      -9.676  81.120 119.575  0.00  0.00     0.038 C 
ATOM      4  C   LIG d   1      -9.588  80.933 120.962  0.00  0.00     0.028 C 
ATOM      5  C   LIG d   1     -10.283  79.665 121.447  0.00  0.00    -0.047 C 
ATOM      6  C   LIG d   1      -9.783  78.466 120.609  0.00  0.00     0.091 C 
ENDROOT
BRANCH   1   7
ATOM      7  O   LIG d   1      -9.139  77.825 118.333  0.00  0.00    -0.368 OA
BRANCH   7   8
ATOM      8  C   LIG d   1      -7.745  77.781 118.725  0.00  0.00     0.119 C 
BRANCH   8   9
ATOM      9  C   LIG d   1      -6.917  78.346 117.555  0.00  0.00     0.028 C 
ATOM     10  C   LIG d   1      -6.272  79.701 117.892  0.00  0.00     0.006 C 
ENDBRANCH   8   9
BRANCH   8  11
ATOM     11  C   LIG d   1      -7.262  76.339 118.906  0.00  0.00     0.028 C 
ATOM     12  C   LIG d   1      -6.626  75.760 117.632  0.00  0.00     0.006 C 
ENDBRANCH   8  11
ENDBRANCH   7   8
ENDBRANCH   1   7
BRANCH   6  13
ATOM     13  N   LIG d   1     -10.474  77.199 120.961  0.00  0.00    -0.311 N 
ATOM     14  C   LIG d   1     -10.006  76.333 121.858  0.00  0.00     0.210 C 
ATOM     15  C   LIG d   1     -10.864  75.080 122.057  0.00  0.00     0.109 C 
ATOM     16  O   LIG d   1      -8.977  76.499 122.531  0.00  0.00    -0.276 OA
ATOM     17  H   LIG d   1     -11.332  77.000 120.485  0.00  0.00     0.149 HD
ENDBRANCH   6  13
BRANCH   5  18
ATOM     18  N   LIG d   1      -9.996  79.522 122.887  0.00  0.00     0.381 N 
ATOM     19  H   LIG d   1     -10.089  80.409 123.340  0.00  0.00    -0.090 HD
ATOM     20  H   LIG d   1      -9.049  79.208 123.001  0.00  0.00    -0.090 HD
ATOM     21  H   LIG d   1     -10.623  78.865 123.296  0.00  0.00    -0.090 HD
ENDBRANCH   5  18
BRANCH   3  22
ATOM     22  C   LIG d   1      -9.683  82.417 119.085  0.00  0.00     0.382 C 
ATOM     23  O   LIG d   1      -9.586  83.387 119.875  0.00  0.00    -0.241 OA
ATOM     24  O   LIG d   1      -9.829  82.631 117.867  0.00  0.00    -0.241 OA
ENDBRANCH   3  22
TORSDOF 7
ENDMDL
MODEL 8
REMARK VINA RESULT:      -4.4      2.918      5.292
REMARK  7 active torsions:
REMARK  status: ('A' for Active; 'I' for Inactive)
REMARK    1  A    between atoms: C_2  and  C_3 
REMARK    2  A    between atoms: C_3  and  O_6 
REMARK    3  A    between atoms: C_3  and  C_4 
REMARK    4  A    between atoms: C_7  and  O_6 
REMARK    5  A    between atoms: C_9  and  C_10 
REMARK    6  A    between atoms: N_15  and  C_14 
REMARK    7  A    between atoms: N_20  and  C_19 
REMARK       I    between atoms: C_22  and  N_20 
ROOT
ATOM      1  C   LIG d   1      -6.007  79.927 118.871  0.00  0.00     0.161 C 
ATOM      2  C   LIG d   1      -4.742  79.935 119.482  0.00  0.00     0.016 C 
ATOM      3  C   LIG d   1      -4.316  80.944 120.377  0.00  0.00     0.038 C 
ATOM      4  C   LIG d   1      -5.189  81.939 120.841  0.00  0.00     0.028 C 
ATOM      5  C   LIG d   1      -6.315  82.261 119.864  0.00  0.00    -0.047 C 
ATOM      6  C   LIG d   1      -7.012  80.944 119.451  0.00  0.00     0.091 C 
ENDROOT
BRANCH   1   7
ATOM      7  O   LIG d   1      -6.561  78.596 118.912  0.00  0.00    -0.368 OA
BRANCH   7   8
ATOM      8  C   LIG d   1      -7.503  78.331 119.980  0.00  0.00     0.119 C 
BRANCH   8   9
ATOM      9  C   LIG d   1      -6.830  77.348 120.957  0.00  0.00     0.028 C 
ATOM     10  C   LIG d   1      -7.717  76.131 121.269  0.00  0.00     0.006 C 
ENDBRANCH   8   9
BRANCH   8  11
ATOM     11  C   LIG d   1      -8.744  77.599 119.459  0.00  0.00     0.028 C 
ATOM     12  C   LIG d   1      -8.849  77.621 117.926  0.00  0.00     0.006 C 
ENDBRANCH   8  11
ENDBRANCH   7   8
ENDBRANCH   1   7
BRANCH   6  13
ATOM     13  N   LIG d   1      -8.072  81.159 118.432  0.00  0.00    -0.311 N 
ATOM     14  C   LIG d   1      -9.360  81.311 118.735  0.00  0.00     0.210 C 
ATOM     15  C   LIG d   1     -10.289  81.501 117.533  0.00  0.00     0.109 C 
ATOM     16  O   LIG d   1      -9.817  81.339 119.888  0.00  0.00    -0.276 OA
ATOM     17  H   LIG d   1      -7.785  81.182 117.473  0.00  0.00     0.149 HD
ENDBRANCH   6  13
BRANCH   5  18
ATOM     18  N   LIG d   1      -7.225  83.211 120.531  0.00  0.00     0.381 N 
ATOM     19  H   LIG d   1      -6.714  84.019 120.826  0.00  0.00    -0.090 HD
ATOM     20  H   LIG d   1      -7.616  82.771 121.345  0.00  0.00    -0.090 HD
ATOM     21  H   LIG d   1      -7.954  83.480 119.907  0.00  0.00    -0.090 HD
ENDBRANCH   5  18
BRANCH   3  22
ATOM     22  C   LIG d   1      -2.992  80.986 120.786  0.00  0.00     0.382 C 
ATOM     23  O   LIG d   1      -2.682  81.582 121.845  0.00  0.00    -0.241 OA
ATOM     24  O   LIG d   1      -2.098  80.473 120.086  0.00  0.00    -0.241 OA
ENDBRANCH   3  22
TORSDOF 7
ENDMDL
MODEL 9
REMARK VINA RESULT:      -4.4      2.628      5.567
REMARK  7 active torsions:
REMARK  status: ('A' for Active; 'I' for Inactive)
REMARK    1  A    between atoms: C_2  and  C_3 
REMARK    2  A    between atoms: C_3  and  O_6 
REMARK    3  A    between atoms: C_3  and  C_4 
REMARK    4  A    between atoms: C_7  and  O_6 
REMARK    5  A    between atoms: C_9  and  C_10 
REMARK    6  A    between atoms: N_15  and  C_14 
REMARK    7  A    between atoms: N_20  and  C_19 
REMARK       I    between atoms: C_22  and  N_20 
ROOT
ATOM      1  C   LIG d   1      -9.349  80.460 120.728  0.00  0.00     0.161 C 
ATOM      2  C   LIG d   1      -9.678  81.632 121.429  0.00  0.00     0.016 C 
ATOM      3  C   LIG d   1      -9.839  82.892 120.807  0.00  0.00     0.038 C 
ATOM      4  C   LIG d   1      -9.828  83.037 119.412  0.00  0.00     0.028 C 
ATOM      5  C   LIG d   1      -9.000  81.973 118.699  0.00  0.00    -0.047 C 
ATOM      6  C   LIG d   1      -9.443  80.577 119.192  0.00  0.00     0.091 C 
ENDROOT
BRANCH   1   7
ATOM      7  O   LIG d   1     -10.160  79.366 121.198  0.00  0.00    -0.368 OA
BRANCH   7   8
ATOM      8  C   LIG d   1      -9.495  78.399 122.049  0.00  0.00     0.119 C 
BRANCH   8   9
ATOM      9  C   LIG d   1      -7.979  78.656 121.945  0.00  0.00     0.028 C 
ATOM     10  C   LIG d   1      -7.214  77.439 121.398  0.00  0.00     0.006 C 
ENDBRANCH   8   9
BRANCH   8  11
ATOM     11  C   LIG d   1      -9.701  76.971 121.536  0.00  0.00     0.028 C 
ATOM     12  C   LIG d   1     -11.094  76.413 121.868  0.00  0.00     0.006 C 
ENDBRANCH   8  11
ENDBRANCH   7   8
ENDBRANCH   1   7
BRANCH   6  13
ATOM     13  N   LIG d   1      -8.625  79.483 118.607  0.00  0.00    -0.311 N 
ATOM     14  C   LIG d   1      -9.134  78.318 118.211  0.00  0.00     0.210 C 
ATOM     15  C   LIG d   1      -8.113  77.321 117.655  0.00  0.00     0.109 C 
ATOM     16  O   LIG d   1     -10.340  78.028 118.238  0.00  0.00    -0.276 OA
ATOM     17  H   LIG d   1      -7.641  79.646 118.520  0.00  0.00     0.149 HD
ENDBRANCH   6  13
BRANCH   5  18
ATOM     18  N   LIG d   1      -9.188  82.160 117.248  0.00  0.00     0.381 N 
ATOM     19  H   LIG d   1      -9.883  81.523 116.912  0.00  0.00    -0.090 HD
ATOM     20  H   LIG d   1      -8.323  81.959 116.779  0.00  0.00    -0.090 HD
ATOM     21  H   LIG d   1      -9.467  83.098 117.058  0.00  0.00    -0.090 HD
ENDBRANCH   5  18
BRANCH   3  22
ATOM     22  C   LIG d   1      -9.972  84.031 121.586  0.00  0.00     0.382 C 
ATOM     23  O   LIG d   1      -8.961  84.716 121.874  0.00  0.00    -0.241 OA
ATOM     24  O   LIG d   1     -11.085  84.358 122.042  0.00  0.00    -0.241 OA
ENDBRANCH   3  22
TORSDOF 7
ENDMDL
