MODEL 1
REMARK VINA RESULT:      -5.6      0.000      0.000
REMARK  7 active torsions:
REMARK  status: ('A' for Active; 'I' for Inactive)
REMARK    1  A    between atoms: C_2  and  C_3 
REMARK    2  A    between atoms: C_3  and  O_6 
REMARK    3  A    between atoms: C_3  and  C_4 
REMARK    4  A    between atoms: C_7  and  O_6 
REMARK    5  A    between atoms: C_9  and  C_10 
REMARK    6  A    between atoms: N_15  and  C_14 
REMARK    7  A    between atoms: N_20  and  C_19 
REMARK       I    between atoms: C_22  and  N_20 
ROOT
ATOM      1  C   LIG d   1      -6.259  77.351 117.485  0.00  0.00     0.161 C 
ATOM      2  C   LIG d   1      -7.621  77.681 117.583  0.00  0.00     0.016 C 
ATOM      3  C   LIG d   1      -8.095  78.835 118.249  0.00  0.00     0.038 C 
ATOM      4  C   LIG d   1      -7.225  79.822 118.734  0.00  0.00     0.028 C 
ATOM      5  C   LIG d   1      -5.846  79.285 119.103  0.00  0.00    -0.047 C 
ATOM      6  C   LIG d   1      -5.289  78.473 117.911  0.00  0.00     0.091 C 
ENDROOT
BRANCH   1   7
ATOM      7  O   LIG d   1      -5.958  76.911 116.145  0.00  0.00    -0.368 OA
BRANCH   7   8
ATOM      8  C   LIG d   1      -5.465  75.555 116.015  0.00  0.00     0.119 C 
BRANCH   8   9
ATOM      9  C   LIG d   1      -4.765  75.447 114.646  0.00  0.00     0.028 C 
ATOM     10  C   LIG d   1      -3.255  75.188 114.778  0.00  0.00     0.006 C 
ENDBRANCH   8   9
BRANCH   8  11
ATOM     11  C   LIG d   1      -6.616  74.546 115.963  0.00  0.00     0.028 C 
ATOM     12  C   LIG d   1      -6.144  73.095 116.144  0.00  0.00     0.006 C 
ENDBRANCH   8  11
ENDBRANCH   7   8
ENDBRANCH   1   7
BRANCH   6  13
ATOM     13  N   LIG d   1      -3.979  77.842 118.219  0.00  0.00    -0.311 N 
ATOM     14  C   LIG d   1      -2.955  77.824 117.367  0.00  0.00     0.210 C 
ATOM     15  C   LIG d   1      -1.703  77.104 117.875  0.00  0.00     0.109 C 
ATOM     16  O   LIG d   1      -2.955  78.365 116.251  0.00  0.00    -0.276 OA
ATOM     17  H   LIG d   1      -3.881  77.406 119.115  0.00  0.00     0.149 HD
ENDBRANCH   6  13
BRANCH   5  18
ATOM     18  N   LIG d   1      -5.000  80.439 119.462  0.00  0.00     0.381 N 
ATOM     19  H   LIG d   1      -4.854  81.015 118.657  0.00  0.00    -0.090 HD
ATOM     20  H   LIG d   1      -4.107  80.102 119.775  0.00  0.00    -0.090 HD
ATOM     21  H   LIG d   1      -5.435  80.969 120.184  0.00  0.00    -0.090 HD
ENDBRANCH   5  18
BRANCH   3  22
ATOM     22  C   LIG d   1      -9.456  78.990 118.469  0.00  0.00     0.382 C 
ATOM     23  O   LIG d   1     -10.062  79.974 117.982  0.00  0.00    -0.241 OA
ATOM     24  O   LIG d   1     -10.075  78.182 119.187  0.00  0.00    -0.241 OA
ENDBRANCH   3  22
TORSDOF 7
ENDMDL
MODEL 2
REMARK VINA RESULT:      -5.6     13.421     16.020
REMARK  7 active torsions:
REMARK  status: ('A' for Active; 'I' for Inactive)
REMARK    1  A    between atoms: C_2  and  C_3 
REMARK    2  A    between atoms: C_3  and  O_6 
REMARK    3  A    between atoms: C_3  and  C_4 
REMARK    4  A    between atoms: C_7  and  O_6 
REMARK    5  A    between atoms: C_9  and  C_10 
REMARK    6  A    between atoms: N_15  and  C_14 
REMARK    7  A    between atoms: N_20  and  C_19 
REMARK       I    between atoms: C_22  and  N_20 
ROOT
ATOM      1  C   LIG d   1      -5.980  92.740 117.375  0.00  0.00     0.161 C 
ATOM      2  C   LIG d   1      -6.601  91.626 116.785  0.00  0.00     0.016 C 
ATOM      3  C   LIG d   1      -5.941  90.396 116.560  0.00  0.00     0.038 C 
ATOM      4  C   LIG d   1      -4.651  90.146 117.051  0.00  0.00     0.028 C 
ATOM      5  C   LIG d   1      -3.807  91.407 117.205  0.00  0.00    -0.047 C 
ATOM      6  C   LIG d   1      -4.608  92.450 118.017  0.00  0.00     0.091 C 
ENDROOT
BRANCH   1   7
ATOM      7  O   LIG d   1      -6.868  93.340 118.338  0.00  0.00    -0.368 OA
BRANCH   7   8
ATOM      8  C   LIG d   1      -7.086  94.766 118.203  0.00  0.00     0.119 C 
BRANCH   8   9
ATOM      9  C   LIG d   1      -6.681  95.425 119.535  0.00  0.00     0.028 C 
ATOM     10  C   LIG d   1      -6.018  96.798 119.333  0.00  0.00     0.006 C 
ENDBRANCH   8   9
BRANCH   8  11
ATOM     11  C   LIG d   1      -8.573  95.088 118.027  0.00  0.00     0.028 C 
ATOM     12  C   LIG d   1      -9.346  95.077 119.355  0.00  0.00     0.006 C 
ENDBRANCH   8  11
ENDBRANCH   7   8
ENDBRANCH   1   7
BRANCH   6  13
ATOM     13  N   LIG d   1      -3.888  93.745 118.143  0.00  0.00    -0.311 N 
ATOM     14  C   LIG d   1      -3.113  94.055 119.181  0.00  0.00     0.210 C 
ATOM     15  C   LIG d   1      -2.481  95.449 119.121  0.00  0.00     0.109 C 
ATOM     16  O   LIG d   1      -2.865  93.296 120.130  0.00  0.00    -0.276 OA
ATOM     17  H   LIG d   1      -4.009  94.407 117.402  0.00  0.00     0.149 HD
ENDBRANCH   6  13
BRANCH   5  18
ATOM     18  N   LIG d   1      -2.540  91.019 117.853  0.00  0.00     0.381 N 
ATOM     19  H   LIG d   1      -1.799  91.029 117.181  0.00  0.00    -0.090 HD
ATOM     20  H   LIG d   1      -2.630  90.083 118.209  0.00  0.00    -0.090 HD
ATOM     21  H   LIG d   1      -2.331  91.646 118.598  0.00  0.00    -0.090 HD
ENDBRANCH   5  18
BRANCH   3  22
ATOM     22  C   LIG d   1      -6.559  89.413 115.801  0.00  0.00     0.382 C 
ATOM     23  O   LIG d   1      -7.455  88.698 116.312  0.00  0.00    -0.241 OA
ATOM     24  O   LIG d   1      -6.201  89.203 114.627  0.00  0.00    -0.241 OA
ENDBRANCH   3  22
TORSDOF 7
ENDMDL
MODEL 3
REMARK VINA RESULT:      -5.3     12.289     14.348
REMARK  7 active torsions:
REMARK  status: ('A' for Active; 'I' for Inactive)
REMARK    1  A    between atoms: C_2  and  C_3 
REMARK    2  A    between atoms: C_3  and  O_6 
REMARK    3  A    between atoms: C_3  and  C_4 
REMARK    4  A    between atoms: C_7  and  O_6 
REMARK    5  A    between atoms: C_9  and  C_10 
REMARK    6  A    between atoms: N_15  and  C_14 
REMARK    7  A    between atoms: N_20  and  C_19 
REMARK       I    between atoms: C_22  and  N_20 
ROOT
ATOM      1  C   LIG d   1      -3.928  91.035 117.748  0.00  0.00     0.161 C 
ATOM      2  C   LIG d   1      -4.649  90.125 116.957  0.00  0.00     0.016 C 
ATOM      3  C   LIG d   1      -5.883  90.436 116.342  0.00  0.00     0.038 C 
ATOM      4  C   LIG d   1      -6.410  91.736 116.352  0.00  0.00     0.028 C 
ATOM      5  C   LIG d   1      -5.972  92.557 117.560  0.00  0.00    -0.047 C 
ATOM      6  C   LIG d   1      -4.432  92.492 117.679  0.00  0.00     0.091 C 
ENDROOT
BRANCH   1   7
ATOM      7  O   LIG d   1      -2.528  90.973 117.412  0.00  0.00    -0.368 OA
BRANCH   7   8
ATOM      8  C   LIG d   1      -1.650  90.443 118.436  0.00  0.00     0.119 C 
BRANCH   8   9
ATOM      9  C   LIG d   1      -1.114  89.089 117.931  0.00  0.00     0.028 C 
ATOM     10  C   LIG d   1      -1.992  87.908 118.377  0.00  0.00     0.006 C 
ENDBRANCH   8   9
BRANCH   8  11
ATOM     11  C   LIG d   1      -2.421  90.121 119.719  0.00  0.00     0.028 C 
ATOM     12  C   LIG d   1      -1.894  90.892 120.940  0.00  0.00     0.006 C 
ENDBRANCH   8  11
ENDBRANCH   7   8
ENDBRANCH   1   7
BRANCH   6  13
ATOM     13  N   LIG d   1      -3.927  93.200 118.884  0.00  0.00    -0.311 N 
ATOM     14  C   LIG d   1      -2.844  93.976 118.877  0.00  0.00     0.210 C 
ATOM     15  C   LIG d   1      -2.485  94.596 120.231  0.00  0.00     0.109 C 
ATOM     16  O   LIG d   1      -2.166  94.236 117.872  0.00  0.00    -0.276 OA
ATOM     17  H   LIG d   1      -4.435  93.070 119.736  0.00  0.00     0.149 HD
ENDBRANCH   6  13
BRANCH   5  18
ATOM     18  N   LIG d   1      -6.480  93.930 117.373  0.00  0.00     0.381 N 
ATOM     19  H   LIG d   1      -7.188  94.124 118.052  0.00  0.00    -0.090 HD
ATOM     20  H   LIG d   1      -6.891  94.002 116.459  0.00  0.00    -0.090 HD
ATOM     21  H   LIG d   1      -5.734  94.584 117.463  0.00  0.00    -0.090 HD
ENDBRANCH   5  18
BRANCH   3  22
ATOM     22  C   LIG d   1      -6.624  89.429 115.741  0.00  0.00     0.382 C 
ATOM     23  O   LIG d   1      -7.484  88.802 116.404  0.00  0.00    -0.241 OA
ATOM     24  O   LIG d   1      -6.412  89.111 114.555  0.00  0.00    -0.241 OA
ENDBRANCH   3  22
TORSDOF 7
ENDMDL
MODEL 4
REMARK VINA RESULT:      -5.3     12.293     14.582
REMARK  7 active torsions:
REMARK  status: ('A' for Active; 'I' for Inactive)
REMARK    1  A    between atoms: C_2  and  C_3 
REMARK    2  A    between atoms: C_3  and  O_6 
REMARK    3  A    between atoms: C_3  and  C_4 
REMARK    4  A    between atoms: C_7  and  O_6 
REMARK    5  A    between atoms: C_9  and  C_10 
REMARK    6  A    between atoms: N_15  and  C_14 
REMARK    7  A    between atoms: N_20  and  C_19 
REMARK       I    between atoms: C_22  and  N_20 
ROOT
ATOM      1  C   LIG d   1      -3.836  91.820 117.842  0.00  0.00     0.161 C 
ATOM      2  C   LIG d   1      -4.961  92.511 117.363  0.00  0.00     0.016 C 
ATOM      3  C   LIG d   1      -5.841  91.985 116.389  0.00  0.00     0.038 C 
ATOM      4  C   LIG d   1      -5.740  90.661 115.937  0.00  0.00     0.028 C 
ATOM      5  C   LIG d   1      -4.325  90.100 116.017  0.00  0.00    -0.047 C 
ATOM      6  C   LIG d   1      -3.773  90.331 117.442  0.00  0.00     0.091 C 
ENDROOT
BRANCH   1   7
ATOM      7  O   LIG d   1      -3.752  91.957 119.275  0.00  0.00    -0.368 OA
BRANCH   7   8
ATOM      8  C   LIG d   1      -2.637  92.735 119.776  0.00  0.00     0.119 C 
BRANCH   8   9
ATOM      9  C   LIG d   1      -1.789  91.808 120.667  0.00  0.00     0.028 C 
ATOM     10  C   LIG d   1      -2.596  90.616 121.209  0.00  0.00     0.006 C 
ENDBRANCH   8   9
BRANCH   8  11
ATOM     11  C   LIG d   1      -3.113  93.861 120.699  0.00  0.00     0.028 C 
ATOM     12  C   LIG d   1      -4.636  93.855 120.909  0.00  0.00     0.006 C 
ENDBRANCH   8  11
ENDBRANCH   7   8
ENDBRANCH   1   7
BRANCH   6  13
ATOM     13  N   LIG d   1      -2.362  89.887 117.583  0.00  0.00    -0.311 N 
ATOM     14  C   LIG d   1      -2.013  88.699 118.074  0.00  0.00     0.210 C 
ATOM     15  C   LIG d   1      -0.503  88.450 118.152  0.00  0.00     0.109 C 
ATOM     16  O   LIG d   1      -2.810  87.816 118.424  0.00  0.00    -0.276 OA
ATOM     17  H   LIG d   1      -1.651  90.529 117.294  0.00  0.00     0.149 HD
ENDBRANCH   6  13
BRANCH   5  18
ATOM     18  N   LIG d   1      -4.389  88.674 115.645  0.00  0.00     0.381 N 
ATOM     19  H   LIG d   1      -3.776  88.496 114.874  0.00  0.00    -0.090 HD
ATOM     20  H   LIG d   1      -5.327  88.454 115.360  0.00  0.00    -0.090 HD
ATOM     21  H   LIG d   1      -4.129  88.107 116.423  0.00  0.00    -0.090 HD
ENDBRANCH   5  18
BRANCH   3  22
ATOM     22  C   LIG d   1      -6.813  92.800 115.828  0.00  0.00     0.382 C 
ATOM     23  O   LIG d   1      -6.857  92.958 114.585  0.00  0.00    -0.241 OA
ATOM     24  O   LIG d   1      -7.617  93.416 116.554  0.00  0.00    -0.241 OA
ENDBRANCH   3  22
TORSDOF 7
ENDMDL
MODEL 5
REMARK VINA RESULT:      -5.2      1.975      5.374
REMARK  7 active torsions:
REMARK  status: ('A' for Active; 'I' for Inactive)
REMARK    1  A    between atoms: C_2  and  C_3 
REMARK    2  A    between atoms: C_3  and  O_6 
REMARK    3  A    between atoms: C_3  and  C_4 
REMARK    4  A    between atoms: C_7  and  O_6 
REMARK    5  A    between atoms: C_9  and  C_10 
REMARK    6  A    between atoms: N_15  and  C_14 
REMARK    7  A    between atoms: N_20  and  C_19 
REMARK       I    between atoms: C_22  and  N_20 
ROOT
ATOM      1  C   LIG d   1      -3.816  77.398 116.070  0.00  0.00     0.161 C 
ATOM      2  C   LIG d   1      -2.582  76.729 116.022  0.00  0.00     0.016 C 
ATOM      3  C   LIG d   1      -1.667  76.706 117.100  0.00  0.00     0.038 C 
ATOM      4  C   LIG d   1      -1.993  77.229 118.360  0.00  0.00     0.028 C 
ATOM      5  C   LIG d   1      -3.021  78.353 118.302  0.00  0.00    -0.047 C 
ATOM      6  C   LIG d   1      -4.237  77.879 117.474  0.00  0.00     0.091 C 
ENDROOT
BRANCH   1   7
ATOM      7  O   LIG d   1      -4.845  76.568 115.495  0.00  0.00    -0.368 OA
BRANCH   7   8
ATOM      8  C   LIG d   1      -4.996  75.248 116.075  0.00  0.00     0.119 C 
BRANCH   8   9
ATOM      9  C   LIG d   1      -5.178  74.251 114.914  0.00  0.00     0.028 C 
ATOM     10  C   LIG d   1      -5.635  72.865 115.397  0.00  0.00     0.006 C 
ENDBRANCH   8   9
BRANCH   8  11
ATOM     11  C   LIG d   1      -6.280  75.147 116.902  0.00  0.00     0.028 C 
ATOM     12  C   LIG d   1      -7.431  75.984 116.322  0.00  0.00     0.006 C 
ENDBRANCH   8  11
ENDBRANCH   7   8
ENDBRANCH   1   7
BRANCH   6  13
ATOM     13  N   LIG d   1      -5.254  78.949 117.297  0.00  0.00    -0.311 N 
ATOM     14  C   LIG d   1      -6.315  79.090 118.090  0.00  0.00     0.210 C 
ATOM     15  C   LIG d   1      -7.250  80.246 117.719  0.00  0.00     0.109 C 
ATOM     16  O   LIG d   1      -6.554  78.387 119.083  0.00  0.00    -0.276 OA
ATOM     17  H   LIG d   1      -5.121  79.582 116.533  0.00  0.00     0.149 HD
ENDBRANCH   6  13
BRANCH   5  18
ATOM     18  N   LIG d   1      -3.371  78.709 119.691  0.00  0.00     0.381 N 
ATOM     19  H   LIG d   1      -3.212  79.686 119.840  0.00  0.00    -0.090 HD
ATOM     20  H   LIG d   1      -2.778  78.194 120.317  0.00  0.00    -0.090 HD
ATOM     21  H   LIG d   1      -4.326  78.489 119.869  0.00  0.00    -0.090 HD
ENDBRANCH   5  18
BRANCH   3  22
ATOM     22  C   LIG d   1      -0.394  76.191 116.909  0.00  0.00     0.382 C 
ATOM     23  O   LIG d   1       0.057  75.327 117.699  0.00  0.00    -0.241 OA
ATOM     24  O   LIG d   1       0.327  76.613 115.985  0.00  0.00    -0.241 OA
ENDBRANCH   3  22
TORSDOF 7
ENDMDL
MODEL 6
REMARK VINA RESULT:      -5.1      1.570      4.661
REMARK  7 active torsions:
REMARK  status: ('A' for Active; 'I' for Inactive)
REMARK    1  A    between atoms: C_2  and  C_3 
REMARK    2  A    between atoms: C_3  and  O_6 
REMARK    3  A    between atoms: C_3  and  C_4 
REMARK    4  A    between atoms: C_7  and  O_6 
REMARK    5  A    between atoms: C_9  and  C_10 
REMARK    6  A    between atoms: N_15  and  C_14 
REMARK    7  A    between atoms: N_20  and  C_19 
REMARK       I    between atoms: C_22  and  N_20 
ROOT
ATOM      1  C   LIG d   1      -5.400  78.328 117.069  0.00  0.00     0.161 C 
ATOM      2  C   LIG d   1      -4.064  77.964 117.307  0.00  0.00     0.016 C 
ATOM      3  C   LIG d   1      -3.386  78.241 118.516  0.00  0.00     0.038 C 
ATOM      4  C   LIG d   1      -4.048  78.771 119.633  0.00  0.00     0.028 C 
ATOM      5  C   LIG d   1      -5.264  79.617 119.271  0.00  0.00    -0.047 C 
ATOM      6  C   LIG d   1      -6.172  78.808 118.316  0.00  0.00     0.091 C 
ENDROOT
BRANCH   1   7
ATOM      7  O   LIG d   1      -6.099  77.238 116.436  0.00  0.00    -0.368 OA
BRANCH   7   8
ATOM      8  C   LIG d   1      -5.418  75.959 116.437  0.00  0.00     0.119 C 
BRANCH   8   9
ATOM      9  C   LIG d   1      -5.191  75.555 114.967  0.00  0.00     0.028 C 
ATOM     10  C   LIG d   1      -3.712  75.644 114.555  0.00  0.00     0.006 C 
ENDBRANCH   8   9
BRANCH   8  11
ATOM     11  C   LIG d   1      -6.302  74.857 117.029  0.00  0.00     0.028 C 
ATOM     12  C   LIG d   1      -6.095  73.496 116.345  0.00  0.00     0.006 C 
ENDBRANCH   8  11
ENDBRANCH   7   8
ENDBRANCH   1   7
BRANCH   6  13
ATOM     13  N   LIG d   1      -7.343  79.593 117.846  0.00  0.00    -0.311 N 
ATOM     14  C   LIG d   1      -8.509  79.625 118.489  0.00  0.00     0.210 C 
ATOM     15  C   LIG d   1      -9.591  80.481 117.822  0.00  0.00     0.109 C 
ATOM     16  O   LIG d   1      -8.740  79.053 119.564  0.00  0.00    -0.276 OA
ATOM     17  H   LIG d   1      -7.233  80.113 116.998  0.00  0.00     0.149 HD
ENDBRANCH   6  13
BRANCH   5  18
ATOM     18  N   LIG d   1      -5.937  79.991 120.530  0.00  0.00     0.381 N 
ATOM     19  H   LIG d   1      -5.531  79.488 121.293  0.00  0.00    -0.090 HD
ATOM     20  H   LIG d   1      -6.908  79.738 120.467  0.00  0.00    -0.090 HD
ATOM     21  H   LIG d   1      -5.851  80.971 120.684  0.00  0.00    -0.090 HD
ENDBRANCH   5  18
BRANCH   3  22
ATOM     22  C   LIG d   1      -2.019  78.024 118.602  0.00  0.00     0.382 C 
ATOM     23  O   LIG d   1      -1.283  78.259 117.613  0.00  0.00    -0.241 OA
ATOM     24  O   LIG d   1      -1.518  77.554 119.641  0.00  0.00    -0.241 OA
ENDBRANCH   3  22
TORSDOF 7
ENDMDL
MODEL 7
REMARK VINA RESULT:      -5.1      2.168      4.333
REMARK  7 active torsions:
REMARK  status: ('A' for Active; 'I' for Inactive)
REMARK    1  A    between atoms: C_2  and  C_3 
REMARK    2  A    between atoms: C_3  and  O_6 
REMARK    3  A    between atoms: C_3  and  C_4 
REMARK    4  A    between atoms: C_7  and  O_6 
REMARK    5  A    between atoms: C_9  and  C_10 
REMARK    6  A    between atoms: N_15  and  C_14 
REMARK    7  A    between atoms: N_20  and  C_19 
REMARK       I    between atoms: C_22  and  N_20 
ROOT
ATOM      1  C   LIG d   1      -5.906  79.227 117.719  0.00  0.00     0.161 C 
ATOM      2  C   LIG d   1      -7.224  79.521 118.108  0.00  0.00     0.016 C 
ATOM      3  C   LIG d   1      -8.256  78.556 118.151  0.00  0.00     0.038 C 
ATOM      4  C   LIG d   1      -8.003  77.190 117.953  0.00  0.00     0.028 C 
ATOM      5  C   LIG d   1      -6.792  76.921 117.065  0.00  0.00    -0.047 C 
ATOM      6  C   LIG d   1      -5.585  77.722 117.607  0.00  0.00     0.091 C 
ENDROOT
BRANCH   1   7
ATOM      7  O   LIG d   1      -4.978  79.872 118.614  0.00  0.00    -0.368 OA
BRANCH   7   8
ATOM      8  C   LIG d   1      -5.449  80.100 119.965  0.00  0.00     0.119 C 
BRANCH   8   9
ATOM      9  C   LIG d   1      -4.867  81.447 120.437  0.00  0.00     0.028 C 
ATOM     10  C   LIG d   1      -3.340  81.397 120.612  0.00  0.00     0.006 C 
ENDBRANCH   8   9
BRANCH   8  11
ATOM     11  C   LIG d   1      -4.890  79.054 120.935  0.00  0.00     0.028 C 
ATOM     12  C   LIG d   1      -5.958  78.065 121.425  0.00  0.00     0.006 C 
ENDBRANCH   8  11
ENDBRANCH   7   8
ENDBRANCH   1   7
BRANCH   6  13
ATOM     13  N   LIG d   1      -4.381  77.582 116.748  0.00  0.00    -0.311 N 
ATOM     14  C   LIG d   1      -3.141  77.507 117.230  0.00  0.00     0.210 C 
ATOM     15  C   LIG d   1      -2.042  77.386 116.170  0.00  0.00     0.109 C 
ATOM     16  O   LIG d   1      -2.851  77.497 118.436  0.00  0.00    -0.276 OA
ATOM     17  H   LIG d   1      -4.527  77.551 115.758  0.00  0.00     0.149 HD
ENDBRANCH   6  13
BRANCH   5  18
ATOM     18  N   LIG d   1      -6.561  75.465 117.056  0.00  0.00     0.381 N 
ATOM     19  H   LIG d   1      -7.190  75.026 116.412  0.00  0.00    -0.090 HD
ATOM     20  H   LIG d   1      -6.745  75.100 117.974  0.00  0.00    -0.090 HD
ATOM     21  H   LIG d   1      -5.619  75.270 116.795  0.00  0.00    -0.090 HD
ENDBRANCH   5  18
BRANCH   3  22
ATOM     22  C   LIG d   1      -9.566  78.960 118.356  0.00  0.00     0.382 C 
ATOM     23  O   LIG d   1     -10.379  78.188 118.920  0.00  0.00    -0.241 OA
ATOM     24  O   LIG d   1      -9.958  80.068 117.945  0.00  0.00    -0.241 OA
ENDBRANCH   3  22
TORSDOF 7
ENDMDL
MODEL 8
REMARK VINA RESULT:      -5.0      2.012      2.612
REMARK  7 active torsions:
REMARK  status: ('A' for Active; 'I' for Inactive)
REMARK    1  A    between atoms: C_2  and  C_3 
REMARK    2  A    between atoms: C_3  and  O_6 
REMARK    3  A    between atoms: C_3  and  C_4 
REMARK    4  A    between atoms: C_7  and  O_6 
REMARK    5  A    between atoms: C_9  and  C_10 
REMARK    6  A    between atoms: N_15  and  C_14 
REMARK    7  A    between atoms: N_20  and  C_19 
REMARK       I    between atoms: C_22  and  N_20 
ROOT
ATOM      1  C   LIG d   1      -6.637  79.084 118.310  0.00  0.00     0.161 C 
ATOM      2  C   LIG d   1      -7.785  79.755 117.858  0.00  0.00     0.016 C 
ATOM      3  C   LIG d   1      -8.132  81.064 118.265  0.00  0.00     0.038 C 
ATOM      4  C   LIG d   1      -7.268  81.853 119.040  0.00  0.00     0.028 C 
ATOM      5  C   LIG d   1      -6.338  81.037 119.930  0.00  0.00    -0.047 C 
ATOM      6  C   LIG d   1      -5.626  79.970 119.068  0.00  0.00     0.091 C 
ENDROOT
BRANCH   1   7
ATOM      7  O   LIG d   1      -5.992  78.421 117.204  0.00  0.00    -0.368 OA
BRANCH   7   8
ATOM      8  C   LIG d   1      -5.837  76.985 117.324  0.00  0.00     0.119 C 
BRANCH   8   9
ATOM      9  C   LIG d   1      -4.525  76.600 116.614  0.00  0.00     0.028 C 
ATOM     10  C   LIG d   1      -3.471  77.717 116.683  0.00  0.00     0.006 C 
ENDBRANCH   8   9
BRANCH   8  11
ATOM     11  C   LIG d   1      -6.942  76.241 116.567  0.00  0.00     0.028 C 
ATOM     12  C   LIG d   1      -6.461  75.665 115.226  0.00  0.00     0.006 C 
ENDBRANCH   8  11
ENDBRANCH   7   8
ENDBRANCH   1   7
BRANCH   6  13
ATOM     13  N   LIG d   1      -4.760  79.073 119.877  0.00  0.00    -0.311 N 
ATOM     14  C   LIG d   1      -3.473  79.317 120.117  0.00  0.00     0.210 C 
ATOM     15  C   LIG d   1      -2.759  78.254 120.957  0.00  0.00     0.109 C 
ATOM     16  O   LIG d   1      -2.864  80.330 119.743  0.00  0.00    -0.276 OA
ATOM     17  H   LIG d   1      -5.182  78.243 120.246  0.00  0.00     0.149 HD
ENDBRANCH   6  13
BRANCH   5  18
ATOM     18  N   LIG d   1      -5.402  81.976 120.577  0.00  0.00     0.381 N 
ATOM     19  H   LIG d   1      -4.721  82.286 119.913  0.00  0.00    -0.090 HD
ATOM     20  H   LIG d   1      -4.923  81.498 121.320  0.00  0.00    -0.090 HD
ATOM     21  H   LIG d   1      -5.901  82.758 120.942  0.00  0.00    -0.090 HD
ENDBRANCH   5  18
BRANCH   3  22
ATOM     22  C   LIG d   1      -9.373  81.582 117.929  0.00  0.00     0.382 C 
ATOM     23  O   LIG d   1     -10.289  80.816 117.542  0.00  0.00    -0.241 OA
ATOM     24  O   LIG d   1      -9.576  82.811 117.964  0.00  0.00    -0.241 OA
ENDBRANCH   3  22
TORSDOF 7
ENDMDL
MODEL 9
REMARK VINA RESULT:      -5.0      2.523      6.512
REMARK  7 active torsions:
REMARK  status: ('A' for Active; 'I' for Inactive)
REMARK    1  A    between atoms: C_2  and  C_3 
REMARK    2  A    between atoms: C_3  and  O_6 
REMARK    3  A    between atoms: C_3  and  C_4 
REMARK    4  A    between atoms: C_7  and  O_6 
REMARK    5  A    between atoms: C_9  and  C_10 
REMARK    6  A    between atoms: N_15  and  C_14 
REMARK    7  A    between atoms: N_20  and  C_19 
REMARK       I    between atoms: C_22  and  N_20 
ROOT
ATOM      1  C   LIG d   1      -7.263  79.231 118.543  0.00  0.00     0.161 C 
ATOM      2  C   LIG d   1      -6.541  78.534 117.560  0.00  0.00     0.016 C 
ATOM      3  C   LIG d   1      -6.389  77.129 117.556  0.00  0.00     0.038 C 
ATOM      4  C   LIG d   1      -7.080  76.306 118.458  0.00  0.00     0.028 C 
ATOM      5  C   LIG d   1      -7.415  76.998 119.775  0.00  0.00    -0.047 C 
ATOM      6  C   LIG d   1      -8.116  78.342 119.472  0.00  0.00     0.091 C 
ENDROOT
BRANCH   1   7
ATOM      7  O   LIG d   1      -8.084  80.241 117.923  0.00  0.00    -0.368 OA
BRANCH   7   8
ATOM      8  C   LIG d   1      -7.706  81.616 118.179  0.00  0.00     0.119 C 
BRANCH   8   9
ATOM      9  C   LIG d   1      -6.624  81.602 119.276  0.00  0.00     0.028 C 
ATOM     10  C   LIG d   1      -6.971  82.527 120.455  0.00  0.00     0.006 C 
ENDBRANCH   8   9
BRANCH   8  11
ATOM     11  C   LIG d   1      -8.873  82.413 118.771  0.00  0.00     0.028 C 
ATOM     12  C   LIG d   1     -10.239  81.952 118.241  0.00  0.00     0.006 C 
ENDBRANCH   8  11
ENDBRANCH   7   8
ENDBRANCH   1   7
BRANCH   6  13
ATOM     13  N   LIG d   1      -8.402  79.123 120.704  0.00  0.00    -0.311 N 
ATOM     14  C   LIG d   1      -9.627  79.507 121.060  0.00  0.00     0.210 C 
ATOM     15  C   LIG d   1      -9.698  80.320 122.356  0.00  0.00     0.109 C 
ATOM     16  O   LIG d   1     -10.664  79.223 120.443  0.00  0.00    -0.276 OA
ATOM     17  H   LIG d   1      -7.621  79.369 121.280  0.00  0.00     0.149 HD
ENDBRANCH   6  13
BRANCH   5  18
ATOM     18  N   LIG d   1      -8.252  76.074 120.564  0.00  0.00     0.381 N 
ATOM     19  H   LIG d   1      -8.842  75.546 119.953  0.00  0.00    -0.090 HD
ATOM     20  H   LIG d   1      -8.837  76.611 121.180  0.00  0.00    -0.090 HD
ATOM     21  H   LIG d   1      -7.675  75.459 121.094  0.00  0.00    -0.090 HD
ENDBRANCH   5  18
BRANCH   3  22
ATOM     22  C   LIG d   1      -5.507  76.535 116.667  0.00  0.00     0.382 C 
ATOM     23  O   LIG d   1      -5.489  75.287 116.540  0.00  0.00    -0.241 OA
ATOM     24  O   LIG d   1      -4.697  77.229 116.022  0.00  0.00    -0.241 OA
ENDBRANCH   3  22
TORSDOF 7
ENDMDL
