MODEL 1
REMARK VINA RESULT:      -5.8      0.000      0.000
REMARK  7 active torsions:
REMARK  status: ('A' for Active; 'I' for Inactive)
REMARK    1  A    between atoms: C_2  and  C_3 
REMARK    2  A    between atoms: C_3  and  O_6 
REMARK    3  A    between atoms: C_3  and  C_4 
REMARK    4  A    between atoms: C_7  and  O_6 
REMARK    5  A    between atoms: C_9  and  C_10 
REMARK    6  A    between atoms: N_15  and  C_14 
REMARK    7  A    between atoms: N_20  and  C_19 
REMARK       I    between atoms: C_22  and  N_20 
ROOT
ATOM      1  C   LIG d   1      -7.285  75.944 117.407  0.00  0.00     0.161 C 
ATOM      2  C   LIG d   1      -8.591  76.230 117.837  0.00  0.00     0.016 C 
ATOM      3  C   LIG d   1      -9.001  77.506 118.286  0.00  0.00     0.038 C 
ATOM      4  C   LIG d   1      -8.166  78.629 118.192  0.00  0.00     0.028 C 
ATOM      5  C   LIG d   1      -6.681  78.285 118.236  0.00  0.00    -0.047 C 
ATOM      6  C   LIG d   1      -6.390  77.183 117.192  0.00  0.00     0.091 C 
ENDROOT
BRANCH   1   7
ATOM      7  O   LIG d   1      -7.329  75.144 116.209  0.00  0.00    -0.368 OA
BRANCH   7   8
ATOM      8  C   LIG d   1      -6.759  73.816 116.308  0.00  0.00     0.119 C 
BRANCH   8   9
ATOM      9  C   LIG d   1      -5.795  73.635 115.120  0.00  0.00     0.028 C 
ATOM     10  C   LIG d   1      -5.760  74.867 114.200  0.00  0.00     0.006 C 
ENDBRANCH   8   9
BRANCH   8  11
ATOM     11  C   LIG d   1      -7.830  72.736 116.130  0.00  0.00     0.028 C 
ATOM     12  C   LIG d   1      -7.329  71.332 116.506  0.00  0.00     0.006 C 
ENDBRANCH   8  11
ENDBRANCH   7   8
ENDBRANCH   1   7
BRANCH   6  13
ATOM     13  N   LIG d   1      -4.975  76.727 117.228  0.00  0.00    -0.311 N 
ATOM     14  C   LIG d   1      -4.021  77.237 116.451  0.00  0.00     0.210 C 
ATOM     15  C   LIG d   1      -2.635  76.610 116.633  0.00  0.00     0.109 C 
ATOM     16  O   LIG d   1      -4.184  78.170 115.650  0.00  0.00    -0.276 OA
ATOM     17  H   LIG d   1      -4.748  75.995 117.871  0.00  0.00     0.149 HD
ENDBRANCH   6  13
BRANCH   5  18
ATOM     18  N   LIG d   1      -5.927  79.529 117.990  0.00  0.00     0.381 N 
ATOM     19  H   LIG d   1      -6.200  80.227 118.653  0.00  0.00    -0.090 HD
ATOM     20  H   LIG d   1      -6.147  79.865 117.069  0.00  0.00    -0.090 HD
ATOM     21  H   LIG d   1      -4.949  79.355 118.064  0.00  0.00    -0.090 HD
ENDBRANCH   5  18
BRANCH   3  22
ATOM     22  C   LIG d   1     -10.248  77.660 118.874  0.00  0.00     0.382 C 
ATOM     23  O   LIG d   1     -11.154  76.821 118.651  0.00  0.00    -0.241 OA
ATOM     24  O   LIG d   1     -10.491  78.651 119.588  0.00  0.00    -0.241 OA
ENDBRANCH   3  22
TORSDOF 7
ENDMDL
MODEL 2
REMARK VINA RESULT:      -5.6     14.422     16.440
REMARK  7 active torsions:
REMARK  status: ('A' for Active; 'I' for Inactive)
REMARK    1  A    between atoms: C_2  and  C_3 
REMARK    2  A    between atoms: C_3  and  O_6 
REMARK    3  A    between atoms: C_3  and  C_4 
REMARK    4  A    between atoms: C_7  and  O_6 
REMARK    5  A    between atoms: C_9  and  C_10 
REMARK    6  A    between atoms: N_15  and  C_14 
REMARK    7  A    between atoms: N_20  and  C_19 
REMARK       I    between atoms: C_22  and  N_20 
ROOT
ATOM      1  C   LIG d   1      -6.071  91.898 119.334  0.00  0.00     0.161 C 
ATOM      2  C   LIG d   1      -7.370  92.432 119.351  0.00  0.00     0.016 C 
ATOM      3  C   LIG d   1      -7.642  93.819 119.347  0.00  0.00     0.038 C 
ATOM      4  C   LIG d   1      -6.628  94.773 119.171  0.00  0.00     0.028 C 
ATOM      5  C   LIG d   1      -5.262  94.301 119.657  0.00  0.00    -0.047 C 
ATOM      6  C   LIG d   1      -4.956  92.921 119.030  0.00  0.00     0.091 C 
ENDROOT
BRANCH   1   7
ATOM      7  O   LIG d   1      -6.007  90.797 118.407  0.00  0.00    -0.368 OA
BRANCH   7   8
ATOM      8  C   LIG d   1      -6.303  91.111 117.023  0.00  0.00     0.119 C 
BRANCH   8   9
ATOM      9  C   LIG d   1      -7.228  90.002 116.485  0.00  0.00     0.028 C 
ATOM     10  C   LIG d   1      -7.392  90.066 114.957  0.00  0.00     0.006 C 
ENDBRANCH   8   9
BRANCH   8  11
ATOM     11  C   LIG d   1      -5.043  91.045 116.155  0.00  0.00     0.028 C 
ATOM     12  C   LIG d   1      -3.989  90.073 116.708  0.00  0.00     0.006 C 
ENDBRANCH   8  11
ENDBRANCH   7   8
ENDBRANCH   1   7
BRANCH   6  13
ATOM     13  N   LIG d   1      -3.675  92.348 119.519  0.00  0.00    -0.311 N 
ATOM     14  C   LIG d   1      -2.515  92.492 118.880  0.00  0.00     0.210 C 
ATOM     15  C   LIG d   1      -1.319  91.805 119.545  0.00  0.00     0.109 C 
ATOM     16  O   LIG d   1      -2.358  93.152 117.841  0.00  0.00    -0.276 OA
ATOM     17  H   LIG d   1      -3.705  91.824 120.372  0.00  0.00     0.149 HD
ENDBRANCH   6  13
BRANCH   5  18
ATOM     18  N   LIG d   1      -4.276  95.334 119.288  0.00  0.00     0.381 N 
ATOM     19  H   LIG d   1      -3.399  95.137 119.727  0.00  0.00    -0.090 HD
ATOM     20  H   LIG d   1      -4.601  96.226 119.618  0.00  0.00    -0.090 HD
ATOM     21  H   LIG d   1      -4.162  95.359 118.299  0.00  0.00    -0.090 HD
ENDBRANCH   5  18
BRANCH   3  22
ATOM     22  C   LIG d   1      -8.937  94.267 119.559  0.00  0.00     0.382 C 
ATOM     23  O   LIG d   1      -9.298  95.379 119.105  0.00  0.00    -0.241 OA
ATOM     24  O   LIG d   1      -9.735  93.593 120.238  0.00  0.00    -0.241 OA
ENDBRANCH   3  22
TORSDOF 7
ENDMDL
MODEL 3
REMARK VINA RESULT:      -5.6      1.919      4.899
REMARK  7 active torsions:
REMARK  status: ('A' for Active; 'I' for Inactive)
REMARK    1  A    between atoms: C_2  and  C_3 
REMARK    2  A    between atoms: C_3  and  O_6 
REMARK    3  A    between atoms: C_3  and  C_4 
REMARK    4  A    between atoms: C_7  and  O_6 
REMARK    5  A    between atoms: C_9  and  C_10 
REMARK    6  A    between atoms: N_15  and  C_14 
REMARK    7  A    between atoms: N_20  and  C_19 
REMARK       I    between atoms: C_22  and  N_20 
ROOT
ATOM      1  C   LIG d   1      -6.882  75.817 116.592  0.00  0.00     0.161 C 
ATOM      2  C   LIG d   1      -5.870  75.519 115.665  0.00  0.00     0.016 C 
ATOM      3  C   LIG d   1      -4.706  76.305 115.502  0.00  0.00     0.038 C 
ATOM      4  C   LIG d   1      -4.402  77.366 116.368  0.00  0.00     0.028 C 
ATOM      5  C   LIG d   1      -5.634  78.011 116.992  0.00  0.00    -0.047 C 
ATOM      6  C   LIG d   1      -6.514  76.907 117.621  0.00  0.00     0.091 C 
ENDROOT
BRANCH   1   7
ATOM      7  O   LIG d   1      -7.298  74.613 117.265  0.00  0.00    -0.368 OA
BRANCH   7   8
ATOM      8  C   LIG d   1      -8.042  73.660 116.466  0.00  0.00     0.119 C 
BRANCH   8   9
ATOM      9  C   LIG d   1      -9.451  73.544 117.077  0.00  0.00     0.028 C 
ATOM     10  C   LIG d   1     -10.153  74.907 117.198  0.00  0.00     0.006 C 
ENDBRANCH   8   9
BRANCH   8  11
ATOM     11  C   LIG d   1      -7.438  72.256 116.568  0.00  0.00     0.028 C 
ATOM     12  C   LIG d   1      -6.352  71.997 115.512  0.00  0.00     0.006 C 
ENDBRANCH   8  11
ENDBRANCH   7   8
ENDBRANCH   1   7
BRANCH   6  13
ATOM     13  N   LIG d   1      -7.783  77.443 118.181  0.00  0.00    -0.311 N 
ATOM     14  C   LIG d   1      -8.128  77.322 119.461  0.00  0.00     0.210 C 
ATOM     15  C   LIG d   1      -9.487  77.929 119.825  0.00  0.00     0.109 C 
ATOM     16  O   LIG d   1      -7.423  76.799 120.337  0.00  0.00    -0.276 OA
ATOM     17  H   LIG d   1      -8.400  77.910 117.546  0.00  0.00     0.149 HD
ENDBRANCH   6  13
BRANCH   5  18
ATOM     18  N   LIG d   1      -5.167  79.008 117.974  0.00  0.00     0.381 N 
ATOM     19  H   LIG d   1      -5.901  79.216 118.621  0.00  0.00    -0.090 HD
ATOM     20  H   LIG d   1      -4.924  79.853 117.489  0.00  0.00    -0.090 HD
ATOM     21  H   LIG d   1      -4.373  78.657 118.464  0.00  0.00    -0.090 HD
ENDBRANCH   5  18
BRANCH   3  22
ATOM     22  C   LIG d   1      -3.852  76.057 114.439  0.00  0.00     0.382 C 
ATOM     23  O   LIG d   1      -4.100  76.542 113.309  0.00  0.00    -0.241 OA
ATOM     24  O   LIG d   1      -2.860  75.317 114.584  0.00  0.00    -0.241 OA
ENDBRANCH   3  22
TORSDOF 7
ENDMDL
MODEL 4
REMARK VINA RESULT:      -5.4     14.468     17.147
REMARK  7 active torsions:
REMARK  status: ('A' for Active; 'I' for Inactive)
REMARK    1  A    between atoms: C_2  and  C_3 
REMARK    2  A    between atoms: C_3  and  O_6 
REMARK    3  A    between atoms: C_3  and  C_4 
REMARK    4  A    between atoms: C_7  and  O_6 
REMARK    5  A    between atoms: C_9  and  C_10 
REMARK    6  A    between atoms: N_15  and  C_14 
REMARK    7  A    between atoms: N_20  and  C_19 
REMARK       I    between atoms: C_22  and  N_20 
ROOT
ATOM      1  C   LIG d   1      -5.848  92.823 118.308  0.00  0.00     0.161 C 
ATOM      2  C   LIG d   1      -6.509  91.848 117.541  0.00  0.00     0.016 C 
ATOM      3  C   LIG d   1      -5.835  90.823 116.839  0.00  0.00     0.038 C 
ATOM      4  C   LIG d   1      -4.455  90.610 116.980  0.00  0.00     0.028 C 
ATOM      5  C   LIG d   1      -3.682  91.874 117.342  0.00  0.00    -0.047 C 
ATOM      6  C   LIG d   1      -4.353  92.541 118.564  0.00  0.00     0.091 C 
ENDROOT
BRANCH   1   7
ATOM      7  O   LIG d   1      -6.543  93.015 119.556  0.00  0.00    -0.368 OA
BRANCH   7   8
ATOM      8  C   LIG d   1      -7.201  94.294 119.729  0.00  0.00     0.119 C 
BRANCH   8   9
ATOM      9  C   LIG d   1      -8.716  94.025 119.825  0.00  0.00     0.028 C 
ATOM     10  C   LIG d   1      -9.045  92.846 120.756  0.00  0.00     0.006 C 
ENDBRANCH   8   9
BRANCH   8  11
ATOM     11  C   LIG d   1      -7.024  95.183 118.495  0.00  0.00     0.028 C 
ATOM     12  C   LIG d   1      -8.360  95.553 117.831  0.00  0.00     0.006 C 
ENDBRANCH   8  11
ENDBRANCH   7   8
ENDBRANCH   1   7
BRANCH   6  13
ATOM     13  N   LIG d   1      -3.709  93.828 118.932  0.00  0.00    -0.311 N 
ATOM     14  C   LIG d   1      -2.734  93.929 119.834  0.00  0.00     0.210 C 
ATOM     15  C   LIG d   1      -2.224  95.353 120.078  0.00  0.00     0.109 C 
ATOM     16  O   LIG d   1      -2.221  92.971 120.431  0.00  0.00    -0.276 OA
ATOM     17  H   LIG d   1      -4.043  94.653 118.472  0.00  0.00     0.149 HD
ENDBRANCH   6  13
BRANCH   5  18
ATOM     18  N   LIG d   1      -2.282  91.482 117.593  0.00  0.00     0.381 N 
ATOM     19  H   LIG d   1      -2.256  90.694 118.209  0.00  0.00    -0.090 HD
ATOM     20  H   LIG d   1      -1.806  92.247 118.038  0.00  0.00    -0.090 HD
ATOM     21  H   LIG d   1      -1.831  91.256 116.734  0.00  0.00    -0.090 HD
ENDBRANCH   5  18
BRANCH   3  22
ATOM     22  C   LIG d   1      -6.537  90.021 115.953  0.00  0.00     0.382 C 
ATOM     23  O   LIG d   1      -7.746  89.761 116.165  0.00  0.00    -0.241 OA
ATOM     24  O   LIG d   1      -5.966  89.517 114.967  0.00  0.00    -0.241 OA
ENDBRANCH   3  22
TORSDOF 7
ENDMDL
MODEL 5
REMARK VINA RESULT:      -5.3      1.840      4.922
REMARK  7 active torsions:
REMARK  status: ('A' for Active; 'I' for Inactive)
REMARK    1  A    between atoms: C_2  and  C_3 
REMARK    2  A    between atoms: C_3  and  O_6 
REMARK    3  A    between atoms: C_3  and  C_4 
REMARK    4  A    between atoms: C_7  and  O_6 
REMARK    5  A    between atoms: C_9  and  C_10 
REMARK    6  A    between atoms: N_15  and  C_14 
REMARK    7  A    between atoms: N_20  and  C_19 
REMARK       I    between atoms: C_22  and  N_20 
ROOT
ATOM      1  C   LIG d   1      -6.556  76.952 116.906  0.00  0.00     0.161 C 
ATOM      2  C   LIG d   1      -5.298  77.283 116.376  0.00  0.00     0.016 C 
ATOM      3  C   LIG d   1      -4.577  78.441 116.748  0.00  0.00     0.038 C 
ATOM      4  C   LIG d   1      -5.000  79.273 117.795  0.00  0.00     0.028 C 
ATOM      5  C   LIG d   1      -6.510  79.256 118.010  0.00  0.00    -0.047 C 
ATOM      6  C   LIG d   1      -6.983  77.789 118.130  0.00  0.00     0.091 C 
ENDROOT
BRANCH   1   7
ATOM      7  O   LIG d   1      -6.598  75.546 117.221  0.00  0.00    -0.368 OA
BRANCH   7   8
ATOM      8  C   LIG d   1      -7.337  74.708 116.298  0.00  0.00     0.119 C 
BRANCH   8   9
ATOM      9  C   LIG d   1      -8.397  73.944 117.115  0.00  0.00     0.028 C 
ATOM     10  C   LIG d   1      -9.782  74.609 117.046  0.00  0.00     0.006 C 
ENDBRANCH   8   9
BRANCH   8  11
ATOM     11  C   LIG d   1      -6.440  73.627 115.686  0.00  0.00     0.028 C 
ATOM     12  C   LIG d   1      -5.551  74.163 114.553  0.00  0.00     0.006 C 
ENDBRANCH   8  11
ENDBRANCH   7   8
ENDBRANCH   1   7
BRANCH   6  13
ATOM     13  N   LIG d   1      -8.459  77.677 118.258  0.00  0.00    -0.311 N 
ATOM     14  C   LIG d   1      -9.088  77.578 119.427  0.00  0.00     0.210 C 
ATOM     15  C   LIG d   1     -10.612  77.453 119.333  0.00  0.00     0.109 C 
ATOM     16  O   LIG d   1      -8.532  77.614 120.535  0.00  0.00    -0.276 OA
ATOM     17  H   LIG d   1      -8.991  77.672 117.410  0.00  0.00     0.149 HD
ENDBRANCH   6  13
BRANCH   5  18
ATOM     18  N   LIG d   1      -6.798  80.056 119.215  0.00  0.00     0.381 N 
ATOM     19  H   LIG d   1      -7.763  79.961 119.462  0.00  0.00    -0.090 HD
ATOM     20  H   LIG d   1      -6.618  81.024 119.013  0.00  0.00    -0.090 HD
ATOM     21  H   LIG d   1      -6.223  79.754 119.970  0.00  0.00    -0.090 HD
ENDBRANCH   5  18
BRANCH   3  22
ATOM     22  C   LIG d   1      -3.438  78.798 116.043  0.00  0.00     0.382 C 
ATOM     23  O   LIG d   1      -2.337  78.261 116.316  0.00  0.00    -0.241 OA
ATOM     24  O   LIG d   1      -3.488  79.682 115.167  0.00  0.00    -0.241 OA
ENDBRANCH   3  22
TORSDOF 7
ENDMDL
MODEL 6
REMARK VINA RESULT:      -5.2     14.796     17.148
REMARK  7 active torsions:
REMARK  status: ('A' for Active; 'I' for Inactive)
REMARK    1  A    between atoms: C_2  and  C_3 
REMARK    2  A    between atoms: C_3  and  O_6 
REMARK    3  A    between atoms: C_3  and  C_4 
REMARK    4  A    between atoms: C_7  and  O_6 
REMARK    5  A    between atoms: C_9  and  C_10 
REMARK    6  A    between atoms: N_15  and  C_14 
REMARK    7  A    between atoms: N_20  and  C_19 
REMARK       I    between atoms: C_22  and  N_20 
ROOT
ATOM      1  C   LIG d   1      -5.937  92.173 118.422  0.00  0.00     0.161 C 
ATOM      2  C   LIG d   1      -5.109  92.564 119.487  0.00  0.00     0.016 C 
ATOM      3  C   LIG d   1      -3.746  92.201 119.587  0.00  0.00     0.038 C 
ATOM      4  C   LIG d   1      -3.075  91.545 118.544  0.00  0.00     0.028 C 
ATOM      5  C   LIG d   1      -3.994  90.692 117.676  0.00  0.00    -0.047 C 
ATOM      6  C   LIG d   1      -5.195  91.551 117.221  0.00  0.00     0.091 C 
ENDROOT
BRANCH   1   7
ATOM      7  O   LIG d   1      -6.739  93.291 117.991  0.00  0.00    -0.368 OA
BRANCH   7   8
ATOM      8  C   LIG d   1      -7.087  94.257 119.014  0.00  0.00     0.119 C 
BRANCH   8   9
ATOM      9  C   LIG d   1      -8.539  93.972 119.444  0.00  0.00     0.028 C 
ATOM     10  C   LIG d   1      -8.620  93.262 120.806  0.00  0.00     0.006 C 
ENDBRANCH   8   9
BRANCH   8  11
ATOM     11  C   LIG d   1      -7.103  95.681 118.452  0.00  0.00     0.028 C 
ATOM     12  C   LIG d   1      -8.459  96.066 117.839  0.00  0.00     0.006 C 
ENDBRANCH   8  11
ENDBRANCH   7   8
ENDBRANCH   1   7
BRANCH   6  13
ATOM     13  N   LIG d   1      -6.186  90.770 116.436  0.00  0.00    -0.311 N 
ATOM     14  C   LIG d   1      -6.560  91.092 115.199  0.00  0.00     0.210 C 
ATOM     15  C   LIG d   1      -7.609  90.164 114.578  0.00  0.00     0.109 C 
ATOM     16  O   LIG d   1      -6.100  92.040 114.545  0.00  0.00    -0.276 OA
ATOM     17  H   LIG d   1      -6.587  89.966 116.878  0.00  0.00     0.149 HD
ENDBRANCH   6  13
BRANCH   5  18
ATOM     18  N   LIG d   1      -3.191  90.177 116.550  0.00  0.00     0.381 N 
ATOM     19  H   LIG d   1      -3.017  90.912 115.894  0.00  0.00    -0.090 HD
ATOM     20  H   LIG d   1      -3.711  89.455 116.084  0.00  0.00    -0.090 HD
ATOM     21  H   LIG d   1      -2.328  89.811 116.886  0.00  0.00    -0.090 HD
ENDBRANCH   5  18
BRANCH   3  22
ATOM     22  C   LIG d   1      -3.050  92.461 120.758  0.00  0.00     0.382 C 
ATOM     23  O   LIG d   1      -3.417  91.934 121.836  0.00  0.00    -0.241 OA
ATOM     24  O   LIG d   1      -2.086  93.250 120.758  0.00  0.00    -0.241 OA
ENDBRANCH   3  22
TORSDOF 7
ENDMDL
MODEL 7
REMARK VINA RESULT:      -5.2     14.158     16.561
REMARK  7 active torsions:
REMARK  status: ('A' for Active; 'I' for Inactive)
REMARK    1  A    between atoms: C_2  and  C_3 
REMARK    2  A    between atoms: C_3  and  O_6 
REMARK    3  A    between atoms: C_3  and  C_4 
REMARK    4  A    between atoms: C_7  and  O_6 
REMARK    5  A    between atoms: C_9  and  C_10 
REMARK    6  A    between atoms: N_15  and  C_14 
REMARK    7  A    between atoms: N_20  and  C_19 
REMARK       I    between atoms: C_22  and  N_20 
ROOT
ATOM      1  C   LIG d   1      -5.817  92.919 118.455  0.00  0.00     0.161 C 
ATOM      2  C   LIG d   1      -6.546  91.928 117.776  0.00  0.00     0.016 C 
ATOM      3  C   LIG d   1      -5.940  90.871 117.059  0.00  0.00     0.038 C 
ATOM      4  C   LIG d   1      -4.556  90.646 117.098  0.00  0.00     0.028 C 
ATOM      5  C   LIG d   1      -3.743  91.910 117.354  0.00  0.00    -0.047 C 
ATOM      6  C   LIG d   1      -4.309  92.626 118.602  0.00  0.00     0.091 C 
ENDROOT
BRANCH   1   7
ATOM      7  O   LIG d   1      -6.408  93.161 119.747  0.00  0.00    -0.368 OA
BRANCH   7   8
ATOM      8  C   LIG d   1      -6.512  92.014 120.626  0.00  0.00     0.119 C 
BRANCH   8   9
ATOM      9  C   LIG d   1      -7.883  92.090 121.325  0.00  0.00     0.028 C 
ATOM     10  C   LIG d   1      -8.900  92.932 120.536  0.00  0.00     0.006 C 
ENDBRANCH   8   9
BRANCH   8  11
ATOM     11  C   LIG d   1      -5.477  92.080 121.753  0.00  0.00     0.028 C 
ATOM     12  C   LIG d   1      -4.493  90.900 121.728  0.00  0.00     0.006 C 
ENDBRANCH   8  11
ENDBRANCH   7   8
ENDBRANCH   1   7
BRANCH   6  13
ATOM     13  N   LIG d   1      -3.625  93.917 118.873  0.00  0.00    -0.311 N 
ATOM     14  C   LIG d   1      -2.598  94.040 119.713  0.00  0.00     0.210 C 
ATOM     15  C   LIG d   1      -2.052  95.464 119.863  0.00  0.00     0.109 C 
ATOM     16  O   LIG d   1      -2.066  93.100 120.322  0.00  0.00    -0.276 OA
ATOM     17  H   LIG d   1      -3.972  94.727 118.397  0.00  0.00     0.149 HD
ENDBRANCH   6  13
BRANCH   5  18
ATOM     18  N   LIG d   1      -2.332  91.510 117.507  0.00  0.00     0.381 N 
ATOM     19  H   LIG d   1      -1.870  92.134 118.139  0.00  0.00    -0.090 HD
ATOM     20  H   LIG d   1      -1.877  91.572 116.613  0.00  0.00    -0.090 HD
ATOM     21  H   LIG d   1      -2.278  90.577 117.852  0.00  0.00    -0.090 HD
ENDBRANCH   5  18
BRANCH   3  22
ATOM     22  C   LIG d   1      -6.719  90.049 116.258  0.00  0.00     0.382 C 
ATOM     23  O   LIG d   1      -7.704  89.447 116.749  0.00  0.00    -0.241 OA
ATOM     24  O   LIG d   1      -6.422  89.866 115.063  0.00  0.00    -0.241 OA
ENDBRANCH   3  22
TORSDOF 7
ENDMDL
MODEL 8
REMARK VINA RESULT:      -5.2      2.125      4.798
REMARK  7 active torsions:
REMARK  status: ('A' for Active; 'I' for Inactive)
REMARK    1  A    between atoms: C_2  and  C_3 
REMARK    2  A    between atoms: C_3  and  O_6 
REMARK    3  A    between atoms: C_3  and  C_4 
REMARK    4  A    between atoms: C_7  and  O_6 
REMARK    5  A    between atoms: C_9  and  C_10 
REMARK    6  A    between atoms: N_15  and  C_14 
REMARK    7  A    between atoms: N_20  and  C_19 
REMARK       I    between atoms: C_22  and  N_20 
ROOT
ATOM      1  C   LIG d   1      -5.592  75.559 116.165  0.00  0.00     0.161 C 
ATOM      2  C   LIG d   1      -6.094  74.291 115.828  0.00  0.00     0.016 C 
ATOM      3  C   LIG d   1      -7.334  73.796 116.293  0.00  0.00     0.038 C 
ATOM      4  C   LIG d   1      -8.231  74.600 117.011  0.00  0.00     0.028 C 
ATOM      5  C   LIG d   1      -7.550  75.713 117.801  0.00  0.00    -0.047 C 
ATOM      6  C   LIG d   1      -6.608  76.494 116.856  0.00  0.00     0.091 C 
ENDROOT
BRANCH   1   7
ATOM      7  O   LIG d   1      -5.043  76.195 114.994  0.00  0.00    -0.368 OA
BRANCH   7   8
ATOM      8  C   LIG d   1      -3.602  76.139 114.855  0.00  0.00     0.119 C 
BRANCH   8   9
ATOM      9  C   LIG d   1      -3.009  75.926 116.261  0.00  0.00     0.028 C 
ATOM     10  C   LIG d   1      -1.784  74.997 116.247  0.00  0.00     0.006 C 
ENDBRANCH   8   9
BRANCH   8  11
ATOM     11  C   LIG d   1      -3.036  77.478 114.374  0.00  0.00     0.028 C 
ATOM     12  C   LIG d   1      -3.067  78.563 115.463  0.00  0.00     0.006 C 
ENDBRANCH   8  11
ENDBRANCH   7   8
ENDBRANCH   1   7
BRANCH   6  13
ATOM     13  N   LIG d   1      -5.837  77.547 117.567  0.00  0.00    -0.311 N 
ATOM     14  C   LIG d   1      -6.315  78.766 117.811  0.00  0.00     0.210 C 
ATOM     15  C   LIG d   1      -5.349  79.706 118.540  0.00  0.00     0.109 C 
ATOM     16  O   LIG d   1      -7.459  79.149 117.521  0.00  0.00    -0.276 OA
ATOM     17  H   LIG d   1      -4.911  77.312 117.866  0.00  0.00     0.149 HD
ENDBRANCH   6  13
BRANCH   5  18
ATOM     18  N   LIG d   1      -8.608  76.556 118.388  0.00  0.00     0.381 N 
ATOM     19  H   LIG d   1      -9.209  76.898 117.665  0.00  0.00    -0.090 HD
ATOM     20  H   LIG d   1      -8.181  77.344 118.842  0.00  0.00    -0.090 HD
ATOM     21  H   LIG d   1      -9.137  76.029 119.048  0.00  0.00    -0.090 HD
ENDBRANCH   5  18
BRANCH   3  22
ATOM     22  C   LIG d   1      -7.669  72.468 116.075  0.00  0.00     0.382 C 
ATOM     23  O   LIG d   1      -8.796  72.041 116.422  0.00  0.00    -0.241 OA
ATOM     24  O   LIG d   1      -6.842  71.681 115.577  0.00  0.00    -0.241 OA
ENDBRANCH   3  22
TORSDOF 7
ENDMDL
MODEL 9
REMARK VINA RESULT:      -5.2      1.467      2.193
REMARK  7 active torsions:
REMARK  status: ('A' for Active; 'I' for Inactive)
REMARK    1  A    between atoms: C_2  and  C_3 
REMARK    2  A    between atoms: C_3  and  O_6 
REMARK    3  A    between atoms: C_3  and  C_4 
REMARK    4  A    between atoms: C_7  and  O_6 
REMARK    5  A    between atoms: C_9  and  C_10 
REMARK    6  A    between atoms: N_15  and  C_14 
REMARK    7  A    between atoms: N_20  and  C_19 
REMARK       I    between atoms: C_22  and  N_20 
ROOT
ATOM      1  C   LIG d   1      -6.826  76.966 118.447  0.00  0.00     0.161 C 
ATOM      2  C   LIG d   1      -8.193  77.000 118.766  0.00  0.00     0.016 C 
ATOM      3  C   LIG d   1      -8.964  78.185 118.759  0.00  0.00     0.038 C 
ATOM      4  C   LIG d   1      -8.451  79.401 118.283  0.00  0.00     0.028 C 
ATOM      5  C   LIG d   1      -6.938  79.518 118.430  0.00  0.00    -0.047 C 
ATOM      6  C   LIG d   1      -6.275  78.263 117.818  0.00  0.00     0.091 C 
ENDROOT
BRANCH   1   7
ATOM      7  O   LIG d   1      -6.552  75.838 117.591  0.00  0.00    -0.368 OA
BRANCH   7   8
ATOM      8  C   LIG d   1      -7.573  75.516 116.616  0.00  0.00     0.119 C 
BRANCH   8   9
ATOM      9  C   LIG d   1      -8.082  74.096 116.931  0.00  0.00     0.028 C 
ATOM     10  C   LIG d   1      -9.609  74.045 117.104  0.00  0.00     0.006 C 
ENDBRANCH   8   9
BRANCH   8  11
ATOM     11  C   LIG d   1      -6.987  75.433 115.203  0.00  0.00     0.028 C 
ATOM     12  C   LIG d   1      -5.485  75.757 115.160  0.00  0.00     0.006 C 
ENDBRANCH   8  11
ENDBRANCH   7   8
ENDBRANCH   1   7
BRANCH   6  13
ATOM     13  N   LIG d   1      -4.799  78.257 117.995  0.00  0.00    -0.311 N 
ATOM     14  C   LIG d   1      -3.950  78.733 117.086  0.00  0.00     0.210 C 
ATOM     15  C   LIG d   1      -2.469  78.612 117.458  0.00  0.00     0.109 C 
ATOM     16  O   LIG d   1      -4.284  79.272 116.020  0.00  0.00    -0.276 OA
ATOM     17  H   LIG d   1      -4.443  77.866 118.845  0.00  0.00     0.149 HD
ENDBRANCH   6  13
BRANCH   5  18
ATOM     18  N   LIG d   1      -6.522  80.771 117.770  0.00  0.00     0.381 N 
ATOM     19  H   LIG d   1      -6.238  81.438 118.460  0.00  0.00    -0.090 HD
ATOM     20  H   LIG d   1      -7.305  81.150 117.269  0.00  0.00    -0.090 HD
ATOM     21  H   LIG d   1      -5.770  80.592 117.141  0.00  0.00    -0.090 HD
ENDBRANCH   5  18
BRANCH   3  22
ATOM     22  C   LIG d   1     -10.253  78.170 119.269  0.00  0.00     0.382 C 
ATOM     23  O   LIG d   1     -11.053  77.265 118.926  0.00  0.00    -0.241 OA
ATOM     24  O   LIG d   1     -10.641  79.073 120.034  0.00  0.00    -0.241 OA
ENDBRANCH   3  22
TORSDOF 7
ENDMDL
