MODEL 1
REMARK VINA RESULT:      -5.5      0.000      0.000
REMARK  7 active torsions:
REMARK  status: ('A' for Active; 'I' for Inactive)
REMARK    1  A    between atoms: C_2  and  C_3 
REMARK    2  A    between atoms: C_3  and  O_6 
REMARK    3  A    between atoms: C_3  and  C_4 
REMARK    4  A    between atoms: C_7  and  O_6 
REMARK    5  A    between atoms: C_9  and  C_10 
REMARK    6  A    between atoms: N_15  and  C_14 
REMARK    7  A    between atoms: N_20  and  C_19 
REMARK       I    between atoms: C_22  and  N_20 
ROOT
ATOM      1  C   LIG d   1      -7.678  74.995 117.758  0.00  0.00     0.161 C 
ATOM      2  C   LIG d   1      -8.837  75.777 117.889  0.00  0.00     0.016 C 
ATOM      3  C   LIG d   1      -8.826  77.191 117.893  0.00  0.00     0.038 C 
ATOM      4  C   LIG d   1      -7.663  77.924 117.613  0.00  0.00     0.028 C 
ATOM      5  C   LIG d   1      -6.379  77.185 117.976  0.00  0.00    -0.047 C 
ATOM      6  C   LIG d   1      -6.414  75.777 117.340  0.00  0.00     0.091 C 
ENDROOT
BRANCH   1   7
ATOM      7  O   LIG d   1      -7.921  73.910 116.841  0.00  0.00    -0.368 OA
BRANCH   7   8
ATOM      8  C   LIG d   1      -8.362  72.663 117.433  0.00  0.00     0.119 C 
BRANCH   8   9
ATOM      9  C   LIG d   1      -7.681  71.517 116.659  0.00  0.00     0.028 C 
ATOM     10  C   LIG d   1      -6.787  72.030 115.517  0.00  0.00     0.006 C 
ENDBRANCH   8   9
BRANCH   8  11
ATOM     11  C   LIG d   1      -9.866  72.451 117.231  0.00  0.00     0.028 C 
ATOM     12  C   LIG d   1     -10.200  71.068 116.652  0.00  0.00     0.006 C 
ENDBRANCH   8  11
ENDBRANCH   7   8
ENDBRANCH   1   7
BRANCH   6  13
ATOM     13  N   LIG d   1      -5.233  74.956 117.715  0.00  0.00    -0.311 N 
ATOM     14  C   LIG d   1      -4.129  74.879 116.974  0.00  0.00     0.210 C 
ATOM     15  C   LIG d   1      -3.038  73.960 117.534  0.00  0.00     0.109 C 
ATOM     16  O   LIG d   1      -3.936  75.510 115.924  0.00  0.00    -0.276 OA
ATOM     17  H   LIG d   1      -5.292  74.436 118.569  0.00  0.00     0.149 HD
ENDBRANCH   6  13
BRANCH   5  18
ATOM     18  N   LIG d   1      -5.246  78.004 117.506  0.00  0.00     0.381 N 
ATOM     19  H   LIG d   1      -4.950  77.687 116.604  0.00  0.00    -0.090 HD
ATOM     20  H   LIG d   1      -4.478  77.895 118.145  0.00  0.00    -0.090 HD
ATOM     21  H   LIG d   1      -5.514  78.962 117.457  0.00  0.00    -0.090 HD
ENDBRANCH   5  18
BRANCH   3  22
ATOM     22  C   LIG d   1      -9.980  77.887 118.219  0.00  0.00     0.382 C 
ATOM     23  O   LIG d   1     -10.013  79.136 118.104  0.00  0.00    -0.241 OA
ATOM     24  O   LIG d   1     -10.974  77.286 118.669  0.00  0.00    -0.241 OA
ENDBRANCH   3  22
TORSDOF 7
ENDMDL
MODEL 2
REMARK VINA RESULT:      -5.3     15.345     18.055
REMARK  7 active torsions:
REMARK  status: ('A' for Active; 'I' for Inactive)
REMARK    1  A    between atoms: C_2  and  C_3 
REMARK    2  A    between atoms: C_3  and  O_6 
REMARK    3  A    between atoms: C_3  and  C_4 
REMARK    4  A    between atoms: C_7  and  O_6 
REMARK    5  A    between atoms: C_9  and  C_10 
REMARK    6  A    between atoms: N_15  and  C_14 
REMARK    7  A    between atoms: N_20  and  C_19 
REMARK       I    between atoms: C_22  and  N_20 
ROOT
ATOM      1  C   LIG d   1      -5.831  92.860 117.217  0.00  0.00     0.161 C 
ATOM      2  C   LIG d   1      -7.000  92.255 116.725  0.00  0.00     0.016 C 
ATOM      3  C   LIG d   1      -7.008  91.011 116.054  0.00  0.00     0.038 C 
ATOM      4  C   LIG d   1      -5.859  90.211 115.960  0.00  0.00     0.028 C 
ATOM      5  C   LIG d   1      -4.561  91.009 115.996  0.00  0.00    -0.047 C 
ATOM      6  C   LIG d   1      -4.585  91.951 117.222  0.00  0.00     0.091 C 
ENDROOT
BRANCH   1   7
ATOM      7  O   LIG d   1      -6.072  93.388 118.536  0.00  0.00    -0.368 OA
BRANCH   7   8
ATOM      8  C   LIG d   1      -5.930  94.822 118.684  0.00  0.00     0.119 C 
BRANCH   8   9
ATOM      9  C   LIG d   1      -5.096  95.076 119.955  0.00  0.00     0.028 C 
ATOM     10  C   LIG d   1      -4.957  93.816 120.827  0.00  0.00     0.006 C 
ENDBRANCH   8   9
BRANCH   8  11
ATOM     11  C   LIG d   1      -7.282  95.492 118.946  0.00  0.00     0.028 C 
ATOM     12  C   LIG d   1      -7.938  96.031 117.664  0.00  0.00     0.006 C 
ENDBRANCH   8  11
ENDBRANCH   7   8
ENDBRANCH   1   7
BRANCH   6  13
ATOM     13  N   LIG d   1      -3.387  92.829 117.286  0.00  0.00    -0.311 N 
ATOM     14  C   LIG d   1      -2.463  92.740 118.240  0.00  0.00     0.210 C 
ATOM     15  C   LIG d   1      -1.320  93.754 118.130  0.00  0.00     0.109 C 
ATOM     16  O   LIG d   1      -2.464  91.896 119.149  0.00  0.00    -0.276 OA
ATOM     17  H   LIG d   1      -3.291  93.521 116.569  0.00  0.00     0.149 HD
ENDBRANCH   6  13
BRANCH   5  18
ATOM     18  N   LIG d   1      -3.445  90.044 116.030  0.00  0.00     0.381 N 
ATOM     19  H   LIG d   1      -3.285  89.744 116.971  0.00  0.00    -0.090 HD
ATOM     20  H   LIG d   1      -2.613  90.498 115.698  0.00  0.00    -0.090 HD
ATOM     21  H   LIG d   1      -3.656  89.259 115.454  0.00  0.00    -0.090 HD
ENDBRANCH   5  18
BRANCH   3  22
ATOM     22  C   LIG d   1      -8.168  90.573 115.431  0.00  0.00     0.382 C 
ATOM     23  O   LIG d   1      -8.756  91.316 114.610  0.00  0.00    -0.241 OA
ATOM     24  O   LIG d   1      -8.657  89.463 115.715  0.00  0.00    -0.241 OA
ENDBRANCH   3  22
TORSDOF 7
ENDMDL
MODEL 3
REMARK VINA RESULT:      -5.3      1.781      2.183
REMARK  7 active torsions:
REMARK  status: ('A' for Active; 'I' for Inactive)
REMARK    1  A    between atoms: C_2  and  C_3 
REMARK    2  A    between atoms: C_3  and  O_6 
REMARK    3  A    between atoms: C_3  and  C_4 
REMARK    4  A    between atoms: C_7  and  O_6 
REMARK    5  A    between atoms: C_9  and  C_10 
REMARK    6  A    between atoms: N_15  and  C_14 
REMARK    7  A    between atoms: N_20  and  C_19 
REMARK       I    between atoms: C_22  and  N_20 
ROOT
ATOM      1  C   LIG d   1      -7.167  76.334 117.532  0.00  0.00     0.161 C 
ATOM      2  C   LIG d   1      -8.475  76.567 117.989  0.00  0.00     0.016 C 
ATOM      3  C   LIG d   1      -8.989  77.857 118.252  0.00  0.00     0.038 C 
ATOM      4  C   LIG d   1      -8.275  79.020 117.930  0.00  0.00     0.028 C 
ATOM      5  C   LIG d   1      -6.763  78.824 117.940  0.00  0.00    -0.047 C 
ATOM      6  C   LIG d   1      -6.410  77.597 117.069  0.00  0.00     0.091 C 
ENDROOT
BRANCH   1   7
ATOM      7  O   LIG d   1      -7.184  75.347 116.482  0.00  0.00    -0.368 OA
BRANCH   7   8
ATOM      8  C   LIG d   1      -6.582  74.068 116.799  0.00  0.00     0.119 C 
BRANCH   8   9
ATOM      9  C   LIG d   1      -5.957  73.517 115.504  0.00  0.00     0.028 C 
ATOM     10  C   LIG d   1      -5.371  74.627 114.616  0.00  0.00     0.006 C 
ENDBRANCH   8   9
BRANCH   8  11
ATOM     11  C   LIG d   1      -7.641  73.040 117.208  0.00  0.00     0.028 C 
ATOM     12  C   LIG d   1      -7.709  71.841 116.249  0.00  0.00     0.006 C 
ENDBRANCH   8  11
ENDBRANCH   7   8
ENDBRANCH   1   7
BRANCH   6  13
ATOM     13  N   LIG d   1      -4.957  77.284 117.092  0.00  0.00    -0.311 N 
ATOM     14  C   LIG d   1      -4.093  77.748 116.191  0.00  0.00     0.210 C 
ATOM     15  C   LIG d   1      -2.645  77.288 116.386  0.00  0.00     0.109 C 
ATOM     16  O   LIG d   1      -4.383  78.524 115.267  0.00  0.00    -0.276 OA
ATOM     17  H   LIG d   1      -4.631  76.687 117.826  0.00  0.00     0.149 HD
ENDBRANCH   6  13
BRANCH   5  18
ATOM     18  N   LIG d   1      -6.148  80.074 117.453  0.00  0.00     0.381 N 
ATOM     19  H   LIG d   1      -5.362  79.861 116.872  0.00  0.00    -0.090 HD
ATOM     20  H   LIG d   1      -5.823  80.605 118.242  0.00  0.00    -0.090 HD
ATOM     21  H   LIG d   1      -6.816  80.605 116.939  0.00  0.00    -0.090 HD
ENDBRANCH   5  18
BRANCH   3  22
ATOM     22  C   LIG d   1     -10.217  77.992 118.882  0.00  0.00     0.382 C 
ATOM     23  O   LIG d   1     -10.386  78.889 119.743  0.00  0.00    -0.241 OA
ATOM     24  O   LIG d   1     -11.146  77.199 118.632  0.00  0.00    -0.241 OA
ENDBRANCH   3  22
TORSDOF 7
ENDMDL
MODEL 4
REMARK VINA RESULT:      -5.1     15.718     18.991
REMARK  7 active torsions:
REMARK  status: ('A' for Active; 'I' for Inactive)
REMARK    1  A    between atoms: C_2  and  C_3 
REMARK    2  A    between atoms: C_3  and  O_6 
REMARK    3  A    between atoms: C_3  and  C_4 
REMARK    4  A    between atoms: C_7  and  O_6 
REMARK    5  A    between atoms: C_9  and  C_10 
REMARK    6  A    between atoms: N_15  and  C_14 
REMARK    7  A    between atoms: N_20  and  C_19 
REMARK       I    between atoms: C_22  and  N_20 
ROOT
ATOM      1  C   LIG d   1      -5.948  93.116 118.430  0.00  0.00     0.161 C 
ATOM      2  C   LIG d   1      -4.792  93.678 118.997  0.00  0.00     0.016 C 
ATOM      3  C   LIG d   1      -3.482  93.254 118.675  0.00  0.00     0.038 C 
ATOM      4  C   LIG d   1      -3.233  92.336 117.644  0.00  0.00     0.028 C 
ATOM      5  C   LIG d   1      -4.391  91.375 117.395  0.00  0.00    -0.047 C 
ATOM      6  C   LIG d   1      -5.692  92.191 117.222  0.00  0.00     0.091 C 
ENDROOT
BRANCH   1   7
ATOM      7  O   LIG d   1      -6.875  94.161 118.073  0.00  0.00    -0.368 OA
BRANCH   7   8
ATOM      8  C   LIG d   1      -6.778  95.387 118.840  0.00  0.00     0.119 C 
BRANCH   8   9
ATOM      9  C   LIG d   1      -7.628  95.205 120.112  0.00  0.00     0.028 C 
ATOM     10  C   LIG d   1      -7.364  96.304 121.156  0.00  0.00     0.006 C 
ENDBRANCH   8   9
BRANCH   8  11
ATOM     11  C   LIG d   1      -7.414  96.563 118.092  0.00  0.00     0.028 C 
ATOM     12  C   LIG d   1      -8.816  96.237 117.551  0.00  0.00     0.006 C 
ENDBRANCH   8  11
ENDBRANCH   7   8
ENDBRANCH   1   7
BRANCH   6  13
ATOM     13  N   LIG d   1      -6.888  91.323 117.059  0.00  0.00    -0.311 N 
ATOM     14  C   LIG d   1      -7.322  90.889 115.877  0.00  0.00     0.210 C 
ATOM     15  C   LIG d   1      -8.584  90.023 115.931  0.00  0.00     0.109 C 
ATOM     16  O   LIG d   1      -6.764  91.113 114.792  0.00  0.00    -0.276 OA
ATOM     17  H   LIG d   1      -7.383  91.068 117.890  0.00  0.00     0.149 HD
ENDBRANCH   6  13
BRANCH   5  18
ATOM     18  N   LIG d   1      -4.052  90.567 116.208  0.00  0.00     0.381 N 
ATOM     19  H   LIG d   1      -4.275  89.607 116.378  0.00  0.00    -0.090 HD
ATOM     20  H   LIG d   1      -3.064  90.637 116.038  0.00  0.00    -0.090 HD
ATOM     21  H   LIG d   1      -4.557  90.898 115.416  0.00  0.00    -0.090 HD
ENDBRANCH   5  18
BRANCH   3  22
ATOM     22  C   LIG d   1      -2.407  93.721 119.416  0.00  0.00     0.382 C 
ATOM     23  O   LIG d   1      -2.295  94.947 119.653  0.00  0.00    -0.241 OA
ATOM     24  O   LIG d   1      -1.525  92.936 119.812  0.00  0.00    -0.241 OA
ENDBRANCH   3  22
TORSDOF 7
ENDMDL
MODEL 5
REMARK VINA RESULT:      -5.1     15.761     17.987
REMARK  7 active torsions:
REMARK  status: ('A' for Active; 'I' for Inactive)
REMARK    1  A    between atoms: C_2  and  C_3 
REMARK    2  A    between atoms: C_3  and  O_6 
REMARK    3  A    between atoms: C_3  and  C_4 
REMARK    4  A    between atoms: C_7  and  O_6 
REMARK    5  A    between atoms: C_9  and  C_10 
REMARK    6  A    between atoms: N_15  and  C_14 
REMARK    7  A    between atoms: N_20  and  C_19 
REMARK       I    between atoms: C_22  and  N_20 
ROOT
ATOM      1  C   LIG d   1      -4.127  91.901 118.061  0.00  0.00     0.161 C 
ATOM      2  C   LIG d   1      -4.376  91.009 117.005  0.00  0.00     0.016 C 
ATOM      3  C   LIG d   1      -5.424  91.180 116.072  0.00  0.00     0.038 C 
ATOM      4  C   LIG d   1      -6.208  92.343 116.042  0.00  0.00     0.028 C 
ATOM      5  C   LIG d   1      -6.320  93.033 117.397  0.00  0.00    -0.047 C 
ATOM      6  C   LIG d   1      -4.902  93.234 117.978  0.00  0.00     0.091 C 
ENDROOT
BRANCH   1   7
ATOM      7  O   LIG d   1      -2.712  92.150 118.168  0.00  0.00    -0.368 OA
BRANCH   7   8
ATOM      8  C   LIG d   1      -1.957  91.206 118.967  0.00  0.00     0.119 C 
BRANCH   8   9
ATOM      9  C   LIG d   1      -1.502  91.940 120.243  0.00  0.00     0.028 C 
ATOM     10  C   LIG d   1      -2.523  91.816 121.387  0.00  0.00     0.006 C 
ENDBRANCH   8   9
BRANCH   8  11
ATOM     11  C   LIG d   1      -0.666  90.785 118.259  0.00  0.00     0.028 C 
ATOM     12  C   LIG d   1      -0.873  89.611 117.290  0.00  0.00     0.006 C 
ENDBRANCH   8  11
ENDBRANCH   7   8
ENDBRANCH   1   7
BRANCH   6  13
ATOM     13  N   LIG d   1      -4.925  93.826 119.340  0.00  0.00    -0.311 N 
ATOM     14  C   LIG d   1      -4.133  94.828 119.718  0.00  0.00     0.210 C 
ATOM     15  C   LIG d   1      -4.305  95.275 121.173  0.00  0.00     0.109 C 
ATOM     16  O   LIG d   1      -3.326  95.410 118.977  0.00  0.00    -0.276 OA
ATOM     17  H   LIG d   1      -5.572  93.435 119.997  0.00  0.00     0.149 HD
ENDBRANCH   6  13
BRANCH   5  18
ATOM     18  N   LIG d   1      -7.046  94.301 117.193  0.00  0.00     0.381 N 
ATOM     19  H   LIG d   1      -7.759  94.176 116.502  0.00  0.00    -0.090 HD
ATOM     20  H   LIG d   1      -6.401  94.995 116.859  0.00  0.00    -0.090 HD
ATOM     21  H   LIG d   1      -7.454  94.602 118.051  0.00  0.00    -0.090 HD
ENDBRANCH   5  18
BRANCH   3  22
ATOM     22  C   LIG d   1      -5.724  90.161 115.181  0.00  0.00     0.382 C 
ATOM     23  O   LIG d   1      -6.893  90.034 114.744  0.00  0.00    -0.241 OA
ATOM     24  O   LIG d   1      -4.850  89.340 114.842  0.00  0.00    -0.241 OA
ENDBRANCH   3  22
TORSDOF 7
ENDMDL
MODEL 6
REMARK VINA RESULT:      -4.9     16.052     18.837
REMARK  7 active torsions:
REMARK  status: ('A' for Active; 'I' for Inactive)
REMARK    1  A    between atoms: C_2  and  C_3 
REMARK    2  A    between atoms: C_3  and  O_6 
REMARK    3  A    between atoms: C_3  and  C_4 
REMARK    4  A    between atoms: C_7  and  O_6 
REMARK    5  A    between atoms: C_9  and  C_10 
REMARK    6  A    between atoms: N_15  and  C_14 
REMARK    7  A    between atoms: N_20  and  C_19 
REMARK       I    between atoms: C_22  and  N_20 
ROOT
ATOM      1  C   LIG d   1      -4.324  92.455 118.754  0.00  0.00     0.161 C 
ATOM      2  C   LIG d   1      -4.310  91.469 117.753  0.00  0.00     0.016 C 
ATOM      3  C   LIG d   1      -5.186  91.474 116.644  0.00  0.00     0.038 C 
ATOM      4  C   LIG d   1      -6.041  92.554 116.379  0.00  0.00     0.028 C 
ATOM      5  C   LIG d   1      -6.447  93.326 117.629  0.00  0.00    -0.047 C 
ATOM      6  C   LIG d   1      -5.174  93.699 118.424  0.00  0.00     0.091 C 
ENDROOT
BRANCH   1   7
ATOM      7  O   LIG d   1      -2.974  92.842 119.079  0.00  0.00    -0.368 OA
BRANCH   7   8
ATOM      8  C   LIG d   1      -2.000  92.710 118.014  0.00  0.00     0.119 C 
BRANCH   8   9
ATOM      9  C   LIG d   1      -0.729  92.088 118.625  0.00  0.00     0.028 C 
ATOM     10  C   LIG d   1      -0.800  90.553 118.689  0.00  0.00     0.006 C 
ENDBRANCH   8   9
BRANCH   8  11
ATOM     11  C   LIG d   1      -1.567  94.079 117.483  0.00  0.00     0.028 C 
ATOM     12  C   LIG d   1      -1.903  95.227 118.448  0.00  0.00     0.006 C 
ENDBRANCH   8  11
ENDBRANCH   7   8
ENDBRANCH   1   7
BRANCH   6  13
ATOM     13  N   LIG d   1      -5.487  94.384 119.705  0.00  0.00    -0.311 N 
ATOM     14  C   LIG d   1      -5.502  95.709 119.844  0.00  0.00     0.210 C 
ATOM     15  C   LIG d   1      -5.829  96.207 121.255  0.00  0.00     0.109 C 
ATOM     16  O   LIG d   1      -5.309  96.518 118.925  0.00  0.00    -0.276 OA
ATOM     17  H   LIG d   1      -5.686  93.803 120.496  0.00  0.00     0.149 HD
ENDBRANCH   6  13
BRANCH   5  18
ATOM     18  N   LIG d   1      -7.223  94.503 117.194  0.00  0.00     0.381 N 
ATOM     19  H   LIG d   1      -7.747  94.278 116.373  0.00  0.00    -0.090 HD
ATOM     20  H   LIG d   1      -6.586  95.247 116.968  0.00  0.00    -0.090 HD
ATOM     21  H   LIG d   1      -7.839  94.793 117.922  0.00  0.00    -0.090 HD
ENDBRANCH   5  18
BRANCH   3  22
ATOM     22  C   LIG d   1      -5.241  90.370 115.806  0.00  0.00     0.382 C 
ATOM     23  O   LIG d   1      -6.344  89.979 115.355  0.00  0.00    -0.241 OA
ATOM     24  O   LIG d   1      -4.206  89.733 115.532  0.00  0.00    -0.241 OA
ENDBRANCH   3  22
TORSDOF 7
ENDMDL
MODEL 7
REMARK VINA RESULT:      -4.8      4.712      7.615
REMARK  7 active torsions:
REMARK  status: ('A' for Active; 'I' for Inactive)
REMARK    1  A    between atoms: C_2  and  C_3 
REMARK    2  A    between atoms: C_3  and  O_6 
REMARK    3  A    between atoms: C_3  and  C_4 
REMARK    4  A    between atoms: C_7  and  O_6 
REMARK    5  A    between atoms: C_9  and  C_10 
REMARK    6  A    between atoms: N_15  and  C_14 
REMARK    7  A    between atoms: N_20  and  C_19 
REMARK       I    between atoms: C_22  and  N_20 
ROOT
ATOM      1  C   LIG d   1      -8.070  80.040 120.378  0.00  0.00     0.161 C 
ATOM      2  C   LIG d   1      -8.417  78.796 119.825  0.00  0.00     0.016 C 
ATOM      3  C   LIG d   1      -9.317  78.648 118.745  0.00  0.00     0.038 C 
ATOM      4  C   LIG d   1      -9.819  79.753 118.041  0.00  0.00     0.028 C 
ATOM      5  C   LIG d   1      -9.894  81.023 118.882  0.00  0.00    -0.047 C 
ATOM      6  C   LIG d   1      -8.521  81.263 119.552  0.00  0.00     0.091 C 
ENDROOT
BRANCH   1   7
ATOM      7  O   LIG d   1      -6.649  80.091 120.613  0.00  0.00    -0.368 OA
BRANCH   7   8
ATOM      8  C   LIG d   1      -5.846  80.651 119.545  0.00  0.00     0.119 C 
BRANCH   8   9
ATOM      9  C   LIG d   1      -5.393  79.484 118.646  0.00  0.00     0.028 C 
ATOM     10  C   LIG d   1      -5.959  79.588 117.220  0.00  0.00     0.006 C 
ENDBRANCH   8   9
BRANCH   8  11
ATOM     11  C   LIG d   1      -4.554  81.272 120.086  0.00  0.00     0.028 C 
ATOM     12  C   LIG d   1      -4.796  82.591 120.835  0.00  0.00     0.006 C 
ENDBRANCH   8  11
ENDBRANCH   7   8
ENDBRANCH   1   7
BRANCH   6  13
ATOM     13  N   LIG d   1      -8.532  82.439 120.460  0.00  0.00    -0.311 N 
ATOM     14  C   LIG d   1      -8.096  83.646 120.101  0.00  0.00     0.210 C 
ATOM     15  C   LIG d   1      -8.177  84.714 121.196  0.00  0.00     0.109 C 
ATOM     16  O   LIG d   1      -7.681  83.940 118.970  0.00  0.00    -0.276 OA
ATOM     17  H   LIG d   1      -8.882  82.297 121.387  0.00  0.00     0.149 HD
ENDBRANCH   6  13
BRANCH   5  18
ATOM     18  N   LIG d   1     -10.302  82.124 117.990  0.00  0.00     0.381 N 
ATOM     19  H   LIG d   1     -11.256  82.003 117.716  0.00  0.00    -0.090 HD
ATOM     20  H   LIG d   1      -9.731  82.101 117.163  0.00  0.00    -0.090 HD
ATOM     21  H   LIG d   1     -10.191  82.999 118.454  0.00  0.00    -0.090 HD
ENDBRANCH   5  18
BRANCH   3  22
ATOM     22  C   LIG d   1      -9.755  77.383 118.384  0.00  0.00     0.382 C 
ATOM     23  O   LIG d   1     -10.980  77.111 118.416  0.00  0.00    -0.241 OA
ATOM     24  O   LIG d   1      -8.938  76.497 118.069  0.00  0.00    -0.241 OA
ENDBRANCH   3  22
TORSDOF 7
ENDMDL
MODEL 8
REMARK VINA RESULT:      -4.8     16.212     19.409
REMARK  7 active torsions:
REMARK  status: ('A' for Active; 'I' for Inactive)
REMARK    1  A    between atoms: C_2  and  C_3 
REMARK    2  A    between atoms: C_3  and  O_6 
REMARK    3  A    between atoms: C_3  and  C_4 
REMARK    4  A    between atoms: C_7  and  O_6 
REMARK    5  A    between atoms: C_9  and  C_10 
REMARK    6  A    between atoms: N_15  and  C_14 
REMARK    7  A    between atoms: N_20  and  C_19 
REMARK       I    between atoms: C_22  and  N_20 
ROOT
ATOM      1  C   LIG d   1      -4.735  93.235 119.253  0.00  0.00     0.161 C 
ATOM      2  C   LIG d   1      -3.811  92.261 118.841  0.00  0.00     0.016 C 
ATOM      3  C   LIG d   1      -3.967  91.485 117.670  0.00  0.00     0.038 C 
ATOM      4  C   LIG d   1      -4.991  91.738 116.744  0.00  0.00     0.028 C 
ATOM      5  C   LIG d   1      -6.230  92.370 117.370  0.00  0.00    -0.047 C 
ATOM      6  C   LIG d   1      -5.801  93.602 118.199  0.00  0.00     0.091 C 
ENDROOT
BRANCH   1   7
ATOM      7  O   LIG d   1      -4.037  94.417 119.693  0.00  0.00    -0.368 OA
BRANCH   7   8
ATOM      8  C   LIG d   1      -2.592  94.374 119.601  0.00  0.00     0.119 C 
BRANCH   8   9
ATOM      9  C   LIG d   1      -2.029  94.837 120.959  0.00  0.00     0.028 C 
ATOM     10  C   LIG d   1      -2.279  93.813 122.078  0.00  0.00     0.006 C 
ENDBRANCH   8   9
BRANCH   8  11
ATOM     11  C   LIG d   1      -2.068  95.386 118.578  0.00  0.00     0.028 C 
ATOM     12  C   LIG d   1      -1.263  94.727 117.447  0.00  0.00     0.006 C 
ENDBRANCH   8  11
ENDBRANCH   7   8
ENDBRANCH   1   7
BRANCH   6  13
ATOM     13  N   LIG d   1      -6.943  94.230 118.914  0.00  0.00    -0.311 N 
ATOM     14  C   LIG d   1      -7.316  95.495 118.730  0.00  0.00     0.210 C 
ATOM     15  C   LIG d   1      -8.506  95.948 119.582  0.00  0.00     0.109 C 
ATOM     16  O   LIG d   1      -6.794  96.276 117.919  0.00  0.00    -0.276 OA
ATOM     17  H   LIG d   1      -7.442  93.659 119.567  0.00  0.00     0.149 HD
ENDBRANCH   6  13
BRANCH   5  18
ATOM     18  N   LIG d   1      -7.160  92.705 116.275  0.00  0.00     0.381 N 
ATOM     19  H   LIG d   1      -6.788  92.384 115.404  0.00  0.00    -0.090 HD
ATOM     20  H   LIG d   1      -7.259  93.704 116.227  0.00  0.00    -0.090 HD
ATOM     21  H   LIG d   1      -8.048  92.284 116.440  0.00  0.00    -0.090 HD
ENDBRANCH   5  18
BRANCH   3  22
ATOM     22  C   LIG d   1      -3.116  90.416 117.434  0.00  0.00     0.382 C 
ATOM     23  O   LIG d   1      -1.996  90.371 117.997  0.00  0.00    -0.241 OA
ATOM     24  O   LIG d   1      -3.436  89.518 116.632  0.00  0.00    -0.241 OA
ENDBRANCH   3  22
TORSDOF 7
ENDMDL
MODEL 9
REMARK VINA RESULT:      -4.7      2.218      4.778
REMARK  7 active torsions:
REMARK  status: ('A' for Active; 'I' for Inactive)
REMARK    1  A    between atoms: C_2  and  C_3 
REMARK    2  A    between atoms: C_3  and  O_6 
REMARK    3  A    between atoms: C_3  and  C_4 
REMARK    4  A    between atoms: C_7  and  O_6 
REMARK    5  A    between atoms: C_9  and  C_10 
REMARK    6  A    between atoms: N_15  and  C_14 
REMARK    7  A    between atoms: N_20  and  C_19 
REMARK       I    between atoms: C_22  and  N_20 
ROOT
ATOM      1  C   LIG d   1      -5.393  76.127 117.335  0.00  0.00     0.161 C 
ATOM      2  C   LIG d   1      -5.232  77.501 117.578  0.00  0.00     0.016 C 
ATOM      3  C   LIG d   1      -6.316  78.394 117.749  0.00  0.00     0.038 C 
ATOM      4  C   LIG d   1      -7.641  77.942 117.840  0.00  0.00     0.028 C 
ATOM      5  C   LIG d   1      -7.887  76.633 117.098  0.00  0.00    -0.047 C 
ATOM      6  C   LIG d   1      -6.828  75.598 117.542  0.00  0.00     0.091 C 
ENDROOT
BRANCH   1   7
ATOM      7  O   LIG d   1      -4.462  75.376 118.140  0.00  0.00    -0.368 OA
BRANCH   7   8
ATOM      8  C   LIG d   1      -3.631  74.424 117.431  0.00  0.00     0.119 C 
BRANCH   8   9
ATOM      9  C   LIG d   1      -2.247  74.422 118.110  0.00  0.00     0.028 C 
ATOM     10  C   LIG d   1      -1.973  73.119 118.879  0.00  0.00     0.006 C 
ENDBRANCH   8   9
BRANCH   8  11
ATOM     11  C   LIG d   1      -3.375  74.873 115.989  0.00  0.00     0.028 C 
ATOM     12  C   LIG d   1      -1.946  75.396 115.773  0.00  0.00     0.006 C 
ENDBRANCH   8  11
ENDBRANCH   7   8
ENDBRANCH   1   7
BRANCH   6  13
ATOM     13  N   LIG d   1      -6.945  74.314 116.802  0.00  0.00    -0.311 N 
ATOM     14  C   LIG d   1      -7.610  73.258 117.267  0.00  0.00     0.210 C 
ATOM     15  C   LIG d   1      -7.589  72.028 116.354  0.00  0.00     0.109 C 
ATOM     16  O   LIG d   1      -8.241  73.233 118.334  0.00  0.00    -0.276 OA
ATOM     17  H   LIG d   1      -6.489  74.257 115.912  0.00  0.00     0.149 HD
ENDBRANCH   6  13
BRANCH   5  18
ATOM     18  N   LIG d   1      -9.269  76.208 117.390  0.00  0.00     0.381 N 
ATOM     19  H   LIG d   1      -9.854  77.012 117.500  0.00  0.00    -0.090 HD
ATOM     20  H   LIG d   1      -9.275  75.693 118.253  0.00  0.00    -0.090 HD
ATOM     21  H   LIG d   1      -9.613  75.636 116.651  0.00  0.00    -0.090 HD
ENDBRANCH   5  18
BRANCH   3  22
ATOM     22  C   LIG d   1      -6.081  79.759 117.791  0.00  0.00     0.382 C 
ATOM     23  O   LIG d   1      -6.579  80.509 116.916  0.00  0.00    -0.241 OA
ATOM     24  O   LIG d   1      -5.341  80.247 118.666  0.00  0.00    -0.241 OA
ENDBRANCH   3  22
TORSDOF 7
ENDMDL
