MODEL 1
REMARK VINA RESULT:      -6.0      0.000      0.000
REMARK  7 active torsions:
REMARK  status: ('A' for Active; 'I' for Inactive)
REMARK    1  A    between atoms: C_2  and  C_3 
REMARK    2  A    between atoms: C_3  and  O_6 
REMARK    3  A    between atoms: C_3  and  C_4 
REMARK    4  A    between atoms: C_7  and  O_6 
REMARK    5  A    between atoms: C_9  and  C_10 
REMARK    6  A    between atoms: N_15  and  C_14 
REMARK    7  A    between atoms: N_20  and  C_19 
REMARK       I    between atoms: C_22  and  N_20 
ROOT
ATOM      1  C   LIG d   1      -6.602  74.687 117.225  0.00  0.00     0.161 C 
ATOM      2  C   LIG d   1      -5.402  73.987 117.022  0.00  0.00     0.016 C 
ATOM      3  C   LIG d   1      -4.129  74.515 117.338  0.00  0.00     0.038 C 
ATOM      4  C   LIG d   1      -3.980  75.730 118.024  0.00  0.00     0.028 C 
ATOM      5  C   LIG d   1      -5.134  76.700 117.796  0.00  0.00    -0.047 C 
ATOM      6  C   LIG d   1      -6.467  75.968 118.075  0.00  0.00     0.091 C 
ENDROOT
BRANCH   1   7
ATOM      7  O   LIG d   1      -7.590  73.808 117.798  0.00  0.00    -0.368 OA
BRANCH   7   8
ATOM      8  C   LIG d   1      -8.084  72.755 116.934  0.00  0.00     0.119 C 
BRANCH   8   9
ATOM      9  C   LIG d   1      -9.620  72.872 116.894  0.00  0.00     0.028 C 
ATOM     10  C   LIG d   1     -10.092  74.248 116.395  0.00  0.00     0.006 C 
ENDBRANCH   8   9
BRANCH   8  11
ATOM     11  C   LIG d   1      -7.798  71.371 117.522  0.00  0.00     0.028 C 
ATOM     12  C   LIG d   1      -8.996  70.415 117.408  0.00  0.00     0.006 C 
ENDBRANCH   8  11
ENDBRANCH   7   8
ENDBRANCH   1   7
BRANCH   6  13
ATOM     13  N   LIG d   1      -7.652  76.821 117.795  0.00  0.00    -0.311 N 
ATOM     14  C   LIG d   1      -8.609  77.063 118.688  0.00  0.00     0.210 C 
ATOM     15  C   LIG d   1      -9.751  77.952 118.187  0.00  0.00     0.109 C 
ATOM     16  O   LIG d   1      -8.604  76.652 119.858  0.00  0.00    -0.276 OA
ATOM     17  H   LIG d   1      -7.719  77.220 116.879  0.00  0.00     0.149 HD
ENDBRANCH   6  13
BRANCH   5  18
ATOM     18  N   LIG d   1      -4.918  77.864 118.675  0.00  0.00     0.381 N 
ATOM     19  H   LIG d   1      -5.576  78.584 118.451  0.00  0.00    -0.090 HD
ATOM     20  H   LIG d   1      -3.993  78.222 118.519  0.00  0.00    -0.090 HD
ATOM     21  H   LIG d   1      -5.022  77.595 119.629  0.00  0.00    -0.090 HD
ENDBRANCH   5  18
BRANCH   3  22
ATOM     22  C   LIG d   1      -2.986  73.844 116.931  0.00  0.00     0.382 C 
ATOM     23  O   LIG d   1      -2.331  73.164 117.756  0.00  0.00    -0.241 OA
ATOM     24  O   LIG d   1      -2.577  73.947 115.758  0.00  0.00    -0.241 OA
ENDBRANCH   3  22
TORSDOF 7
ENDMDL
MODEL 2
REMARK VINA RESULT:      -6.0      1.670      5.086
REMARK  7 active torsions:
REMARK  status: ('A' for Active; 'I' for Inactive)
REMARK    1  A    between atoms: C_2  and  C_3 
REMARK    2  A    between atoms: C_3  and  O_6 
REMARK    3  A    between atoms: C_3  and  C_4 
REMARK    4  A    between atoms: C_7  and  O_6 
REMARK    5  A    between atoms: C_9  and  C_10 
REMARK    6  A    between atoms: N_15  and  C_14 
REMARK    7  A    between atoms: N_20  and  C_19 
REMARK       I    between atoms: C_22  and  N_20 
ROOT
ATOM      1  C   LIG d   1      -7.535  75.827 117.799  0.00  0.00     0.161 C 
ATOM      2  C   LIG d   1      -8.653  76.639 118.053  0.00  0.00     0.016 C 
ATOM      3  C   LIG d   1      -8.596  78.051 118.094  0.00  0.00     0.038 C 
ATOM      4  C   LIG d   1      -7.439  78.758 117.733  0.00  0.00     0.028 C 
ATOM      5  C   LIG d   1      -6.153  77.971 117.961  0.00  0.00    -0.047 C 
ATOM      6  C   LIG d   1      -6.288  76.583 117.293  0.00  0.00     0.091 C 
ENDROOT
BRANCH   1   7
ATOM      7  O   LIG d   1      -7.892  74.777 116.879  0.00  0.00    -0.368 OA
BRANCH   7   8
ATOM      8  C   LIG d   1      -8.319  73.527 117.473  0.00  0.00     0.119 C 
BRANCH   8   9
ATOM      9  C   LIG d   1      -7.198  72.496 117.238  0.00  0.00     0.028 C 
ATOM     10  C   LIG d   1      -7.743  71.073 117.030  0.00  0.00     0.006 C 
ENDBRANCH   8   9
BRANCH   8  11
ATOM     11  C   LIG d   1      -9.548  72.960 116.756  0.00  0.00     0.028 C 
ATOM     12  C   LIG d   1     -10.484  74.056 116.222  0.00  0.00     0.006 C 
ENDBRANCH   8  11
ENDBRANCH   7   8
ENDBRANCH   1   7
BRANCH   6  13
ATOM     13  N   LIG d   1      -5.106  75.717 117.540  0.00  0.00    -0.311 N 
ATOM     14  C   LIG d   1      -4.531  74.974 116.596  0.00  0.00     0.210 C 
ATOM     15  C   LIG d   1      -3.336  74.140 117.069  0.00  0.00     0.109 C 
ATOM     16  O   LIG d   1      -4.877  74.952 115.406  0.00  0.00    -0.276 OA
ATOM     17  H   LIG d   1      -4.741  75.700 118.472  0.00  0.00     0.149 HD
ENDBRANCH   6  13
BRANCH   5  18
ATOM     18  N   LIG d   1      -5.039  78.769 117.415  0.00  0.00     0.381 N 
ATOM     19  H   LIG d   1      -4.378  78.166 116.968  0.00  0.00    -0.090 HD
ATOM     20  H   LIG d   1      -4.576  79.241 118.172  0.00  0.00    -0.090 HD
ATOM     21  H   LIG d   1      -5.386  79.436 116.761  0.00  0.00    -0.090 HD
ENDBRANCH   5  18
BRANCH   3  22
ATOM     22  C   LIG d   1      -9.695  78.771 118.539  0.00  0.00     0.382 C 
ATOM     23  O   LIG d   1     -10.288  78.423 119.589  0.00  0.00    -0.241 OA
ATOM     24  O   LIG d   1     -10.127  79.736 117.881  0.00  0.00    -0.241 OA
ENDBRANCH   3  22
TORSDOF 7
ENDMDL
MODEL 3
REMARK VINA RESULT:      -5.8      1.792      2.026
REMARK  7 active torsions:
REMARK  status: ('A' for Active; 'I' for Inactive)
REMARK    1  A    between atoms: C_2  and  C_3 
REMARK    2  A    between atoms: C_3  and  O_6 
REMARK    3  A    between atoms: C_3  and  C_4 
REMARK    4  A    between atoms: C_7  and  O_6 
REMARK    5  A    between atoms: C_9  and  C_10 
REMARK    6  A    between atoms: N_15  and  C_14 
REMARK    7  A    between atoms: N_20  and  C_19 
REMARK       I    between atoms: C_22  and  N_20 
ROOT
ATOM      1  C   LIG d   1      -7.765  75.932 117.192  0.00  0.00     0.161 C 
ATOM      2  C   LIG d   1      -6.658  75.604 116.392  0.00  0.00     0.016 C 
ATOM      3  C   LIG d   1      -5.482  76.387 116.333  0.00  0.00     0.038 C 
ATOM      4  C   LIG d   1      -5.273  77.476 117.191  0.00  0.00     0.028 C 
ATOM      5  C   LIG d   1      -6.565  78.140 117.654  0.00  0.00    -0.047 C 
ATOM      6  C   LIG d   1      -7.511  77.055 118.219  0.00  0.00     0.091 C 
ENDROOT
BRANCH   1   7
ATOM      7  O   LIG d   1      -8.256  74.749 117.855  0.00  0.00    -0.368 OA
BRANCH   7   8
ATOM      8  C   LIG d   1      -8.236  73.528 117.077  0.00  0.00     0.119 C 
BRANCH   8   9
ATOM      9  C   LIG d   1      -9.698  73.153 116.765  0.00  0.00     0.028 C 
ATOM     10  C   LIG d   1     -10.522  74.358 116.281  0.00  0.00     0.006 C 
ENDBRANCH   8   9
BRANCH   8  11
ATOM     11  C   LIG d   1      -7.682  72.356 117.893  0.00  0.00     0.028 C 
ATOM     12  C   LIG d   1      -7.388  71.117 117.032  0.00  0.00     0.006 C 
ENDBRANCH   8  11
ENDBRANCH   7   8
ENDBRANCH   1   7
BRANCH   6  13
ATOM     13  N   LIG d   1      -8.833  77.608 118.617  0.00  0.00    -0.311 N 
ATOM     14  C   LIG d   1      -9.120  77.999 119.857  0.00  0.00     0.210 C 
ATOM     15  C   LIG d   1     -10.547  78.519 120.057  0.00  0.00     0.109 C 
ATOM     16  O   LIG d   1      -8.318  77.995 120.804  0.00  0.00    -0.276 OA
ATOM     17  H   LIG d   1      -9.532  77.675 117.904  0.00  0.00     0.149 HD
ENDBRANCH   6  13
BRANCH   5  18
ATOM     18  N   LIG d   1      -6.207  79.169 118.649  0.00  0.00     0.381 N 
ATOM     19  H   LIG d   1      -6.920  79.869 118.684  0.00  0.00    -0.090 HD
ATOM     20  H   LIG d   1      -5.348  79.608 118.367  0.00  0.00    -0.090 HD
ATOM     21  H   LIG d   1      -6.096  78.751 119.546  0.00  0.00    -0.090 HD
ENDBRANCH   5  18
BRANCH   3  22
ATOM     22  C   LIG d   1      -4.516  76.104 115.379  0.00  0.00     0.382 C 
ATOM     23  O   LIG d   1      -3.511  75.419 115.687  0.00  0.00    -0.241 OA
ATOM     24  O   LIG d   1      -4.615  76.563 114.225  0.00  0.00    -0.241 OA
ENDBRANCH   3  22
TORSDOF 7
ENDMDL
MODEL 4
REMARK VINA RESULT:      -5.8     15.393     18.289
REMARK  7 active torsions:
REMARK  status: ('A' for Active; 'I' for Inactive)
REMARK    1  A    between atoms: C_2  and  C_3 
REMARK    2  A    between atoms: C_3  and  O_6 
REMARK    3  A    between atoms: C_3  and  C_4 
REMARK    4  A    between atoms: C_7  and  O_6 
REMARK    5  A    between atoms: C_9  and  C_10 
REMARK    6  A    between atoms: N_15  and  C_14 
REMARK    7  A    between atoms: N_20  and  C_19 
REMARK       I    between atoms: C_22  and  N_20 
ROOT
ATOM      1  C   LIG d   1      -5.776  92.595 117.630  0.00  0.00     0.161 C 
ATOM      2  C   LIG d   1      -6.612  91.594 117.108  0.00  0.00     0.016 C 
ATOM      3  C   LIG d   1      -6.146  90.321 116.709  0.00  0.00     0.038 C 
ATOM      4  C   LIG d   1      -4.827  89.906 116.947  0.00  0.00     0.028 C 
ATOM      5  C   LIG d   1      -3.831  91.059 117.007  0.00  0.00    -0.047 C 
ATOM      6  C   LIG d   1      -4.354  92.122 118.000  0.00  0.00     0.091 C 
ENDROOT
BRANCH   1   7
ATOM      7  O   LIG d   1      -6.408  93.218 118.766  0.00  0.00    -0.368 OA
BRANCH   7   8
ATOM      8  C   LIG d   1      -7.091  94.469 118.508  0.00  0.00     0.119 C 
BRANCH   8   9
ATOM      9  C   LIG d   1      -6.347  95.572 119.286  0.00  0.00     0.028 C 
ATOM     10  C   LIG d   1      -5.598  95.022 120.512  0.00  0.00     0.006 C 
ENDBRANCH   8   9
BRANCH   8  11
ATOM     11  C   LIG d   1      -8.511  94.457 119.082  0.00  0.00     0.028 C 
ATOM     12  C   LIG d   1      -8.832  93.166 119.851  0.00  0.00     0.006 C 
ENDBRANCH   8  11
ENDBRANCH   7   8
ENDBRANCH   1   7
BRANCH   6  13
ATOM     13  N   LIG d   1      -3.481  93.324 118.056  0.00  0.00    -0.311 N 
ATOM     14  C   LIG d   1      -2.506  93.480 118.949  0.00  0.00     0.210 C 
ATOM     15  C   LIG d   1      -1.739  94.802 118.845  0.00  0.00     0.109 C 
ATOM     16  O   LIG d   1      -2.182  92.635 119.798  0.00  0.00    -0.276 OA
ATOM     17  H   LIG d   1      -3.654  94.045 117.383  0.00  0.00     0.149 HD
ENDBRANCH   6  13
BRANCH   5  18
ATOM     18  N   LIG d   1      -2.524  90.498 117.397  0.00  0.00     0.381 N 
ATOM     19  H   LIG d   1      -2.277  90.818 118.312  0.00  0.00    -0.090 HD
ATOM     20  H   LIG d   1      -1.825  90.823 116.751  0.00  0.00    -0.090 HD
ATOM     21  H   LIG d   1      -2.562  89.503 117.383  0.00  0.00    -0.090 HD
ENDBRANCH   5  18
BRANCH   3  22
ATOM     22  C   LIG d   1      -6.994  89.461 116.028  0.00  0.00     0.382 C 
ATOM     23  O   LIG d   1      -6.928  89.375 114.778  0.00  0.00    -0.241 OA
ATOM     24  O   LIG d   1      -7.855  88.804 116.643  0.00  0.00    -0.241 OA
ENDBRANCH   3  22
TORSDOF 7
ENDMDL
MODEL 5
REMARK VINA RESULT:      -5.5      2.439      5.587
REMARK  7 active torsions:
REMARK  status: ('A' for Active; 'I' for Inactive)
REMARK    1  A    between atoms: C_2  and  C_3 
REMARK    2  A    between atoms: C_3  and  O_6 
REMARK    3  A    between atoms: C_3  and  C_4 
REMARK    4  A    between atoms: C_7  and  O_6 
REMARK    5  A    between atoms: C_9  and  C_10 
REMARK    6  A    between atoms: N_15  and  C_14 
REMARK    7  A    between atoms: N_20  and  C_19 
REMARK       I    between atoms: C_22  and  N_20 
ROOT
ATOM      1  C   LIG d   1      -6.903  76.152 117.217  0.00  0.00     0.161 C 
ATOM      2  C   LIG d   1      -8.021  75.302 117.210  0.00  0.00     0.016 C 
ATOM      3  C   LIG d   1      -7.930  73.897 117.082  0.00  0.00     0.038 C 
ATOM      4  C   LIG d   1      -6.696  73.229 117.105  0.00  0.00     0.028 C 
ATOM      5  C   LIG d   1      -5.536  74.083 116.603  0.00  0.00    -0.047 C 
ATOM      6  C   LIG d   1      -5.545  75.433 117.355  0.00  0.00     0.091 C 
ENDROOT
BRANCH   1   7
ATOM      7  O   LIG d   1      -7.051  77.146 118.251  0.00  0.00    -0.368 OA
BRANCH   7   8
ATOM      8  C   LIG d   1      -7.683  78.388 117.855  0.00  0.00     0.119 C 
BRANCH   8   9
ATOM      9  C   LIG d   1      -6.604  79.488 117.889  0.00  0.00     0.028 C 
ATOM     10  C   LIG d   1      -7.207  80.902 117.910  0.00  0.00     0.006 C 
ENDBRANCH   8   9
BRANCH   8  11
ATOM     11  C   LIG d   1      -8.740  78.825 118.874  0.00  0.00     0.028 C 
ATOM     12  C   LIG d   1     -10.085  78.109 118.681  0.00  0.00     0.006 C 
ENDBRANCH   8  11
ENDBRANCH   7   8
ENDBRANCH   1   7
BRANCH   6  13
ATOM     13  N   LIG d   1      -4.493  76.362 116.864  0.00  0.00    -0.311 N 
ATOM     14  C   LIG d   1      -4.299  76.635 115.575  0.00  0.00     0.210 C 
ATOM     15  C   LIG d   1      -3.148  77.603 115.286  0.00  0.00     0.109 C 
ATOM     16  O   LIG d   1      -4.992  76.193 114.647  0.00  0.00    -0.276 OA
ATOM     17  H   LIG d   1      -3.905  76.789 117.553  0.00  0.00     0.149 HD
ENDBRANCH   6  13
BRANCH   5  18
ATOM     18  N   LIG d   1      -4.294  73.314 116.811  0.00  0.00     0.381 N 
ATOM     19  H   LIG d   1      -4.493  72.484 117.334  0.00  0.00    -0.090 HD
ATOM     20  H   LIG d   1      -3.650  73.874 117.340  0.00  0.00    -0.090 HD
ATOM     21  H   LIG d   1      -3.892  73.072 115.932  0.00  0.00    -0.090 HD
ENDBRANCH   5  18
BRANCH   3  22
ATOM     22  C   LIG d   1      -9.080  73.148 116.890  0.00  0.00     0.382 C 
ATOM     23  O   LIG d   1      -9.003  71.903 116.759  0.00  0.00    -0.241 OA
ATOM     24  O   LIG d   1     -10.190  73.706 116.801  0.00  0.00    -0.241 OA
ENDBRANCH   3  22
TORSDOF 7
ENDMDL
MODEL 6
REMARK VINA RESULT:      -5.4     15.663     18.524
REMARK  7 active torsions:
REMARK  status: ('A' for Active; 'I' for Inactive)
REMARK    1  A    between atoms: C_2  and  C_3 
REMARK    2  A    between atoms: C_3  and  O_6 
REMARK    3  A    between atoms: C_3  and  C_4 
REMARK    4  A    between atoms: C_7  and  O_6 
REMARK    5  A    between atoms: C_9  and  C_10 
REMARK    6  A    between atoms: N_15  and  C_14 
REMARK    7  A    between atoms: N_20  and  C_19 
REMARK       I    between atoms: C_22  and  N_20 
ROOT
ATOM      1  C   LIG d   1      -6.438  92.656 118.338  0.00  0.00     0.161 C 
ATOM      2  C   LIG d   1      -6.849  91.499 117.656  0.00  0.00     0.016 C 
ATOM      3  C   LIG d   1      -5.951  90.605 117.029  0.00  0.00     0.038 C 
ATOM      4  C   LIG d   1      -4.561  90.728 117.172  0.00  0.00     0.028 C 
ATOM      5  C   LIG d   1      -4.103  92.161 117.426  0.00  0.00    -0.047 C 
ATOM      6  C   LIG d   1      -4.920  92.748 118.599  0.00  0.00     0.091 C 
ENDROOT
BRANCH   1   7
ATOM      7  O   LIG d   1      -7.167  92.780 119.575  0.00  0.00    -0.368 OA
BRANCH   7   8
ATOM      8  C   LIG d   1      -7.995  93.961 119.712  0.00  0.00     0.119 C 
BRANCH   8   9
ATOM      9  C   LIG d   1      -9.386  93.500 120.187  0.00  0.00     0.028 C 
ATOM     10  C   LIG d   1      -9.928  94.362 121.340  0.00  0.00     0.006 C 
ENDBRANCH   8   9
BRANCH   8  11
ATOM     11  C   LIG d   1      -8.232  94.635 118.357  0.00  0.00     0.028 C 
ATOM     12  C   LIG d   1      -8.315  96.166 118.461  0.00  0.00     0.006 C 
ENDBRANCH   8  11
ENDBRANCH   7   8
ENDBRANCH   1   7
BRANCH   6  13
ATOM     13  N   LIG d   1      -4.594  94.175 118.859  0.00  0.00    -0.311 N 
ATOM     14  C   LIG d   1      -4.267  94.645 120.061  0.00  0.00     0.210 C 
ATOM     15  C   LIG d   1      -3.987  96.150 120.113  0.00  0.00     0.109 C 
ATOM     16  O   LIG d   1      -4.150  93.953 121.084  0.00  0.00    -0.276 OA
ATOM     17  H   LIG d   1      -4.633  94.801 118.079  0.00  0.00     0.149 HD
ENDBRANCH   6  13
BRANCH   5  18
ATOM     18  N   LIG d   1      -2.653  92.124 117.692  0.00  0.00     0.381 N 
ATOM     19  H   LIG d   1      -2.216  92.935 117.300  0.00  0.00    -0.090 HD
ATOM     20  H   LIG d   1      -2.261  91.311 117.250  0.00  0.00    -0.090 HD
ATOM     21  H   LIG d   1      -2.487  92.091 118.673  0.00  0.00    -0.090 HD
ENDBRANCH   5  18
BRANCH   3  22
ATOM     22  C   LIG d   1      -6.442  89.595 116.216  0.00  0.00     0.382 C 
ATOM     23  O   LIG d   1      -7.516  89.017 116.513  0.00  0.00    -0.241 OA
ATOM     24  O   LIG d   1      -5.803  89.224 115.213  0.00  0.00    -0.241 OA
ENDBRANCH   3  22
TORSDOF 7
ENDMDL
MODEL 7
REMARK VINA RESULT:      -5.3     14.690     17.269
REMARK  7 active torsions:
REMARK  status: ('A' for Active; 'I' for Inactive)
REMARK    1  A    between atoms: C_2  and  C_3 
REMARK    2  A    between atoms: C_3  and  O_6 
REMARK    3  A    between atoms: C_3  and  C_4 
REMARK    4  A    between atoms: C_7  and  O_6 
REMARK    5  A    between atoms: C_9  and  C_10 
REMARK    6  A    between atoms: N_15  and  C_14 
REMARK    7  A    between atoms: N_20  and  C_19 
REMARK       I    between atoms: C_22  and  N_20 
ROOT
ATOM      1  C   LIG d   1      -3.874  90.782 117.944  0.00  0.00     0.161 C 
ATOM      2  C   LIG d   1      -4.711  90.003 117.127  0.00  0.00     0.016 C 
ATOM      3  C   LIG d   1      -5.945  90.464 116.614  0.00  0.00     0.038 C 
ATOM      4  C   LIG d   1      -6.357  91.797 116.760  0.00  0.00     0.028 C 
ATOM      5  C   LIG d   1      -5.787  92.475 118.001  0.00  0.00    -0.047 C 
ATOM      6  C   LIG d   1      -4.254  92.275 118.022  0.00  0.00     0.091 C 
ENDROOT
BRANCH   1   7
ATOM      7  O   LIG d   1      -2.504  90.635 117.521  0.00  0.00    -0.368 OA
BRANCH   7   8
ATOM      8  C   LIG d   1      -1.617  89.967 118.452  0.00  0.00     0.119 C 
BRANCH   8   9
ATOM      9  C   LIG d   1      -0.214  90.578 118.273  0.00  0.00     0.028 C 
ATOM     10  C   LIG d   1       0.695  89.710 117.386  0.00  0.00     0.006 C 
ENDBRANCH   8   9
BRANCH   8  11
ATOM     11  C   LIG d   1      -1.461  88.483 118.107  0.00  0.00     0.028 C 
ATOM     12  C   LIG d   1      -2.304  87.570 119.010  0.00  0.00     0.006 C 
ENDBRANCH   8  11
ENDBRANCH   7   8
ENDBRANCH   1   7
BRANCH   6  13
ATOM     13  N   LIG d   1      -3.626  92.836 119.247  0.00  0.00    -0.311 N 
ATOM     14  C   LIG d   1      -2.522  93.581 119.229  0.00  0.00     0.210 C 
ATOM     15  C   LIG d   1      -2.030  94.041 120.605  0.00  0.00     0.109 C 
ATOM     16  O   LIG d   1      -1.921  93.931 118.202  0.00  0.00    -0.276 OA
ATOM     17  H   LIG d   1      -4.066  92.627 120.121  0.00  0.00     0.149 HD
ENDBRANCH   6  13
BRANCH   5  18
ATOM     18  N   LIG d   1      -6.184  93.895 117.955  0.00  0.00     0.381 N 
ATOM     19  H   LIG d   1      -7.141  93.970 117.674  0.00  0.00    -0.090 HD
ATOM     20  H   LIG d   1      -5.617  94.370 117.274  0.00  0.00    -0.090 HD
ATOM     21  H   LIG d   1      -6.059  94.313 118.851  0.00  0.00    -0.090 HD
ENDBRANCH   5  18
BRANCH   3  22
ATOM     22  C   LIG d   1      -6.801  89.576 115.980  0.00  0.00     0.382 C 
ATOM     23  O   LIG d   1      -7.662  88.952 116.646  0.00  0.00    -0.241 OA
ATOM     24  O   LIG d   1      -6.692  89.358 114.759  0.00  0.00    -0.241 OA
ENDBRANCH   3  22
TORSDOF 7
ENDMDL
MODEL 8
REMARK VINA RESULT:      -5.0     15.745     18.458
REMARK  7 active torsions:
REMARK  status: ('A' for Active; 'I' for Inactive)
REMARK    1  A    between atoms: C_2  and  C_3 
REMARK    2  A    between atoms: C_3  and  O_6 
REMARK    3  A    between atoms: C_3  and  C_4 
REMARK    4  A    between atoms: C_7  and  O_6 
REMARK    5  A    between atoms: C_9  and  C_10 
REMARK    6  A    between atoms: N_15  and  C_14 
REMARK    7  A    between atoms: N_20  and  C_19 
REMARK       I    between atoms: C_22  and  N_20 
ROOT
ATOM      1  C   LIG d   1      10.924  78.655 114.746  0.00  0.00     0.161 C 
ATOM      2  C   LIG d   1      10.447  77.361 114.478  0.00  0.00     0.016 C 
ATOM      3  C   LIG d   1       9.380  76.763 115.187  0.00  0.00     0.038 C 
ATOM      4  C   LIG d   1       8.614  77.481 116.118  0.00  0.00     0.028 C 
ATOM      5  C   LIG d   1       9.378  78.622 116.780  0.00  0.00    -0.047 C 
ATOM      6  C   LIG d   1      10.029  79.494 115.681  0.00  0.00     0.091 C 
ENDROOT
BRANCH   1   7
ATOM      7  O   LIG d   1      11.153  79.357 113.508  0.00  0.00    -0.368 OA
BRANCH   7   8
ATOM      8  C   LIG d   1      12.520  79.759 113.246  0.00  0.00     0.119 C 
BRANCH   8   9
ATOM      9  C   LIG d   1      12.486  81.217 112.749  0.00  0.00     0.028 C 
ATOM     10  C   LIG d   1      11.177  81.558 112.017  0.00  0.00     0.006 C 
ENDBRANCH   8   9
BRANCH   8  11
ATOM     11  C   LIG d   1      13.127  78.952 112.094  0.00  0.00     0.028 C 
ATOM     12  C   LIG d   1      13.775  77.640 112.563  0.00  0.00     0.006 C 
ENDBRANCH   8  11
ENDBRANCH   7   8
ENDBRANCH   1   7
BRANCH   6  13
ATOM     13  N   LIG d   1      10.865  80.585 116.245  0.00  0.00    -0.311 N 
ATOM     14  C   LIG d   1      10.686  81.872 115.952  0.00  0.00     0.210 C 
ATOM     15  C   LIG d   1      11.671  82.832 116.627  0.00  0.00     0.109 C 
ATOM     16  O   LIG d   1       9.785  82.313 115.223  0.00  0.00    -0.276 OA
ATOM     17  H   LIG d   1      11.600  80.320 116.871  0.00  0.00     0.149 HD
ENDBRANCH   6  13
BRANCH   5  18
ATOM     18  N   LIG d   1       8.423  79.369 117.620  0.00  0.00     0.381 N 
ATOM     19  H   LIG d   1       8.906  79.793 118.387  0.00  0.00    -0.090 HD
ATOM     20  H   LIG d   1       7.744  78.727 117.990  0.00  0.00    -0.090 HD
ATOM     21  H   LIG d   1       7.966  80.069 117.078  0.00  0.00    -0.090 HD
ENDBRANCH   5  18
BRANCH   3  22
ATOM     22  C   LIG d   1       9.096  75.419 114.997  0.00  0.00     0.382 C 
ATOM     23  O   LIG d   1       9.817  74.544 115.534  0.00  0.00    -0.241 OA
ATOM     24  O   LIG d   1       8.156  75.071 114.258  0.00  0.00    -0.241 OA
ENDBRANCH   3  22
TORSDOF 7
ENDMDL
MODEL 9
REMARK VINA RESULT:      -5.0      2.509      5.535
REMARK  7 active torsions:
REMARK  status: ('A' for Active; 'I' for Inactive)
REMARK    1  A    between atoms: C_2  and  C_3 
REMARK    2  A    between atoms: C_3  and  O_6 
REMARK    3  A    between atoms: C_3  and  C_4 
REMARK    4  A    between atoms: C_7  and  O_6 
REMARK    5  A    between atoms: C_9  and  C_10 
REMARK    6  A    between atoms: N_15  and  C_14 
REMARK    7  A    between atoms: N_20  and  C_19 
REMARK       I    between atoms: C_22  and  N_20 
ROOT
ATOM      1  C   LIG d   1      -6.918  76.298 116.960  0.00  0.00     0.161 C 
ATOM      2  C   LIG d   1      -8.058  75.477 116.990  0.00  0.00     0.016 C 
ATOM      3  C   LIG d   1      -8.000  74.065 117.016  0.00  0.00     0.038 C 
ATOM      4  C   LIG d   1      -6.788  73.375 117.167  0.00  0.00     0.028 C 
ATOM      5  C   LIG d   1      -5.584  74.143 116.633  0.00  0.00    -0.047 C 
ATOM      6  C   LIG d   1      -5.588  75.566 117.236  0.00  0.00     0.091 C 
ENDROOT
BRANCH   1   7
ATOM      7  O   LIG d   1      -7.084  77.399 117.875  0.00  0.00    -0.368 OA
BRANCH   7   8
ATOM      8  C   LIG d   1      -6.471  77.242 119.178  0.00  0.00     0.119 C 
BRANCH   8   9
ATOM      9  C   LIG d   1      -7.594  76.908 120.180  0.00  0.00     0.028 C 
ATOM     10  C   LIG d   1      -7.468  75.485 120.749  0.00  0.00     0.006 C 
ENDBRANCH   8   9
BRANCH   8  11
ATOM     11  C   LIG d   1      -5.867  78.560 119.672  0.00  0.00     0.028 C 
ATOM     12  C   LIG d   1      -6.846  79.382 120.525  0.00  0.00     0.006 C 
ENDBRANCH   8  11
ENDBRANCH   7   8
ENDBRANCH   1   7
BRANCH   6  13
ATOM     13  N   LIG d   1      -4.489  76.412 116.700  0.00  0.00    -0.311 N 
ATOM     14  C   LIG d   1      -4.292  76.620 115.400  0.00  0.00     0.210 C 
ATOM     15  C   LIG d   1      -3.091  77.509 115.062  0.00  0.00     0.109 C 
ATOM     16  O   LIG d   1      -5.017  76.180 114.495  0.00  0.00    -0.276 OA
ATOM     17  H   LIG d   1      -3.872  76.834 117.366  0.00  0.00     0.149 HD
ENDBRANCH   6  13
BRANCH   5  18
ATOM     18  N   LIG d   1      -4.374  73.372 116.978  0.00  0.00     0.381 N 
ATOM     19  H   LIG d   1      -3.596  73.705 116.445  0.00  0.00    -0.090 HD
ATOM     20  H   LIG d   1      -4.527  72.407 116.744  0.00  0.00    -0.090 HD
ATOM     21  H   LIG d   1      -4.181  73.459 117.951  0.00  0.00    -0.090 HD
ENDBRANCH   5  18
BRANCH   3  22
ATOM     22  C   LIG d   1      -9.162  73.326 116.850  0.00  0.00     0.382 C 
ATOM     23  O   LIG d   1      -9.098  72.082 116.700  0.00  0.00    -0.241 OA
ATOM     24  O   LIG d   1     -10.270  73.893 116.804  0.00  0.00    -0.241 OA
ENDBRANCH   3  22
TORSDOF 7
ENDMDL
