MODEL 1
REMARK VINA RESULT:      -5.9      0.000      0.000
REMARK  7 active torsions:
REMARK  status: ('A' for Active; 'I' for Inactive)
REMARK    1  A    between atoms: C_2  and  C_3 
REMARK    2  A    between atoms: C_3  and  O_6 
REMARK    3  A    between atoms: C_3  and  C_4 
REMARK    4  A    between atoms: C_7  and  O_6 
REMARK    5  A    between atoms: C_9  and  C_10 
REMARK    6  A    between atoms: N_15  and  C_14 
REMARK    7  A    between atoms: N_20  and  C_19 
REMARK       I    between atoms: C_22  and  N_20 
ROOT
ATOM      1  C   LIG d   1      -7.384  76.105 116.508  0.00  0.00     0.161 C 
ATOM      2  C   LIG d   1      -6.555  75.540 115.524  0.00  0.00     0.016 C 
ATOM      3  C   LIG d   1      -5.335  76.120 115.107  0.00  0.00     0.038 C 
ATOM      4  C   LIG d   1      -4.783  77.234 115.757  0.00  0.00     0.028 C 
ATOM      5  C   LIG d   1      -5.827  78.129 116.416  0.00  0.00    -0.047 C 
ATOM      6  C   LIG d   1      -6.744  77.260 117.306  0.00  0.00     0.091 C 
ENDROOT
BRANCH   1   7
ATOM      7  O   LIG d   1      -7.852  75.077 117.403  0.00  0.00    -0.368 OA
BRANCH   7   8
ATOM      8  C   LIG d   1      -8.203  73.811 116.791  0.00  0.00     0.119 C 
BRANCH   8   9
ATOM      9  C   LIG d   1      -9.681  73.530 117.125  0.00  0.00     0.028 C 
ATOM     10  C   LIG d   1     -10.623  74.615 116.578  0.00  0.00     0.006 C 
ENDBRANCH   8   9
BRANCH   8  11
ATOM     11  C   LIG d   1      -7.419  72.653 117.416  0.00  0.00     0.028 C 
ATOM     12  C   LIG d   1      -6.942  71.627 116.376  0.00  0.00     0.006 C 
ENDBRANCH   8  11
ENDBRANCH   7   8
ENDBRANCH   1   7
BRANCH   6  13
ATOM     13  N   LIG d   1      -7.846  78.045 117.922  0.00  0.00    -0.311 N 
ATOM     14  C   LIG d   1      -7.782  78.561 119.148  0.00  0.00     0.210 C 
ATOM     15  C   LIG d   1      -9.036  79.318 119.597  0.00  0.00     0.109 C 
ATOM     16  O   LIG d   1      -6.794  78.491 119.894  0.00  0.00    -0.276 OA
ATOM     17  H   LIG d   1      -8.674  78.177 117.374  0.00  0.00     0.149 HD
ENDBRANCH   6  13
BRANCH   5  18
ATOM     18  N   LIG d   1      -5.108  79.172 117.171  0.00  0.00     0.381 N 
ATOM     19  H   LIG d   1      -4.197  79.307 116.779  0.00  0.00    -0.090 HD
ATOM     20  H   LIG d   1      -4.999  78.868 118.122  0.00  0.00    -0.090 HD
ATOM     21  H   LIG d   1      -5.619  80.027 117.144  0.00  0.00    -0.090 HD
ENDBRANCH   5  18
BRANCH   3  22
ATOM     22  C   LIG d   1      -4.673  75.608 114.002  0.00  0.00     0.382 C 
ATOM     23  O   LIG d   1      -4.236  76.384 113.118  0.00  0.00    -0.241 OA
ATOM     24  O   LIG d   1      -4.547  74.377 113.855  0.00  0.00    -0.241 OA
ENDBRANCH   3  22
TORSDOF 7
ENDMDL
MODEL 2
REMARK VINA RESULT:      -5.6     14.127     17.453
REMARK  7 active torsions:
REMARK  status: ('A' for Active; 'I' for Inactive)
REMARK    1  A    between atoms: C_2  and  C_3 
REMARK    2  A    between atoms: C_3  and  O_6 
REMARK    3  A    between atoms: C_3  and  C_4 
REMARK    4  A    between atoms: C_7  and  O_6 
REMARK    5  A    between atoms: C_9  and  C_10 
REMARK    6  A    between atoms: N_15  and  C_14 
REMARK    7  A    between atoms: N_20  and  C_19 
REMARK       I    between atoms: C_22  and  N_20 
ROOT
ATOM      1  C   LIG d   1      -6.008  92.424 118.583  0.00  0.00     0.161 C 
ATOM      2  C   LIG d   1      -4.964  92.999 119.327  0.00  0.00     0.016 C 
ATOM      3  C   LIG d   1      -3.613  92.597 119.212  0.00  0.00     0.038 C 
ATOM      4  C   LIG d   1      -3.191  91.691 118.229  0.00  0.00     0.028 C 
ATOM      5  C   LIG d   1      -4.279  90.714 117.797  0.00  0.00    -0.047 C 
ATOM      6  C   LIG d   1      -5.550  91.511 117.426  0.00  0.00     0.091 C 
ENDROOT
BRANCH   1   7
ATOM      7  O   LIG d   1      -6.883  93.457 118.090  0.00  0.00    -0.368 OA
BRANCH   7   8
ATOM      8  C   LIG d   1      -7.164  94.545 119.005  0.00  0.00     0.119 C 
BRANCH   8   9
ATOM      9  C   LIG d   1      -8.327  94.098 119.912  0.00  0.00     0.028 C 
ATOM     10  C   LIG d   1      -7.979  94.203 121.407  0.00  0.00     0.006 C 
ENDBRANCH   8   9
BRANCH   8  11
ATOM     11  C   LIG d   1      -7.682  95.779 118.260  0.00  0.00     0.028 C 
ATOM     12  C   LIG d   1      -7.058  97.088 118.771  0.00  0.00     0.006 C 
ENDBRANCH   8  11
ENDBRANCH   7   8
ENDBRANCH   1   7
BRANCH   6  13
ATOM     13  N   LIG d   1      -6.691  90.626 117.073  0.00  0.00    -0.311 N 
ATOM     14  C   LIG d   1      -6.929  90.194 115.836  0.00  0.00     0.210 C 
ATOM     15  C   LIG d   1      -8.169  89.308 115.687  0.00  0.00     0.109 C 
ATOM     16  O   LIG d   1      -6.211  90.435 114.853  0.00  0.00    -0.276 OA
ATOM     17  H   LIG d   1      -7.306  90.357 117.816  0.00  0.00     0.149 HD
ENDBRANCH   6  13
BRANCH   5  18
ATOM     18  N   LIG d   1      -3.746  89.920 116.675  0.00  0.00     0.381 N 
ATOM     19  H   LIG d   1      -4.216  89.037 116.631  0.00  0.00    -0.090 HD
ATOM     20  H   LIG d   1      -2.768  89.749 116.832  0.00  0.00    -0.090 HD
ATOM     21  H   LIG d   1      -3.871  90.413 115.818  0.00  0.00    -0.090 HD
ENDBRANCH   5  18
BRANCH   3  22
ATOM     22  C   LIG d   1      -2.675  93.075 120.114  0.00  0.00     0.382 C 
ATOM     23  O   LIG d   1      -3.024  93.872 121.019  0.00  0.00    -0.241 OA
ATOM     24  O   LIG d   1      -1.476  92.755 120.008  0.00  0.00    -0.241 OA
ENDBRANCH   3  22
TORSDOF 7
ENDMDL
MODEL 3
REMARK VINA RESULT:      -5.6      2.113      4.516
REMARK  7 active torsions:
REMARK  status: ('A' for Active; 'I' for Inactive)
REMARK    1  A    between atoms: C_2  and  C_3 
REMARK    2  A    between atoms: C_3  and  O_6 
REMARK    3  A    between atoms: C_3  and  C_4 
REMARK    4  A    between atoms: C_7  and  O_6 
REMARK    5  A    between atoms: C_9  and  C_10 
REMARK    6  A    between atoms: N_15  and  C_14 
REMARK    7  A    between atoms: N_20  and  C_19 
REMARK       I    between atoms: C_22  and  N_20 
ROOT
ATOM      1  C   LIG d   1      -6.277  76.104 117.474  0.00  0.00     0.161 C 
ATOM      2  C   LIG d   1      -7.160  75.079 117.094  0.00  0.00     0.016 C 
ATOM      3  C   LIG d   1      -8.557  75.260 116.974  0.00  0.00     0.038 C 
ATOM      4  C   LIG d   1      -9.152  76.525 117.080  0.00  0.00     0.028 C 
ATOM      5  C   LIG d   1      -8.367  77.493 117.958  0.00  0.00    -0.047 C 
ATOM      6  C   LIG d   1      -6.895  77.518 117.485  0.00  0.00     0.091 C 
ENDROOT
BRANCH   1   7
ATOM      7  O   LIG d   1      -5.106  76.076 116.635  0.00  0.00    -0.368 OA
BRANCH   7   8
ATOM      8  C   LIG d   1      -5.191  75.249 115.448  0.00  0.00     0.119 C 
BRANCH   8   9
ATOM      9  C   LIG d   1      -3.881  74.443 115.351  0.00  0.00     0.028 C 
ATOM     10  C   LIG d   1      -2.712  75.133 116.073  0.00  0.00     0.006 C 
ENDBRANCH   8   9
BRANCH   8  11
ATOM     11  C   LIG d   1      -5.237  76.102 114.177  0.00  0.00     0.028 C 
ATOM     12  C   LIG d   1      -6.662  76.278 113.629  0.00  0.00     0.006 C 
ENDBRANCH   8  11
ENDBRANCH   7   8
ENDBRANCH   1   7
BRANCH   6  13
ATOM     13  N   LIG d   1      -6.038  78.376 118.344  0.00  0.00    -0.311 N 
ATOM     14  C   LIG d   1      -5.793  79.660 118.086  0.00  0.00     0.210 C 
ATOM     15  C   LIG d   1      -4.868  80.356 119.089  0.00  0.00     0.109 C 
ATOM     16  O   LIG d   1      -6.281  80.296 117.140  0.00  0.00    -0.276 OA
ATOM     17  H   LIG d   1      -5.627  77.948 119.151  0.00  0.00     0.149 HD
ENDBRANCH   6  13
BRANCH   5  18
ATOM     18  N   LIG d   1      -9.025  78.810 117.869  0.00  0.00     0.381 N 
ATOM     19  H   LIG d   1      -9.789  78.764 117.226  0.00  0.00    -0.090 HD
ATOM     20  H   LIG d   1      -8.362  79.482 117.524  0.00  0.00    -0.090 HD
ATOM     21  H   LIG d   1      -9.354  79.088 118.768  0.00  0.00    -0.090 HD
ENDBRANCH   5  18
BRANCH   3  22
ATOM     22  C   LIG d   1      -9.378  74.159 116.784  0.00  0.00     0.382 C 
ATOM     23  O   LIG d   1      -8.892  73.003 116.805  0.00  0.00    -0.241 OA
ATOM     24  O   LIG d   1     -10.592  74.310 116.548  0.00  0.00    -0.241 OA
ENDBRANCH   3  22
TORSDOF 7
ENDMDL
MODEL 4
REMARK VINA RESULT:      -5.4      2.219      5.443
REMARK  7 active torsions:
REMARK  status: ('A' for Active; 'I' for Inactive)
REMARK    1  A    between atoms: C_2  and  C_3 
REMARK    2  A    between atoms: C_3  and  O_6 
REMARK    3  A    between atoms: C_3  and  C_4 
REMARK    4  A    between atoms: C_7  and  O_6 
REMARK    5  A    between atoms: C_9  and  C_10 
REMARK    6  A    between atoms: N_15  and  C_14 
REMARK    7  A    between atoms: N_20  and  C_19 
REMARK       I    between atoms: C_22  and  N_20 
ROOT
ATOM      1  C   LIG d   1      -7.164  76.999 116.792  0.00  0.00     0.161 C 
ATOM      2  C   LIG d   1      -8.182  76.068 117.058  0.00  0.00     0.016 C 
ATOM      3  C   LIG d   1      -8.048  74.680 116.825  0.00  0.00     0.038 C 
ATOM      4  C   LIG d   1      -6.824  74.106 116.449  0.00  0.00     0.028 C 
ATOM      5  C   LIG d   1      -5.916  75.064 115.685  0.00  0.00    -0.047 C 
ATOM      6  C   LIG d   1      -5.785  76.379 116.486  0.00  0.00     0.091 C 
ENDROOT
BRANCH   1   7
ATOM      7  O   LIG d   1      -7.062  77.936 117.882  0.00  0.00    -0.368 OA
BRANCH   7   8
ATOM      8  C   LIG d   1      -7.540  79.277 117.616  0.00  0.00     0.119 C 
BRANCH   8   9
ATOM      9  C   LIG d   1      -6.319  80.217 117.644  0.00  0.00     0.028 C 
ATOM     10  C   LIG d   1      -5.225  79.731 118.609  0.00  0.00     0.006 C 
ENDBRANCH   8   9
BRANCH   8  11
ATOM     11  C   LIG d   1      -8.459  79.774 118.736  0.00  0.00     0.028 C 
ATOM     12  C   LIG d   1      -9.700  78.888 118.925  0.00  0.00     0.006 C 
ENDBRANCH   8  11
ENDBRANCH   7   8
ENDBRANCH   1   7
BRANCH   6  13
ATOM     13  N   LIG d   1      -4.981  77.402 115.769  0.00  0.00    -0.311 N 
ATOM     14  C   LIG d   1      -3.676  77.582 115.969  0.00  0.00     0.210 C 
ATOM     15  C   LIG d   1      -3.044  78.705 115.141  0.00  0.00     0.109 C 
ATOM     16  O   LIG d   1      -2.976  76.898 116.731  0.00  0.00    -0.276 OA
ATOM     17  H   LIG d   1      -5.463  77.981 115.110  0.00  0.00     0.149 HD
ENDBRANCH   6  13
BRANCH   5  18
ATOM     18  N   LIG d   1      -4.624  74.382 115.476  0.00  0.00     0.381 N 
ATOM     19  H   LIG d   1      -4.772  73.397 115.383  0.00  0.00    -0.090 HD
ATOM     20  H   LIG d   1      -4.041  74.539 116.279  0.00  0.00    -0.090 HD
ATOM     21  H   LIG d   1      -4.179  74.737 114.659  0.00  0.00    -0.090 HD
ENDBRANCH   5  18
BRANCH   3  22
ATOM     22  C   LIG d   1      -9.157  73.855 116.929  0.00  0.00     0.382 C 
ATOM     23  O   LIG d   1     -10.282  74.266 116.554  0.00  0.00    -0.241 OA
ATOM     24  O   LIG d   1      -9.056  72.721 117.435  0.00  0.00    -0.241 OA
ENDBRANCH   3  22
TORSDOF 7
ENDMDL
MODEL 5
REMARK VINA RESULT:      -5.3     13.743     15.882
REMARK  7 active torsions:
REMARK  status: ('A' for Active; 'I' for Inactive)
REMARK    1  A    between atoms: C_2  and  C_3 
REMARK    2  A    between atoms: C_3  and  O_6 
REMARK    3  A    between atoms: C_3  and  C_4 
REMARK    4  A    between atoms: C_7  and  O_6 
REMARK    5  A    between atoms: C_9  and  C_10 
REMARK    6  A    between atoms: N_15  and  C_14 
REMARK    7  A    between atoms: N_20  and  C_19 
REMARK       I    between atoms: C_22  and  N_20 
ROOT
ATOM      1  C   LIG d   1      -3.707  90.900 118.258  0.00  0.00     0.161 C 
ATOM      2  C   LIG d   1      -4.233  90.181 117.172  0.00  0.00     0.016 C 
ATOM      3  C   LIG d   1      -5.409  90.560 116.485  0.00  0.00     0.038 C 
ATOM      4  C   LIG d   1      -6.059  91.776 116.742  0.00  0.00     0.028 C 
ATOM      5  C   LIG d   1      -5.853  92.284 118.165  0.00  0.00    -0.047 C 
ATOM      6  C   LIG d   1      -4.340  92.289 118.482  0.00  0.00     0.091 C 
ENDROOT
BRANCH   1   7
ATOM      7  O   LIG d   1      -2.277  91.017 118.119  0.00  0.00    -0.368 OA
BRANCH   7   8
ATOM      8  C   LIG d   1      -1.480  90.196 119.008  0.00  0.00     0.119 C 
BRANCH   8   9
ATOM      9  C   LIG d   1      -0.603  89.281 118.131  0.00  0.00     0.028 C 
ATOM     10  C   LIG d   1       0.024  90.032 116.944  0.00  0.00     0.006 C 
ENDBRANCH   8   9
BRANCH   8  11
ATOM     11  C   LIG d   1      -2.360  89.248 119.829  0.00  0.00     0.028 C 
ATOM     12  C   LIG d   1      -2.233  87.782 119.385  0.00  0.00     0.006 C 
ENDBRANCH   8  11
ENDBRANCH   7   8
ENDBRANCH   1   7
BRANCH   6  13
ATOM     13  N   LIG d   1      -4.055  92.693 119.883  0.00  0.00    -0.311 N 
ATOM     14  C   LIG d   1      -3.774  93.944 120.244  0.00  0.00     0.210 C 
ATOM     15  C   LIG d   1      -3.492  94.139 121.737  0.00  0.00     0.109 C 
ATOM     16  O   LIG d   1      -3.762  94.916 119.473  0.00  0.00    -0.276 OA
ATOM     17  H   LIG d   1      -4.074  91.972 120.578  0.00  0.00     0.149 HD
ENDBRANCH   6  13
BRANCH   5  18
ATOM     18  N   LIG d   1      -6.467  93.622 118.255  0.00  0.00     0.381 N 
ATOM     19  H   LIG d   1      -6.179  94.071 119.101  0.00  0.00    -0.090 HD
ATOM     20  H   LIG d   1      -7.466  93.520 118.276  0.00  0.00    -0.090 HD
ATOM     21  H   LIG d   1      -6.199  94.173 117.470  0.00  0.00    -0.090 HD
ENDBRANCH   5  18
BRANCH   3  22
ATOM     22  C   LIG d   1      -5.969  89.698 115.554  0.00  0.00     0.382 C 
ATOM     23  O   LIG d   1      -7.169  89.348 115.666  0.00  0.00    -0.241 OA
ATOM     24  O   LIG d   1      -5.278  89.232 114.629  0.00  0.00    -0.241 OA
ENDBRANCH   3  22
TORSDOF 7
ENDMDL
MODEL 6
REMARK VINA RESULT:      -5.1      2.284      4.718
REMARK  7 active torsions:
REMARK  status: ('A' for Active; 'I' for Inactive)
REMARK    1  A    between atoms: C_2  and  C_3 
REMARK    2  A    between atoms: C_3  and  O_6 
REMARK    3  A    between atoms: C_3  and  C_4 
REMARK    4  A    between atoms: C_7  and  O_6 
REMARK    5  A    between atoms: C_9  and  C_10 
REMARK    6  A    between atoms: N_15  and  C_14 
REMARK    7  A    between atoms: N_20  and  C_19 
REMARK       I    between atoms: C_22  and  N_20 
ROOT
ATOM      1  C   LIG d   1      -6.243  76.395 117.344  0.00  0.00     0.161 C 
ATOM      2  C   LIG d   1      -7.049  75.311 116.957  0.00  0.00     0.016 C 
ATOM      3  C   LIG d   1      -8.462  75.363 116.928  0.00  0.00     0.038 C 
ATOM      4  C   LIG d   1      -9.164  76.559 117.140  0.00  0.00     0.028 C 
ATOM      5  C   LIG d   1      -8.417  77.551 118.026  0.00  0.00    -0.047 C 
ATOM      6  C   LIG d   1      -6.987  77.741 117.471  0.00  0.00     0.091 C 
ENDROOT
BRANCH   1   7
ATOM      7  O   LIG d   1      -5.129  76.523 116.438  0.00  0.00    -0.368 OA
BRANCH   7   8
ATOM      8  C   LIG d   1      -3.822  76.229 116.991  0.00  0.00     0.119 C 
BRANCH   8   9
ATOM      9  C   LIG d   1      -3.017  77.543 116.998  0.00  0.00     0.028 C 
ATOM     10  C   LIG d   1      -3.415  78.482 115.847  0.00  0.00     0.006 C 
ENDBRANCH   8   9
BRANCH   8  11
ATOM     11  C   LIG d   1      -3.035  75.276 116.086  0.00  0.00     0.028 C 
ATOM     12  C   LIG d   1      -1.740  74.768 116.738  0.00  0.00     0.006 C 
ENDBRANCH   8  11
ENDBRANCH   7   8
ENDBRANCH   1   7
BRANCH   6  13
ATOM     13  N   LIG d   1      -6.161  78.632 118.327  0.00  0.00    -0.311 N 
ATOM     14  C   LIG d   1      -6.015  79.936 118.101  0.00  0.00     0.210 C 
ATOM     15  C   LIG d   1      -5.104  80.666 119.093  0.00  0.00     0.109 C 
ATOM     16  O   LIG d   1      -6.579  80.564 117.193  0.00  0.00    -0.276 OA
ATOM     17  H   LIG d   1      -5.692  78.211 119.105  0.00  0.00     0.149 HD
ENDBRANCH   6  13
BRANCH   5  18
ATOM     18  N   LIG d   1      -9.199  78.802 118.051  0.00  0.00     0.381 N 
ATOM     19  H   LIG d   1      -9.948  78.747 117.390  0.00  0.00    -0.090 HD
ATOM     20  H   LIG d   1      -8.600  79.564 117.786  0.00  0.00    -0.090 HD
ATOM     21  H   LIG d   1      -9.563  78.958 118.965  0.00  0.00    -0.090 HD
ENDBRANCH   5  18
BRANCH   3  22
ATOM     22  C   LIG d   1      -9.188  74.200 116.723  0.00  0.00     0.382 C 
ATOM     23  O   LIG d   1     -10.405  74.266 116.423  0.00  0.00    -0.241 OA
ATOM     24  O   LIG d   1      -8.654  73.086 116.879  0.00  0.00    -0.241 OA
ENDBRANCH   3  22
TORSDOF 7
ENDMDL
MODEL 7
REMARK VINA RESULT:      -5.0      2.523      4.909
REMARK  7 active torsions:
REMARK  status: ('A' for Active; 'I' for Inactive)
REMARK    1  A    between atoms: C_2  and  C_3 
REMARK    2  A    between atoms: C_3  and  O_6 
REMARK    3  A    between atoms: C_3  and  C_4 
REMARK    4  A    between atoms: C_7  and  O_6 
REMARK    5  A    between atoms: C_9  and  C_10 
REMARK    6  A    between atoms: N_15  and  C_14 
REMARK    7  A    between atoms: N_20  and  C_19 
REMARK       I    between atoms: C_22  and  N_20 
ROOT
ATOM      1  C   LIG d   1      -5.437  77.392 116.556  0.00  0.00     0.161 C 
ATOM      2  C   LIG d   1      -4.508  78.320 116.057  0.00  0.00     0.016 C 
ATOM      3  C   LIG d   1      -3.664  78.060 114.953  0.00  0.00     0.038 C 
ATOM      4  C   LIG d   1      -3.799  76.901 114.174  0.00  0.00     0.028 C 
ATOM      5  C   LIG d   1      -4.378  75.718 114.942  0.00  0.00    -0.047 C 
ATOM      6  C   LIG d   1      -5.677  76.166 115.650  0.00  0.00     0.091 C 
ENDROOT
BRANCH   1   7
ATOM      7  O   LIG d   1      -6.685  78.055 116.841  0.00  0.00    -0.368 OA
BRANCH   7   8
ATOM      8  C   LIG d   1      -6.766  78.740 118.116  0.00  0.00     0.119 C 
BRANCH   8   9
ATOM      9  C   LIG d   1      -7.564  77.837 119.076  0.00  0.00     0.028 C 
ATOM     10  C   LIG d   1      -6.656  76.900 119.890  0.00  0.00     0.006 C 
ENDBRANCH   8   9
BRANCH   8  11
ATOM     11  C   LIG d   1      -7.580  80.032 118.003  0.00  0.00     0.028 C 
ATOM     12  C   LIG d   1      -6.827  81.259 118.541  0.00  0.00     0.006 C 
ENDBRANCH   8  11
ENDBRANCH   7   8
ENDBRANCH   1   7
BRANCH   6  13
ATOM     13  N   LIG d   1      -6.263  75.092 116.493  0.00  0.00    -0.311 N 
ATOM     14  C   LIG d   1      -7.572  74.870 116.592  0.00  0.00     0.210 C 
ATOM     15  C   LIG d   1      -7.965  73.725 117.531  0.00  0.00     0.109 C 
ATOM     16  O   LIG d   1      -8.444  75.492 115.967  0.00  0.00    -0.276 OA
ATOM     17  H   LIG d   1      -5.625  74.519 117.010  0.00  0.00     0.149 HD
ENDBRANCH   6  13
BRANCH   5  18
ATOM     18  N   LIG d   1      -4.592  74.623 113.978  0.00  0.00     0.381 N 
ATOM     19  H   LIG d   1      -4.377  74.938 113.053  0.00  0.00    -0.090 HD
ATOM     20  H   LIG d   1      -5.560  74.354 114.002  0.00  0.00    -0.090 HD
ATOM     21  H   LIG d   1      -4.018  73.844 114.213  0.00  0.00    -0.090 HD
ENDBRANCH   5  18
BRANCH   3  22
ATOM     22  C   LIG d   1      -2.644  78.947 114.644  0.00  0.00     0.382 C 
ATOM     23  O   LIG d   1      -2.841  79.862 113.808  0.00  0.00    -0.241 OA
ATOM     24  O   LIG d   1      -1.516  78.816 115.157  0.00  0.00    -0.241 OA
ENDBRANCH   3  22
TORSDOF 7
ENDMDL
MODEL 8
REMARK VINA RESULT:      -5.0     14.382     16.374
REMARK  7 active torsions:
REMARK  status: ('A' for Active; 'I' for Inactive)
REMARK    1  A    between atoms: C_2  and  C_3 
REMARK    2  A    between atoms: C_3  and  O_6 
REMARK    3  A    between atoms: C_3  and  C_4 
REMARK    4  A    between atoms: C_7  and  O_6 
REMARK    5  A    between atoms: C_9  and  C_10 
REMARK    6  A    between atoms: N_15  and  C_14 
REMARK    7  A    between atoms: N_20  and  C_19 
REMARK       I    between atoms: C_22  and  N_20 
ROOT
ATOM      1  C   LIG d   1      -5.244  91.959 118.246  0.00  0.00     0.161 C 
ATOM      2  C   LIG d   1      -6.109  91.899 117.141  0.00  0.00     0.016 C 
ATOM      3  C   LIG d   1      -5.941  90.991 116.070  0.00  0.00     0.038 C 
ATOM      4  C   LIG d   1      -4.977  89.973 116.105  0.00  0.00     0.028 C 
ATOM      5  C   LIG d   1      -3.765  90.317 116.965  0.00  0.00    -0.047 C 
ATOM      6  C   LIG d   1      -4.252  90.783 118.356  0.00  0.00     0.091 C 
ENDROOT
BRANCH   1   7
ATOM      7  O   LIG d   1      -6.011  92.083 119.461  0.00  0.00    -0.368 OA
BRANCH   7   8
ATOM      8  C   LIG d   1      -6.493  93.411 119.778  0.00  0.00     0.119 C 
BRANCH   8   9
ATOM      9  C   LIG d   1      -5.277  94.357 119.781  0.00  0.00     0.028 C 
ATOM     10  C   LIG d   1      -5.651  95.794 120.181  0.00  0.00     0.006 C 
ENDBRANCH   8   9
BRANCH   8  11
ATOM     11  C   LIG d   1      -7.059  93.474 121.199  0.00  0.00     0.028 C 
ATOM     12  C   LIG d   1      -7.231  92.085 121.834  0.00  0.00     0.006 C 
ENDBRANCH   8  11
ENDBRANCH   7   8
ENDBRANCH   1   7
BRANCH   6  13
ATOM     13  N   LIG d   1      -3.133  91.218 119.231  0.00  0.00    -0.311 N 
ATOM     14  C   LIG d   1      -2.468  90.392 120.037  0.00  0.00     0.210 C 
ATOM     15  C   LIG d   1      -1.363  91.050 120.870  0.00  0.00     0.109 C 
ATOM     16  O   LIG d   1      -2.667  89.171 120.118  0.00  0.00    -0.276 OA
ATOM     17  H   LIG d   1      -2.884  92.188 119.205  0.00  0.00     0.149 HD
ENDBRANCH   6  13
BRANCH   5  18
ATOM     18  N   LIG d   1      -2.907  89.118 117.024  0.00  0.00     0.381 N 
ATOM     19  H   LIG d   1      -2.992  88.685 117.921  0.00  0.00    -0.090 HD
ATOM     20  H   LIG d   1      -1.949  89.398 116.899  0.00  0.00    -0.090 HD
ATOM     21  H   LIG d   1      -3.169  88.475 116.310  0.00  0.00    -0.090 HD
ENDBRANCH   5  18
BRANCH   3  22
ATOM     22  C   LIG d   1      -6.719  91.123 114.930  0.00  0.00     0.382 C 
ATOM     23  O   LIG d   1      -7.559  90.237 114.639  0.00  0.00    -0.241 OA
ATOM     24  O   LIG d   1      -6.560  92.093 114.165  0.00  0.00    -0.241 OA
ENDBRANCH   3  22
TORSDOF 7
ENDMDL
MODEL 9
REMARK VINA RESULT:      -4.9      2.388      2.788
REMARK  7 active torsions:
REMARK  status: ('A' for Active; 'I' for Inactive)
REMARK    1  A    between atoms: C_2  and  C_3 
REMARK    2  A    between atoms: C_3  and  O_6 
REMARK    3  A    between atoms: C_3  and  C_4 
REMARK    4  A    between atoms: C_7  and  O_6 
REMARK    5  A    between atoms: C_9  and  C_10 
REMARK    6  A    between atoms: N_15  and  C_14 
REMARK    7  A    between atoms: N_20  and  C_19 
REMARK       I    between atoms: C_22  and  N_20 
ROOT
ATOM      1  C   LIG d   1      -5.261  76.345 117.071  0.00  0.00     0.161 C 
ATOM      2  C   LIG d   1      -4.253  75.575 116.468  0.00  0.00     0.016 C 
ATOM      3  C   LIG d   1      -2.873  75.793 116.683  0.00  0.00     0.038 C 
ATOM      4  C   LIG d   1      -2.407  76.705 117.641  0.00  0.00     0.028 C 
ATOM      5  C   LIG d   1      -3.374  77.854 117.904  0.00  0.00    -0.047 C 
ATOM      6  C   LIG d   1      -4.774  77.273 118.205  0.00  0.00     0.091 C 
ENDROOT
BRANCH   1   7
ATOM      7  O   LIG d   1      -6.315  75.485 117.546  0.00  0.00    -0.368 OA
BRANCH   7   8
ATOM      8  C   LIG d   1      -7.182  74.921 116.531  0.00  0.00     0.119 C 
BRANCH   8   9
ATOM      9  C   LIG d   1      -8.067  76.061 115.992  0.00  0.00     0.028 C 
ATOM     10  C   LIG d   1      -8.900  76.732 117.097  0.00  0.00     0.006 C 
ENDBRANCH   8   9
BRANCH   8  11
ATOM     11  C   LIG d   1      -8.156  73.903 117.134  0.00  0.00     0.028 C 
ATOM     12  C   LIG d   1      -7.645  72.457 117.031  0.00  0.00     0.006 C 
ENDBRANCH   8  11
ENDBRANCH   7   8
ENDBRANCH   1   7
BRANCH   6  13
ATOM     13  N   LIG d   1      -5.800  78.332 118.391  0.00  0.00    -0.311 N 
ATOM     14  C   LIG d   1      -6.082  79.249 117.468  0.00  0.00     0.210 C 
ATOM     15  C   LIG d   1      -7.159  80.262 117.871  0.00  0.00     0.109 C 
ATOM     16  O   LIG d   1      -5.566  79.301 116.341  0.00  0.00    -0.276 OA
ATOM     17  H   LIG d   1      -6.289  78.344 119.264  0.00  0.00     0.149 HD
ENDBRANCH   6  13
BRANCH   5  18
ATOM     18  N   LIG d   1      -2.827  78.651 119.018  0.00  0.00     0.381 N 
ATOM     19  H   LIG d   1      -2.182  79.329 118.665  0.00  0.00    -0.090 HD
ATOM     20  H   LIG d   1      -2.332  78.039 119.643  0.00  0.00    -0.090 HD
ATOM     21  H   LIG d   1      -3.566  79.108 119.506  0.00  0.00    -0.090 HD
ENDBRANCH   5  18
BRANCH   3  22
ATOM     22  C   LIG d   1      -1.942  75.120 115.905  0.00  0.00     0.382 C 
ATOM     23  O   LIG d   1      -1.094  74.372 116.449  0.00  0.00    -0.241 OA
ATOM     24  O   LIG d   1      -1.910  75.287 114.672  0.00  0.00    -0.241 OA
ENDBRANCH   3  22
TORSDOF 7
ENDMDL
