MODEL 1
REMARK VINA RESULT:      -5.8      0.000      0.000
REMARK  7 active torsions:
REMARK  status: ('A' for Active; 'I' for Inactive)
REMARK    1  A    between atoms: C_2  and  C_3 
REMARK    2  A    between atoms: C_3  and  O_6 
REMARK    3  A    between atoms: C_3  and  C_4 
REMARK    4  A    between atoms: C_7  and  O_6 
REMARK    5  A    between atoms: C_9  and  C_10 
REMARK    6  A    between atoms: N_15  and  C_14 
REMARK    7  A    between atoms: N_20  and  C_19 
REMARK       I    between atoms: C_22  and  N_20 
ROOT
ATOM      1  C   LIG d   1      -2.682  77.482 116.228  0.00  0.00     0.161 C 
ATOM      2  C   LIG d   1      -3.006  78.369 115.189  0.00  0.00     0.016 C 
ATOM      3  C   LIG d   1      -2.252  78.483 113.999  0.00  0.00     0.038 C 
ATOM      4  C   LIG d   1      -1.201  77.603 113.700  0.00  0.00     0.028 C 
ATOM      5  C   LIG d   1      -0.523  77.027 114.939  0.00  0.00    -0.047 C 
ATOM      6  C   LIG d   1      -1.604  76.436 115.873  0.00  0.00     0.091 C 
ENDROOT
BRANCH   1   7
ATOM      7  O   LIG d   1      -3.876  76.829 116.704  0.00  0.00    -0.368 OA
BRANCH   7   8
ATOM      8  C   LIG d   1      -5.016  76.855 115.811  0.00  0.00     0.119 C 
BRANCH   8   9
ATOM      9  C   LIG d   1      -6.259  77.193 116.656  0.00  0.00     0.028 C 
ATOM     10  C   LIG d   1      -6.098  78.508 117.437  0.00  0.00     0.006 C 
ENDBRANCH   8   9
BRANCH   8  11
ATOM     11  C   LIG d   1      -5.292  75.470 115.219  0.00  0.00     0.028 C 
ATOM     12  C   LIG d   1      -6.600  75.416 114.415  0.00  0.00     0.006 C 
ENDBRANCH   8  11
ENDBRANCH   7   8
ENDBRANCH   1   7
BRANCH   6  13
ATOM     13  N   LIG d   1      -1.034  75.926 117.148  0.00  0.00    -0.311 N 
ATOM     14  C   LIG d   1      -1.315  74.724 117.647  0.00  0.00     0.210 C 
ATOM     15  C   LIG d   1      -0.637  74.404 118.982  0.00  0.00     0.109 C 
ATOM     16  O   LIG d   1      -2.035  73.879 117.094  0.00  0.00    -0.276 OA
ATOM     17  H   LIG d   1      -0.415  76.535 117.646  0.00  0.00     0.149 HD
ENDBRANCH   6  13
BRANCH   5  18
ATOM     18  N   LIG d   1       0.458  76.024 114.484  0.00  0.00     0.381 N 
ATOM     19  H   LIG d   1       0.126  75.577 113.653  0.00  0.00    -0.090 HD
ATOM     20  H   LIG d   1       0.563  75.324 115.197  0.00  0.00    -0.090 HD
ATOM     21  H   LIG d   1       1.335  76.461 114.306  0.00  0.00    -0.090 HD
ENDBRANCH   5  18
BRANCH   3  22
ATOM     22  C   LIG d   1      -2.522  79.512 113.110  0.00  0.00     0.382 C 
ATOM     23  O   LIG d   1      -2.084  79.457 111.935  0.00  0.00    -0.241 OA
ATOM     24  O   LIG d   1      -3.160  80.516 113.480  0.00  0.00    -0.241 OA
ENDBRANCH   3  22
TORSDOF 7
ENDMDL
MODEL 2
REMARK VINA RESULT:      -5.6      4.755      6.772
REMARK  7 active torsions:
REMARK  status: ('A' for Active; 'I' for Inactive)
REMARK    1  A    between atoms: C_2  and  C_3 
REMARK    2  A    between atoms: C_3  and  O_6 
REMARK    3  A    between atoms: C_3  and  C_4 
REMARK    4  A    between atoms: C_7  and  O_6 
REMARK    5  A    between atoms: C_9  and  C_10 
REMARK    6  A    between atoms: N_15  and  C_14 
REMARK    7  A    between atoms: N_20  and  C_19 
REMARK       I    between atoms: C_22  and  N_20 
ROOT
ATOM      1  C   LIG d   1      -6.726  77.613 117.465  0.00  0.00     0.161 C 
ATOM      2  C   LIG d   1      -5.982  77.155 116.365  0.00  0.00     0.016 C 
ATOM      3  C   LIG d   1      -6.428  76.133 115.495  0.00  0.00     0.038 C 
ATOM      4  C   LIG d   1      -7.723  75.601 115.579  0.00  0.00     0.028 C 
ATOM      5  C   LIG d   1      -8.318  75.674 116.981  0.00  0.00    -0.047 C 
ATOM      6  C   LIG d   1      -8.188  77.122 117.507  0.00  0.00     0.091 C 
ENDROOT
BRANCH   1   7
ATOM      7  O   LIG d   1      -6.679  79.052 117.522  0.00  0.00    -0.368 OA
BRANCH   7   8
ATOM      8  C   LIG d   1      -5.874  79.622 118.584  0.00  0.00     0.119 C 
BRANCH   8   9
ATOM      9  C   LIG d   1      -5.474  78.473 119.529  0.00  0.00     0.028 C 
ATOM     10  C   LIG d   1      -6.030  78.662 120.951  0.00  0.00     0.006 C 
ENDBRANCH   8   9
BRANCH   8  11
ATOM     11  C   LIG d   1      -6.692  80.589 119.445  0.00  0.00     0.028 C 
ATOM     12  C   LIG d   1      -7.745  81.362 118.636  0.00  0.00     0.006 C 
ENDBRANCH   8  11
ENDBRANCH   7   8
ENDBRANCH   1   7
BRANCH   6  13
ATOM     13  N   LIG d   1      -8.670  77.262 118.906  0.00  0.00    -0.311 N 
ATOM     14  C   LIG d   1      -9.641  78.099 119.266  0.00  0.00     0.210 C 
ATOM     15  C   LIG d   1      -9.971  78.102 120.762  0.00  0.00     0.109 C 
ATOM     16  O   LIG d   1     -10.284  78.816 118.484  0.00  0.00    -0.276 OA
ATOM     17  H   LIG d   1      -8.225  76.695 119.601  0.00  0.00     0.149 HD
ENDBRANCH   6  13
BRANCH   5  18
ATOM     18  N   LIG d   1      -9.717  75.213 116.896  0.00  0.00     0.381 N 
ATOM     19  H   LIG d   1      -9.748  74.214 116.936  0.00  0.00    -0.090 HD
ATOM     20  H   LIG d   1     -10.103  75.506 116.016  0.00  0.00    -0.090 HD
ATOM     21  H   LIG d   1     -10.249  75.599 117.645  0.00  0.00    -0.090 HD
ENDBRANCH   5  18
BRANCH   3  22
ATOM     22  C   LIG d   1      -5.559  75.606 114.552  0.00  0.00     0.382 C 
ATOM     23  O   LIG d   1      -5.537  76.074 113.388  0.00  0.00    -0.241 OA
ATOM     24  O   LIG d   1      -4.829  74.638 114.838  0.00  0.00    -0.241 OA
ENDBRANCH   3  22
TORSDOF 7
ENDMDL
MODEL 3
REMARK VINA RESULT:      -5.5     12.986     15.105
REMARK  7 active torsions:
REMARK  status: ('A' for Active; 'I' for Inactive)
REMARK    1  A    between atoms: C_2  and  C_3 
REMARK    2  A    between atoms: C_3  and  O_6 
REMARK    3  A    between atoms: C_3  and  C_4 
REMARK    4  A    between atoms: C_7  and  O_6 
REMARK    5  A    between atoms: C_9  and  C_10 
REMARK    6  A    between atoms: N_15  and  C_14 
REMARK    7  A    between atoms: N_20  and  C_19 
REMARK       I    between atoms: C_22  and  N_20 
ROOT
ATOM      1  C   LIG d   1      -4.169  90.845 117.497  0.00  0.00     0.161 C 
ATOM      2  C   LIG d   1      -4.591  90.182 116.333  0.00  0.00     0.016 C 
ATOM      3  C   LIG d   1      -5.658  90.634 115.523  0.00  0.00     0.038 C 
ATOM      4  C   LIG d   1      -6.282  91.872 115.742  0.00  0.00     0.028 C 
ATOM      5  C   LIG d   1      -6.228  92.329 117.195  0.00  0.00    -0.047 C 
ATOM      6  C   LIG d   1      -4.765  92.256 117.690  0.00  0.00     0.091 C 
ENDROOT
BRANCH   1   7
ATOM      7  O   LIG d   1      -2.729  90.900 117.533  0.00  0.00    -0.368 OA
BRANCH   7   8
ATOM      8  C   LIG d   1      -2.090  90.162 118.603  0.00  0.00     0.119 C 
BRANCH   8   9
ATOM      9  C   LIG d   1      -1.212  89.074 117.955  0.00  0.00     0.028 C 
ATOM     10  C   LIG d   1      -2.014  87.813 117.589  0.00  0.00     0.006 C 
ENDBRANCH   8   9
BRANCH   8  11
ATOM     11  C   LIG d   1      -3.118  89.403 119.448  0.00  0.00     0.028 C 
ATOM     12  C   LIG d   1      -3.059  89.779 120.937  0.00  0.00     0.006 C 
ENDBRANCH   8  11
ENDBRANCH   7   8
ENDBRANCH   1   7
BRANCH   6  13
ATOM     13  N   LIG d   1      -4.635  92.606 119.128  0.00  0.00    -0.311 N 
ATOM     14  C   LIG d   1      -3.746  93.483 119.591  0.00  0.00     0.210 C 
ATOM     15  C   LIG d   1      -3.765  93.683 121.110  0.00  0.00     0.109 C 
ATOM     16  O   LIG d   1      -2.964  94.138 118.885  0.00  0.00    -0.276 OA
ATOM     17  H   LIG d   1      -5.251  92.144 119.768  0.00  0.00     0.149 HD
ENDBRANCH   6  13
BRANCH   5  18
ATOM     18  N   LIG d   1      -6.791  93.691 117.255  0.00  0.00     0.381 N 
ATOM     19  H   LIG d   1      -6.050  94.364 117.263  0.00  0.00    -0.090 HD
ATOM     20  H   LIG d   1      -7.314  93.789 118.108  0.00  0.00    -0.090 HD
ATOM     21  H   LIG d   1      -7.385  93.849 116.472  0.00  0.00    -0.090 HD
ENDBRANCH   5  18
BRANCH   3  22
ATOM     22  C   LIG d   1      -6.138  89.826 114.504  0.00  0.00     0.382 C 
ATOM     23  O   LIG d   1      -5.495  88.807 114.156  0.00  0.00    -0.241 OA
ATOM     24  O   LIG d   1      -7.184  90.127 113.898  0.00  0.00    -0.241 OA
ENDBRANCH   3  22
TORSDOF 7
ENDMDL
MODEL 4
REMARK VINA RESULT:      -5.3     13.621     15.667
REMARK  7 active torsions:
REMARK  status: ('A' for Active; 'I' for Inactive)
REMARK    1  A    between atoms: C_2  and  C_3 
REMARK    2  A    between atoms: C_3  and  O_6 
REMARK    3  A    between atoms: C_3  and  C_4 
REMARK    4  A    between atoms: C_7  and  O_6 
REMARK    5  A    between atoms: C_9  and  C_10 
REMARK    6  A    between atoms: N_15  and  C_14 
REMARK    7  A    between atoms: N_20  and  C_19 
REMARK       I    between atoms: C_22  and  N_20 
ROOT
ATOM      1  C   LIG d   1      -5.287  92.501 117.162  0.00  0.00     0.161 C 
ATOM      2  C   LIG d   1      -6.372  91.657 116.874  0.00  0.00     0.016 C 
ATOM      3  C   LIG d   1      -6.233  90.275 116.607  0.00  0.00     0.038 C 
ATOM      4  C   LIG d   1      -5.007  89.610 116.760  0.00  0.00     0.028 C 
ATOM      5  C   LIG d   1      -3.797  90.516 116.556  0.00  0.00    -0.047 C 
ATOM      6  C   LIG d   1      -3.956  91.772 117.442  0.00  0.00     0.091 C 
ENDROOT
BRANCH   1   7
ATOM      7  O   LIG d   1      -5.623  93.371 118.262  0.00  0.00    -0.368 OA
BRANCH   7   8
ATOM      8  C   LIG d   1      -6.486  92.807 119.280  0.00  0.00     0.119 C 
BRANCH   8   9
ATOM      9  C   LIG d   1      -7.518  93.885 119.661  0.00  0.00     0.028 C 
ATOM     10  C   LIG d   1      -7.566  95.038 118.644  0.00  0.00     0.006 C 
ENDBRANCH   8   9
BRANCH   8  11
ATOM     11  C   LIG d   1      -5.711  92.514 120.567  0.00  0.00     0.028 C 
ATOM     12  C   LIG d   1      -4.493  93.433 120.752  0.00  0.00     0.006 C 
ENDBRANCH   8  11
ENDBRANCH   7   8
ENDBRANCH   1   7
BRANCH   6  13
ATOM     13  N   LIG d   1      -2.856  92.751 117.241  0.00  0.00    -0.311 N 
ATOM     14  C   LIG d   1      -1.782  92.819 118.026  0.00  0.00     0.210 C 
ATOM     15  C   LIG d   1      -0.777  93.914 117.654  0.00  0.00     0.109 C 
ATOM     16  O   LIG d   1      -1.551  92.056 118.976  0.00  0.00    -0.276 OA
ATOM     17  H   LIG d   1      -2.947  93.388 116.474  0.00  0.00     0.149 HD
ENDBRANCH   6  13
BRANCH   5  18
ATOM     18  N   LIG d   1      -2.592  89.729 116.880  0.00  0.00     0.381 N 
ATOM     19  H   LIG d   1      -1.857  89.957 116.241  0.00  0.00    -0.090 HD
ATOM     20  H   LIG d   1      -2.806  88.752 116.779  0.00  0.00    -0.090 HD
ATOM     21  H   LIG d   1      -2.302  89.918 117.813  0.00  0.00    -0.090 HD
ENDBRANCH   5  18
BRANCH   3  22
ATOM     22  C   LIG d   1      -7.322  89.552 116.143  0.00  0.00     0.382 C 
ATOM     23  O   LIG d   1      -7.563  89.502 114.913  0.00  0.00    -0.241 OA
ATOM     24  O   LIG d   1      -8.091  88.987 116.943  0.00  0.00    -0.241 OA
ENDBRANCH   3  22
TORSDOF 7
ENDMDL
MODEL 5
REMARK VINA RESULT:      -5.1     13.262     15.045
REMARK  7 active torsions:
REMARK  status: ('A' for Active; 'I' for Inactive)
REMARK    1  A    between atoms: C_2  and  C_3 
REMARK    2  A    between atoms: C_3  and  O_6 
REMARK    3  A    between atoms: C_3  and  C_4 
REMARK    4  A    between atoms: C_7  and  O_6 
REMARK    5  A    between atoms: C_9  and  C_10 
REMARK    6  A    between atoms: N_15  and  C_14 
REMARK    7  A    between atoms: N_20  and  C_19 
REMARK       I    between atoms: C_22  and  N_20 
ROOT
ATOM      1  C   LIG d   1      -5.177  91.677 117.977  0.00  0.00     0.161 C 
ATOM      2  C   LIG d   1      -5.940  91.720 116.798  0.00  0.00     0.016 C 
ATOM      3  C   LIG d   1      -5.772  90.810 115.729  0.00  0.00     0.038 C 
ATOM      4  C   LIG d   1      -4.928  89.694 115.831  0.00  0.00     0.028 C 
ATOM      5  C   LIG d   1      -3.770  89.898 116.802  0.00  0.00    -0.047 C 
ATOM      6  C   LIG d   1      -4.329  90.400 118.152  0.00  0.00     0.091 C 
ENDROOT
BRANCH   1   7
ATOM      7  O   LIG d   1      -6.034  91.870 119.120  0.00  0.00    -0.368 OA
BRANCH   7   8
ATOM      8  C   LIG d   1      -5.976  93.176 119.746  0.00  0.00     0.119 C 
BRANCH   8   9
ATOM      9  C   LIG d   1      -7.191  93.982 119.248  0.00  0.00     0.028 C 
ATOM     10  C   LIG d   1      -6.781  95.198 118.401  0.00  0.00     0.006 C 
ENDBRANCH   8   9
BRANCH   8  11
ATOM     11  C   LIG d   1      -4.748  93.964 119.281  0.00  0.00     0.028 C 
ATOM     12  C   LIG d   1      -3.695  94.135 120.387  0.00  0.00     0.006 C 
ENDBRANCH   8  11
ENDBRANCH   7   8
ENDBRANCH   1   7
BRANCH   6  13
ATOM     13  N   LIG d   1      -3.254  90.705 119.133  0.00  0.00    -0.311 N 
ATOM     14  C   LIG d   1      -2.796  89.821 120.017  0.00  0.00     0.210 C 
ATOM     15  C   LIG d   1      -1.700  90.347 120.949  0.00  0.00     0.109 C 
ATOM     16  O   LIG d   1      -3.171  88.642 120.097  0.00  0.00    -0.276 OA
ATOM     17  H   LIG d   1      -2.871  91.630 119.117  0.00  0.00     0.149 HD
ENDBRANCH   6  13
BRANCH   5  18
ATOM     18  N   LIG d   1      -3.052  88.614 116.915  0.00  0.00     0.381 N 
ATOM     19  H   LIG d   1      -2.069  88.765 116.802  0.00  0.00    -0.090 HD
ATOM     20  H   LIG d   1      -3.363  88.002 116.181  0.00  0.00    -0.090 HD
ATOM     21  H   LIG d   1      -3.232  88.199 117.802  0.00  0.00    -0.090 HD
ENDBRANCH   5  18
BRANCH   3  22
ATOM     22  C   LIG d   1      -6.425  91.034 114.527  0.00  0.00     0.382 C 
ATOM     23  O   LIG d   1      -7.045  90.099 113.966  0.00  0.00    -0.241 OA
ATOM     24  O   LIG d   1      -6.365  92.149 113.974  0.00  0.00    -0.241 OA
ENDBRANCH   3  22
TORSDOF 7
ENDMDL
MODEL 6
REMARK VINA RESULT:      -4.9      2.688      4.540
REMARK  7 active torsions:
REMARK  status: ('A' for Active; 'I' for Inactive)
REMARK    1  A    between atoms: C_2  and  C_3 
REMARK    2  A    between atoms: C_3  and  O_6 
REMARK    3  A    between atoms: C_3  and  C_4 
REMARK    4  A    between atoms: C_7  and  O_6 
REMARK    5  A    between atoms: C_9  and  C_10 
REMARK    6  A    between atoms: N_15  and  C_14 
REMARK    7  A    between atoms: N_20  and  C_19 
REMARK       I    between atoms: C_22  and  N_20 
ROOT
ATOM      1  C   LIG d   1      -4.111  77.896 117.487  0.00  0.00     0.161 C 
ATOM      2  C   LIG d   1      -3.165  78.613 118.239  0.00  0.00     0.016 C 
ATOM      3  C   LIG d   1      -1.773  78.557 117.995  0.00  0.00     0.038 C 
ATOM      4  C   LIG d   1      -1.242  77.895 116.878  0.00  0.00     0.028 C 
ATOM      5  C   LIG d   1      -2.114  76.745 116.385  0.00  0.00    -0.047 C 
ATOM      6  C   LIG d   1      -3.560  77.256 116.196  0.00  0.00     0.091 C 
ENDROOT
BRANCH   1   7
ATOM      7  O   LIG d   1      -5.238  78.743 117.186  0.00  0.00    -0.368 OA
BRANCH   7   8
ATOM      8  C   LIG d   1      -6.340  78.695 118.125  0.00  0.00     0.119 C 
BRANCH   8   9
ATOM      9  C   LIG d   1      -7.260  77.535 117.700  0.00  0.00     0.028 C 
ATOM     10  C   LIG d   1      -8.331  77.217 118.758  0.00  0.00     0.006 C 
ENDBRANCH   8   9
BRANCH   8  11
ATOM     11  C   LIG d   1      -7.206  79.955 118.032  0.00  0.00     0.028 C 
ATOM     12  C   LIG d   1      -6.983  80.921 119.206  0.00  0.00     0.006 C 
ENDBRANCH   8  11
ENDBRANCH   7   8
ENDBRANCH   1   7
BRANCH   6  13
ATOM     13  N   LIG d   1      -4.497  76.174 115.796  0.00  0.00    -0.311 N 
ATOM     14  C   LIG d   1      -4.803  75.901 114.528  0.00  0.00     0.210 C 
ATOM     15  C   LIG d   1      -5.804  74.758 114.337  0.00  0.00     0.109 C 
ATOM     16  O   LIG d   1      -4.315  76.476 113.543  0.00  0.00    -0.276 OA
ATOM     17  H   LIG d   1      -4.914  75.637 116.530  0.00  0.00     0.149 HD
ENDBRANCH   6  13
BRANCH   5  18
ATOM     18  N   LIG d   1      -1.514  76.233 115.139  0.00  0.00     0.381 N 
ATOM     19  H   LIG d   1      -2.092  75.513 114.755  0.00  0.00    -0.090 HD
ATOM     20  H   LIG d   1      -0.615  75.837 115.350  0.00  0.00    -0.090 HD
ATOM     21  H   LIG d   1      -1.411  76.974 114.480  0.00  0.00    -0.090 HD
ENDBRANCH   5  18
BRANCH   3  22
ATOM     22  C   LIG d   1      -0.894  79.136 118.897  0.00  0.00     0.382 C 
ATOM     23  O   LIG d   1      -0.334  80.223 118.617  0.00  0.00    -0.241 OA
ATOM     24  O   LIG d   1      -0.619  78.564 119.969  0.00  0.00    -0.241 OA
ENDBRANCH   3  22
TORSDOF 7
ENDMDL
MODEL 7
REMARK VINA RESULT:      -4.9      2.906      4.067
REMARK  7 active torsions:
REMARK  status: ('A' for Active; 'I' for Inactive)
REMARK    1  A    between atoms: C_2  and  C_3 
REMARK    2  A    between atoms: C_3  and  O_6 
REMARK    3  A    between atoms: C_3  and  C_4 
REMARK    4  A    between atoms: C_7  and  O_6 
REMARK    5  A    between atoms: C_9  and  C_10 
REMARK    6  A    between atoms: N_15  and  C_14 
REMARK    7  A    between atoms: N_20  and  C_19 
REMARK       I    between atoms: C_22  and  N_20 
ROOT
ATOM      1  C   LIG d   1      -4.696  77.856 116.906  0.00  0.00     0.161 C 
ATOM      2  C   LIG d   1      -5.457  77.025 116.066  0.00  0.00     0.016 C 
ATOM      3  C   LIG d   1      -4.916  75.925 115.362  0.00  0.00     0.038 C 
ATOM      4  C   LIG d   1      -3.599  75.488 115.569  0.00  0.00     0.028 C 
ATOM      5  C   LIG d   1      -2.656  76.597 116.022  0.00  0.00    -0.047 C 
ATOM      6  C   LIG d   1      -3.284  77.327 117.231  0.00  0.00     0.091 C 
ENDROOT
BRANCH   1   7
ATOM      7  O   LIG d   1      -5.424  78.120 118.122  0.00  0.00    -0.368 OA
BRANCH   7   8
ATOM      8  C   LIG d   1      -6.797  78.557 117.961  0.00  0.00     0.119 C 
BRANCH   8   9
ATOM      9  C   LIG d   1      -6.873  80.025 118.423  0.00  0.00     0.028 C 
ATOM     10  C   LIG d   1      -8.182  80.708 117.994  0.00  0.00     0.006 C 
ENDBRANCH   8   9
BRANCH   8  11
ATOM     11  C   LIG d   1      -7.739  77.789 118.893  0.00  0.00     0.028 C 
ATOM     12  C   LIG d   1      -8.577  76.734 118.155  0.00  0.00     0.006 C 
ENDBRANCH   8  11
ENDBRANCH   7   8
ENDBRANCH   1   7
BRANCH   6  13
ATOM     13  N   LIG d   1      -2.465  78.482 117.684  0.00  0.00    -0.311 N 
ATOM     14  C   LIG d   1      -1.949  78.579 118.908  0.00  0.00     0.210 C 
ATOM     15  C   LIG d   1      -1.153  79.861 119.174  0.00  0.00     0.109 C 
ATOM     16  O   LIG d   1      -2.047  77.712 119.788  0.00  0.00    -0.276 OA
ATOM     17  H   LIG d   1      -2.309  79.217 117.023  0.00  0.00     0.149 HD
ENDBRANCH   6  13
BRANCH   5  18
ATOM     18  N   LIG d   1      -1.354  75.977 116.333  0.00  0.00     0.381 N 
ATOM     19  H   LIG d   1      -0.943  76.432 117.123  0.00  0.00    -0.090 HD
ATOM     20  H   LIG d   1      -0.741  76.095 115.545  0.00  0.00    -0.090 HD
ATOM     21  H   LIG d   1      -1.476  75.007 116.525  0.00  0.00    -0.090 HD
ENDBRANCH   5  18
BRANCH   3  22
ATOM     22  C   LIG d   1      -5.684  75.275 114.408  0.00  0.00     0.382 C 
ATOM     23  O   LIG d   1      -5.911  75.826 113.304  0.00  0.00    -0.241 OA
ATOM     24  O   LIG d   1      -6.189  74.163 114.654  0.00  0.00    -0.241 OA
ENDBRANCH   3  22
TORSDOF 7
ENDMDL
MODEL 8
REMARK VINA RESULT:      -4.9     14.328     16.230
REMARK  7 active torsions:
REMARK  status: ('A' for Active; 'I' for Inactive)
REMARK    1  A    between atoms: C_2  and  C_3 
REMARK    2  A    between atoms: C_3  and  O_6 
REMARK    3  A    between atoms: C_3  and  C_4 
REMARK    4  A    between atoms: C_7  and  O_6 
REMARK    5  A    between atoms: C_9  and  C_10 
REMARK    6  A    between atoms: N_15  and  C_14 
REMARK    7  A    between atoms: N_20  and  C_19 
REMARK       I    between atoms: C_22  and  N_20 
ROOT
ATOM      1  C   LIG d   1      -5.825  92.748 117.444  0.00  0.00     0.161 C 
ATOM      2  C   LIG d   1      -6.358  92.191 116.269  0.00  0.00     0.016 C 
ATOM      3  C   LIG d   1      -5.953  90.941 115.747  0.00  0.00     0.038 C 
ATOM      4  C   LIG d   1      -5.090  90.088 116.450  0.00  0.00     0.028 C 
ATOM      5  C   LIG d   1      -4.141  90.826 117.389  0.00  0.00    -0.047 C 
ATOM      6  C   LIG d   1      -4.963  91.781 118.284  0.00  0.00     0.091 C 
ENDROOT
BRANCH   1   7
ATOM      7  O   LIG d   1      -6.885  93.301 118.247  0.00  0.00    -0.368 OA
BRANCH   7   8
ATOM      8  C   LIG d   1      -6.957  94.747 118.300  0.00  0.00     0.119 C 
BRANCH   8   9
ATOM      9  C   LIG d   1      -6.344  95.192 119.642  0.00  0.00     0.028 C 
ATOM     10  C   LIG d   1      -5.648  96.560 119.544  0.00  0.00     0.006 C 
ENDBRANCH   8   9
BRANCH   8  11
ATOM     11  C   LIG d   1      -8.409  95.232 118.337  0.00  0.00     0.028 C 
ATOM     12  C   LIG d   1      -9.162  94.763 119.592  0.00  0.00     0.006 C 
ENDBRANCH   8  11
ENDBRANCH   7   8
ENDBRANCH   1   7
BRANCH   6  13
ATOM     13  N   LIG d   1      -4.104  92.604 119.174  0.00  0.00    -0.311 N 
ATOM     14  C   LIG d   1      -3.820  92.270 120.432  0.00  0.00     0.210 C 
ATOM     15  C   LIG d   1      -2.932  93.268 121.182  0.00  0.00     0.109 C 
ATOM     16  O   LIG d   1      -4.193  91.226 120.988  0.00  0.00    -0.276 OA
ATOM     17  H   LIG d   1      -3.733  93.453 118.794  0.00  0.00     0.149 HD
ENDBRANCH   6  13
BRANCH   5  18
ATOM     18  N   LIG d   1      -3.397  89.811 118.158  0.00  0.00     0.381 N 
ATOM     19  H   LIG d   1      -3.713  89.806 119.107  0.00  0.00    -0.090 HD
ATOM     20  H   LIG d   1      -2.421  90.050 118.152  0.00  0.00    -0.090 HD
ATOM     21  H   LIG d   1      -3.528  88.911 117.752  0.00  0.00    -0.090 HD
ENDBRANCH   5  18
BRANCH   3  22
ATOM     22  C   LIG d   1      -6.382  90.551 114.487  0.00  0.00     0.382 C 
ATOM     23  O   LIG d   1      -6.627  91.417 113.612  0.00  0.00    -0.241 OA
ATOM     24  O   LIG d   1      -6.571  89.348 114.229  0.00  0.00    -0.241 OA
ENDBRANCH   3  22
TORSDOF 7
ENDMDL
MODEL 9
REMARK VINA RESULT:      -4.9     14.211     16.383
REMARK  7 active torsions:
REMARK  status: ('A' for Active; 'I' for Inactive)
REMARK    1  A    between atoms: C_2  and  C_3 
REMARK    2  A    between atoms: C_3  and  O_6 
REMARK    3  A    between atoms: C_3  and  C_4 
REMARK    4  A    between atoms: C_7  and  O_6 
REMARK    5  A    between atoms: C_9  and  C_10 
REMARK    6  A    between atoms: N_15  and  C_14 
REMARK    7  A    between atoms: N_20  and  C_19 
REMARK       I    between atoms: C_22  and  N_20 
ROOT
ATOM      1  C   LIG d   1      -6.036  91.701 118.534  0.00  0.00     0.161 C 
ATOM      2  C   LIG d   1      -5.247  91.936 119.673  0.00  0.00     0.016 C 
ATOM      3  C   LIG d   1      -3.887  91.563 119.768  0.00  0.00     0.038 C 
ATOM      4  C   LIG d   1      -3.176  91.063 118.666  0.00  0.00     0.028 C 
ATOM      5  C   LIG d   1      -4.059  90.342 117.653  0.00  0.00    -0.047 C 
ATOM      6  C   LIG d   1      -5.249  91.257 117.283  0.00  0.00     0.091 C 
ENDROOT
BRANCH   1   7
ATOM      7  O   LIG d   1      -6.828  92.868 118.240  0.00  0.00    -0.368 OA
BRANCH   7   8
ATOM      8  C   LIG d   1      -6.753  93.949 119.202  0.00  0.00     0.119 C 
BRANCH   8   9
ATOM      9  C   LIG d   1      -8.133  94.063 119.878  0.00  0.00     0.028 C 
ATOM     10  C   LIG d   1      -9.047  95.083 119.178  0.00  0.00     0.006 C 
ENDBRANCH   8   9
BRANCH   8  11
ATOM     11  C   LIG d   1      -6.528  95.297 118.510  0.00  0.00     0.028 C 
ATOM     12  C   LIG d   1      -5.414  96.125 119.167  0.00  0.00     0.006 C 
ENDBRANCH   8  11
ENDBRANCH   7   8
ENDBRANCH   1   7
BRANCH   6  13
ATOM     13  N   LIG d   1      -6.208  90.595 116.361  0.00  0.00    -0.311 N 
ATOM     14  C   LIG d   1      -6.544  91.093 115.172  0.00  0.00     0.210 C 
ATOM     15  C   LIG d   1      -7.565  90.263 114.388  0.00  0.00     0.109 C 
ATOM     16  O   LIG d   1      -6.070  92.128 114.679  0.00  0.00    -0.276 OA
ATOM     17  H   LIG d   1      -6.617  89.735 116.668  0.00  0.00     0.149 HD
ENDBRANCH   6  13
BRANCH   5  18
ATOM     18  N   LIG d   1      -3.216  89.994 116.494  0.00  0.00     0.381 N 
ATOM     19  H   LIG d   1      -2.253  89.982 116.768  0.00  0.00    -0.090 HD
ATOM     20  H   LIG d   1      -3.333  90.695 115.784  0.00  0.00    -0.090 HD
ATOM     21  H   LIG d   1      -3.478  89.101 116.137  0.00  0.00    -0.090 HD
ENDBRANCH   5  18
BRANCH   3  22
ATOM     22  C   LIG d   1      -3.233  91.653 120.987  0.00  0.00     0.382 C 
ATOM     23  O   LIG d   1      -2.385  90.786 121.310  0.00  0.00    -0.241 OA
ATOM     24  O   LIG d   1      -3.512  92.566 121.788  0.00  0.00    -0.241 OA
ENDBRANCH   3  22
TORSDOF 7
ENDMDL
