MODEL 1
REMARK VINA RESULT:      -5.6      0.000      0.000
REMARK  7 active torsions:
REMARK  status: ('A' for Active; 'I' for Inactive)
REMARK    1  A    between atoms: C_2  and  C_3 
REMARK    2  A    between atoms: C_3  and  O_6 
REMARK    3  A    between atoms: C_3  and  C_4 
REMARK    4  A    between atoms: C_7  and  O_6 
REMARK    5  A    between atoms: C_9  and  C_10 
REMARK    6  A    between atoms: N_15  and  C_14 
REMARK    7  A    between atoms: N_20  and  C_19 
REMARK       I    between atoms: C_22  and  N_20 
ROOT
ATOM      1  C   LIG d   1      -2.604  76.737 115.483  0.00  0.00     0.161 C 
ATOM      2  C   LIG d   1      -2.781  77.863 114.663  0.00  0.00     0.016 C 
ATOM      3  C   LIG d   1      -2.028  78.097 113.489  0.00  0.00     0.038 C 
ATOM      4  C   LIG d   1      -1.146  77.137 112.970  0.00  0.00     0.028 C 
ATOM      5  C   LIG d   1      -0.567  76.210 114.033  0.00  0.00    -0.047 C 
ATOM      6  C   LIG d   1      -1.724  75.625 114.874  0.00  0.00     0.091 C 
ENDROOT
BRANCH   1   7
ATOM      7  O   LIG d   1      -3.887  76.206 115.868  0.00  0.00    -0.368 OA
BRANCH   7   8
ATOM      8  C   LIG d   1      -4.918  76.229 114.849  0.00  0.00     0.119 C 
BRANCH   8   9
ATOM      9  C   LIG d   1      -6.274  76.371 115.566  0.00  0.00     0.028 C 
ATOM     10  C   LIG d   1      -6.284  77.528 116.580  0.00  0.00     0.006 C 
ENDBRANCH   8   9
BRANCH   8  11
ATOM     11  C   LIG d   1      -4.992  74.894 114.102  0.00  0.00     0.028 C 
ATOM     12  C   LIG d   1      -4.926  73.680 115.043  0.00  0.00     0.006 C 
ENDBRANCH   8  11
ENDBRANCH   7   8
ENDBRANCH   1   7
BRANCH   6  13
ATOM     13  N   LIG d   1      -1.239  74.773 115.991  0.00  0.00    -0.311 N 
ATOM     14  C   LIG d   1      -1.048  73.459 115.881  0.00  0.00     0.210 C 
ATOM     15  C   LIG d   1      -0.563  72.767 117.159  0.00  0.00     0.109 C 
ATOM     16  O   LIG d   1      -1.203  72.807 114.838  0.00  0.00    -0.276 OA
ATOM     17  H   LIG d   1      -1.058  75.226 116.865  0.00  0.00     0.149 HD
ENDBRANCH   6  13
BRANCH   5  18
ATOM     18  N   LIG d   1       0.225  75.177 113.340  0.00  0.00     0.381 N 
ATOM     19  H   LIG d   1      -0.077  74.268 113.630  0.00  0.00    -0.090 HD
ATOM     20  H   LIG d   1       1.192  75.283 113.592  0.00  0.00    -0.090 HD
ATOM     21  H   LIG d   1       0.119  75.271 112.354  0.00  0.00    -0.090 HD
ENDBRANCH   5  18
BRANCH   3  22
ATOM     22  C   LIG d   1      -2.126  79.320 112.842  0.00  0.00     0.382 C 
ATOM     23  O   LIG d   1      -1.106  79.842 112.332  0.00  0.00    -0.241 OA
ATOM     24  O   LIG d   1      -3.212  79.928 112.801  0.00  0.00    -0.241 OA
ENDBRANCH   3  22
TORSDOF 7
ENDMDL
MODEL 2
REMARK VINA RESULT:      -5.3      2.644      4.822
REMARK  7 active torsions:
REMARK  status: ('A' for Active; 'I' for Inactive)
REMARK    1  A    between atoms: C_2  and  C_3 
REMARK    2  A    between atoms: C_3  and  O_6 
REMARK    3  A    between atoms: C_3  and  C_4 
REMARK    4  A    between atoms: C_7  and  O_6 
REMARK    5  A    between atoms: C_9  and  C_10 
REMARK    6  A    between atoms: N_15  and  C_14 
REMARK    7  A    between atoms: N_20  and  C_19 
REMARK       I    between atoms: C_22  and  N_20 
ROOT
ATOM      1  C   LIG d   1      -2.759  74.237 115.855  0.00  0.00     0.161 C 
ATOM      2  C   LIG d   1      -1.830  75.056 115.192  0.00  0.00     0.016 C 
ATOM      3  C   LIG d   1      -2.190  75.994 114.198  0.00  0.00     0.038 C 
ATOM      4  C   LIG d   1      -3.530  76.285 113.904  0.00  0.00     0.028 C 
ATOM      5  C   LIG d   1      -4.479  75.125 114.187  0.00  0.00    -0.047 C 
ATOM      6  C   LIG d   1      -4.237  74.619 115.627  0.00  0.00     0.091 C 
ENDROOT
BRANCH   1   7
ATOM      7  O   LIG d   1      -2.462  74.203 117.265  0.00  0.00    -0.368 OA
BRANCH   7   8
ATOM      8  C   LIG d   1      -1.069  74.363 117.627  0.00  0.00     0.119 C 
BRANCH   8   9
ATOM      9  C   LIG d   1      -0.519  72.967 117.980  0.00  0.00     0.028 C 
ATOM     10  C   LIG d   1      -0.726  72.612 119.461  0.00  0.00     0.006 C 
ENDBRANCH   8   9
BRANCH   8  11
ATOM     11  C   LIG d   1      -0.917  75.193 118.905  0.00  0.00     0.028 C 
ATOM     12  C   LIG d   1      -2.137  76.084 119.185  0.00  0.00     0.006 C 
ENDBRANCH   8  11
ENDBRANCH   7   8
ENDBRANCH   1   7
BRANCH   6  13
ATOM     13  N   LIG d   1      -5.065  73.430 115.957  0.00  0.00    -0.311 N 
ATOM     14  C   LIG d   1      -6.261  73.508 116.539  0.00  0.00     0.210 C 
ATOM     15  C   LIG d   1      -6.937  72.161 116.809  0.00  0.00     0.109 C 
ATOM     16  O   LIG d   1      -6.838  74.567 116.829  0.00  0.00    -0.276 OA
ATOM     17  H   LIG d   1      -4.686  72.532 115.728  0.00  0.00     0.149 HD
ENDBRANCH   6  13
BRANCH   5  18
ATOM     18  N   LIG d   1      -5.854  75.610 113.968  0.00  0.00     0.381 N 
ATOM     19  H   LIG d   1      -5.902  76.118 113.107  0.00  0.00    -0.090 HD
ATOM     20  H   LIG d   1      -6.102  76.234 114.716  0.00  0.00    -0.090 HD
ATOM     21  H   LIG d   1      -6.488  74.842 113.943  0.00  0.00    -0.090 HD
ENDBRANCH   5  18
BRANCH   3  22
ATOM     22  C   LIG d   1      -1.201  76.623 113.456  0.00  0.00     0.382 C 
ATOM     23  O   LIG d   1      -0.059  76.788 113.948  0.00  0.00    -0.241 OA
ATOM     24  O   LIG d   1      -1.450  77.067 112.320  0.00  0.00    -0.241 OA
ENDBRANCH   3  22
TORSDOF 7
ENDMDL
MODEL 3
REMARK VINA RESULT:      -5.1     14.756     17.340
REMARK  7 active torsions:
REMARK  status: ('A' for Active; 'I' for Inactive)
REMARK    1  A    between atoms: C_2  and  C_3 
REMARK    2  A    between atoms: C_3  and  O_6 
REMARK    3  A    between atoms: C_3  and  C_4 
REMARK    4  A    between atoms: C_7  and  O_6 
REMARK    5  A    between atoms: C_9  and  C_10 
REMARK    6  A    between atoms: N_15  and  C_14 
REMARK    7  A    between atoms: N_20  and  C_19 
REMARK       I    between atoms: C_22  and  N_20 
ROOT
ATOM      1  C   LIG d   1      -4.695  92.427 117.176  0.00  0.00     0.161 C 
ATOM      2  C   LIG d   1      -4.307  91.141 116.763  0.00  0.00     0.016 C 
ATOM      3  C   LIG d   1      -5.049  90.362 115.846  0.00  0.00     0.038 C 
ATOM      4  C   LIG d   1      -6.157  90.879 115.160  0.00  0.00     0.028 C 
ATOM      5  C   LIG d   1      -6.877  91.989 115.920  0.00  0.00    -0.047 C 
ATOM      6  C   LIG d   1      -5.842  93.052 116.354  0.00  0.00     0.091 C 
ENDROOT
BRANCH   1   7
ATOM      7  O   LIG d   1      -3.551  93.303 117.187  0.00  0.00    -0.368 OA
BRANCH   7   8
ATOM      8  C   LIG d   1      -2.951  93.552 118.482  0.00  0.00     0.119 C 
BRANCH   8   9
ATOM      9  C   LIG d   1      -3.235  95.022 118.849  0.00  0.00     0.028 C 
ATOM     10  C   LIG d   1      -3.854  95.168 120.249  0.00  0.00     0.006 C 
ENDBRANCH   8   9
BRANCH   8  11
ATOM     11  C   LIG d   1      -1.425  93.438 118.420  0.00  0.00     0.028 C 
ATOM     12  C   LIG d   1      -0.935  91.981 118.430  0.00  0.00     0.006 C 
ENDBRANCH   8  11
ENDBRANCH   7   8
ENDBRANCH   1   7
BRANCH   6  13
ATOM     13  N   LIG d   1      -6.449  94.130 117.177  0.00  0.00    -0.311 N 
ATOM     14  C   LIG d   1      -6.864  93.952 118.430  0.00  0.00     0.210 C 
ATOM     15  C   LIG d   1      -7.478  95.190 119.090  0.00  0.00     0.109 C 
ATOM     16  O   LIG d   1      -6.753  92.894 119.067  0.00  0.00    -0.276 OA
ATOM     17  H   LIG d   1      -6.549  95.030 116.748  0.00  0.00     0.149 HD
ENDBRANCH   6  13
BRANCH   5  18
ATOM     18  N   LIG d   1      -7.924  92.530 115.033  0.00  0.00     0.381 N 
ATOM     19  H   LIG d   1      -8.543  93.114 115.558  0.00  0.00    -0.090 HD
ATOM     20  H   LIG d   1      -8.456  91.766 114.655  0.00  0.00    -0.090 HD
ATOM     21  H   LIG d   1      -7.509  93.053 114.294  0.00  0.00    -0.090 HD
ENDBRANCH   5  18
BRANCH   3  22
ATOM     22  C   LIG d   1      -4.706  89.035 115.637  0.00  0.00     0.382 C 
ATOM     23  O   LIG d   1      -5.045  88.459 114.575  0.00  0.00    -0.241 OA
ATOM     24  O   LIG d   1      -4.100  88.393 116.516  0.00  0.00    -0.241 OA
ENDBRANCH   3  22
TORSDOF 7
ENDMDL
MODEL 4
REMARK VINA RESULT:      -5.1     15.856     18.181
REMARK  7 active torsions:
REMARK  status: ('A' for Active; 'I' for Inactive)
REMARK    1  A    between atoms: C_2  and  C_3 
REMARK    2  A    between atoms: C_3  and  O_6 
REMARK    3  A    between atoms: C_3  and  C_4 
REMARK    4  A    between atoms: C_7  and  O_6 
REMARK    5  A    between atoms: C_9  and  C_10 
REMARK    6  A    between atoms: N_15  and  C_14 
REMARK    7  A    between atoms: N_20  and  C_19 
REMARK       I    between atoms: C_22  and  N_20 
ROOT
ATOM      1  C   LIG d   1      -6.214  93.524 116.847  0.00  0.00     0.161 C 
ATOM      2  C   LIG d   1      -6.790  92.508 116.066  0.00  0.00     0.016 C 
ATOM      3  C   LIG d   1      -6.164  91.265 115.822  0.00  0.00     0.038 C 
ATOM      4  C   LIG d   1      -4.977  90.892 116.471  0.00  0.00     0.028 C 
ATOM      5  C   LIG d   1      -4.107  92.078 116.871  0.00  0.00    -0.047 C 
ATOM      6  C   LIG d   1      -4.971  93.093 117.654  0.00  0.00     0.091 C 
ENDROOT
BRANCH   1   7
ATOM      7  O   LIG d   1      -7.209  94.090 117.723  0.00  0.00    -0.368 OA
BRANCH   7   8
ATOM      8  C   LIG d   1      -7.486  95.501 117.545  0.00  0.00     0.119 C 
BRANCH   8   9
ATOM      9  C   LIG d   1      -6.993  96.233 118.808  0.00  0.00     0.028 C 
ATOM     10  C   LIG d   1      -7.135  95.375 120.077  0.00  0.00     0.006 C 
ENDBRANCH   8   9
BRANCH   8  11
ATOM     11  C   LIG d   1      -8.993  95.769 117.484  0.00  0.00     0.028 C 
ATOM     12  C   LIG d   1      -9.325  97.211 117.071  0.00  0.00     0.006 C 
ENDBRANCH   8  11
ENDBRANCH   7   8
ENDBRANCH   1   7
BRANCH   6  13
ATOM     13  N   LIG d   1      -4.218  94.324 118.011  0.00  0.00    -0.311 N 
ATOM     14  C   LIG d   1      -3.622  94.503 119.188  0.00  0.00     0.210 C 
ATOM     15  C   LIG d   1      -2.916  95.852 119.357  0.00  0.00     0.109 C 
ATOM     16  O   LIG d   1      -3.584  93.660 120.098  0.00  0.00    -0.276 OA
ATOM     17  H   LIG d   1      -4.172  95.046 117.320  0.00  0.00     0.149 HD
ENDBRANCH   6  13
BRANCH   5  18
ATOM     18  N   LIG d   1      -2.974  91.555 117.658  0.00  0.00     0.381 N 
ATOM     19  H   LIG d   1      -3.036  91.885 118.601  0.00  0.00    -0.090 HD
ATOM     20  H   LIG d   1      -2.117  91.897 117.260  0.00  0.00    -0.090 HD
ATOM     21  H   LIG d   1      -2.981  90.559 117.646  0.00  0.00    -0.090 HD
ENDBRANCH   5  18
BRANCH   3  22
ATOM     22  C   LIG d   1      -6.705  90.394 114.888  0.00  0.00     0.382 C 
ATOM     23  O   LIG d   1      -7.404  90.840 113.947  0.00  0.00    -0.241 OA
ATOM     24  O   LIG d   1      -6.539  89.165 115.000  0.00  0.00    -0.241 OA
ENDBRANCH   3  22
TORSDOF 7
ENDMDL
MODEL 5
REMARK VINA RESULT:      -5.1     14.184     16.656
REMARK  7 active torsions:
REMARK  status: ('A' for Active; 'I' for Inactive)
REMARK    1  A    between atoms: C_2  and  C_3 
REMARK    2  A    between atoms: C_3  and  O_6 
REMARK    3  A    between atoms: C_3  and  C_4 
REMARK    4  A    between atoms: C_7  and  O_6 
REMARK    5  A    between atoms: C_9  and  C_10 
REMARK    6  A    between atoms: N_15  and  C_14 
REMARK    7  A    between atoms: N_20  and  C_19 
REMARK       I    between atoms: C_22  and  N_20 
ROOT
ATOM      1  C   LIG d   1      -4.459  91.515 117.386  0.00  0.00     0.161 C 
ATOM      2  C   LIG d   1      -4.951  90.740 116.323  0.00  0.00     0.016 C 
ATOM      3  C   LIG d   1      -5.980  91.173 115.455  0.00  0.00     0.038 C 
ATOM      4  C   LIG d   1      -6.486  92.481 115.499  0.00  0.00     0.028 C 
ATOM      5  C   LIG d   1      -6.376  93.127 116.877  0.00  0.00    -0.047 C 
ATOM      6  C   LIG d   1      -4.921  92.988 117.381  0.00  0.00     0.091 C 
ENDROOT
BRANCH   1   7
ATOM      7  O   LIG d   1      -3.020  91.442 117.419  0.00  0.00    -0.368 OA
BRANCH   7   8
ATOM      8  C   LIG d   1      -2.444  90.729 118.541  0.00  0.00     0.119 C 
BRANCH   8   9
ATOM      9  C   LIG d   1      -1.748  89.473 117.982  0.00  0.00     0.028 C 
ATOM     10  C   LIG d   1      -2.669  88.242 117.982  0.00  0.00     0.006 C 
ENDBRANCH   8   9
BRANCH   8  11
ATOM     11  C   LIG d   1      -3.530  90.204 119.485  0.00  0.00     0.028 C 
ATOM     12  C   LIG d   1      -3.420  90.788 120.902  0.00  0.00     0.006 C 
ENDBRANCH   8  11
ENDBRANCH   7   8
ENDBRANCH   1   7
BRANCH   6  13
ATOM     13  N   LIG d   1      -4.746  93.519 118.758  0.00  0.00    -0.311 N 
ATOM     14  C   LIG d   1      -3.728  94.298 119.119  0.00  0.00     0.210 C 
ATOM     15  C   LIG d   1      -3.726  94.718 120.592  0.00  0.00     0.109 C 
ATOM     16  O   LIG d   1      -2.844  94.707 118.352  0.00  0.00    -0.276 OA
ATOM     17  H   LIG d   1      -5.435  93.261 119.438  0.00  0.00     0.149 HD
ENDBRANCH   6  13
BRANCH   5  18
ATOM     18  N   LIG d   1      -6.811  94.530 116.747  0.00  0.00     0.381 N 
ATOM     19  H   LIG d   1      -7.204  94.680 115.839  0.00  0.00    -0.090 HD
ATOM     20  H   LIG d   1      -6.011  95.129 116.847  0.00  0.00    -0.090 HD
ATOM     21  H   LIG d   1      -7.485  94.744 117.449  0.00  0.00    -0.090 HD
ENDBRANCH   5  18
BRANCH   3  22
ATOM     22  C   LIG d   1      -6.541  90.280 114.555  0.00  0.00     0.382 C 
ATOM     23  O   LIG d   1      -7.493  90.643 113.822  0.00  0.00    -0.241 OA
ATOM     24  O   LIG d   1      -6.138  89.103 114.498  0.00  0.00    -0.241 OA
ENDBRANCH   3  22
TORSDOF 7
ENDMDL
MODEL 6
REMARK VINA RESULT:      -5.0      3.480      5.903
REMARK  7 active torsions:
REMARK  status: ('A' for Active; 'I' for Inactive)
REMARK    1  A    between atoms: C_2  and  C_3 
REMARK    2  A    between atoms: C_3  and  O_6 
REMARK    3  A    between atoms: C_3  and  C_4 
REMARK    4  A    between atoms: C_7  and  O_6 
REMARK    5  A    between atoms: C_9  and  C_10 
REMARK    6  A    between atoms: N_15  and  C_14 
REMARK    7  A    between atoms: N_20  and  C_19 
REMARK       I    between atoms: C_22  and  N_20 
ROOT
ATOM      1  C   LIG d   1      -6.031  77.453 116.978  0.00  0.00     0.161 C 
ATOM      2  C   LIG d   1      -7.335  77.968 117.059  0.00  0.00     0.016 C 
ATOM      3  C   LIG d   1      -7.681  79.091 117.845  0.00  0.00     0.038 C 
ATOM      4  C   LIG d   1      -6.710  79.873 118.488  0.00  0.00     0.028 C 
ATOM      5  C   LIG d   1      -5.446  79.098 118.843  0.00  0.00    -0.047 C 
ATOM      6  C   LIG d   1      -4.939  78.359 117.584  0.00  0.00     0.091 C 
ENDROOT
BRANCH   1   7
ATOM      7  O   LIG d   1      -5.715  77.137 115.607  0.00  0.00    -0.368 OA
BRANCH   7   8
ATOM      8  C   LIG d   1      -5.991  75.778 115.187  0.00  0.00     0.119 C 
BRANCH   8   9
ATOM      9  C   LIG d   1      -5.501  74.839 116.306  0.00  0.00     0.028 C 
ATOM     10  C   LIG d   1      -6.519  73.732 116.632  0.00  0.00     0.006 C 
ENDBRANCH   8   9
BRANCH   8  11
ATOM     11  C   LIG d   1      -5.170  75.399 113.951  0.00  0.00     0.028 C 
ATOM     12  C   LIG d   1      -3.760  76.010 113.963  0.00  0.00     0.006 C 
ENDBRANCH   8  11
ENDBRANCH   7   8
ENDBRANCH   1   7
BRANCH   6  13
ATOM     13  N   LIG d   1      -3.753  77.509 117.864  0.00  0.00    -0.311 N 
ATOM     14  C   LIG d   1      -2.617  77.584 117.173  0.00  0.00     0.210 C 
ATOM     15  C   LIG d   1      -1.526  76.603 117.613  0.00  0.00     0.109 C 
ATOM     16  O   LIG d   1      -2.398  78.392 116.258  0.00  0.00    -0.276 OA
ATOM     17  H   LIG d   1      -3.833  76.846 118.610  0.00  0.00     0.149 HD
ENDBRANCH   6  13
BRANCH   5  18
ATOM     18  N   LIG d   1      -4.468  80.062 119.381  0.00  0.00     0.381 N 
ATOM     19  H   LIG d   1      -3.993  79.662 120.165  0.00  0.00    -0.090 HD
ATOM     20  H   LIG d   1      -4.957  80.882 119.694  0.00  0.00    -0.090 HD
ATOM     21  H   LIG d   1      -3.809  80.309 118.676  0.00  0.00    -0.090 HD
ENDBRANCH   5  18
BRANCH   3  22
ATOM     22  C   LIG d   1      -9.016  79.419 118.026  0.00  0.00     0.382 C 
ATOM     23  O   LIG d   1      -9.381  80.618 117.962  0.00  0.00    -0.241 OA
ATOM     24  O   LIG d   1      -9.852  78.536 118.295  0.00  0.00    -0.241 OA
ENDBRANCH   3  22
TORSDOF 7
ENDMDL
MODEL 7
REMARK VINA RESULT:      -4.9     14.369     17.011
REMARK  7 active torsions:
REMARK  status: ('A' for Active; 'I' for Inactive)
REMARK    1  A    between atoms: C_2  and  C_3 
REMARK    2  A    between atoms: C_3  and  O_6 
REMARK    3  A    between atoms: C_3  and  C_4 
REMARK    4  A    between atoms: C_7  and  O_6 
REMARK    5  A    between atoms: C_9  and  C_10 
REMARK    6  A    between atoms: N_15  and  C_14 
REMARK    7  A    between atoms: N_20  and  C_19 
REMARK       I    between atoms: C_22  and  N_20 
ROOT
ATOM      1  C   LIG d   1      -5.026  91.344 118.198  0.00  0.00     0.161 C 
ATOM      2  C   LIG d   1      -4.604  90.268 117.399  0.00  0.00     0.016 C 
ATOM      3  C   LIG d   1      -5.096  90.026 116.096  0.00  0.00     0.038 C 
ATOM      4  C   LIG d   1      -5.939  90.937 115.442  0.00  0.00     0.028 C 
ATOM      5  C   LIG d   1      -6.785  91.773 116.396  0.00  0.00    -0.047 C 
ATOM      6  C   LIG d   1      -5.861  92.410 117.459  0.00  0.00     0.091 C 
ENDROOT
BRANCH   1   7
ATOM      7  O   LIG d   1      -3.887  91.954 118.837  0.00  0.00    -0.368 OA
BRANCH   7   8
ATOM      8  C   LIG d   1      -2.723  92.165 118.000  0.00  0.00     0.119 C 
BRANCH   8   9
ATOM      9  C   LIG d   1      -1.492  91.680 118.789  0.00  0.00     0.028 C 
ATOM     10  C   LIG d   1      -1.874  90.989 120.108  0.00  0.00     0.006 C 
ENDBRANCH   8   9
BRANCH   8  11
ATOM     11  C   LIG d   1      -2.482  93.656 117.746  0.00  0.00     0.028 C 
ATOM     12  C   LIG d   1      -3.142  94.554 118.804  0.00  0.00     0.006 C 
ENDBRANCH   8  11
ENDBRANCH   7   8
ENDBRANCH   1   7
BRANCH   6  13
ATOM     13  N   LIG d   1      -6.619  93.177 118.482  0.00  0.00    -0.311 N 
ATOM     14  C   LIG d   1      -6.942  94.461 118.345  0.00  0.00     0.210 C 
ATOM     15  C   LIG d   1      -7.706  95.066 119.526  0.00  0.00     0.109 C 
ATOM     16  O   LIG d   1      -6.695  95.149 117.343  0.00  0.00    -0.276 OA
ATOM     17  H   LIG d   1      -6.886  92.687 119.314  0.00  0.00     0.149 HD
ENDBRANCH   6  13
BRANCH   5  18
ATOM     18  N   LIG d   1      -7.512  92.771 115.589  0.00  0.00     0.381 N 
ATOM     19  H   LIG d   1      -6.928  93.093 114.843  0.00  0.00    -0.090 HD
ATOM     20  H   LIG d   1      -7.741  93.557 116.172  0.00  0.00    -0.090 HD
ATOM     21  H   LIG d   1      -8.345  92.369 115.219  0.00  0.00    -0.090 HD
ENDBRANCH   5  18
BRANCH   3  22
ATOM     22  C   LIG d   1      -4.777  88.842 115.450  0.00  0.00     0.382 C 
ATOM     23  O   LIG d   1      -4.105  87.965 116.044  0.00  0.00    -0.241 OA
ATOM     24  O   LIG d   1      -5.115  88.658 114.265  0.00  0.00    -0.241 OA
ENDBRANCH   3  22
TORSDOF 7
ENDMDL
MODEL 8
REMARK VINA RESULT:      -4.9     18.216     19.968
REMARK  7 active torsions:
REMARK  status: ('A' for Active; 'I' for Inactive)
REMARK    1  A    between atoms: C_2  and  C_3 
REMARK    2  A    between atoms: C_3  and  O_6 
REMARK    3  A    between atoms: C_3  and  C_4 
REMARK    4  A    between atoms: C_7  and  O_6 
REMARK    5  A    between atoms: C_9  and  C_10 
REMARK    6  A    between atoms: N_15  and  C_14 
REMARK    7  A    between atoms: N_20  and  C_19 
REMARK       I    between atoms: C_22  and  N_20 
ROOT
ATOM      1  C   LIG d   1       1.401  58.076 118.408  0.00  0.00     0.161 C 
ATOM      2  C   LIG d   1       0.172  58.576 117.947  0.00  0.00     0.016 C 
ATOM      3  C   LIG d   1      -0.705  57.841 117.117  0.00  0.00     0.038 C 
ATOM      4  C   LIG d   1      -0.481  56.490 116.812  0.00  0.00     0.028 C 
ATOM      5  C   LIG d   1       0.993  56.100 116.839  0.00  0.00    -0.047 C 
ATOM      6  C   LIG d   1       1.611  56.564 118.178  0.00  0.00     0.091 C 
ENDROOT
BRANCH   1   7
ATOM      7  O   LIG d   1       1.567  58.398 119.803  0.00  0.00    -0.368 OA
BRANCH   7   8
ATOM      8  C   LIG d   1       0.449  58.081 120.668  0.00  0.00     0.119 C 
BRANCH   8   9
ATOM      9  C   LIG d   1       0.060  59.372 121.414  0.00  0.00     0.028 C 
ATOM     10  C   LIG d   1      -1.425  59.728 121.235  0.00  0.00     0.006 C 
ENDBRANCH   8   9
BRANCH   8  11
ATOM     11  C   LIG d   1       0.855  57.088 121.761  0.00  0.00     0.028 C 
ATOM     12  C   LIG d   1       0.518  55.633 121.399  0.00  0.00     0.006 C 
ENDBRANCH   8  11
ENDBRANCH   7   8
ENDBRANCH   1   7
BRANCH   6  13
ATOM     13  N   LIG d   1       3.071  56.297 118.251  0.00  0.00    -0.311 N 
ATOM     14  C   LIG d   1       3.588  55.188 118.778  0.00  0.00     0.210 C 
ATOM     15  C   LIG d   1       5.118  55.122 118.772  0.00  0.00     0.109 C 
ATOM     16  O   LIG d   1       2.923  54.239 119.220  0.00  0.00    -0.276 OA
ATOM     17  H   LIG d   1       3.683  57.001 117.887  0.00  0.00     0.149 HD
ENDBRANCH   6  13
BRANCH   5  18
ATOM     18  N   LIG d   1       1.072  54.641 116.641  0.00  0.00     0.381 N 
ATOM     19  H   LIG d   1       1.814  54.425 116.005  0.00  0.00    -0.090 HD
ATOM     20  H   LIG d   1       0.209  54.320 116.239  0.00  0.00    -0.090 HD
ATOM     21  H   LIG d   1       1.229  54.186 117.513  0.00  0.00    -0.090 HD
ENDBRANCH   5  18
BRANCH   3  22
ATOM     22  C   LIG d   1      -1.802  58.471 116.548  0.00  0.00     0.382 C 
ATOM     23  O   LIG d   1      -1.775  58.807 115.340  0.00  0.00    -0.241 OA
ATOM     24  O   LIG d   1      -2.801  58.746 117.240  0.00  0.00    -0.241 OA
ENDBRANCH   3  22
TORSDOF 7
ENDMDL
MODEL 9
REMARK VINA RESULT:      -4.9     15.974     18.399
REMARK  7 active torsions:
REMARK  status: ('A' for Active; 'I' for Inactive)
REMARK    1  A    between atoms: C_2  and  C_3 
REMARK    2  A    between atoms: C_3  and  O_6 
REMARK    3  A    between atoms: C_3  and  C_4 
REMARK    4  A    between atoms: C_7  and  O_6 
REMARK    5  A    between atoms: C_9  and  C_10 
REMARK    6  A    between atoms: N_15  and  C_14 
REMARK    7  A    between atoms: N_20  and  C_19 
REMARK       I    between atoms: C_22  and  N_20 
ROOT
ATOM      1  C   LIG d   1     -16.911  64.686 114.889  0.00  0.00     0.161 C 
ATOM      2  C   LIG d   1     -16.570  65.651 113.926  0.00  0.00     0.016 C 
ATOM      3  C   LIG d   1     -15.767  66.780 114.207  0.00  0.00     0.038 C 
ATOM      4  C   LIG d   1     -15.121  66.942 115.442  0.00  0.00     0.028 C 
ATOM      5  C   LIG d   1     -15.843  66.257 116.598  0.00  0.00    -0.047 C 
ATOM      6  C   LIG d   1     -16.125  64.787 116.213  0.00  0.00     0.091 C 
ENDROOT
BRANCH   1   7
ATOM      7  O   LIG d   1     -16.777  63.366 114.326  0.00  0.00    -0.368 OA
BRANCH   7   8
ATOM      8  C   LIG d   1     -18.003  62.735 113.881  0.00  0.00     0.119 C 
BRANCH   8   9
ATOM      9  C   LIG d   1     -19.165  63.381 114.661  0.00  0.00     0.028 C 
ATOM     10  C   LIG d   1     -20.483  63.369 113.868  0.00  0.00     0.006 C 
ENDBRANCH   8   9
BRANCH   8  11
ATOM     11  C   LIG d   1     -18.036  61.252 114.260  0.00  0.00     0.028 C 
ATOM     12  C   LIG d   1     -18.055  61.025 115.780  0.00  0.00     0.006 C 
ENDBRANCH   8  11
ENDBRANCH   7   8
ENDBRANCH   1   7
BRANCH   6  13
ATOM     13  N   LIG d   1     -16.903  64.068 117.254  0.00  0.00    -0.311 N 
ATOM     14  C   LIG d   1     -16.343  63.321 118.204  0.00  0.00     0.210 C 
ATOM     15  C   LIG d   1     -17.328  62.650 119.166  0.00  0.00     0.109 C 
ATOM     16  O   LIG d   1     -15.121  63.177 118.361  0.00  0.00    -0.276 OA
ATOM     17  H   LIG d   1     -17.900  64.155 117.220  0.00  0.00     0.149 HD
ENDBRANCH   6  13
BRANCH   5  18
ATOM     18  N   LIG d   1     -14.992  66.389 117.795  0.00  0.00     0.381 N 
ATOM     19  H   LIG d   1     -15.563  66.556 118.600  0.00  0.00    -0.090 HD
ATOM     20  H   LIG d   1     -14.379  67.175 117.674  0.00  0.00    -0.090 HD
ATOM     21  H   LIG d   1     -14.457  65.558 117.926  0.00  0.00    -0.090 HD
ENDBRANCH   5  18
BRANCH   3  22
ATOM     22  C   LIG d   1     -15.635  67.783 113.259  0.00  0.00     0.382 C 
ATOM     23  O   LIG d   1     -15.184  68.906 113.592  0.00  0.00    -0.241 OA
ATOM     24  O   LIG d   1     -16.004  67.595 112.085  0.00  0.00    -0.241 OA
ENDBRANCH   3  22
TORSDOF 7
ENDMDL
