MODEL 1
REMARK VINA RESULT:      -5.8      0.000      0.000
REMARK  7 active torsions:
REMARK  status: ('A' for Active; 'I' for Inactive)
REMARK    1  A    between atoms: C_2  and  C_3 
REMARK    2  A    between atoms: C_3  and  O_6 
REMARK    3  A    between atoms: C_3  and  C_4 
REMARK    4  A    between atoms: C_7  and  O_6 
REMARK    5  A    between atoms: C_9  and  C_10 
REMARK    6  A    between atoms: N_15  and  C_14 
REMARK    7  A    between atoms: N_20  and  C_19 
REMARK       I    between atoms: C_22  and  N_20 
ROOT
ATOM      1  C   LIG d   1      -7.750  75.054 116.293  0.00  0.00     0.161 C 
ATOM      2  C   LIG d   1      -6.621  74.858 115.481  0.00  0.00     0.016 C 
ATOM      3  C   LIG d   1      -5.544  75.772 115.411  0.00  0.00     0.038 C 
ATOM      4  C   LIG d   1      -5.454  76.878 116.269  0.00  0.00     0.028 C 
ATOM      5  C   LIG d   1      -6.810  77.386 116.748  0.00  0.00    -0.047 C 
ATOM      6  C   LIG d   1      -7.617  76.198 117.320  0.00  0.00     0.091 C 
ENDROOT
BRANCH   1   7
ATOM      7  O   LIG d   1      -8.092  73.822 116.959  0.00  0.00    -0.368 OA
BRANCH   7   8
ATOM      8  C   LIG d   1      -8.828  72.854 116.169  0.00  0.00     0.119 C 
BRANCH   8   9
ATOM      9  C   LIG d   1     -10.238  72.737 116.778  0.00  0.00     0.028 C 
ATOM     10  C   LIG d   1     -11.109  73.971 116.485  0.00  0.00     0.006 C 
ENDBRANCH   8   9
BRANCH   8  11
ATOM     11  C   LIG d   1      -8.216  71.456 116.291  0.00  0.00     0.028 C 
ATOM     12  C   LIG d   1      -9.111  70.479 117.069  0.00  0.00     0.006 C 
ENDBRANCH   8  11
ENDBRANCH   7   8
ENDBRANCH   1   7
BRANCH   6  13
ATOM     13  N   LIG d   1      -8.989  76.593 117.733  0.00  0.00    -0.311 N 
ATOM     14  C   LIG d   1      -9.309  76.932 118.981  0.00  0.00     0.210 C 
ATOM     15  C   LIG d   1     -10.784  77.286 119.196  0.00  0.00     0.109 C 
ATOM     16  O   LIG d   1      -8.506  77.006 119.922  0.00  0.00    -0.276 OA
ATOM     17  H   LIG d   1      -9.697  76.590 117.025  0.00  0.00     0.149 HD
ENDBRANCH   6  13
BRANCH   5  18
ATOM     18  N   LIG d   1      -6.562  78.448 117.740  0.00  0.00     0.381 N 
ATOM     19  H   LIG d   1      -7.160  79.229 117.557  0.00  0.00    -0.090 HD
ATOM     20  H   LIG d   1      -5.609  78.755 117.658  0.00  0.00    -0.090 HD
ATOM     21  H   LIG d   1      -6.729  78.102 118.660  0.00  0.00    -0.090 HD
ENDBRANCH   5  18
BRANCH   3  22
ATOM     22  C   LIG d   1      -4.562  75.605 114.446  0.00  0.00     0.382 C 
ATOM     23  O   LIG d   1      -3.639  74.775 114.628  0.00  0.00    -0.241 OA
ATOM     24  O   LIG d   1      -4.564  76.306 113.416  0.00  0.00    -0.241 OA
ENDBRANCH   3  22
TORSDOF 7
ENDMDL
MODEL 2
REMARK VINA RESULT:      -5.7      1.668      4.879
REMARK  7 active torsions:
REMARK  status: ('A' for Active; 'I' for Inactive)
REMARK    1  A    between atoms: C_2  and  C_3 
REMARK    2  A    between atoms: C_3  and  O_6 
REMARK    3  A    between atoms: C_3  and  C_4 
REMARK    4  A    between atoms: C_7  and  O_6 
REMARK    5  A    between atoms: C_9  and  C_10 
REMARK    6  A    between atoms: N_15  and  C_14 
REMARK    7  A    between atoms: N_20  and  C_19 
REMARK       I    between atoms: C_22  and  N_20 
ROOT
ATOM      1  C   LIG d   1      -8.155  75.228 117.421  0.00  0.00     0.161 C 
ATOM      2  C   LIG d   1      -9.424  75.570 117.917  0.00  0.00     0.016 C 
ATOM      3  C   LIG d   1      -9.797  76.891 118.256  0.00  0.00     0.038 C 
ATOM      4  C   LIG d   1      -8.970  77.989 117.978  0.00  0.00     0.028 C 
ATOM      5  C   LIG d   1      -7.487  77.638 117.945  0.00  0.00    -0.047 C 
ATOM      6  C   LIG d   1      -7.278  76.428 117.006  0.00  0.00     0.091 C 
ENDROOT
BRANCH   1   7
ATOM      7  O   LIG d   1      -8.292  74.304 116.323  0.00  0.00    -0.368 OA
BRANCH   7   8
ATOM      8  C   LIG d   1      -8.350  72.900 116.676  0.00  0.00     0.119 C 
BRANCH   8   9
ATOM      9  C   LIG d   1      -7.464  72.135 115.674  0.00  0.00     0.028 C 
ATOM     10  C   LIG d   1      -6.315  72.999 115.127  0.00  0.00     0.006 C 
ENDBRANCH   8   9
BRANCH   8  11
ATOM     11  C   LIG d   1      -9.760  72.335 116.483  0.00  0.00     0.028 C 
ATOM     12  C   LIG d   1      -9.841  70.826 116.764  0.00  0.00     0.006 C 
ENDBRANCH   8  11
ENDBRANCH   7   8
ENDBRANCH   1   7
BRANCH   6  13
ATOM     13  N   LIG d   1      -5.866  75.966 116.982  0.00  0.00    -0.311 N 
ATOM     14  C   LIG d   1      -4.973  76.385 116.087  0.00  0.00     0.210 C 
ATOM     15  C   LIG d   1      -3.578  75.768 116.228  0.00  0.00     0.109 C 
ATOM     16  O   LIG d   1      -5.195  77.232 115.209  0.00  0.00    -0.276 OA
ATOM     17  H   LIG d   1      -5.591  75.301 117.678  0.00  0.00     0.149 HD
ENDBRANCH   6  13
BRANCH   5  18
ATOM     18  N   LIG d   1      -6.753  78.841 117.509  0.00  0.00     0.381 N 
ATOM     19  H   LIG d   1      -7.268  79.662 117.760  0.00  0.00    -0.090 HD
ATOM     20  H   LIG d   1      -6.661  78.821 116.508  0.00  0.00    -0.090 HD
ATOM     21  H   LIG d   1      -5.852  78.864 117.933  0.00  0.00    -0.090 HD
ENDBRANCH   5  18
BRANCH   3  22
ATOM     22  C   LIG d   1     -10.994  77.119 118.918  0.00  0.00     0.382 C 
ATOM     23  O   LIG d   1     -12.056  76.609 118.486  0.00  0.00    -0.241 OA
ATOM     24  O   LIG d   1     -11.033  77.863 119.916  0.00  0.00    -0.241 OA
ENDBRANCH   3  22
TORSDOF 7
ENDMDL
MODEL 3
REMARK VINA RESULT:      -5.4      2.680      6.311
REMARK  7 active torsions:
REMARK  status: ('A' for Active; 'I' for Inactive)
REMARK    1  A    between atoms: C_2  and  C_3 
REMARK    2  A    between atoms: C_3  and  O_6 
REMARK    3  A    between atoms: C_3  and  C_4 
REMARK    4  A    between atoms: C_7  and  O_6 
REMARK    5  A    between atoms: C_9  and  C_10 
REMARK    6  A    between atoms: N_15  and  C_14 
REMARK    7  A    between atoms: N_20  and  C_19 
REMARK       I    between atoms: C_22  and  N_20 
ROOT
ATOM      1  C   LIG d   1      -7.101  75.624 116.576  0.00  0.00     0.161 C 
ATOM      2  C   LIG d   1      -8.464  75.662 116.915  0.00  0.00     0.016 C 
ATOM      3  C   LIG d   1      -9.302  74.523 116.900  0.00  0.00     0.038 C 
ATOM      4  C   LIG d   1      -8.794  73.233 116.690  0.00  0.00     0.028 C 
ATOM      5  C   LIG d   1      -7.522  73.211 115.849  0.00  0.00    -0.047 C 
ATOM      6  C   LIG d   1      -6.505  74.207 116.452  0.00  0.00     0.091 C 
ENDROOT
BRANCH   1   7
ATOM      7  O   LIG d   1      -6.341  76.407 117.518  0.00  0.00    -0.368 OA
BRANCH   7   8
ATOM      8  C   LIG d   1      -6.007  77.755 117.104  0.00  0.00     0.119 C 
BRANCH   8   9
ATOM      9  C   LIG d   1      -4.471  77.865 117.082  0.00  0.00     0.028 C 
ATOM     10  C   LIG d   1      -3.908  77.940 115.652  0.00  0.00     0.006 C 
ENDBRANCH   8   9
BRANCH   8  11
ATOM     11  C   LIG d   1      -6.473  78.786 118.137  0.00  0.00     0.028 C 
ATOM     12  C   LIG d   1      -7.915  79.260 117.897  0.00  0.00     0.006 C 
ENDBRANCH   8  11
ENDBRANCH   7   8
ENDBRANCH   1   7
BRANCH   6  13
ATOM     13  N   LIG d   1      -5.264  74.310 115.641  0.00  0.00    -0.311 N 
ATOM     14  C   LIG d   1      -4.041  74.182 116.152  0.00  0.00     0.210 C 
ATOM     15  C   LIG d   1      -2.898  74.343 115.145  0.00  0.00     0.109 C 
ATOM     16  O   LIG d   1      -3.795  73.917 117.339  0.00  0.00    -0.276 OA
ATOM     17  H   LIG d   1      -5.373  74.492 114.662  0.00  0.00     0.149 HD
ENDBRANCH   6  13
BRANCH   5  18
ATOM     18  N   LIG d   1      -7.027  71.822 115.825  0.00  0.00     0.381 N 
ATOM     19  H   LIG d   1      -7.676  71.223 116.295  0.00  0.00    -0.090 HD
ATOM     20  H   LIG d   1      -6.150  71.781 116.313  0.00  0.00    -0.090 HD
ATOM     21  H   LIG d   1      -6.906  71.519 114.884  0.00  0.00    -0.090 HD
ENDBRANCH   5  18
BRANCH   3  22
ATOM     22  C   LIG d   1     -10.671  74.675 117.058  0.00  0.00     0.382 C 
ATOM     23  O   LIG d   1     -11.451  73.773 116.668  0.00  0.00    -0.241 OA
ATOM     24  O   LIG d   1     -11.138  75.722 117.546  0.00  0.00    -0.241 OA
ENDBRANCH   3  22
TORSDOF 7
ENDMDL
MODEL 4
REMARK VINA RESULT:      -5.2      2.176      5.311
REMARK  7 active torsions:
REMARK  status: ('A' for Active; 'I' for Inactive)
REMARK    1  A    between atoms: C_2  and  C_3 
REMARK    2  A    between atoms: C_3  and  O_6 
REMARK    3  A    between atoms: C_3  and  C_4 
REMARK    4  A    between atoms: C_7  and  O_6 
REMARK    5  A    between atoms: C_9  and  C_10 
REMARK    6  A    between atoms: N_15  and  C_14 
REMARK    7  A    between atoms: N_20  and  C_19 
REMARK       I    between atoms: C_22  and  N_20 
ROOT
ATOM      1  C   LIG d   1      -5.947  74.468 116.321  0.00  0.00     0.161 C 
ATOM      2  C   LIG d   1      -6.818  73.401 116.045  0.00  0.00     0.016 C 
ATOM      3  C   LIG d   1      -8.192  73.412 116.379  0.00  0.00     0.038 C 
ATOM      4  C   LIG d   1      -8.825  74.561 116.877  0.00  0.00     0.028 C 
ATOM      5  C   LIG d   1      -7.884  75.488 117.639  0.00  0.00    -0.047 C 
ATOM      6  C   LIG d   1      -6.642  75.773 116.764  0.00  0.00     0.091 C 
ENDROOT
BRANCH   1   7
ATOM      7  O   LIG d   1      -5.100  74.714 115.181  0.00  0.00    -0.368 OA
BRANCH   7   8
ATOM      8  C   LIG d   1      -3.694  74.410 115.355  0.00  0.00     0.119 C 
BRANCH   8   9
ATOM      9  C   LIG d   1      -3.517  73.829 116.771  0.00  0.00     0.028 C 
ATOM     10  C   LIG d   1      -2.060  73.436 117.067  0.00  0.00     0.006 C 
ENDBRANCH   8   9
BRANCH   8  11
ATOM     11  C   LIG d   1      -2.841  75.682 115.329  0.00  0.00     0.028 C 
ATOM     12  C   LIG d   1      -3.469  76.803 114.485  0.00  0.00     0.006 C 
ENDBRANCH   8  11
ENDBRANCH   7   8
ENDBRANCH   1   7
BRANCH   6  13
ATOM     13  N   LIG d   1      -5.631  76.604 117.467  0.00  0.00    -0.311 N 
ATOM     14  C   LIG d   1      -5.588  77.933 117.382  0.00  0.00     0.210 C 
ATOM     15  C   LIG d   1      -4.453  78.594 118.171  0.00  0.00     0.109 C 
ATOM     16  O   LIG d   1      -6.401  78.629 116.755  0.00  0.00    -0.276 OA
ATOM     17  H   LIG d   1      -4.952  76.123 118.024  0.00  0.00     0.149 HD
ENDBRANCH   6  13
BRANCH   5  18
ATOM     18  N   LIG d   1      -8.641  76.706 117.983  0.00  0.00     0.381 N 
ATOM     19  H   LIG d   1      -9.533  76.690 117.531  0.00  0.00    -0.090 HD
ATOM     20  H   LIG d   1      -8.134  77.508 117.652  0.00  0.00    -0.090 HD
ATOM     21  H   LIG d   1      -8.762  76.765 118.970  0.00  0.00    -0.090 HD
ENDBRANCH   5  18
BRANCH   3  22
ATOM     22  C   LIG d   1      -8.940  72.252 116.250  0.00  0.00     0.382 C 
ATOM     23  O   LIG d   1      -8.363  71.149 116.085  0.00  0.00    -0.241 OA
ATOM     24  O   LIG d   1     -10.185  72.298 116.253  0.00  0.00    -0.241 OA
ENDBRANCH   3  22
TORSDOF 7
ENDMDL
MODEL 5
REMARK VINA RESULT:      -5.2      2.252      4.599
REMARK  7 active torsions:
REMARK  status: ('A' for Active; 'I' for Inactive)
REMARK    1  A    between atoms: C_2  and  C_3 
REMARK    2  A    between atoms: C_3  and  O_6 
REMARK    3  A    between atoms: C_3  and  C_4 
REMARK    4  A    between atoms: C_7  and  O_6 
REMARK    5  A    between atoms: C_9  and  C_10 
REMARK    6  A    between atoms: N_15  and  C_14 
REMARK    7  A    between atoms: N_20  and  C_19 
REMARK       I    between atoms: C_22  and  N_20 
ROOT
ATOM      1  C   LIG d   1      -7.317  76.357 116.633  0.00  0.00     0.161 C 
ATOM      2  C   LIG d   1      -6.716  77.584 116.961  0.00  0.00     0.016 C 
ATOM      3  C   LIG d   1      -7.315  78.540 117.813  0.00  0.00     0.038 C 
ATOM      4  C   LIG d   1      -8.495  78.267 118.521  0.00  0.00     0.028 C 
ATOM      5  C   LIG d   1      -9.392  77.245 117.831  0.00  0.00    -0.047 C 
ATOM      6  C   LIG d   1      -8.552  75.994 117.483  0.00  0.00     0.091 C 
ENDROOT
BRANCH   1   7
ATOM      7  O   LIG d   1      -6.337  75.302 116.696  0.00  0.00    -0.368 OA
BRANCH   7   8
ATOM      8  C   LIG d   1      -5.322  75.312 115.662  0.00  0.00     0.119 C 
BRANCH   8   9
ATOM      9  C   LIG d   1      -5.572  74.090 114.756  0.00  0.00     0.028 C 
ATOM     10  C   LIG d   1      -6.503  73.056 115.410  0.00  0.00     0.006 C 
ENDBRANCH   8   9
BRANCH   8  11
ATOM     11  C   LIG d   1      -3.924  75.100 116.252  0.00  0.00     0.028 C 
ATOM     12  C   LIG d   1      -2.989  74.330 115.306  0.00  0.00     0.006 C 
ENDBRANCH   8  11
ENDBRANCH   7   8
ENDBRANCH   1   7
BRANCH   6  13
ATOM     13  N   LIG d   1      -9.333  74.979 116.730  0.00  0.00    -0.311 N 
ATOM     14  C   LIG d   1      -9.585  73.756 117.194  0.00  0.00     0.210 C 
ATOM     15  C   LIG d   1     -10.391  72.859 116.249  0.00  0.00     0.109 C 
ATOM     16  O   LIG d   1      -9.244  73.339 118.311  0.00  0.00    -0.276 OA
ATOM     17  H   LIG d   1      -9.675  75.243 115.827  0.00  0.00     0.149 HD
ENDBRANCH   6  13
BRANCH   5  18
ATOM     18  N   LIG d   1     -10.515  76.952 118.741  0.00  0.00     0.381 N 
ATOM     19  H   LIG d   1     -10.859  77.803 119.139  0.00  0.00    -0.090 HD
ATOM     20  H   LIG d   1     -10.185  76.365 119.487  0.00  0.00    -0.090 HD
ATOM     21  H   LIG d   1     -11.245  76.490 118.244  0.00  0.00    -0.090 HD
ENDBRANCH   5  18
BRANCH   3  22
ATOM     22  C   LIG d   1      -6.752  79.802 117.934  0.00  0.00     0.382 C 
ATOM     23  O   LIG d   1      -6.650  80.338 119.064  0.00  0.00    -0.241 OA
ATOM     24  O   LIG d   1      -6.385  80.429 116.922  0.00  0.00    -0.241 OA
ENDBRANCH   3  22
TORSDOF 7
ENDMDL
MODEL 6
REMARK VINA RESULT:      -5.2      2.358      5.964
REMARK  7 active torsions:
REMARK  status: ('A' for Active; 'I' for Inactive)
REMARK    1  A    between atoms: C_2  and  C_3 
REMARK    2  A    between atoms: C_3  and  O_6 
REMARK    3  A    between atoms: C_3  and  C_4 
REMARK    4  A    between atoms: C_7  and  O_6 
REMARK    5  A    between atoms: C_9  and  C_10 
REMARK    6  A    between atoms: N_15  and  C_14 
REMARK    7  A    between atoms: N_20  and  C_19 
REMARK       I    between atoms: C_22  and  N_20 
ROOT
ATOM      1  C   LIG d   1      -8.155  76.263 116.927  0.00  0.00     0.161 C 
ATOM      2  C   LIG d   1      -9.229  75.365 117.046  0.00  0.00     0.016 C 
ATOM      3  C   LIG d   1      -9.130  73.988 116.742  0.00  0.00     0.038 C 
ATOM      4  C   LIG d   1      -7.901  73.383 116.439  0.00  0.00     0.028 C 
ATOM      5  C   LIG d   1      -6.891  74.340 115.816  0.00  0.00    -0.047 C 
ATOM      6  C   LIG d   1      -6.780  75.600 116.704  0.00  0.00     0.091 C 
ENDROOT
BRANCH   1   7
ATOM      7  O   LIG d   1      -8.113  77.131 118.077  0.00  0.00    -0.368 OA
BRANCH   7   8
ATOM      8  C   LIG d   1      -8.332  78.540 117.820  0.00  0.00     0.119 C 
BRANCH   8   9
ATOM      9  C   LIG d   1      -7.207  79.319 118.529  0.00  0.00     0.028 C 
ATOM     10  C   LIG d   1      -6.276  80.038 117.537  0.00  0.00     0.006 C 
ENDBRANCH   8   9
BRANCH   8  11
ATOM     11  C   LIG d   1      -9.632  79.029 118.465  0.00  0.00     0.028 C 
ATOM     12  C   LIG d   1      -9.967  80.484 118.102  0.00  0.00     0.006 C 
ENDBRANCH   8  11
ENDBRANCH   7   8
ENDBRANCH   1   7
BRANCH   6  13
ATOM     13  N   LIG d   1      -5.875  76.626 116.123  0.00  0.00    -0.311 N 
ATOM     14  C   LIG d   1      -4.583  76.724 116.433  0.00  0.00     0.210 C 
ATOM     15  C   LIG d   1      -3.836  77.865 115.735  0.00  0.00     0.109 C 
ATOM     16  O   LIG d   1      -3.978  75.955 117.195  0.00  0.00    -0.276 OA
ATOM     17  H   LIG d   1      -6.276  77.271 115.471  0.00  0.00     0.149 HD
ENDBRANCH   6  13
BRANCH   5  18
ATOM     18  N   LIG d   1      -5.614  73.614 115.679  0.00  0.00     0.381 N 
ATOM     19  H   LIG d   1      -5.034  73.796 116.473  0.00  0.00    -0.090 HD
ATOM     20  H   LIG d   1      -5.138  73.946 114.858  0.00  0.00    -0.090 HD
ATOM     21  H   LIG d   1      -5.785  72.636 115.600  0.00  0.00    -0.090 HD
ENDBRANCH   5  18
BRANCH   3  22
ATOM     22  C   LIG d   1     -10.276  73.209 116.700  0.00  0.00     0.382 C 
ATOM     23  O   LIG d   1     -10.185  71.969 116.535  0.00  0.00    -0.241 OA
ATOM     24  O   LIG d   1     -11.401  73.737 116.780  0.00  0.00    -0.241 OA
ENDBRANCH   3  22
TORSDOF 7
ENDMDL
MODEL 7
REMARK VINA RESULT:      -5.1     18.402     20.694
REMARK  7 active torsions:
REMARK  status: ('A' for Active; 'I' for Inactive)
REMARK    1  A    between atoms: C_2  and  C_3 
REMARK    2  A    between atoms: C_3  and  O_6 
REMARK    3  A    between atoms: C_3  and  C_4 
REMARK    4  A    between atoms: C_7  and  O_6 
REMARK    5  A    between atoms: C_9  and  C_10 
REMARK    6  A    between atoms: N_15  and  C_14 
REMARK    7  A    between atoms: N_20  and  C_19 
REMARK       I    between atoms: C_22  and  N_20 
ROOT
ATOM      1  C   LIG d   1       1.183  57.949 118.837  0.00  0.00     0.161 C 
ATOM      2  C   LIG d   1      -0.019  58.450 118.310  0.00  0.00     0.016 C 
ATOM      3  C   LIG d   1      -0.770  57.784 117.314  0.00  0.00     0.038 C 
ATOM      4  C   LIG d   1      -0.446  56.489 116.884  0.00  0.00     0.028 C 
ATOM      5  C   LIG d   1       1.037  56.158 117.020  0.00  0.00    -0.047 C 
ATOM      6  C   LIG d   1       1.493  56.485 118.460  0.00  0.00     0.091 C 
ENDROOT
BRANCH   1   7
ATOM      7  O   LIG d   1       1.193  58.110 120.269  0.00  0.00    -0.368 OA
BRANCH   7   8
ATOM      8  C   LIG d   1       1.961  59.228 120.780  0.00  0.00     0.119 C 
BRANCH   8   9
ATOM      9  C   LIG d   1       3.215  58.653 121.466  0.00  0.00     0.028 C 
ATOM     10  C   LIG d   1       4.498  58.916 120.660  0.00  0.00     0.006 C 
ENDBRANCH   8   9
BRANCH   8  11
ATOM     11  C   LIG d   1       1.199  59.970 121.882  0.00  0.00     0.028 C 
ATOM     12  C   LIG d   1      -0.238  59.456 122.063  0.00  0.00     0.006 C 
ENDBRANCH   8  11
ENDBRANCH   7   8
ENDBRANCH   1   7
BRANCH   6  13
ATOM     13  N   LIG d   1       2.951  56.270 118.655  0.00  0.00    -0.311 N 
ATOM     14  C   LIG d   1       3.454  55.428 119.556  0.00  0.00     0.210 C 
ATOM     15  C   LIG d   1       4.984  55.372 119.606  0.00  0.00     0.109 C 
ATOM     16  O   LIG d   1       2.778  54.697 120.296  0.00  0.00    -0.276 OA
ATOM     17  H   LIG d   1       3.572  56.799 118.075  0.00  0.00     0.149 HD
ENDBRANCH   6  13
BRANCH   5  18
ATOM     18  N   LIG d   1       1.211  54.737 116.667  0.00  0.00     0.381 N 
ATOM     19  H   LIG d   1       0.656  54.517 115.864  0.00  0.00    -0.090 HD
ATOM     20  H   LIG d   1       0.894  54.170 117.434  0.00  0.00    -0.090 HD
ATOM     21  H   LIG d   1       2.170  54.547 116.478  0.00  0.00    -0.090 HD
ENDBRANCH   5  18
BRANCH   3  22
ATOM     22  C   LIG d   1      -1.836  58.432 116.709  0.00  0.00     0.382 C 
ATOM     23  O   LIG d   1      -2.963  58.433 117.261  0.00  0.00    -0.241 OA
ATOM     24  O   LIG d   1      -1.696  58.977 115.598  0.00  0.00    -0.241 OA
ENDBRANCH   3  22
TORSDOF 7
ENDMDL
MODEL 8
REMARK VINA RESULT:      -4.9      2.183      5.131
REMARK  7 active torsions:
REMARK  status: ('A' for Active; 'I' for Inactive)
REMARK    1  A    between atoms: C_2  and  C_3 
REMARK    2  A    between atoms: C_3  and  O_6 
REMARK    3  A    between atoms: C_3  and  C_4 
REMARK    4  A    between atoms: C_7  and  O_6 
REMARK    5  A    between atoms: C_9  and  C_10 
REMARK    6  A    between atoms: N_15  and  C_14 
REMARK    7  A    between atoms: N_20  and  C_19 
REMARK       I    between atoms: C_22  and  N_20 
ROOT
ATOM      1  C   LIG d   1      -7.266  76.339 117.156  0.00  0.00     0.161 C 
ATOM      2  C   LIG d   1      -8.062  75.203 116.932  0.00  0.00     0.016 C 
ATOM      3  C   LIG d   1      -9.439  75.143 117.249  0.00  0.00     0.038 C 
ATOM      4  C   LIG d   1     -10.152  76.273 117.674  0.00  0.00     0.028 C 
ATOM      5  C   LIG d   1      -9.285  77.302 118.392  0.00  0.00    -0.047 C 
ATOM      6  C   LIG d   1      -8.052  77.618 117.516  0.00  0.00     0.091 C 
ENDROOT
BRANCH   1   7
ATOM      7  O   LIG d   1      -6.420  76.576 116.014  0.00  0.00    -0.368 OA
BRANCH   7   8
ATOM      8  C   LIG d   1      -5.036  76.170 116.152  0.00  0.00     0.119 C 
BRANCH   8   9
ATOM      9  C   LIG d   1      -4.173  77.205 115.403  0.00  0.00     0.028 C 
ATOM     10  C   LIG d   1      -4.145  78.569 116.113  0.00  0.00     0.006 C 
ENDBRANCH   8   9
BRANCH   8  11
ATOM     11  C   LIG d   1      -4.773  74.837 115.445  0.00  0.00     0.028 C 
ATOM     12  C   LIG d   1      -5.657  74.636 114.204  0.00  0.00     0.006 C 
ENDBRANCH   8  11
ENDBRANCH   7   8
ENDBRANCH   1   7
BRANCH   6  13
ATOM     13  N   LIG d   1      -7.108  78.553 118.182  0.00  0.00    -0.311 N 
ATOM     14  C   LIG d   1      -7.105  79.868 117.968  0.00  0.00     0.210 C 
ATOM     15  C   LIG d   1      -6.036  80.646 118.741  0.00  0.00     0.109 C 
ATOM     16  O   LIG d   1      -7.906  80.467 117.236  0.00  0.00    -0.276 OA
ATOM     17  H   LIG d   1      -6.443  78.155 118.816  0.00  0.00     0.149 HD
ENDBRANCH   6  13
BRANCH   5  18
ATOM     18  N   LIG d   1     -10.125  78.485 118.657  0.00  0.00     0.381 N 
ATOM     19  H   LIG d   1     -10.422  78.483 119.613  0.00  0.00    -0.090 HD
ATOM     20  H   LIG d   1     -10.941  78.442 118.073  0.00  0.00    -0.090 HD
ATOM     21  H   LIG d   1      -9.613  79.317 118.463  0.00  0.00    -0.090 HD
ENDBRANCH   5  18
BRANCH   3  22
ATOM     22  C   LIG d   1     -10.107  73.930 117.179  0.00  0.00     0.382 C 
ATOM     23  O   LIG d   1      -9.522  72.871 117.510  0.00  0.00    -0.241 OA
ATOM     24  O   LIG d   1     -11.274  73.876 116.746  0.00  0.00    -0.241 OA
ENDBRANCH   3  22
TORSDOF 7
ENDMDL
MODEL 9
REMARK VINA RESULT:      -4.9      3.212      5.793
REMARK  7 active torsions:
REMARK  status: ('A' for Active; 'I' for Inactive)
REMARK    1  A    between atoms: C_2  and  C_3 
REMARK    2  A    between atoms: C_3  and  O_6 
REMARK    3  A    between atoms: C_3  and  C_4 
REMARK    4  A    between atoms: C_7  and  O_6 
REMARK    5  A    between atoms: C_9  and  C_10 
REMARK    6  A    between atoms: N_15  and  C_14 
REMARK    7  A    between atoms: N_20  and  C_19 
REMARK       I    between atoms: C_22  and  N_20 
ROOT
ATOM      1  C   LIG d   1      -4.909  77.048 116.489  0.00  0.00     0.161 C 
ATOM      2  C   LIG d   1      -5.498  78.275 116.835  0.00  0.00     0.016 C 
ATOM      3  C   LIG d   1      -4.833  79.517 116.721  0.00  0.00     0.038 C 
ATOM      4  C   LIG d   1      -3.577  79.632 116.107  0.00  0.00     0.028 C 
ATOM      5  C   LIG d   1      -2.737  78.364 116.203  0.00  0.00    -0.047 C 
ATOM      6  C   LIG d   1      -3.581  77.165 115.712  0.00  0.00     0.091 C 
ENDROOT
BRANCH   1   7
ATOM      7  O   LIG d   1      -5.851  76.244 115.751  0.00  0.00    -0.368 OA
BRANCH   7   8
ATOM      8  C   LIG d   1      -6.506  75.186 116.494  0.00  0.00     0.119 C 
BRANCH   8   9
ATOM      9  C   LIG d   1      -6.533  73.937 115.593  0.00  0.00     0.028 C 
ATOM     10  C   LIG d   1      -5.563  74.048 114.404  0.00  0.00     0.006 C 
ENDBRANCH   8   9
BRANCH   8  11
ATOM     11  C   LIG d   1      -7.975  75.523 116.765  0.00  0.00     0.028 C 
ATOM     12  C   LIG d   1      -8.832  74.276 117.036  0.00  0.00     0.006 C 
ENDBRANCH   8  11
ENDBRANCH   7   8
ENDBRANCH   1   7
BRANCH   6  13
ATOM     13  N   LIG d   1      -2.862  75.871 115.853  0.00  0.00    -0.311 N 
ATOM     14  C   LIG d   1      -2.138  75.325 114.877  0.00  0.00     0.210 C 
ATOM     15  C   LIG d   1      -1.497  73.978 115.224  0.00  0.00     0.109 C 
ATOM     16  O   LIG d   1      -1.940  75.844 113.768  0.00  0.00    -0.276 OA
ATOM     17  H   LIG d   1      -2.944  75.397 116.731  0.00  0.00     0.149 HD
ENDBRANCH   6  13
BRANCH   5  18
ATOM     18  N   LIG d   1      -1.515  78.576 115.405  0.00  0.00     0.381 N 
ATOM     19  H   LIG d   1      -1.335  79.556 115.317  0.00  0.00    -0.090 HD
ATOM     20  H   LIG d   1      -1.658  78.198 114.485  0.00  0.00    -0.090 HD
ATOM     21  H   LIG d   1      -0.740  78.127 115.841  0.00  0.00    -0.090 HD
ENDBRANCH   5  18
BRANCH   3  22
ATOM     22  C   LIG d   1      -5.409  80.657 117.262  0.00  0.00     0.382 C 
ATOM     23  O   LIG d   1      -6.495  81.088 116.805  0.00  0.00    -0.241 OA
ATOM     24  O   LIG d   1      -4.834  81.284 118.172  0.00  0.00    -0.241 OA
ENDBRANCH   3  22
TORSDOF 7
ENDMDL
