MODEL 1
REMARK VINA RESULT:      -6.2      0.000      0.000
REMARK  7 active torsions:
REMARK  status: ('A' for Active; 'I' for Inactive)
REMARK    1  A    between atoms: C_2  and  C_3 
REMARK    2  A    between atoms: C_3  and  O_6 
REMARK    3  A    between atoms: C_3  and  C_4 
REMARK    4  A    between atoms: C_7  and  O_6 
REMARK    5  A    between atoms: C_9  and  C_10 
REMARK    6  A    between atoms: N_15  and  C_14 
REMARK    7  A    between atoms: N_20  and  C_19 
REMARK       I    between atoms: C_22  and  N_20 
ROOT
ATOM      1  C   LIG d   1      -7.443  77.483 117.217  0.00  0.00     0.161 C 
ATOM      2  C   LIG d   1      -8.639  78.177 117.462  0.00  0.00     0.016 C 
ATOM      3  C   LIG d   1      -8.693  79.562 117.742  0.00  0.00     0.038 C 
ATOM      4  C   LIG d   1      -7.558  80.382 117.646  0.00  0.00     0.028 C 
ATOM      5  C   LIG d   1      -6.251  79.638 117.898  0.00  0.00    -0.047 C 
ATOM      6  C   LIG d   1      -6.207  78.381 116.999  0.00  0.00     0.091 C 
ENDROOT
BRANCH   1   7
ATOM      7  O   LIG d   1      -7.616  76.589 116.100  0.00  0.00    -0.368 OA
BRANCH   7   8
ATOM      8  C   LIG d   1      -7.767  75.185 116.424  0.00  0.00     0.119 C 
BRANCH   8   9
ATOM      9  C   LIG d   1      -6.699  74.410 115.629  0.00  0.00     0.028 C 
ATOM     10  C   LIG d   1      -6.061  75.261 114.518  0.00  0.00     0.006 C 
ENDBRANCH   8   9
BRANCH   8  11
ATOM     11  C   LIG d   1      -9.112  74.642 115.933  0.00  0.00     0.028 C 
ATOM     12  C   LIG d   1      -9.156  73.106 115.898  0.00  0.00     0.006 C 
ENDBRANCH   8  11
ENDBRANCH   7   8
ENDBRANCH   1   7
BRANCH   6  13
ATOM     13  N   LIG d   1      -4.999  77.551 117.244  0.00  0.00    -0.311 N 
ATOM     14  C   LIG d   1      -3.897  77.624 116.499  0.00  0.00     0.210 C 
ATOM     15  C   LIG d   1      -2.774  76.666 116.911  0.00  0.00     0.109 C 
ATOM     16  O   LIG d   1      -3.730  78.414 115.558  0.00  0.00    -0.276 OA
ATOM     17  H   LIG d   1      -5.036  76.905 118.007  0.00  0.00     0.149 HD
ENDBRANCH   6  13
BRANCH   5  18
ATOM     18  N   LIG d   1      -5.145  80.578 117.631  0.00  0.00     0.381 N 
ATOM     19  H   LIG d   1      -4.879  81.036 118.480  0.00  0.00    -0.090 HD
ATOM     20  H   LIG d   1      -5.462  81.276 116.982  0.00  0.00    -0.090 HD
ATOM     21  H   LIG d   1      -4.366  80.088 117.251  0.00  0.00    -0.090 HD
ENDBRANCH   5  18
BRANCH   3  22
ATOM     22  C   LIG d   1      -9.884  80.133 118.161  0.00  0.00     0.382 C 
ATOM     23  O   LIG d   1     -10.492  80.936 117.413  0.00  0.00    -0.241 OA
ATOM     24  O   LIG d   1     -10.337  79.890 119.296  0.00  0.00    -0.241 OA
ENDBRANCH   3  22
TORSDOF 7
ENDMDL
MODEL 2
REMARK VINA RESULT:      -6.0      2.495      5.453
REMARK  7 active torsions:
REMARK  status: ('A' for Active; 'I' for Inactive)
REMARK    1  A    between atoms: C_2  and  C_3 
REMARK    2  A    between atoms: C_3  and  O_6 
REMARK    3  A    between atoms: C_3  and  C_4 
REMARK    4  A    between atoms: C_7  and  O_6 
REMARK    5  A    between atoms: C_9  and  C_10 
REMARK    6  A    between atoms: N_15  and  C_14 
REMARK    7  A    between atoms: N_20  and  C_19 
REMARK       I    between atoms: C_22  and  N_20 
ROOT
ATOM      1  C   LIG d   1      -6.453  76.003 115.055  0.00  0.00     0.161 C 
ATOM      2  C   LIG d   1      -7.436  75.043 115.350  0.00  0.00     0.016 C 
ATOM      3  C   LIG d   1      -7.139  73.748 115.833  0.00  0.00     0.038 C 
ATOM      4  C   LIG d   1      -5.837  73.374 116.200  0.00  0.00     0.028 C 
ATOM      5  C   LIG d   1      -4.753  74.136 115.445  0.00  0.00    -0.047 C 
ATOM      6  C   LIG d   1      -5.036  75.651 115.554  0.00  0.00     0.091 C 
ENDROOT
BRANCH   1   7
ATOM      7  O   LIG d   1      -6.859  77.289 115.562  0.00  0.00    -0.368 OA
BRANCH   7   8
ATOM      8  C   LIG d   1      -6.722  77.482 116.992  0.00  0.00     0.119 C 
BRANCH   8   9
ATOM      9  C   LIG d   1      -8.084  77.968 117.525  0.00  0.00     0.028 C 
ATOM     10  C   LIG d   1      -8.184  79.502 117.571  0.00  0.00     0.006 C 
ENDBRANCH   8   9
BRANCH   8  11
ATOM     11  C   LIG d   1      -5.737  78.610 117.310  0.00  0.00     0.028 C 
ATOM     12  C   LIG d   1      -4.850  78.301 118.527  0.00  0.00     0.006 C 
ENDBRANCH   8  11
ENDBRANCH   7   8
ENDBRANCH   1   7
BRANCH   6  13
ATOM     13  N   LIG d   1      -4.069  76.466 114.772  0.00  0.00    -0.311 N 
ATOM     14  C   LIG d   1      -2.939  76.952 115.282  0.00  0.00     0.210 C 
ATOM     15  C   LIG d   1      -2.095  77.782 114.310  0.00  0.00     0.109 C 
ATOM     16  O   LIG d   1      -2.539  76.746 116.438  0.00  0.00    -0.276 OA
ATOM     17  H   LIG d   1      -4.300  76.654 113.816  0.00  0.00     0.149 HD
ENDBRANCH   6  13
BRANCH   5  18
ATOM     18  N   LIG d   1      -3.452  73.748 116.023  0.00  0.00     0.381 N 
ATOM     19  H   LIG d   1      -3.597  73.233 116.868  0.00  0.00    -0.090 HD
ATOM     20  H   LIG d   1      -2.934  74.579 116.244  0.00  0.00    -0.090 HD
ATOM     21  H   LIG d   1      -2.942  73.193 115.371  0.00  0.00    -0.090 HD
ENDBRANCH   5  18
BRANCH   3  22
ATOM     22  C   LIG d   1      -8.145  72.798 115.916  0.00  0.00     0.382 C 
ATOM     23  O   LIG d   1      -9.348  73.156 115.906  0.00  0.00    -0.241 OA
ATOM     24  O   LIG d   1      -7.865  71.591 116.046  0.00  0.00    -0.241 OA
ENDBRANCH   3  22
TORSDOF 7
ENDMDL
MODEL 3
REMARK VINA RESULT:      -5.9      1.574      2.220
REMARK  7 active torsions:
REMARK  status: ('A' for Active; 'I' for Inactive)
REMARK    1  A    between atoms: C_2  and  C_3 
REMARK    2  A    between atoms: C_3  and  O_6 
REMARK    3  A    between atoms: C_3  and  C_4 
REMARK    4  A    between atoms: C_7  and  O_6 
REMARK    5  A    between atoms: C_9  and  C_10 
REMARK    6  A    between atoms: N_15  and  C_14 
REMARK    7  A    between atoms: N_20  and  C_19 
REMARK       I    between atoms: C_22  and  N_20 
ROOT
ATOM      1  C   LIG d   1      -6.647  76.713 116.603  0.00  0.00     0.161 C 
ATOM      2  C   LIG d   1      -7.618  77.619 117.062  0.00  0.00     0.016 C 
ATOM      3  C   LIG d   1      -7.309  78.913 117.541  0.00  0.00     0.038 C 
ATOM      4  C   LIG d   1      -6.015  79.447 117.454  0.00  0.00     0.028 C 
ATOM      5  C   LIG d   1      -4.920  78.386 117.466  0.00  0.00    -0.047 C 
ATOM      6  C   LIG d   1      -5.243  77.318 116.396  0.00  0.00     0.091 C 
ENDROOT
BRANCH   1   7
ATOM      7  O   LIG d   1      -7.104  76.080 115.392  0.00  0.00    -0.368 OA
BRANCH   7   8
ATOM      8  C   LIG d   1      -7.505  74.693 115.509  0.00  0.00     0.119 C 
BRANCH   8   9
ATOM      9  C   LIG d   1      -9.010  74.673 115.840  0.00  0.00     0.028 C 
ATOM     10  C   LIG d   1      -9.592  73.249 115.843  0.00  0.00     0.006 C 
ENDBRANCH   8   9
BRANCH   8  11
ATOM     11  C   LIG d   1      -6.820  74.013 116.698  0.00  0.00     0.028 C 
ATOM     12  C   LIG d   1      -6.024  72.762 116.292  0.00  0.00     0.006 C 
ENDBRANCH   8  11
ENDBRANCH   7   8
ENDBRANCH   1   7
BRANCH   6  13
ATOM     13  N   LIG d   1      -4.266  76.199 116.399  0.00  0.00    -0.311 N 
ATOM     14  C   LIG d   1      -3.743  75.679 115.290  0.00  0.00     0.210 C 
ATOM     15  C   LIG d   1      -2.770  74.517 115.516  0.00  0.00     0.109 C 
ATOM     16  O   LIG d   1      -3.969  76.090 114.142  0.00  0.00    -0.276 OA
ATOM     17  H   LIG d   1      -4.003  75.825 117.290  0.00  0.00     0.149 HD
ENDBRANCH   6  13
BRANCH   5  18
ATOM     18  N   LIG d   1      -3.634  79.070 117.230  0.00  0.00     0.381 N 
ATOM     19  H   LIG d   1      -3.332  78.908 116.290  0.00  0.00    -0.090 HD
ATOM     20  H   LIG d   1      -2.944  78.689 117.853  0.00  0.00    -0.090 HD
ATOM     21  H   LIG d   1      -3.734  80.048 117.391  0.00  0.00    -0.090 HD
ENDBRANCH   5  18
BRANCH   3  22
ATOM     22  C   LIG d   1      -8.295  79.672 118.154  0.00  0.00     0.382 C 
ATOM     23  O   LIG d   1      -9.432  79.180 118.353  0.00  0.00    -0.241 OA
ATOM     24  O   LIG d   1      -8.076  80.857 118.468  0.00  0.00    -0.241 OA
ENDBRANCH   3  22
TORSDOF 7
ENDMDL
MODEL 4
REMARK VINA RESULT:      -5.9      2.148      5.380
REMARK  7 active torsions:
REMARK  status: ('A' for Active; 'I' for Inactive)
REMARK    1  A    between atoms: C_2  and  C_3 
REMARK    2  A    between atoms: C_3  and  O_6 
REMARK    3  A    between atoms: C_3  and  C_4 
REMARK    4  A    between atoms: C_7  and  O_6 
REMARK    5  A    between atoms: C_9  and  C_10 
REMARK    6  A    between atoms: N_15  and  C_14 
REMARK    7  A    between atoms: N_20  and  C_19 
REMARK       I    between atoms: C_22  and  N_20 
ROOT
ATOM      1  C   LIG d   1      -6.726  76.218 116.471  0.00  0.00     0.161 C 
ATOM      2  C   LIG d   1      -7.619  75.134 116.424  0.00  0.00     0.016 C 
ATOM      3  C   LIG d   1      -7.208  73.796 116.226  0.00  0.00     0.038 C 
ATOM      4  C   LIG d   1      -5.854  73.430 116.212  0.00  0.00     0.028 C 
ATOM      5  C   LIG d   1      -4.929  74.551 115.750  0.00  0.00    -0.047 C 
ATOM      6  C   LIG d   1      -5.237  75.826 116.568  0.00  0.00     0.091 C 
ENDROOT
BRANCH   1   7
ATOM      7  O   LIG d   1      -7.084  77.099 117.553  0.00  0.00    -0.368 OA
BRANCH   7   8
ATOM      8  C   LIG d   1      -7.429  78.457 117.183  0.00  0.00     0.119 C 
BRANCH   8   9
ATOM      9  C   LIG d   1      -6.376  79.390 117.812  0.00  0.00     0.028 C 
ATOM     10  C   LIG d   1      -5.762  78.802 119.093  0.00  0.00     0.006 C 
ENDBRANCH   8   9
BRANCH   8  11
ATOM     11  C   LIG d   1      -8.766  78.881 117.798  0.00  0.00     0.028 C 
ATOM     12  C   LIG d   1      -9.053  80.381 117.625  0.00  0.00     0.006 C 
ENDBRANCH   8  11
ENDBRANCH   7   8
ENDBRANCH   1   7
BRANCH   6  13
ATOM     13  N   LIG d   1      -4.434  76.994 116.122  0.00  0.00    -0.311 N 
ATOM     14  C   LIG d   1      -3.288  77.357 116.694  0.00  0.00     0.210 C 
ATOM     15  C   LIG d   1      -2.631  78.603 116.092  0.00  0.00     0.109 C 
ATOM     16  O   LIG d   1      -2.736  76.747 117.622  0.00  0.00    -0.276 OA
ATOM     17  H   LIG d   1      -4.793  77.527 115.354  0.00  0.00     0.149 HD
ENDBRANCH   6  13
BRANCH   5  18
ATOM     18  N   LIG d   1      -3.541  74.080 115.915  0.00  0.00     0.381 N 
ATOM     19  H   LIG d   1      -3.431  73.189 115.473  0.00  0.00    -0.090 HD
ATOM     20  H   LIG d   1      -3.349  73.971 116.895  0.00  0.00    -0.090 HD
ATOM     21  H   LIG d   1      -2.908  74.737 115.516  0.00  0.00    -0.090 HD
ENDBRANCH   5  18
BRANCH   3  22
ATOM     22  C   LIG d   1      -8.158  72.812 116.000  0.00  0.00     0.382 C 
ATOM     23  O   LIG d   1      -7.811  71.608 115.937  0.00  0.00    -0.241 OA
ATOM     24  O   LIG d   1      -9.352  73.116 115.814  0.00  0.00    -0.241 OA
ENDBRANCH   3  22
TORSDOF 7
ENDMDL
MODEL 5
REMARK VINA RESULT:      -5.5      1.088      1.894
REMARK  7 active torsions:
REMARK  status: ('A' for Active; 'I' for Inactive)
REMARK    1  A    between atoms: C_2  and  C_3 
REMARK    2  A    between atoms: C_3  and  O_6 
REMARK    3  A    between atoms: C_3  and  C_4 
REMARK    4  A    between atoms: C_7  and  O_6 
REMARK    5  A    between atoms: C_9  and  C_10 
REMARK    6  A    between atoms: N_15  and  C_14 
REMARK    7  A    between atoms: N_20  and  C_19 
REMARK       I    between atoms: C_22  and  N_20 
ROOT
ATOM      1  C   LIG d   1      -6.428  77.070 117.671  0.00  0.00     0.161 C 
ATOM      2  C   LIG d   1      -7.705  77.655 117.706  0.00  0.00     0.016 C 
ATOM      3  C   LIG d   1      -7.924  79.050 117.642  0.00  0.00     0.038 C 
ATOM      4  C   LIG d   1      -6.881  79.953 117.386  0.00  0.00     0.028 C 
ATOM      5  C   LIG d   1      -5.518  79.451 117.848  0.00  0.00    -0.047 C 
ATOM      6  C   LIG d   1      -5.287  78.032 117.280  0.00  0.00     0.091 C 
ENDROOT
BRANCH   1   7
ATOM      7  O   LIG d   1      -6.439  75.924 116.797  0.00  0.00    -0.368 OA
BRANCH   7   8
ATOM      8  C   LIG d   1      -7.278  76.028 115.620  0.00  0.00     0.119 C 
BRANCH   8   9
ATOM      9  C   LIG d   1      -8.318  74.894 115.691  0.00  0.00     0.028 C 
ATOM     10  C   LIG d   1      -7.685  73.538 116.047  0.00  0.00     0.006 C 
ENDBRANCH   8   9
BRANCH   8  11
ATOM     11  C   LIG d   1      -6.477  75.765 114.341  0.00  0.00     0.028 C 
ATOM     12  C   LIG d   1      -4.988  75.502 114.614  0.00  0.00     0.006 C 
ENDBRANCH   8  11
ENDBRANCH   7   8
ENDBRANCH   1   7
BRANCH   6  13
ATOM     13  N   LIG d   1      -4.012  77.432 117.754  0.00  0.00    -0.311 N 
ATOM     14  C   LIG d   1      -2.875  77.487 117.062  0.00  0.00     0.210 C 
ATOM     15  C   LIG d   1      -1.682  76.788 117.722  0.00  0.00     0.109 C 
ATOM     16  O   LIG d   1      -2.733  78.076 115.980  0.00  0.00    -0.276 OA
ATOM     17  H   LIG d   1      -4.029  76.962 118.637  0.00  0.00     0.149 HD
ENDBRANCH   6  13
BRANCH   5  18
ATOM     18  N   LIG d   1      -4.507  80.426 117.396  0.00  0.00     0.381 N 
ATOM     19  H   LIG d   1      -3.601  80.001 117.400  0.00  0.00    -0.090 HD
ATOM     20  H   LIG d   1      -4.495  81.201 118.035  0.00  0.00    -0.090 HD
ATOM     21  H   LIG d   1      -4.728  80.746 116.479  0.00  0.00    -0.090 HD
ENDBRANCH   5  18
BRANCH   3  22
ATOM     22  C   LIG d   1      -9.193  79.558 117.876  0.00  0.00     0.382 C 
ATOM     23  O   LIG d   1     -10.174  78.781 117.954  0.00  0.00    -0.241 OA
ATOM     24  O   LIG d   1      -9.375  80.787 117.964  0.00  0.00    -0.241 OA
ENDBRANCH   3  22
TORSDOF 7
ENDMDL
MODEL 6
REMARK VINA RESULT:      -5.4      1.644      5.009
REMARK  7 active torsions:
REMARK  status: ('A' for Active; 'I' for Inactive)
REMARK    1  A    between atoms: C_2  and  C_3 
REMARK    2  A    between atoms: C_3  and  O_6 
REMARK    3  A    between atoms: C_3  and  C_4 
REMARK    4  A    between atoms: C_7  and  O_6 
REMARK    5  A    between atoms: C_9  and  C_10 
REMARK    6  A    between atoms: N_15  and  C_14 
REMARK    7  A    between atoms: N_20  and  C_19 
REMARK       I    between atoms: C_22  and  N_20 
ROOT
ATOM      1  C   LIG d   1      -6.453  76.682 116.296  0.00  0.00     0.161 C 
ATOM      2  C   LIG d   1      -5.194  76.188 115.917  0.00  0.00     0.016 C 
ATOM      3  C   LIG d   1      -3.977  76.838 116.228  0.00  0.00     0.038 C 
ATOM      4  C   LIG d   1      -3.929  77.955 117.076  0.00  0.00     0.028 C 
ATOM      5  C   LIG d   1      -5.212  78.779 117.066  0.00  0.00    -0.047 C 
ATOM      6  C   LIG d   1      -6.414  77.839 117.316  0.00  0.00     0.091 C 
ENDROOT
BRANCH   1   7
ATOM      7  O   LIG d   1      -7.271  75.604 116.793  0.00  0.00    -0.368 OA
BRANCH   7   8
ATOM      8  C   LIG d   1      -7.520  74.515 115.870  0.00  0.00     0.119 C 
BRANCH   8   9
ATOM      9  C   LIG d   1      -9.047  74.336 115.766  0.00  0.00     0.028 C 
ATOM     10  C   LIG d   1      -9.819  75.470 116.461  0.00  0.00     0.006 C 
ENDBRANCH   8   9
BRANCH   8  11
ATOM     11  C   LIG d   1      -6.993  73.187 116.421  0.00  0.00     0.028 C 
ATOM     12  C   LIG d   1      -7.943  72.010 116.149  0.00  0.00     0.006 C 
ENDBRANCH   8  11
ENDBRANCH   7   8
ENDBRANCH   1   7
BRANCH   6  13
ATOM     13  N   LIG d   1      -7.716  78.552 117.239  0.00  0.00    -0.311 N 
ATOM     14  C   LIG d   1      -8.351  79.036 118.305  0.00  0.00     0.210 C 
ATOM     15  C   LIG d   1      -9.690  79.718 118.006  0.00  0.00     0.109 C 
ATOM     16  O   LIG d   1      -7.917  78.994 119.466  0.00  0.00    -0.276 OA
ATOM     17  H   LIG d   1      -8.125  78.658 116.331  0.00  0.00     0.149 HD
ENDBRANCH   6  13
BRANCH   5  18
ATOM     18  N   LIG d   1      -5.075  79.829 118.093  0.00  0.00     0.381 N 
ATOM     19  H   LIG d   1      -5.841  80.469 118.027  0.00  0.00    -0.090 HD
ATOM     20  H   LIG d   1      -4.224  80.337 117.927  0.00  0.00    -0.090 HD
ATOM     21  H   LIG d   1      -5.054  79.418 119.000  0.00  0.00    -0.090 HD
ENDBRANCH   5  18
BRANCH   3  22
ATOM     22  C   LIG d   1      -2.795  76.394 115.656  0.00  0.00     0.382 C 
ATOM     23  O   LIG d   1      -1.898  75.896 116.377  0.00  0.00    -0.241 OA
ATOM     24  O   LIG d   1      -2.597  76.525 114.433  0.00  0.00    -0.241 OA
ENDBRANCH   3  22
TORSDOF 7
ENDMDL
MODEL 7
REMARK VINA RESULT:      -5.3      2.354      5.638
REMARK  7 active torsions:
REMARK  status: ('A' for Active; 'I' for Inactive)
REMARK    1  A    between atoms: C_2  and  C_3 
REMARK    2  A    between atoms: C_3  and  O_6 
REMARK    3  A    between atoms: C_3  and  C_4 
REMARK    4  A    between atoms: C_7  and  O_6 
REMARK    5  A    between atoms: C_9  and  C_10 
REMARK    6  A    between atoms: N_15  and  C_14 
REMARK    7  A    between atoms: N_20  and  C_19 
REMARK       I    between atoms: C_22  and  N_20 
ROOT
ATOM      1  C   LIG d   1      -4.887  76.031 116.382  0.00  0.00     0.161 C 
ATOM      2  C   LIG d   1      -3.814  75.155 116.146  0.00  0.00     0.016 C 
ATOM      3  C   LIG d   1      -2.484  75.429 116.541  0.00  0.00     0.038 C 
ATOM      4  C   LIG d   1      -2.161  76.538 117.337  0.00  0.00     0.028 C 
ATOM      5  C   LIG d   1      -3.126  77.707 117.168  0.00  0.00    -0.047 C 
ATOM      6  C   LIG d   1      -4.573  77.193 117.347  0.00  0.00     0.091 C 
ENDROOT
BRANCH   1   7
ATOM      7  O   LIG d   1      -6.031  75.288 116.847  0.00  0.00    -0.368 OA
BRANCH   7   8
ATOM      8  C   LIG d   1      -6.598  74.338 115.912  0.00  0.00     0.119 C 
BRANCH   8   9
ATOM      9  C   LIG d   1      -8.038  74.793 115.606  0.00  0.00     0.028 C 
ATOM     10  C   LIG d   1      -8.489  75.958 116.503  0.00  0.00     0.006 C 
ENDBRANCH   8   9
BRANCH   8  11
ATOM     11  C   LIG d   1      -6.737  72.950 116.544  0.00  0.00     0.028 C 
ATOM     12  C   LIG d   1      -8.029  72.231 116.123  0.00  0.00     0.006 C 
ENDBRANCH   8  11
ENDBRANCH   7   8
ENDBRANCH   1   7
BRANCH   6  13
ATOM     13  N   LIG d   1      -5.585  78.257 117.114  0.00  0.00    -0.311 N 
ATOM     14  C   LIG d   1      -6.118  78.988 118.091  0.00  0.00     0.210 C 
ATOM     15  C   LIG d   1      -7.158  80.017 117.636  0.00  0.00     0.109 C 
ATOM     16  O   LIG d   1      -5.804  78.905 119.288  0.00  0.00    -0.276 OA
ATOM     17  H   LIG d   1      -5.873  78.413 116.168  0.00  0.00     0.149 HD
ENDBRANCH   6  13
BRANCH   5  18
ATOM     18  N   LIG d   1      -2.753  78.739 118.154  0.00  0.00     0.381 N 
ATOM     19  H   LIG d   1      -2.072  78.371 118.788  0.00  0.00    -0.090 HD
ATOM     20  H   LIG d   1      -3.569  78.994 118.682  0.00  0.00    -0.090 HD
ATOM     21  H   LIG d   1      -2.386  79.539 117.688  0.00  0.00    -0.090 HD
ENDBRANCH   5  18
BRANCH   3  22
ATOM     22  C   LIG d   1      -1.455  74.610 116.104  0.00  0.00     0.382 C 
ATOM     23  O   LIG d   1      -1.595  73.931 115.058  0.00  0.00    -0.241 OA
ATOM     24  O   LIG d   1      -0.405  74.507 116.766  0.00  0.00    -0.241 OA
ENDBRANCH   3  22
TORSDOF 7
ENDMDL
MODEL 8
REMARK VINA RESULT:      -5.3     12.210     14.567
REMARK  7 active torsions:
REMARK  status: ('A' for Active; 'I' for Inactive)
REMARK    1  A    between atoms: C_2  and  C_3 
REMARK    2  A    between atoms: C_3  and  O_6 
REMARK    3  A    between atoms: C_3  and  C_4 
REMARK    4  A    between atoms: C_7  and  O_6 
REMARK    5  A    between atoms: C_9  and  C_10 
REMARK    6  A    between atoms: N_15  and  C_14 
REMARK    7  A    between atoms: N_20  and  C_19 
REMARK       I    between atoms: C_22  and  N_20 
ROOT
ATOM      1  C   LIG d   1      -3.877  90.750 117.729  0.00  0.00     0.161 C 
ATOM      2  C   LIG d   1      -4.348  90.110 116.571  0.00  0.00     0.016 C 
ATOM      3  C   LIG d   1      -5.507  90.521 115.872  0.00  0.00     0.038 C 
ATOM      4  C   LIG d   1      -6.192  91.700 116.200  0.00  0.00     0.028 C 
ATOM      5  C   LIG d   1      -6.048  92.097 117.666  0.00  0.00    -0.047 C 
ATOM      6  C   LIG d   1      -4.547  92.105 118.038  0.00  0.00     0.091 C 
ENDROOT
BRANCH   1   7
ATOM      7  O   LIG d   1      -2.446  90.905 117.654  0.00  0.00    -0.368 OA
BRANCH   7   8
ATOM      8  C   LIG d   1      -1.668  90.100 118.573  0.00  0.00     0.119 C 
BRANCH   8   9
ATOM      9  C   LIG d   1      -0.629  91.026 119.235  0.00  0.00     0.028 C 
ATOM     10  C   LIG d   1      -0.205  92.184 118.316  0.00  0.00     0.006 C 
ENDBRANCH   8   9
BRANCH   8  11
ATOM     11  C   LIG d   1      -0.850  89.039 117.830  0.00  0.00     0.028 C 
ATOM     12  C   LIG d   1      -1.642  87.747 117.575  0.00  0.00     0.006 C 
ENDBRANCH   8  11
ENDBRANCH   7   8
ENDBRANCH   1   7
BRANCH   6  13
ATOM     13  N   LIG d   1      -4.322  92.401 119.477  0.00  0.00    -0.311 N 
ATOM     14  C   LIG d   1      -3.550  93.397 119.909  0.00  0.00     0.210 C 
ATOM     15  C   LIG d   1      -3.438  93.514 121.432  0.00  0.00     0.109 C 
ATOM     16  O   LIG d   1      -2.974  94.214 119.175  0.00  0.00    -0.276 OA
ATOM     17  H   LIG d   1      -4.777  91.806 120.142  0.00  0.00     0.149 HD
ENDBRANCH   6  13
BRANCH   5  18
ATOM     18  N   LIG d   1      -6.693  93.412 117.838  0.00  0.00     0.381 N 
ATOM     19  H   LIG d   1      -6.082  94.134 117.513  0.00  0.00    -0.090 HD
ATOM     20  H   LIG d   1      -6.869  93.562 118.815  0.00  0.00    -0.090 HD
ATOM     21  H   LIG d   1      -7.551  93.439 117.331  0.00  0.00    -0.090 HD
ENDBRANCH   5  18
BRANCH   3  22
ATOM     22  C   LIG d   1      -6.014  89.726 114.856  0.00  0.00     0.382 C 
ATOM     23  O   LIG d   1      -7.136  89.986 114.357  0.00  0.00    -0.241 OA
ATOM     24  O   LIG d   1      -5.385  88.725 114.463  0.00  0.00    -0.241 OA
ENDBRANCH   3  22
TORSDOF 7
ENDMDL
MODEL 9
REMARK VINA RESULT:      -5.2     12.438     15.427
REMARK  7 active torsions:
REMARK  status: ('A' for Active; 'I' for Inactive)
REMARK    1  A    between atoms: C_2  and  C_3 
REMARK    2  A    between atoms: C_3  and  O_6 
REMARK    3  A    between atoms: C_3  and  C_4 
REMARK    4  A    between atoms: C_7  and  O_6 
REMARK    5  A    between atoms: C_9  and  C_10 
REMARK    6  A    between atoms: N_15  and  C_14 
REMARK    7  A    between atoms: N_20  and  C_19 
REMARK       I    between atoms: C_22  and  N_20 
ROOT
ATOM      1  C   LIG d   1      -5.679  92.353 117.742  0.00  0.00     0.161 C 
ATOM      2  C   LIG d   1      -6.723  91.604 117.173  0.00  0.00     0.016 C 
ATOM      3  C   LIG d   1      -6.522  90.385 116.485  0.00  0.00     0.038 C 
ATOM      4  C   LIG d   1      -5.271  89.752 116.450  0.00  0.00     0.028 C 
ATOM      5  C   LIG d   1      -4.098  90.719 116.575  0.00  0.00    -0.047 C 
ATOM      6  C   LIG d   1      -4.322  91.622 117.810  0.00  0.00     0.091 C 
ENDROOT
BRANCH   1   7
ATOM      7  O   LIG d   1      -6.066  92.814 119.052  0.00  0.00    -0.368 OA
BRANCH   7   8
ATOM      8  C   LIG d   1      -6.110  94.251 119.234  0.00  0.00     0.119 C 
BRANCH   8   9
ATOM      9  C   LIG d   1      -5.036  94.619 120.276  0.00  0.00     0.028 C 
ATOM     10  C   LIG d   1      -4.180  95.819 119.837  0.00  0.00     0.006 C 
ENDBRANCH   8   9
BRANCH   8  11
ATOM     11  C   LIG d   1      -7.441  94.694 119.850  0.00  0.00     0.028 C 
ATOM     12  C   LIG d   1      -8.175  95.738 118.994  0.00  0.00     0.006 C 
ENDBRANCH   8  11
ENDBRANCH   7   8
ENDBRANCH   1   7
BRANCH   6  13
ATOM     13  N   LIG d   1      -3.263  92.654 117.957  0.00  0.00    -0.311 N 
ATOM     14  C   LIG d   1      -2.190  92.498 118.731  0.00  0.00     0.210 C 
ATOM     15  C   LIG d   1      -1.231  93.692 118.755  0.00  0.00     0.109 C 
ATOM     16  O   LIG d   1      -1.925  91.471 119.374  0.00  0.00    -0.276 OA
ATOM     17  H   LIG d   1      -3.382  93.506 117.446  0.00  0.00     0.149 HD
ENDBRANCH   6  13
BRANCH   5  18
ATOM     18  N   LIG d   1      -2.865  89.915 116.663  0.00  0.00     0.381 N 
ATOM     19  H   LIG d   1      -3.096  88.958 116.839  0.00  0.00    -0.090 HD
ATOM     20  H   LIG d   1      -2.310  90.253 117.430  0.00  0.00    -0.090 HD
ATOM     21  H   LIG d   1      -2.349  89.989 115.813  0.00  0.00    -0.090 HD
ENDBRANCH   5  18
BRANCH   3  22
ATOM     22  C   LIG d   1      -7.572  89.808 115.789  0.00  0.00     0.382 C 
ATOM     23  O   LIG d   1      -8.106  88.757 116.218  0.00  0.00    -0.241 OA
ATOM     24  O   LIG d   1      -7.963  90.299 114.713  0.00  0.00    -0.241 OA
ENDBRANCH   3  22
TORSDOF 7
ENDMDL
