MODEL 1
REMARK VINA RESULT:      -5.6      0.000      0.000
REMARK  7 active torsions:
REMARK  status: ('A' for Active; 'I' for Inactive)
REMARK    1  A    between atoms: C_2  and  C_3 
REMARK    2  A    between atoms: C_3  and  O_6 
REMARK    3  A    between atoms: C_3  and  C_4 
REMARK    4  A    between atoms: C_7  and  O_6 
REMARK    5  A    between atoms: C_9  and  C_10 
REMARK    6  A    between atoms: N_15  and  C_14 
REMARK    7  A    between atoms: N_20  and  C_19 
REMARK       I    between atoms: C_22  and  N_20 
ROOT
ATOM      1  C   LIG d   1      -8.355  74.620 117.239  0.00  0.00     0.161 C 
ATOM      2  C   LIG d   1      -8.259  73.267 116.871  0.00  0.00     0.016 C 
ATOM      3  C   LIG d   1      -9.081  72.253 117.415  0.00  0.00     0.038 C 
ATOM      4  C   LIG d   1     -10.163  72.548 118.257  0.00  0.00     0.028 C 
ATOM      5  C   LIG d   1      -9.980  73.838 119.049  0.00  0.00    -0.047 C 
ATOM      6  C   LIG d   1      -9.603  74.976 118.074  0.00  0.00     0.091 C 
ENDROOT
BRANCH   1   7
ATOM      7  O   LIG d   1      -8.283  75.452 116.065  0.00  0.00    -0.368 OA
BRANCH   7   8
ATOM      8  C   LIG d   1      -7.014  76.109 115.825  0.00  0.00     0.119 C 
BRANCH   8   9
ATOM      9  C   LIG d   1      -6.394  75.473 114.566  0.00  0.00     0.028 C 
ATOM     10  C   LIG d   1      -5.265  74.485 114.903  0.00  0.00     0.006 C 
ENDBRANCH   8   9
BRANCH   8  11
ATOM     11  C   LIG d   1      -6.019  75.826 116.954  0.00  0.00     0.028 C 
ATOM     12  C   LIG d   1      -5.595  77.097 117.707  0.00  0.00     0.006 C 
ENDBRANCH   8  11
ENDBRANCH   7   8
ENDBRANCH   1   7
BRANCH   6  13
ATOM     13  N   LIG d   1      -9.324  76.256 118.777  0.00  0.00    -0.311 N 
ATOM     14  C   LIG d   1     -10.225  77.226 118.919  0.00  0.00     0.210 C 
ATOM     15  C   LIG d   1      -9.724  78.470 119.659  0.00  0.00     0.109 C 
ATOM     16  O   LIG d   1     -11.401  77.161 118.532  0.00  0.00    -0.276 OA
ATOM     17  H   LIG d   1      -8.403  76.379 119.150  0.00  0.00     0.149 HD
ENDBRANCH   6  13
BRANCH   5  18
ATOM     18  N   LIG d   1     -11.236  74.095 119.779  0.00  0.00     0.381 N 
ATOM     19  H   LIG d   1     -11.520  73.268 120.266  0.00  0.00    -0.090 HD
ATOM     20  H   LIG d   1     -11.954  74.332 119.117  0.00  0.00    -0.090 HD
ATOM     21  H   LIG d   1     -11.109  74.843 120.425  0.00  0.00    -0.090 HD
ENDBRANCH   5  18
BRANCH   3  22
ATOM     22  C   LIG d   1      -8.798  70.922 117.147  0.00  0.00     0.382 C 
ATOM     23  O   LIG d   1      -7.943  70.626 116.278  0.00  0.00    -0.241 OA
ATOM     24  O   LIG d   1      -9.418  70.014 117.731  0.00  0.00    -0.241 OA
ENDBRANCH   3  22
TORSDOF 7
ENDMDL
MODEL 2
REMARK VINA RESULT:      -5.5      2.414      4.499
REMARK  7 active torsions:
REMARK  status: ('A' for Active; 'I' for Inactive)
REMARK    1  A    between atoms: C_2  and  C_3 
REMARK    2  A    between atoms: C_3  and  O_6 
REMARK    3  A    between atoms: C_3  and  C_4 
REMARK    4  A    between atoms: C_7  and  O_6 
REMARK    5  A    between atoms: C_9  and  C_10 
REMARK    6  A    between atoms: N_15  and  C_14 
REMARK    7  A    between atoms: N_20  and  C_19 
REMARK       I    between atoms: C_22  and  N_20 
ROOT
ATOM      1  C   LIG d   1      -7.740  75.048 117.366  0.00  0.00     0.161 C 
ATOM      2  C   LIG d   1      -6.553  75.229 116.636  0.00  0.00     0.016 C 
ATOM      3  C   LIG d   1      -5.931  74.199 115.894  0.00  0.00     0.038 C 
ATOM      4  C   LIG d   1      -6.539  72.948 115.708  0.00  0.00     0.028 C 
ATOM      5  C   LIG d   1      -7.486  72.561 116.839  0.00  0.00    -0.047 C 
ATOM      6  C   LIG d   1      -8.476  73.722 117.084  0.00  0.00     0.091 C 
ENDROOT
BRANCH   1   7
ATOM      7  O   LIG d   1      -8.622  76.167 117.149  0.00  0.00    -0.368 OA
BRANCH   7   8
ATOM      8  C   LIG d   1      -8.725  77.118 118.237  0.00  0.00     0.119 C 
BRANCH   8   9
ATOM      9  C   LIG d   1     -10.188  77.597 118.297  0.00  0.00     0.028 C 
ATOM     10  C   LIG d   1     -10.907  77.128 119.574  0.00  0.00     0.006 C 
ENDBRANCH   8   9
BRANCH   8  11
ATOM     11  C   LIG d   1      -7.898  78.377 117.957  0.00  0.00     0.028 C 
ATOM     12  C   LIG d   1      -8.713  79.671 118.109  0.00  0.00     0.006 C 
ENDBRANCH   8  11
ENDBRANCH   7   8
ENDBRANCH   1   7
BRANCH   6  13
ATOM     13  N   LIG d   1      -9.384  73.460 118.231  0.00  0.00    -0.311 N 
ATOM     14  C   LIG d   1     -10.692  73.709 118.202  0.00  0.00     0.210 C 
ATOM     15  C   LIG d   1     -11.441  73.384 119.498  0.00  0.00     0.109 C 
ATOM     16  O   LIG d   1     -11.309  74.139 117.215  0.00  0.00    -0.276 OA
ATOM     17  H   LIG d   1      -8.973  73.082 119.061  0.00  0.00     0.149 HD
ENDBRANCH   6  13
BRANCH   5  18
ATOM     18  N   LIG d   1      -8.153  71.304 116.450  0.00  0.00     0.381 N 
ATOM     19  H   LIG d   1      -8.862  71.076 117.119  0.00  0.00    -0.090 HD
ATOM     20  H   LIG d   1      -7.474  70.563 116.446  0.00  0.00    -0.090 HD
ATOM     21  H   LIG d   1      -8.558  71.399 115.545  0.00  0.00    -0.090 HD
ENDBRANCH   5  18
BRANCH   3  22
ATOM     22  C   LIG d   1      -4.666  74.402 115.362  0.00  0.00     0.382 C 
ATOM     23  O   LIG d   1      -3.649  74.187 116.064  0.00  0.00    -0.241 OA
ATOM     24  O   LIG d   1      -4.531  74.840 114.204  0.00  0.00    -0.241 OA
ENDBRANCH   3  22
TORSDOF 7
ENDMDL
MODEL 3
REMARK VINA RESULT:      -5.4     13.374     16.406
REMARK  7 active torsions:
REMARK  status: ('A' for Active; 'I' for Inactive)
REMARK    1  A    between atoms: C_2  and  C_3 
REMARK    2  A    between atoms: C_3  and  O_6 
REMARK    3  A    between atoms: C_3  and  C_4 
REMARK    4  A    between atoms: C_7  and  O_6 
REMARK    5  A    between atoms: C_9  and  C_10 
REMARK    6  A    between atoms: N_15  and  C_14 
REMARK    7  A    between atoms: N_20  and  C_19 
REMARK       I    between atoms: C_22  and  N_20 
ROOT
ATOM      1  C   LIG d   1       1.590  84.881 113.967  0.00  0.00     0.161 C 
ATOM      2  C   LIG d   1       2.004  85.962 113.170  0.00  0.00     0.016 C 
ATOM      3  C   LIG d   1       3.140  86.752 113.461  0.00  0.00     0.038 C 
ATOM      4  C   LIG d   1       4.031  86.419 114.491  0.00  0.00     0.028 C 
ATOM      5  C   LIG d   1       3.379  85.638 115.627  0.00  0.00    -0.047 C 
ATOM      6  C   LIG d   1       2.613  84.434 115.033  0.00  0.00     0.091 C 
ENDROOT
BRANCH   1   7
ATOM      7  O   LIG d   1       1.222  83.768 113.128  0.00  0.00    -0.368 OA
BRANCH   7   8
ATOM      8  C   LIG d   1       1.257  84.008 111.700  0.00  0.00     0.119 C 
BRANCH   8   9
ATOM      9  C   LIG d   1      -0.172  83.801 111.160  0.00  0.00     0.028 C 
ATOM     10  C   LIG d   1      -0.649  84.979 110.295  0.00  0.00     0.006 C 
ENDBRANCH   8   9
BRANCH   8  11
ATOM     11  C   LIG d   1       2.117  82.965 110.980  0.00  0.00     0.028 C 
ATOM     12  C   LIG d   1       3.250  83.595 110.154  0.00  0.00     0.006 C 
ENDBRANCH   8  11
ENDBRANCH   7   8
ENDBRANCH   1   7
BRANCH   6  13
ATOM     13  N   LIG d   1       1.876  83.664 116.068  0.00  0.00    -0.311 N 
ATOM     14  C   LIG d   1       2.366  82.576 116.660  0.00  0.00     0.210 C 
ATOM     15  C   LIG d   1       1.434  81.922 117.685  0.00  0.00     0.109 C 
ATOM     16  O   LIG d   1       3.497  82.110 116.457  0.00  0.00    -0.276 OA
ATOM     17  H   LIG d   1       0.963  83.991 116.316  0.00  0.00     0.149 HD
ENDBRANCH   6  13
BRANCH   5  18
ATOM     18  N   LIG d   1       4.447  85.238 116.563  0.00  0.00     0.381 N 
ATOM     19  H   LIG d   1       4.675  84.274 116.425  0.00  0.00    -0.090 HD
ATOM     20  H   LIG d   1       4.114  85.352 117.504  0.00  0.00    -0.090 HD
ATOM     21  H   LIG d   1       5.256  85.802 116.419  0.00  0.00    -0.090 HD
ENDBRANCH   5  18
BRANCH   3  22
ATOM     22  C   LIG d   1       3.371  87.914 112.740  0.00  0.00     0.382 C 
ATOM     23  O   LIG d   1       2.406  88.630 112.378  0.00  0.00    -0.241 OA
ATOM     24  O   LIG d   1       4.529  88.232 112.408  0.00  0.00    -0.241 OA
ENDBRANCH   3  22
TORSDOF 7
ENDMDL
MODEL 4
REMARK VINA RESULT:      -5.4     14.264     16.474
REMARK  7 active torsions:
REMARK  status: ('A' for Active; 'I' for Inactive)
REMARK    1  A    between atoms: C_2  and  C_3 
REMARK    2  A    between atoms: C_3  and  O_6 
REMARK    3  A    between atoms: C_3  and  C_4 
REMARK    4  A    between atoms: C_7  and  O_6 
REMARK    5  A    between atoms: C_9  and  C_10 
REMARK    6  A    between atoms: N_15  and  C_14 
REMARK    7  A    between atoms: N_20  and  C_19 
REMARK       I    between atoms: C_22  and  N_20 
ROOT
ATOM      1  C   LIG d   1       1.994  84.326 112.314  0.00  0.00     0.161 C 
ATOM      2  C   LIG d   1       0.875  84.688 111.544  0.00  0.00     0.016 C 
ATOM      3  C   LIG d   1       0.638  86.004 111.087  0.00  0.00     0.038 C 
ATOM      4  C   LIG d   1       1.587  87.025 111.242  0.00  0.00     0.028 C 
ATOM      5  C   LIG d   1       2.498  86.827 112.449  0.00  0.00    -0.047 C 
ATOM      6  C   LIG d   1       3.096  85.403 112.398  0.00  0.00     0.091 C 
ENDROOT
BRANCH   1   7
ATOM      7  O   LIG d   1       2.542  83.085 111.826  0.00  0.00    -0.368 OA
BRANCH   7   8
ATOM      8  C   LIG d   1       2.070  82.646 110.528  0.00  0.00     0.119 C 
BRANCH   8   9
ATOM      9  C   LIG d   1       2.159  81.108 110.499  0.00  0.00     0.028 C 
ATOM     10  C   LIG d   1       0.781  80.438 110.627  0.00  0.00     0.006 C 
ENDBRANCH   8   9
BRANCH   8  11
ATOM     11  C   LIG d   1       2.995  83.127 109.407  0.00  0.00     0.028 C 
ATOM     12  C   LIG d   1       4.455  82.694 109.611  0.00  0.00     0.006 C 
ENDBRANCH   8  11
ENDBRANCH   7   8
ENDBRANCH   1   7
BRANCH   6  13
ATOM     13  N   LIG d   1       3.934  85.097 113.587  0.00  0.00    -0.311 N 
ATOM     14  C   LIG d   1       3.495  85.203 114.840  0.00  0.00     0.210 C 
ATOM     15  C   LIG d   1       4.527  84.858 115.918  0.00  0.00     0.109 C 
ATOM     16  O   LIG d   1       2.339  85.518 115.160  0.00  0.00    -0.276 OA
ATOM     17  H   LIG d   1       4.876  84.803 113.417  0.00  0.00     0.149 HD
ENDBRANCH   6  13
BRANCH   5  18
ATOM     18  N   LIG d   1       3.524  87.887 112.411  0.00  0.00     0.381 N 
ATOM     19  H   LIG d   1       4.327  87.563 111.909  0.00  0.00    -0.090 HD
ATOM     20  H   LIG d   1       3.806  88.100 113.352  0.00  0.00    -0.090 HD
ATOM     21  H   LIG d   1       3.156  88.703 111.974  0.00  0.00    -0.090 HD
ENDBRANCH   5  18
BRANCH   3  22
ATOM     22  C   LIG d   1      -0.579  86.320 110.502  0.00  0.00     0.382 C 
ATOM     23  O   LIG d   1      -1.489  86.842 111.190  0.00  0.00    -0.241 OA
ATOM     24  O   LIG d   1      -0.794  86.048 109.306  0.00  0.00    -0.241 OA
ENDBRANCH   3  22
TORSDOF 7
ENDMDL
MODEL 5
REMARK VINA RESULT:      -5.3     12.801     16.111
REMARK  7 active torsions:
REMARK  status: ('A' for Active; 'I' for Inactive)
REMARK    1  A    between atoms: C_2  and  C_3 
REMARK    2  A    between atoms: C_3  and  O_6 
REMARK    3  A    between atoms: C_3  and  C_4 
REMARK    4  A    between atoms: C_7  and  O_6 
REMARK    5  A    between atoms: C_9  and  C_10 
REMARK    6  A    between atoms: N_15  and  C_14 
REMARK    7  A    between atoms: N_20  and  C_19 
REMARK       I    between atoms: C_22  and  N_20 
ROOT
ATOM      1  C   LIG d   1       2.109  84.268 113.381  0.00  0.00     0.161 C 
ATOM      2  C   LIG d   1       2.661  85.560 113.367  0.00  0.00     0.016 C 
ATOM      3  C   LIG d   1       2.446  86.487 112.322  0.00  0.00     0.038 C 
ATOM      4  C   LIG d   1       1.536  86.237 111.284  0.00  0.00     0.028 C 
ATOM      5  C   LIG d   1       1.345  84.753 110.991  0.00  0.00    -0.047 C 
ATOM      6  C   LIG d   1       1.025  84.017 112.312  0.00  0.00     0.091 C 
ENDROOT
BRANCH   1   7
ATOM      7  O   LIG d   1       1.598  83.969 114.694  0.00  0.00    -0.368 OA
BRANCH   7   8
ATOM      8  C   LIG d   1       2.365  84.484 115.810  0.00  0.00     0.119 C 
BRANCH   8   9
ATOM      9  C   LIG d   1       2.986  83.277 116.541  0.00  0.00     0.028 C 
ATOM     10  C   LIG d   1       4.024  83.700 117.594  0.00  0.00     0.006 C 
ENDBRANCH   8   9
BRANCH   8  11
ATOM     11  C   LIG d   1       1.461  85.163 116.843  0.00  0.00     0.028 C 
ATOM     12  C   LIG d   1       1.408  86.689 116.676  0.00  0.00     0.006 C 
ENDBRANCH   8  11
ENDBRANCH   7   8
ENDBRANCH   1   7
BRANCH   6  13
ATOM     13  N   LIG d   1       0.906  82.547 112.129  0.00  0.00    -0.311 N 
ATOM     14  C   LIG d   1      -0.229  81.940 111.788  0.00  0.00     0.210 C 
ATOM     15  C   LIG d   1      -0.137  80.415 111.671  0.00  0.00     0.109 C 
ATOM     16  O   LIG d   1      -1.296  82.522 111.540  0.00  0.00    -0.276 OA
ATOM     17  H   LIG d   1       1.731  82.001 112.279  0.00  0.00     0.149 HD
ENDBRANCH   6  13
BRANCH   5  18
ATOM     18  N   LIG d   1       0.271  84.631 109.987  0.00  0.00     0.381 N 
ATOM     19  H   LIG d   1      -0.319  83.856 110.215  0.00  0.00    -0.090 HD
ATOM     20  H   LIG d   1       0.686  84.458 109.088  0.00  0.00    -0.090 HD
ATOM     21  H   LIG d   1      -0.265  85.470 109.958  0.00  0.00    -0.090 HD
ENDBRANCH   5  18
BRANCH   3  22
ATOM     22  C   LIG d   1       3.177  87.665 112.287  0.00  0.00     0.382 C 
ATOM     23  O   LIG d   1       4.393  87.640 111.980  0.00  0.00    -0.241 OA
ATOM     24  O   LIG d   1       2.646  88.748 112.601  0.00  0.00    -0.241 OA
ENDBRANCH   3  22
TORSDOF 7
ENDMDL
MODEL 6
REMARK VINA RESULT:      -5.1      5.362      8.606
REMARK  7 active torsions:
REMARK  status: ('A' for Active; 'I' for Inactive)
REMARK    1  A    between atoms: C_2  and  C_3 
REMARK    2  A    between atoms: C_3  and  O_6 
REMARK    3  A    between atoms: C_3  and  C_4 
REMARK    4  A    between atoms: C_7  and  O_6 
REMARK    5  A    between atoms: C_9  and  C_10 
REMARK    6  A    between atoms: N_15  and  C_14 
REMARK    7  A    between atoms: N_20  and  C_19 
REMARK       I    between atoms: C_22  and  N_20 
ROOT
ATOM      1  C   LIG d   1      -3.012  76.940 115.967  0.00  0.00     0.161 C 
ATOM      2  C   LIG d   1      -3.273  77.811 114.896  0.00  0.00     0.016 C 
ATOM      3  C   LIG d   1      -2.429  77.933 113.769  0.00  0.00     0.038 C 
ATOM      4  C   LIG d   1      -1.337  77.075 113.564  0.00  0.00     0.028 C 
ATOM      5  C   LIG d   1      -0.748  76.525 114.858  0.00  0.00    -0.047 C 
ATOM      6  C   LIG d   1      -1.886  75.917 115.709  0.00  0.00     0.091 C 
ENDROOT
BRANCH   1   7
ATOM      7  O   LIG d   1      -4.225  76.264 116.353  0.00  0.00    -0.368 OA
BRANCH   7   8
ATOM      8  C   LIG d   1      -4.701  75.240 115.445  0.00  0.00     0.119 C 
BRANCH   8   9
ATOM      9  C   LIG d   1      -6.139  75.614 115.039  0.00  0.00     0.028 C 
ATOM     10  C   LIG d   1      -6.270  75.896 113.533  0.00  0.00     0.006 C 
ENDBRANCH   8   9
BRANCH   8  11
ATOM     11  C   LIG d   1      -4.816  73.883 116.145  0.00  0.00     0.028 C 
ATOM     12  C   LIG d   1      -6.177  73.208 115.914  0.00  0.00     0.006 C 
ENDBRANCH   8  11
ENDBRANCH   7   8
ENDBRANCH   1   7
BRANCH   6  13
ATOM     13  N   LIG d   1      -1.408  75.432 117.030  0.00  0.00    -0.311 N 
ATOM     14  C   LIG d   1      -1.066  74.166 117.266  0.00  0.00     0.210 C 
ATOM     15  C   LIG d   1      -0.620  73.874 118.702  0.00  0.00     0.109 C 
ATOM     16  O   LIG d   1      -1.059  73.265 116.414  0.00  0.00    -0.276 OA
ATOM     17  H   LIG d   1      -1.354  76.103 117.771  0.00  0.00     0.149 HD
ENDBRANCH   6  13
BRANCH   5  18
ATOM     18  N   LIG d   1       0.289  75.542 114.493  0.00  0.00     0.381 N 
ATOM     19  H   LIG d   1      -0.101  74.621 114.496  0.00  0.00    -0.090 HD
ATOM     20  H   LIG d   1       1.024  75.575 115.178  0.00  0.00    -0.090 HD
ATOM     21  H   LIG d   1       0.656  75.752 113.591  0.00  0.00    -0.090 HD
ENDBRANCH   5  18
BRANCH   3  22
ATOM     22  C   LIG d   1      -2.650  78.948 112.851  0.00  0.00     0.382 C 
ATOM     23  O   LIG d   1      -2.035  78.949 111.757  0.00  0.00    -0.241 OA
ATOM     24  O   LIG d   1      -3.424  79.886 113.120  0.00  0.00    -0.241 OA
ENDBRANCH   3  22
TORSDOF 7
ENDMDL
MODEL 7
REMARK VINA RESULT:      -5.1      2.339      3.381
REMARK  7 active torsions:
REMARK  status: ('A' for Active; 'I' for Inactive)
REMARK    1  A    between atoms: C_2  and  C_3 
REMARK    2  A    between atoms: C_3  and  O_6 
REMARK    3  A    between atoms: C_3  and  C_4 
REMARK    4  A    between atoms: C_7  and  O_6 
REMARK    5  A    between atoms: C_9  and  C_10 
REMARK    6  A    between atoms: N_15  and  C_14 
REMARK    7  A    between atoms: N_20  and  C_19 
REMARK       I    between atoms: C_22  and  N_20 
ROOT
ATOM      1  C   LIG d   1      -7.465  76.264 117.208  0.00  0.00     0.161 C 
ATOM      2  C   LIG d   1      -8.275  75.126 117.057  0.00  0.00     0.016 C 
ATOM      3  C   LIG d   1      -9.637  75.085 117.431  0.00  0.00     0.038 C 
ATOM      4  C   LIG d   1     -10.327  76.234 117.846  0.00  0.00     0.028 C 
ATOM      5  C   LIG d   1      -9.426  77.281 118.492  0.00  0.00    -0.047 C 
ATOM      6  C   LIG d   1      -8.228  77.559 117.555  0.00  0.00     0.091 C 
ENDROOT
BRANCH   1   7
ATOM      7  O   LIG d   1      -6.665  76.455 116.024  0.00  0.00    -0.368 OA
BRANCH   7   8
ATOM      8  C   LIG d   1      -6.228  75.250 115.349  0.00  0.00     0.119 C 
BRANCH   8   9
ATOM      9  C   LIG d   1      -4.870  74.847 115.955  0.00  0.00     0.028 C 
ATOM     10  C   LIG d   1      -3.707  75.690 115.405  0.00  0.00     0.006 C 
ENDBRANCH   8   9
BRANCH   8  11
ATOM     11  C   LIG d   1      -5.948  75.513 113.866  0.00  0.00     0.028 C 
ATOM     12  C   LIG d   1      -7.091  76.267 113.168  0.00  0.00     0.006 C 
ENDBRANCH   8  11
ENDBRANCH   7   8
ENDBRANCH   1   7
BRANCH   6  13
ATOM     13  N   LIG d   1      -7.253  78.510 118.148  0.00  0.00    -0.311 N 
ATOM     14  C   LIG d   1      -7.362  79.834 118.042  0.00  0.00     0.210 C 
ATOM     15  C   LIG d   1      -6.238  80.631 118.710  0.00  0.00     0.109 C 
ATOM     16  O   LIG d   1      -8.300  80.424 117.485  0.00  0.00    -0.276 OA
ATOM     17  H   LIG d   1      -6.477  78.118 118.645  0.00  0.00     0.149 HD
ENDBRANCH   6  13
BRANCH   5  18
ATOM     18  N   LIG d   1     -10.248  78.478 118.750  0.00  0.00     0.381 N 
ATOM     19  H   LIG d   1      -9.776  79.293 118.411  0.00  0.00    -0.090 HD
ATOM     20  H   LIG d   1     -10.376  78.577 119.741  0.00  0.00    -0.090 HD
ATOM     21  H   LIG d   1     -11.133  78.388 118.300  0.00  0.00    -0.090 HD
ENDBRANCH   5  18
BRANCH   3  22
ATOM     22  C   LIG d   1     -10.314  73.875 117.431  0.00  0.00     0.382 C 
ATOM     23  O   LIG d   1     -11.369  73.746 118.099  0.00  0.00    -0.241 OA
ATOM     24  O   LIG d   1      -9.860  72.897 116.807  0.00  0.00    -0.241 OA
ENDBRANCH   3  22
TORSDOF 7
ENDMDL
MODEL 8
REMARK VINA RESULT:      -5.0     10.727     13.630
REMARK  7 active torsions:
REMARK  status: ('A' for Active; 'I' for Inactive)
REMARK    1  A    between atoms: C_2  and  C_3 
REMARK    2  A    between atoms: C_3  and  O_6 
REMARK    3  A    between atoms: C_3  and  C_4 
REMARK    4  A    between atoms: C_7  and  O_6 
REMARK    5  A    between atoms: C_9  and  C_10 
REMARK    6  A    between atoms: N_15  and  C_14 
REMARK    7  A    between atoms: N_20  and  C_19 
REMARK       I    between atoms: C_22  and  N_20 
ROOT
ATOM      1  C   LIG d   1     -16.891  64.199 116.561  0.00  0.00     0.161 C 
ATOM      2  C   LIG d   1     -17.403  62.930 116.244  0.00  0.00     0.016 C 
ATOM      3  C   LIG d   1     -17.869  62.579 114.956  0.00  0.00     0.038 C 
ATOM      4  C   LIG d   1     -17.714  63.432 113.853  0.00  0.00     0.028 C 
ATOM      5  C   LIG d   1     -17.666  64.908 114.232  0.00  0.00    -0.047 C 
ATOM      6  C   LIG d   1     -16.612  65.107 115.345  0.00  0.00     0.091 C 
ENDROOT
BRANCH   1   7
ATOM      7  O   LIG d   1     -15.703  64.060 117.366  0.00  0.00    -0.368 OA
BRANCH   7   8
ATOM      8  C   LIG d   1     -15.914  63.875 118.787  0.00  0.00     0.119 C 
BRANCH   8   9
ATOM      9  C   LIG d   1     -15.873  65.268 119.446  0.00  0.00     0.028 C 
ATOM     10  C   LIG d   1     -14.762  66.159 118.866  0.00  0.00     0.006 C 
ENDBRANCH   8   9
BRANCH   8  11
ATOM     11  C   LIG d   1     -14.763  63.091 119.424  0.00  0.00     0.028 C 
ATOM     12  C   LIG d   1     -14.534  61.724 118.760  0.00  0.00     0.006 C 
ENDBRANCH   8  11
ENDBRANCH   7   8
ENDBRANCH   1   7
BRANCH   6  13
ATOM     13  N   LIG d   1     -16.560  66.509 115.833  0.00  0.00    -0.311 N 
ATOM     14  C   LIG d   1     -15.721  67.424 115.348  0.00  0.00     0.210 C 
ATOM     15  C   LIG d   1     -15.818  68.804 116.006  0.00  0.00     0.109 C 
ATOM     16  O   LIG d   1     -14.929  67.232 114.414  0.00  0.00    -0.276 OA
ATOM     17  H   LIG d   1     -17.190  66.760 116.569  0.00  0.00     0.149 HD
ENDBRANCH   6  13
BRANCH   5  18
ATOM     18  N   LIG d   1     -17.364  65.673 113.007  0.00  0.00     0.381 N 
ATOM     19  H   LIG d   1     -17.993  65.405 112.277  0.00  0.00    -0.090 HD
ATOM     20  H   LIG d   1     -16.428  65.458 112.712  0.00  0.00    -0.090 HD
ATOM     21  H   LIG d   1     -17.448  66.650 113.186  0.00  0.00    -0.090 HD
ENDBRANCH   5  18
BRANCH   3  22
ATOM     22  C   LIG d   1     -18.535  61.377 114.770  0.00  0.00     0.382 C 
ATOM     23  O   LIG d   1     -18.141  60.571 113.893  0.00  0.00    -0.241 OA
ATOM     24  O   LIG d   1     -19.550  61.107 115.439  0.00  0.00    -0.241 OA
ENDBRANCH   3  22
TORSDOF 7
ENDMDL
MODEL 9
REMARK VINA RESULT:      -4.8     15.679     18.280
REMARK  7 active torsions:
REMARK  status: ('A' for Active; 'I' for Inactive)
REMARK    1  A    between atoms: C_2  and  C_3 
REMARK    2  A    between atoms: C_3  and  O_6 
REMARK    3  A    between atoms: C_3  and  C_4 
REMARK    4  A    between atoms: C_7  and  O_6 
REMARK    5  A    between atoms: C_9  and  C_10 
REMARK    6  A    between atoms: N_15  and  C_14 
REMARK    7  A    between atoms: N_20  and  C_19 
REMARK       I    between atoms: C_22  and  N_20 
ROOT
ATOM      1  C   LIG d   1       3.164  87.015 114.748  0.00  0.00     0.161 C 
ATOM      2  C   LIG d   1       2.665  86.391 113.593  0.00  0.00     0.016 C 
ATOM      3  C   LIG d   1       3.249  86.540 112.314  0.00  0.00     0.038 C 
ATOM      4  C   LIG d   1       4.468  87.208 112.129  0.00  0.00     0.028 C 
ATOM      5  C   LIG d   1       4.739  88.278 113.181  0.00  0.00    -0.047 C 
ATOM      6  C   LIG d   1       4.558  87.658 114.586  0.00  0.00     0.091 C 
ENDROOT
BRANCH   1   7
ATOM      7  O   LIG d   1       3.168  86.081 115.846  0.00  0.00    -0.368 OA
BRANCH   7   8
ATOM      8  C   LIG d   1       1.871  85.607 116.284  0.00  0.00     0.119 C 
BRANCH   8   9
ATOM      9  C   LIG d   1       1.453  86.459 117.498  0.00  0.00     0.028 C 
ATOM     10  C   LIG d   1       0.589  85.672 118.498  0.00  0.00     0.006 C 
ENDBRANCH   8   9
BRANCH   8  11
ATOM     11  C   LIG d   1       1.951  84.169 116.806  0.00  0.00     0.028 C 
ATOM     12  C   LIG d   1       3.396  83.668 116.953  0.00  0.00     0.006 C 
ENDBRANCH   8  11
ENDBRANCH   7   8
ENDBRANCH   1   7
BRANCH   6  13
ATOM     13  N   LIG d   1       4.722  88.658 115.673  0.00  0.00    -0.311 N 
ATOM     14  C   LIG d   1       5.874  88.870 116.306  0.00  0.00     0.210 C 
ATOM     15  C   LIG d   1       5.820  89.932 117.409  0.00  0.00     0.109 C 
ATOM     16  O   LIG d   1       6.943  88.302 116.038  0.00  0.00    -0.276 OA
ATOM     17  H   LIG d   1       3.912  89.186 115.933  0.00  0.00     0.149 HD
ENDBRANCH   6  13
BRANCH   5  18
ATOM     18  N   LIG d   1       6.100  88.797 112.950  0.00  0.00     0.381 N 
ATOM     19  H   LIG d   1       6.083  89.797 112.936  0.00  0.00    -0.090 HD
ATOM     20  H   LIG d   1       6.422  88.475 112.054  0.00  0.00    -0.090 HD
ATOM     21  H   LIG d   1       6.713  88.477 113.666  0.00  0.00    -0.090 HD
ENDBRANCH   5  18
BRANCH   3  22
ATOM     22  C   LIG d   1       2.589  86.052 111.196  0.00  0.00     0.382 C 
ATOM     23  O   LIG d   1       2.814  84.884 110.797  0.00  0.00    -0.241 OA
ATOM     24  O   LIG d   1       1.806  86.779 110.557  0.00  0.00    -0.241 OA
ENDBRANCH   3  22
TORSDOF 7
ENDMDL
