MODEL 1
REMARK VINA RESULT:      -4.8      0.000      0.000
REMARK  7 active torsions:
REMARK  status: ('A' for Active; 'I' for Inactive)
REMARK    1  A    between atoms: C_2  and  C_3 
REMARK    2  A    between atoms: C_3  and  O_6 
REMARK    3  A    between atoms: C_3  and  C_4 
REMARK    4  A    between atoms: C_7  and  O_6 
REMARK    5  A    between atoms: C_9  and  C_10 
REMARK    6  A    between atoms: N_15  and  C_14 
REMARK    7  A    between atoms: N_20  and  C_19 
REMARK       I    between atoms: C_22  and  N_20 
ROOT
ATOM      1  C   LIG d   1      -8.417  81.533 120.854  0.00  0.00     0.161 C 
ATOM      2  C   LIG d   1      -8.486  80.176 120.496  0.00  0.00     0.016 C 
ATOM      3  C   LIG d   1      -9.218  79.702 119.383  0.00  0.00     0.038 C 
ATOM      4  C   LIG d   1      -9.810  80.575 118.458  0.00  0.00     0.028 C 
ATOM      5  C   LIG d   1     -10.191  81.924 119.058  0.00  0.00    -0.047 C 
ATOM      6  C   LIG d   1      -8.965  82.511 119.794  0.00  0.00     0.091 C 
ENDROOT
BRANCH   1   7
ATOM      7  O   LIG d   1      -7.061  81.878 121.200  0.00  0.00    -0.368 OA
BRANCH   7   8
ATOM      8  C   LIG d   1      -6.242  82.401 120.126  0.00  0.00     0.119 C 
BRANCH   8   9
ATOM      9  C   LIG d   1      -5.397  81.234 119.578  0.00  0.00     0.028 C 
ATOM     10  C   LIG d   1      -5.853  80.786 118.179  0.00  0.00     0.006 C 
ENDBRANCH   8   9
BRANCH   8  11
ATOM     11  C   LIG d   1      -5.229  83.426 120.645  0.00  0.00     0.028 C 
ATOM     12  C   LIG d   1      -5.880  84.531 121.491  0.00  0.00     0.006 C 
ENDBRANCH   8  11
ENDBRANCH   7   8
ENDBRANCH   1   7
BRANCH   6  13
ATOM     13  N   LIG d   1      -9.275  83.791 120.481  0.00  0.00    -0.311 N 
ATOM     14  C   LIG d   1     -10.149  83.894 121.481  0.00  0.00     0.210 C 
ATOM     15  C   LIG d   1     -10.335  85.310 122.034  0.00  0.00     0.109 C 
ATOM     16  O   LIG d   1     -10.764  82.941 121.983  0.00  0.00    -0.276 OA
ATOM     17  H   LIG d   1      -8.798  84.610 120.157  0.00  0.00     0.149 HD
ENDBRANCH   6  13
BRANCH   5  18
ATOM     18  N   LIG d   1     -10.669  82.782 117.957  0.00  0.00     0.381 N 
ATOM     19  H   LIG d   1     -11.297  83.474 118.315  0.00  0.00    -0.090 HD
ATOM     20  H   LIG d   1     -11.170  82.214 117.296  0.00  0.00    -0.090 HD
ATOM     21  H   LIG d   1      -9.897  83.223 117.508  0.00  0.00    -0.090 HD
ENDBRANCH   5  18
BRANCH   3  22
ATOM     22  C   LIG d   1      -9.395  78.338 119.208  0.00  0.00     0.382 C 
ATOM     23  O   LIG d   1     -10.321  77.915 118.474  0.00  0.00    -0.241 OA
ATOM     24  O   LIG d   1      -8.670  77.524 119.810  0.00  0.00    -0.241 OA
ENDBRANCH   3  22
TORSDOF 7
ENDMDL
MODEL 2
REMARK VINA RESULT:      -4.7     13.863     16.920
REMARK  7 active torsions:
REMARK  status: ('A' for Active; 'I' for Inactive)
REMARK    1  A    between atoms: C_2  and  C_3 
REMARK    2  A    between atoms: C_3  and  O_6 
REMARK    3  A    between atoms: C_3  and  C_4 
REMARK    4  A    between atoms: C_7  and  O_6 
REMARK    5  A    between atoms: C_9  and  C_10 
REMARK    6  A    between atoms: N_15  and  C_14 
REMARK    7  A    between atoms: N_20  and  C_19 
REMARK       I    between atoms: C_22  and  N_20 
ROOT
ATOM      1  C   LIG d   1     -13.223  66.076 122.102  0.00  0.00     0.161 C 
ATOM      2  C   LIG d   1     -12.067  65.674 122.791  0.00  0.00     0.016 C 
ATOM      3  C   LIG d   1     -11.356  64.488 122.494  0.00  0.00     0.038 C 
ATOM      4  C   LIG d   1     -11.670  63.695 121.380  0.00  0.00     0.028 C 
ATOM      5  C   LIG d   1     -13.133  63.791 120.962  0.00  0.00    -0.047 C 
ATOM      6  C   LIG d   1     -13.516  65.281 120.813  0.00  0.00     0.091 C 
ENDROOT
BRANCH   1   7
ATOM      7  O   LIG d   1     -13.157  67.487 121.817  0.00  0.00    -0.368 OA
BRANCH   7   8
ATOM      8  C   LIG d   1     -13.285  68.374 122.956  0.00  0.00     0.119 C 
BRANCH   8   9
ATOM      9  C   LIG d   1     -14.701  68.185 123.533  0.00  0.00     0.028 C 
ATOM     10  C   LIG d   1     -15.799  68.615 122.547  0.00  0.00     0.006 C 
ENDBRANCH   8   9
BRANCH   8  11
ATOM     11  C   LIG d   1     -13.214  69.843 122.528  0.00  0.00     0.028 C 
ATOM     12  C   LIG d   1     -12.548  70.739 123.584  0.00  0.00     0.006 C 
ENDBRANCH   8  11
ENDBRANCH   7   8
ENDBRANCH   1   7
BRANCH   6  13
ATOM     13  N   LIG d   1     -14.955  65.466 120.487  0.00  0.00    -0.311 N 
ATOM     14  C   LIG d   1     -15.386  65.944 119.321  0.00  0.00     0.210 C 
ATOM     15  C   LIG d   1     -16.908  66.074 119.199  0.00  0.00     0.109 C 
ATOM     16  O   LIG d   1     -14.656  66.242 118.364  0.00  0.00    -0.276 OA
ATOM     17  H   LIG d   1     -15.618  65.220 121.195  0.00  0.00     0.149 HD
ENDBRANCH   6  13
BRANCH   5  18
ATOM     18  N   LIG d   1     -13.290  63.025 119.711  0.00  0.00     0.381 N 
ATOM     19  H   LIG d   1     -13.029  62.072 119.862  0.00  0.00    -0.090 HD
ATOM     20  H   LIG d   1     -12.678  63.413 119.014  0.00  0.00    -0.090 HD
ATOM     21  H   LIG d   1     -14.234  63.073 119.397  0.00  0.00    -0.090 HD
ENDBRANCH   5  18
BRANCH   3  22
ATOM     22  C   LIG d   1     -10.343  64.064 123.340  0.00  0.00     0.382 C 
ATOM     23  O   LIG d   1      -9.733  64.896 124.054  0.00  0.00    -0.241 OA
ATOM     24  O   LIG d   1     -10.001  62.867 123.366  0.00  0.00    -0.241 OA
ENDBRANCH   3  22
TORSDOF 7
ENDMDL
MODEL 3
REMARK VINA RESULT:      -4.6      3.010      4.809
REMARK  7 active torsions:
REMARK  status: ('A' for Active; 'I' for Inactive)
REMARK    1  A    between atoms: C_2  and  C_3 
REMARK    2  A    between atoms: C_3  and  O_6 
REMARK    3  A    between atoms: C_3  and  C_4 
REMARK    4  A    between atoms: C_7  and  O_6 
REMARK    5  A    between atoms: C_9  and  C_10 
REMARK    6  A    between atoms: N_15  and  C_14 
REMARK    7  A    between atoms: N_20  and  C_19 
REMARK       I    between atoms: C_22  and  N_20 
ROOT
ATOM      1  C   LIG d   1      -6.628  80.262 118.087  0.00  0.00     0.161 C 
ATOM      2  C   LIG d   1      -7.782  79.472 117.952  0.00  0.00     0.016 C 
ATOM      3  C   LIG d   1      -7.983  78.262 118.655  0.00  0.00     0.038 C 
ATOM      4  C   LIG d   1      -7.105  77.835 119.662  0.00  0.00     0.028 C 
ATOM      5  C   LIG d   1      -5.678  78.338 119.475  0.00  0.00    -0.047 C 
ATOM      6  C   LIG d   1      -5.709  79.869 119.263  0.00  0.00     0.091 C 
ENDROOT
BRANCH   1   7
ATOM      7  O   LIG d   1      -6.996  81.653 118.182  0.00  0.00    -0.368 OA
BRANCH   7   8
ATOM      8  C   LIG d   1      -8.246  81.936 118.858  0.00  0.00     0.119 C 
BRANCH   8   9
ATOM      9  C   LIG d   1      -9.126  82.743 117.884  0.00  0.00     0.028 C 
ATOM     10  C   LIG d   1     -10.481  82.066 117.619  0.00  0.00     0.006 C 
ENDBRANCH   8   9
BRANCH   8  11
ATOM     11  C   LIG d   1      -8.031  82.854 120.066  0.00  0.00     0.028 C 
ATOM     12  C   LIG d   1      -6.577  83.334 120.197  0.00  0.00     0.006 C 
ENDBRANCH   8  11
ENDBRANCH   7   8
ENDBRANCH   1   7
BRANCH   6  13
ATOM     13  N   LIG d   1      -4.361  80.432 118.988  0.00  0.00    -0.311 N 
ATOM     14  C   LIG d   1      -3.583  80.963 119.929  0.00  0.00     0.210 C 
ATOM     15  C   LIG d   1      -2.240  81.504 119.428  0.00  0.00     0.109 C 
ATOM     16  O   LIG d   1      -3.864  81.009 121.136  0.00  0.00    -0.276 OA
ATOM     17  H   LIG d   1      -4.042  80.407 118.040  0.00  0.00     0.149 HD
ENDBRANCH   6  13
BRANCH   5  18
ATOM     18  N   LIG d   1      -4.903  77.935 120.663  0.00  0.00     0.381 N 
ATOM     19  H   LIG d   1      -4.515  77.024 120.522  0.00  0.00    -0.090 HD
ATOM     20  H   LIG d   1      -5.520  77.895 121.455  0.00  0.00    -0.090 HD
ATOM     21  H   LIG d   1      -4.173  78.591 120.834  0.00  0.00    -0.090 HD
ENDBRANCH   5  18
BRANCH   3  22
ATOM     22  C   LIG d   1      -9.054  77.446 118.325  0.00  0.00     0.382 C 
ATOM     23  O   LIG d   1     -10.226  77.886 118.405  0.00  0.00    -0.241 OA
ATOM     24  O   LIG d   1      -8.865  76.261 117.990  0.00  0.00    -0.241 OA
ENDBRANCH   3  22
TORSDOF 7
ENDMDL
MODEL 4
REMARK VINA RESULT:      -4.5      2.785      4.670
REMARK  7 active torsions:
REMARK  status: ('A' for Active; 'I' for Inactive)
REMARK    1  A    between atoms: C_2  and  C_3 
REMARK    2  A    between atoms: C_3  and  O_6 
REMARK    3  A    between atoms: C_3  and  C_4 
REMARK    4  A    between atoms: C_7  and  O_6 
REMARK    5  A    between atoms: C_9  and  C_10 
REMARK    6  A    between atoms: N_15  and  C_14 
REMARK    7  A    between atoms: N_20  and  C_19 
REMARK       I    between atoms: C_22  and  N_20 
ROOT
ATOM      1  C   LIG d   1      -7.372  79.837 118.425  0.00  0.00     0.161 C 
ATOM      2  C   LIG d   1      -8.022  78.682 117.960  0.00  0.00     0.016 C 
ATOM      3  C   LIG d   1      -7.825  77.399 118.519  0.00  0.00     0.038 C 
ATOM      4  C   LIG d   1      -7.072  77.207 119.688  0.00  0.00     0.028 C 
ATOM      5  C   LIG d   1      -5.993  78.265 119.893  0.00  0.00    -0.047 C 
ATOM      6  C   LIG d   1      -6.633  79.666 119.769  0.00  0.00     0.091 C 
ENDROOT
BRANCH   1   7
ATOM      7  O   LIG d   1      -8.310  80.928 118.505  0.00  0.00    -0.368 OA
BRANCH   7   8
ATOM      8  C   LIG d   1      -9.710  80.561 118.584  0.00  0.00     0.119 C 
BRANCH   8   9
ATOM      9  C   LIG d   1     -10.503  81.574 117.736  0.00  0.00     0.028 C 
ATOM     10  C   LIG d   1      -9.613  82.700 117.183  0.00  0.00     0.006 C 
ENDBRANCH   8   9
BRANCH   8  11
ATOM     11  C   LIG d   1     -10.247  80.717 120.010  0.00  0.00     0.028 C 
ATOM     12  C   LIG d   1     -10.296  79.386 120.777  0.00  0.00     0.006 C 
ENDBRANCH   8  11
ENDBRANCH   7   8
ENDBRANCH   1   7
BRANCH   6  13
ATOM     13  N   LIG d   1      -5.631  80.759 119.874  0.00  0.00    -0.311 N 
ATOM     14  C   LIG d   1      -5.766  81.802 120.690  0.00  0.00     0.210 C 
ATOM     15  C   LIG d   1      -4.627  82.824 120.627  0.00  0.00     0.109 C 
ATOM     16  O   LIG d   1      -6.706  81.962 121.483  0.00  0.00    -0.276 OA
ATOM     17  H   LIG d   1      -4.821  80.693 119.288  0.00  0.00     0.149 HD
ENDBRANCH   6  13
BRANCH   5  18
ATOM     18  N   LIG d   1      -5.379  78.024 121.213  0.00  0.00     0.381 N 
ATOM     19  H   LIG d   1      -4.629  78.669 121.360  0.00  0.00    -0.090 HD
ATOM     20  H   LIG d   1      -5.002  77.093 121.231  0.00  0.00    -0.090 HD
ATOM     21  H   LIG d   1      -6.062  78.128 121.931  0.00  0.00    -0.090 HD
ENDBRANCH   5  18
BRANCH   3  22
ATOM     22  C   LIG d   1      -8.351  76.284 117.885  0.00  0.00     0.382 C 
ATOM     23  O   LIG d   1      -9.571  76.245 117.596  0.00  0.00    -0.241 OA
ATOM     24  O   LIG d   1      -7.630  75.299 117.637  0.00  0.00    -0.241 OA
ENDBRANCH   3  22
TORSDOF 7
ENDMDL
MODEL 5
REMARK VINA RESULT:      -4.5      1.885      2.308
REMARK  7 active torsions:
REMARK  status: ('A' for Active; 'I' for Inactive)
REMARK    1  A    between atoms: C_2  and  C_3 
REMARK    2  A    between atoms: C_3  and  O_6 
REMARK    3  A    between atoms: C_3  and  C_4 
REMARK    4  A    between atoms: C_7  and  O_6 
REMARK    5  A    between atoms: C_9  and  C_10 
REMARK    6  A    between atoms: N_15  and  C_14 
REMARK    7  A    between atoms: N_20  and  C_19 
REMARK       I    between atoms: C_22  and  N_20 
ROOT
ATOM      1  C   LIG d   1      -8.400  81.633 120.829  0.00  0.00     0.161 C 
ATOM      2  C   LIG d   1      -7.517  80.951 119.975  0.00  0.00     0.016 C 
ATOM      3  C   LIG d   1      -7.708  80.852 118.577  0.00  0.00     0.038 C 
ATOM      4  C   LIG d   1      -8.722  81.561 117.915  0.00  0.00     0.028 C 
ATOM      5  C   LIG d   1      -9.932  81.852 118.796  0.00  0.00    -0.047 C 
ATOM      6  C   LIG d   1      -9.450  82.506 120.111  0.00  0.00     0.091 C 
ENDROOT
BRANCH   1   7
ATOM      7  O   LIG d   1      -7.651  82.424 121.774  0.00  0.00    -0.368 OA
BRANCH   7   8
ATOM      8  C   LIG d   1      -6.249  82.622 121.469  0.00  0.00     0.119 C 
BRANCH   8   9
ATOM      9  C   LIG d   1      -5.446  82.266 122.736  0.00  0.00     0.028 C 
ATOM     10  C   LIG d   1      -4.802  80.872 122.650  0.00  0.00     0.006 C 
ENDBRANCH   8   9
BRANCH   8  11
ATOM     11  C   LIG d   1      -5.941  84.096 121.195  0.00  0.00     0.028 C 
ATOM     12  C   LIG d   1      -4.444  84.424 121.312  0.00  0.00     0.006 C 
ENDBRANCH   8  11
ENDBRANCH   7   8
ENDBRANCH   1   7
BRANCH   6  13
ATOM     13  N   LIG d   1     -10.563  82.747 121.066  0.00  0.00    -0.311 N 
ATOM     14  C   LIG d   1     -10.711  83.881 121.749  0.00  0.00     0.210 C 
ATOM     15  C   LIG d   1     -11.915  83.914 122.695  0.00  0.00     0.109 C 
ATOM     16  O   LIG d   1      -9.977  84.874 121.637  0.00  0.00    -0.276 OA
ATOM     17  H   LIG d   1     -11.223  82.004 121.194  0.00  0.00     0.149 HD
ENDBRANCH   6  13
BRANCH   5  18
ATOM     18  N   LIG d   1     -10.848  82.712 118.024  0.00  0.00     0.381 N 
ATOM     19  H   LIG d   1     -11.647  82.184 117.736  0.00  0.00    -0.090 HD
ATOM     20  H   LIG d   1     -10.372  83.039 117.202  0.00  0.00    -0.090 HD
ATOM     21  H   LIG d   1     -11.137  83.488 118.580  0.00  0.00    -0.090 HD
ENDBRANCH   5  18
BRANCH   3  22
ATOM     22  C   LIG d   1      -6.904  80.003 117.832  0.00  0.00     0.382 C 
ATOM     23  O   LIG d   1      -5.938  80.468 117.180  0.00  0.00    -0.241 OA
ATOM     24  O   LIG d   1      -7.158  78.786 117.768  0.00  0.00    -0.241 OA
ENDBRANCH   3  22
TORSDOF 7
ENDMDL
MODEL 6
REMARK VINA RESULT:      -4.5      1.575      2.385
REMARK  7 active torsions:
REMARK  status: ('A' for Active; 'I' for Inactive)
REMARK    1  A    between atoms: C_2  and  C_3 
REMARK    2  A    between atoms: C_3  and  O_6 
REMARK    3  A    between atoms: C_3  and  C_4 
REMARK    4  A    between atoms: C_7  and  O_6 
REMARK    5  A    between atoms: C_9  and  C_10 
REMARK    6  A    between atoms: N_15  and  C_14 
REMARK    7  A    between atoms: N_20  and  C_19 
REMARK       I    between atoms: C_22  and  N_20 
ROOT
ATOM      1  C   LIG d   1      -7.580  82.506 120.028  0.00  0.00     0.161 C 
ATOM      2  C   LIG d   1      -7.109  81.340 119.401  0.00  0.00     0.016 C 
ATOM      3  C   LIG d   1      -7.820  80.660 118.387  0.00  0.00     0.038 C 
ATOM      4  C   LIG d   1      -8.990  81.188 117.820  0.00  0.00     0.028 C 
ATOM      5  C   LIG d   1      -9.765  82.097 118.767  0.00  0.00    -0.047 C 
ATOM      6  C   LIG d   1      -8.800  83.158 119.345  0.00  0.00     0.091 C 
ENDROOT
BRANCH   1   7
ATOM      7  O   LIG d   1      -6.507  83.460 120.154  0.00  0.00    -0.368 OA
BRANCH   7   8
ATOM      8  C   LIG d   1      -5.562  83.219 121.226  0.00  0.00     0.119 C 
BRANCH   8   9
ATOM      9  C   LIG d   1      -6.242  83.635 122.545  0.00  0.00     0.028 C 
ATOM     10  C   LIG d   1      -6.682  85.108 122.538  0.00  0.00     0.006 C 
ENDBRANCH   8   9
BRANCH   8  11
ATOM     11  C   LIG d   1      -4.333  84.124 121.099  0.00  0.00     0.028 C 
ATOM     12  C   LIG d   1      -3.097  83.379 120.572  0.00  0.00     0.006 C 
ENDBRANCH   8  11
ENDBRANCH   7   8
ENDBRANCH   1   7
BRANCH   6  13
ATOM     13  N   LIG d   1      -9.459  84.037 120.346  0.00  0.00    -0.311 N 
ATOM     14  C   LIG d   1     -10.027  83.581 121.461  0.00  0.00     0.210 C 
ATOM     15  C   LIG d   1     -10.667  84.655 122.347  0.00  0.00     0.109 C 
ATOM     16  O   LIG d   1     -10.033  82.393 121.817  0.00  0.00    -0.276 OA
ATOM     17  H   LIG d   1      -9.472  85.020 120.152  0.00  0.00     0.149 HD
ENDBRANCH   6  13
BRANCH   5  18
ATOM     18  N   LIG d   1     -10.882  82.686 118.005  0.00  0.00     0.381 N 
ATOM     19  H   LIG d   1     -11.336  81.976 117.466  0.00  0.00    -0.090 HD
ATOM     20  H   LIG d   1     -10.517  83.376 117.373  0.00  0.00    -0.090 HD
ATOM     21  H   LIG d   1     -11.535  83.108 118.628  0.00  0.00    -0.090 HD
ENDBRANCH   5  18
BRANCH   3  22
ATOM     22  C   LIG d   1      -7.383  79.416 117.957  0.00  0.00     0.382 C 
ATOM     23  O   LIG d   1      -7.982  78.378 118.329  0.00  0.00    -0.241 OA
ATOM     24  O   LIG d   1      -6.372  79.316 117.237  0.00  0.00    -0.241 OA
ENDBRANCH   3  22
TORSDOF 7
ENDMDL
MODEL 7
REMARK VINA RESULT:      -4.5     10.584     13.231
REMARK  7 active torsions:
REMARK  status: ('A' for Active; 'I' for Inactive)
REMARK    1  A    between atoms: C_2  and  C_3 
REMARK    2  A    between atoms: C_3  and  O_6 
REMARK    3  A    between atoms: C_3  and  C_4 
REMARK    4  A    between atoms: C_7  and  O_6 
REMARK    5  A    between atoms: C_9  and  C_10 
REMARK    6  A    between atoms: N_15  and  C_14 
REMARK    7  A    between atoms: N_20  and  C_19 
REMARK       I    between atoms: C_22  and  N_20 
ROOT
ATOM      1  C   LIG d   1      -3.676  93.388 118.548  0.00  0.00     0.161 C 
ATOM      2  C   LIG d   1      -5.065  93.184 118.592  0.00  0.00     0.016 C 
ATOM      3  C   LIG d   1      -5.675  91.928 118.364  0.00  0.00     0.038 C 
ATOM      4  C   LIG d   1      -4.921  90.753 118.223  0.00  0.00     0.028 C 
ATOM      5  C   LIG d   1      -3.521  90.994 117.669  0.00  0.00    -0.047 C 
ATOM      6  C   LIG d   1      -2.833  92.097 118.506  0.00  0.00     0.091 C 
ENDROOT
BRANCH   1   7
ATOM      7  O   LIG d   1      -3.269  94.217 119.655  0.00  0.00    -0.368 OA
BRANCH   7   8
ATOM      8  C   LIG d   1      -2.991  95.605 119.344  0.00  0.00     0.119 C 
BRANCH   8   9
ATOM      9  C   LIG d   1      -1.460  95.772 119.301  0.00  0.00     0.028 C 
ATOM     10  C   LIG d   1      -0.933  95.983 117.871  0.00  0.00     0.006 C 
ENDBRANCH   8   9
BRANCH   8  11
ATOM     11  C   LIG d   1      -3.469  96.533 120.464  0.00  0.00     0.028 C 
ATOM     12  C   LIG d   1      -3.767  97.958 119.971  0.00  0.00     0.006 C 
ENDBRANCH   8  11
ENDBRANCH   7   8
ENDBRANCH   1   7
BRANCH   6  13
ATOM     13  N   LIG d   1      -1.490  92.453 117.979  0.00  0.00    -0.311 N 
ATOM     14  C   LIG d   1      -0.357  91.929 118.445  0.00  0.00     0.210 C 
ATOM     15  C   LIG d   1       0.919  92.449 117.775  0.00  0.00     0.109 C 
ATOM     16  O   LIG d   1      -0.290  91.060 119.326  0.00  0.00    -0.276 OA
ATOM     17  H   LIG d   1      -1.454  93.128 117.241  0.00  0.00     0.149 HD
ENDBRANCH   6  13
BRANCH   5  18
ATOM     18  N   LIG d   1      -2.801  89.707 117.705  0.00  0.00     0.381 N 
ATOM     19  H   LIG d   1      -2.591  89.411 116.772  0.00  0.00    -0.090 HD
ATOM     20  H   LIG d   1      -3.392  89.015 118.130  0.00  0.00    -0.090 HD
ATOM     21  H   LIG d   1      -1.958  89.802 118.228  0.00  0.00    -0.090 HD
ENDBRANCH   5  18
BRANCH   3  22
ATOM     22  C   LIG d   1      -7.053  91.847 118.234  0.00  0.00     0.382 C 
ATOM     23  O   LIG d   1      -7.782  92.749 118.713  0.00  0.00    -0.241 OA
ATOM     24  O   LIG d   1      -7.578  90.861 117.684  0.00  0.00    -0.241 OA
ENDBRANCH   3  22
TORSDOF 7
ENDMDL
MODEL 8
REMARK VINA RESULT:      -4.5      3.054      5.075
REMARK  7 active torsions:
REMARK  status: ('A' for Active; 'I' for Inactive)
REMARK    1  A    between atoms: C_2  and  C_3 
REMARK    2  A    between atoms: C_3  and  O_6 
REMARK    3  A    between atoms: C_3  and  C_4 
REMARK    4  A    between atoms: C_7  and  O_6 
REMARK    5  A    between atoms: C_9  and  C_10 
REMARK    6  A    between atoms: N_15  and  C_14 
REMARK    7  A    between atoms: N_20  and  C_19 
REMARK       I    between atoms: C_22  and  N_20 
ROOT
ATOM      1  C   LIG d   1      -9.853  78.890 119.453  0.00  0.00     0.161 C 
ATOM      2  C   LIG d   1      -9.501  79.822 118.462  0.00  0.00     0.016 C 
ATOM      3  C   LIG d   1      -9.365  81.207 118.711  0.00  0.00     0.038 C 
ATOM      4  C   LIG d   1      -9.424  81.737 120.008  0.00  0.00     0.028 C 
ATOM      5  C   LIG d   1     -10.275  80.907 120.963  0.00  0.00    -0.047 C 
ATOM      6  C   LIG d   1      -9.812  79.434 120.896  0.00  0.00     0.091 C 
ENDROOT
BRANCH   1   7
ATOM      7  O   LIG d   1      -9.023  77.717 119.336  0.00  0.00    -0.368 OA
BRANCH   7   8
ATOM      8  C   LIG d   1      -7.892  77.822 118.437  0.00  0.00     0.119 C 
BRANCH   8   9
ATOM      9  C   LIG d   1      -7.935  76.604 117.495  0.00  0.00     0.028 C 
ATOM     10  C   LIG d   1      -8.325  75.309 118.227  0.00  0.00     0.006 C 
ENDBRANCH   8   9
BRANCH   8  11
ATOM     11  C   LIG d   1      -6.566  77.704 119.193  0.00  0.00     0.028 C 
ATOM     12  C   LIG d   1      -6.757  77.391 120.686  0.00  0.00     0.006 C 
ENDBRANCH   8  11
ENDBRANCH   7   8
ENDBRANCH   1   7
BRANCH   6  13
ATOM     13  N   LIG d   1     -10.648  78.538 121.738  0.00  0.00    -0.311 N 
ATOM     14  C   LIG d   1     -10.198  77.933 122.836  0.00  0.00     0.210 C 
ATOM     15  C   LIG d   1     -11.218  77.037 123.545  0.00  0.00     0.109 C 
ATOM     16  O   LIG d   1      -9.061  78.079 123.308  0.00  0.00    -0.276 OA
ATOM     17  H   LIG d   1     -11.594  78.389 121.445  0.00  0.00     0.149 HD
ENDBRANCH   6  13
BRANCH   5  18
ATOM     18  N   LIG d   1     -10.138  81.496 122.309  0.00  0.00     0.381 N 
ATOM     19  H   LIG d   1     -10.732  82.296 122.390  0.00  0.00    -0.090 HD
ATOM     20  H   LIG d   1      -9.187  81.794 122.438  0.00  0.00    -0.090 HD
ATOM     21  H   LIG d   1     -10.380  80.822 123.002  0.00  0.00    -0.090 HD
ENDBRANCH   5  18
BRANCH   3  22
ATOM     22  C   LIG d   1      -9.206  82.083 117.648  0.00  0.00     0.382 C 
ATOM     23  O   LIG d   1      -8.063  82.301 117.180  0.00  0.00    -0.241 OA
ATOM     24  O   LIG d   1     -10.187  82.693 117.180  0.00  0.00    -0.241 OA
ENDBRANCH   3  22
TORSDOF 7
ENDMDL
MODEL 9
REMARK VINA RESULT:      -4.4      2.130      3.245
REMARK  7 active torsions:
REMARK  status: ('A' for Active; 'I' for Inactive)
REMARK    1  A    between atoms: C_2  and  C_3 
REMARK    2  A    between atoms: C_3  and  O_6 
REMARK    3  A    between atoms: C_3  and  C_4 
REMARK    4  A    between atoms: C_7  and  O_6 
REMARK    5  A    between atoms: C_9  and  C_10 
REMARK    6  A    between atoms: N_15  and  C_14 
REMARK    7  A    between atoms: N_20  and  C_19 
REMARK       I    between atoms: C_22  and  N_20 
ROOT
ATOM      1  C   LIG d   1     -10.523  81.237 121.156  0.00  0.00     0.161 C 
ATOM      2  C   LIG d   1     -10.209  80.040 120.492  0.00  0.00     0.016 C 
ATOM      3  C   LIG d   1      -9.462  79.988 119.292  0.00  0.00     0.038 C 
ATOM      4  C   LIG d   1      -8.845  81.127 118.753  0.00  0.00     0.028 C 
ATOM      5  C   LIG d   1      -9.555  82.428 119.113  0.00  0.00    -0.047 C 
ATOM      6  C   LIG d   1      -9.764  82.479 120.643  0.00  0.00     0.091 C 
ENDROOT
BRANCH   1   7
ATOM      7  O   LIG d   1     -10.321  81.077 122.574  0.00  0.00    -0.368 OA
BRANCH   7   8
ATOM      8  C   LIG d   1      -9.245  80.190 122.968  0.00  0.00     0.119 C 
BRANCH   8   9
ATOM      9  C   LIG d   1      -9.720  79.409 124.209  0.00  0.00     0.028 C 
ATOM     10  C   LIG d   1     -11.098  78.760 124.002  0.00  0.00     0.006 C 
ENDBRANCH   8   9
BRANCH   8  11
ATOM     11  C   LIG d   1      -8.015  80.976 123.430  0.00  0.00     0.028 C 
ATOM     12  C   LIG d   1      -6.871  80.951 122.403  0.00  0.00     0.006 C 
ENDBRANCH   8  11
ENDBRANCH   7   8
ENDBRANCH   1   7
BRANCH   6  13
ATOM     13  N   LIG d   1     -10.528  83.681 121.071  0.00  0.00    -0.311 N 
ATOM     14  C   LIG d   1     -10.037  84.606 121.894  0.00  0.00     0.210 C 
ATOM     15  C   LIG d   1     -10.998  85.753 122.223  0.00  0.00     0.109 C 
ATOM     16  O   LIG d   1      -8.887  84.602 122.357  0.00  0.00    -0.276 OA
ATOM     17  H   LIG d   1     -11.459  83.779 120.718  0.00  0.00     0.149 HD
ENDBRANCH   6  13
BRANCH   5  18
ATOM     18  N   LIG d   1      -8.732  83.541 118.604  0.00  0.00     0.381 N 
ATOM     19  H   LIG d   1      -8.571  83.423 117.623  0.00  0.00    -0.090 HD
ATOM     20  H   LIG d   1      -7.843  83.528 119.072  0.00  0.00    -0.090 HD
ATOM     21  H   LIG d   1      -9.191  84.409 118.771  0.00  0.00    -0.090 HD
ENDBRANCH   5  18
BRANCH   3  22
ATOM     22  C   LIG d   1      -9.360  78.793 118.598  0.00  0.00     0.382 C 
ATOM     23  O   LIG d   1     -10.331  77.998 118.570  0.00  0.00    -0.241 OA
ATOM     24  O   LIG d   1      -8.294  78.478 118.035  0.00  0.00    -0.241 OA
ENDBRANCH   3  22
TORSDOF 7
ENDMDL
