MODEL 1
REMARK VINA RESULT:      -4.6      0.000      0.000
REMARK  7 active torsions:
REMARK  status: ('A' for Active; 'I' for Inactive)
REMARK    1  A    between atoms: C_2  and  C_3 
REMARK    2  A    between atoms: C_3  and  O_6 
REMARK    3  A    between atoms: C_3  and  C_4 
REMARK    4  A    between atoms: C_7  and  O_6 
REMARK    5  A    between atoms: C_9  and  C_10 
REMARK    6  A    between atoms: N_15  and  C_14 
REMARK    7  A    between atoms: N_20  and  C_19 
REMARK       I    between atoms: C_22  and  N_20 
ROOT
ATOM      1  C   LIG d   1      -6.048  77.490 117.659  0.00  0.00     0.161 C 
ATOM      2  C   LIG d   1      -6.202  78.886 117.662  0.00  0.00     0.016 C 
ATOM      3  C   LIG d   1      -7.456  79.531 117.766  0.00  0.00     0.038 C 
ATOM      4  C   LIG d   1      -8.636  78.819 118.026  0.00  0.00     0.028 C 
ATOM      5  C   LIG d   1      -8.598  77.379 117.526  0.00  0.00    -0.047 C 
ATOM      6  C   LIG d   1      -7.313  76.699 118.053  0.00  0.00     0.091 C 
ENDROOT
BRANCH   1   7
ATOM      7  O   LIG d   1      -4.941  77.117 118.503  0.00  0.00    -0.368 OA
BRANCH   7   8
ATOM      8  C   LIG d   1      -3.793  76.543 117.832  0.00  0.00     0.119 C 
BRANCH   8   9
ATOM      9  C   LIG d   1      -3.309  75.351 118.681  0.00  0.00     0.028 C 
ATOM     10  C   LIG d   1      -3.084  74.084 117.839  0.00  0.00     0.006 C 
ENDBRANCH   8   9
BRANCH   8  11
ATOM     11  C   LIG d   1      -2.617  77.524 117.802  0.00  0.00     0.028 C 
ATOM     12  C   LIG d   1      -2.486  78.337 119.100  0.00  0.00     0.006 C 
ENDBRANCH   8  11
ENDBRANCH   7   8
ENDBRANCH   1   7
BRANCH   6  13
ATOM     13  N   LIG d   1      -7.155  75.312 117.542  0.00  0.00    -0.311 N 
ATOM     14  C   LIG d   1      -6.825  74.279 118.314  0.00  0.00     0.210 C 
ATOM     15  C   LIG d   1      -6.695  72.940 117.582  0.00  0.00     0.109 C 
ATOM     16  O   LIG d   1      -6.660  74.338 119.542  0.00  0.00    -0.276 OA
ATOM     17  H   LIG d   1      -7.301  75.168 116.562  0.00  0.00     0.149 HD
ENDBRANCH   6  13
BRANCH   5  18
ATOM     18  N   LIG d   1      -9.833  76.715 117.984  0.00  0.00     0.381 N 
ATOM     19  H   LIG d   1      -9.659  76.230 118.842  0.00  0.00    -0.090 HD
ATOM     20  H   LIG d   1     -10.116  76.042 117.293  0.00  0.00    -0.090 HD
ATOM     21  H   LIG d   1     -10.554  77.390 118.116  0.00  0.00    -0.090 HD
ENDBRANCH   5  18
BRANCH   3  22
ATOM     22  C   LIG d   1      -7.543  80.900 117.568  0.00  0.00     0.382 C 
ATOM     23  O   LIG d   1      -6.504  81.569 117.347  0.00  0.00    -0.241 OA
ATOM     24  O   LIG d   1      -8.641  81.482 117.652  0.00  0.00    -0.241 OA
ENDBRANCH   3  22
TORSDOF 7
ENDMDL
MODEL 2
REMARK VINA RESULT:      -4.5     17.997     20.335
REMARK  7 active torsions:
REMARK  status: ('A' for Active; 'I' for Inactive)
REMARK    1  A    between atoms: C_2  and  C_3 
REMARK    2  A    between atoms: C_3  and  O_6 
REMARK    3  A    between atoms: C_3  and  C_4 
REMARK    4  A    between atoms: C_7  and  O_6 
REMARK    5  A    between atoms: C_9  and  C_10 
REMARK    6  A    between atoms: N_15  and  C_14 
REMARK    7  A    between atoms: N_20  and  C_19 
REMARK       I    between atoms: C_22  and  N_20 
ROOT
ATOM      1  C   LIG d   1       0.292  58.917 120.437  0.00  0.00     0.161 C 
ATOM      2  C   LIG d   1       1.473  58.990 121.195  0.00  0.00     0.016 C 
ATOM      3  C   LIG d   1       2.750  58.677 120.678  0.00  0.00     0.038 C 
ATOM      4  C   LIG d   1       2.954  58.411 119.315  0.00  0.00     0.028 C 
ATOM      5  C   LIG d   1       1.726  57.833 118.621  0.00  0.00    -0.047 C 
ATOM      6  C   LIG d   1       0.508  58.737 118.920  0.00  0.00     0.091 C 
ENDROOT
BRANCH   1   7
ATOM      7  O   LIG d   1      -0.526  60.076 120.693  0.00  0.00    -0.368 OA
BRANCH   7   8
ATOM      8  C   LIG d   1      -1.683  59.865 121.540  0.00  0.00     0.119 C 
BRANCH   8   9
ATOM      9  C   LIG d   1      -1.293  60.286 122.970  0.00  0.00     0.028 C 
ATOM     10  C   LIG d   1      -0.553  61.634 123.003  0.00  0.00     0.006 C 
ENDBRANCH   8   9
BRANCH   8  11
ATOM     11  C   LIG d   1      -2.038  58.379 121.638  0.00  0.00     0.028 C 
ATOM     12  C   LIG d   1      -3.387  58.044 120.981  0.00  0.00     0.006 C 
ENDBRANCH   8  11
ENDBRANCH   7   8
ENDBRANCH   1   7
BRANCH   6  13
ATOM     13  N   LIG d   1      -0.753  58.197 118.347  0.00  0.00    -0.311 N 
ATOM     14  C   LIG d   1      -1.655  58.950 117.720  0.00  0.00     0.210 C 
ATOM     15  C   LIG d   1      -2.893  58.198 117.224  0.00  0.00     0.109 C 
ATOM     16  O   LIG d   1      -1.532  60.165 117.500  0.00  0.00    -0.276 OA
ATOM     17  H   LIG d   1      -0.919  57.216 118.454  0.00  0.00     0.149 HD
ENDBRANCH   6  13
BRANCH   5  18
ATOM     18  N   LIG d   1       2.033  57.734 117.181  0.00  0.00     0.381 N 
ATOM     19  H   LIG d   1       3.022  57.786 117.042  0.00  0.00    -0.090 HD
ATOM     20  H   LIG d   1       1.606  58.509 116.704  0.00  0.00    -0.090 HD
ATOM     21  H   LIG d   1       1.683  56.876 116.816  0.00  0.00    -0.090 HD
ENDBRANCH   5  18
BRANCH   3  22
ATOM     22  C   LIG d   1       3.836  58.587 121.536  0.00  0.00     0.382 C 
ATOM     23  O   LIG d   1       3.837  57.738 122.459  0.00  0.00    -0.241 OA
ATOM     24  O   LIG d   1       4.795  59.374 121.425  0.00  0.00    -0.241 OA
ENDBRANCH   3  22
TORSDOF 7
ENDMDL
MODEL 3
REMARK VINA RESULT:      -4.4     12.959     15.267
REMARK  7 active torsions:
REMARK  status: ('A' for Active; 'I' for Inactive)
REMARK    1  A    between atoms: C_2  and  C_3 
REMARK    2  A    between atoms: C_3  and  O_6 
REMARK    3  A    between atoms: C_3  and  C_4 
REMARK    4  A    between atoms: C_7  and  O_6 
REMARK    5  A    between atoms: C_9  and  C_10 
REMARK    6  A    between atoms: N_15  and  C_14 
REMARK    7  A    between atoms: N_20  and  C_19 
REMARK       I    between atoms: C_22  and  N_20 
ROOT
ATOM      1  C   LIG d   1     -14.064  65.146 121.567  0.00  0.00     0.161 C 
ATOM      2  C   LIG d   1     -12.886  65.122 122.331  0.00  0.00     0.016 C 
ATOM      3  C   LIG d   1     -11.758  64.335 121.999  0.00  0.00     0.038 C 
ATOM      4  C   LIG d   1     -11.676  63.631 120.789  0.00  0.00     0.028 C 
ATOM      5  C   LIG d   1     -13.036  63.224 120.232  0.00  0.00    -0.047 C 
ATOM      6  C   LIG d   1     -13.951  64.469 120.184  0.00  0.00     0.091 C 
ENDROOT
BRANCH   1   7
ATOM      7  O   LIG d   1     -14.526  66.503 121.424  0.00  0.00    -0.368 OA
BRANCH   7   8
ATOM      8  C   LIG d   1     -13.983  67.247 120.305  0.00  0.00     0.119 C 
BRANCH   8   9
ATOM      9  C   LIG d   1     -13.200  68.443 120.881  0.00  0.00     0.028 C 
ATOM     10  C   LIG d   1     -13.701  68.856 122.276  0.00  0.00     0.006 C 
ENDBRANCH   8   9
BRANCH   8  11
ATOM     11  C   LIG d   1     -15.096  67.864 119.453  0.00  0.00     0.028 C 
ATOM     12  C   LIG d   1     -16.496  67.631 120.043  0.00  0.00     0.006 C 
ENDBRANCH   8  11
ENDBRANCH   7   8
ENDBRANCH   1   7
BRANCH   6  13
ATOM     13  N   LIG d   1     -15.328  64.144 119.730  0.00  0.00    -0.311 N 
ATOM     14  C   LIG d   1     -15.736  64.283 118.469  0.00  0.00     0.210 C 
ATOM     15  C   LIG d   1     -17.201  63.909 118.219  0.00  0.00     0.109 C 
ATOM     16  O   LIG d   1     -15.016  64.649 117.529  0.00  0.00    -0.276 OA
ATOM     17  H   LIG d   1     -15.970  63.810 120.422  0.00  0.00     0.149 HD
ENDBRANCH   6  13
BRANCH   5  18
ATOM     18  N   LIG d   1     -12.812  62.621 118.904  0.00  0.00     0.381 N 
ATOM     19  H   LIG d   1     -13.358  61.788 118.814  0.00  0.00    -0.090 HD
ATOM     20  H   LIG d   1     -11.842  62.373 118.820  0.00  0.00    -0.090 HD
ATOM     21  H   LIG d   1     -13.060  63.269 118.189  0.00  0.00    -0.090 HD
ENDBRANCH   5  18
BRANCH   3  22
ATOM     22  C   LIG d   1     -10.713  64.217 122.903  0.00  0.00     0.382 C 
ATOM     23  O   LIG d   1     -10.572  65.069 123.813  0.00  0.00    -0.241 OA
ATOM     24  O   LIG d   1      -9.883  63.295 122.792  0.00  0.00    -0.241 OA
ENDBRANCH   3  22
TORSDOF 7
ENDMDL
MODEL 4
REMARK VINA RESULT:      -4.2      1.702      2.549
REMARK  7 active torsions:
REMARK  status: ('A' for Active; 'I' for Inactive)
REMARK    1  A    between atoms: C_2  and  C_3 
REMARK    2  A    between atoms: C_3  and  O_6 
REMARK    3  A    between atoms: C_3  and  C_4 
REMARK    4  A    between atoms: C_7  and  O_6 
REMARK    5  A    between atoms: C_9  and  C_10 
REMARK    6  A    between atoms: N_15  and  C_14 
REMARK    7  A    between atoms: N_20  and  C_19 
REMARK       I    between atoms: C_22  and  N_20 
ROOT
ATOM      1  C   LIG d   1      -6.579  78.969 117.769  0.00  0.00     0.161 C 
ATOM      2  C   LIG d   1      -7.291  80.170 117.924  0.00  0.00     0.016 C 
ATOM      3  C   LIG d   1      -8.693  80.226 118.099  0.00  0.00     0.038 C 
ATOM      4  C   LIG d   1      -9.465  79.069 118.283  0.00  0.00     0.028 C 
ATOM      5  C   LIG d   1      -8.862  77.829 117.630  0.00  0.00    -0.047 C 
ATOM      6  C   LIG d   1      -7.389  77.692 118.078  0.00  0.00     0.091 C 
ENDROOT
BRANCH   1   7
ATOM      7  O   LIG d   1      -5.379  79.007 118.567  0.00  0.00    -0.368 OA
BRANCH   7   8
ATOM      8  C   LIG d   1      -4.395  80.001 118.191  0.00  0.00     0.119 C 
BRANCH   8   9
ATOM      9  C   LIG d   1      -3.216  79.260 117.531  0.00  0.00     0.028 C 
ATOM     10  C   LIG d   1      -1.853  79.737 118.061  0.00  0.00     0.006 C 
ENDBRANCH   8   9
BRANCH   8  11
ATOM     11  C   LIG d   1      -3.802  80.692 119.423  0.00  0.00     0.028 C 
ATOM     12  C   LIG d   1      -4.634  81.897 119.889  0.00  0.00     0.006 C 
ENDBRANCH   8  11
ENDBRANCH   7   8
ENDBRANCH   1   7
BRANCH   6  13
ATOM     13  N   LIG d   1      -6.700  76.552 117.420  0.00  0.00    -0.311 N 
ATOM     14  C   LIG d   1      -6.435  75.401 118.035  0.00  0.00     0.210 C 
ATOM     15  C   LIG d   1      -5.699  74.365 117.180  0.00  0.00     0.109 C 
ATOM     16  O   LIG d   1      -6.769  75.128 119.198  0.00  0.00    -0.276 OA
ATOM     17  H   LIG d   1      -6.422  76.677 116.466  0.00  0.00     0.149 HD
ENDBRANCH   6  13
BRANCH   5  18
ATOM     18  N   LIG d   1      -9.693  76.674 118.016  0.00  0.00     0.381 N 
ATOM     19  H   LIG d   1      -9.110  75.935 118.356  0.00  0.00    -0.090 HD
ATOM     20  H   LIG d   1     -10.183  76.340 117.205  0.00  0.00    -0.090 HD
ATOM     21  H   LIG d   1     -10.345  76.943 118.720  0.00  0.00    -0.090 HD
ENDBRANCH   5  18
BRANCH   3  22
ATOM     22  C   LIG d   1      -9.343  81.450 118.051  0.00  0.00     0.382 C 
ATOM     23  O   LIG d   1      -8.827  82.456 118.594  0.00  0.00    -0.241 OA
ATOM     24  O   LIG d   1     -10.460  81.551 117.509  0.00  0.00    -0.241 OA
ENDBRANCH   3  22
TORSDOF 7
ENDMDL
MODEL 5
REMARK VINA RESULT:      -4.2      1.762      2.879
REMARK  7 active torsions:
REMARK  status: ('A' for Active; 'I' for Inactive)
REMARK    1  A    between atoms: C_2  and  C_3 
REMARK    2  A    between atoms: C_3  and  O_6 
REMARK    3  A    between atoms: C_3  and  C_4 
REMARK    4  A    between atoms: C_7  and  O_6 
REMARK    5  A    between atoms: C_9  and  C_10 
REMARK    6  A    between atoms: N_15  and  C_14 
REMARK    7  A    between atoms: N_20  and  C_19 
REMARK       I    between atoms: C_22  and  N_20 
ROOT
ATOM      1  C   LIG d   1      -6.664  78.457 117.673  0.00  0.00     0.161 C 
ATOM      2  C   LIG d   1      -7.245  79.727 117.821  0.00  0.00     0.016 C 
ATOM      3  C   LIG d   1      -8.629  79.931 118.028  0.00  0.00     0.038 C 
ATOM      4  C   LIG d   1      -9.510  78.863 118.253  0.00  0.00     0.028 C 
ATOM      5  C   LIG d   1      -9.055  77.557 117.610  0.00  0.00    -0.047 C 
ATOM      6  C   LIG d   1      -7.593  77.276 118.026  0.00  0.00     0.091 C 
ENDROOT
BRANCH   1   7
ATOM      7  O   LIG d   1      -5.447  78.383 118.441  0.00  0.00    -0.368 OA
BRANCH   7   8
ATOM      8  C   LIG d   1      -5.311  79.347 119.514  0.00  0.00     0.119 C 
BRANCH   8   9
ATOM      9  C   LIG d   1      -3.898  79.955 119.413  0.00  0.00     0.028 C 
ATOM     10  C   LIG d   1      -3.851  81.413 119.901  0.00  0.00     0.006 C 
ENDBRANCH   8   9
BRANCH   8  11
ATOM     11  C   LIG d   1      -5.362  78.666 120.884  0.00  0.00     0.028 C 
ATOM     12  C   LIG d   1      -6.788  78.573 121.451  0.00  0.00     0.006 C 
ENDBRANCH   8  11
ENDBRANCH   7   8
ENDBRANCH   1   7
BRANCH   6  13
ATOM     13  N   LIG d   1      -7.042  76.060 117.373  0.00  0.00    -0.311 N 
ATOM     14  C   LIG d   1      -6.663  74.975 118.046  0.00  0.00     0.210 C 
ATOM     15  C   LIG d   1      -6.104  73.841 117.181  0.00  0.00     0.109 C 
ATOM     16  O   LIG d   1      -6.766  74.832 119.273  0.00  0.00    -0.276 OA
ATOM     17  H   LIG d   1      -6.953  76.078 116.376  0.00  0.00     0.149 HD
ENDBRANCH   6  13
BRANCH   5  18
ATOM     18  N   LIG d   1      -9.991  76.501 118.038  0.00  0.00     0.381 N 
ATOM     19  H   LIG d   1      -9.963  76.406 119.033  0.00  0.00    -0.090 HD
ATOM     20  H   LIG d   1      -9.705  75.628 117.630  0.00  0.00    -0.090 HD
ATOM     21  H   LIG d   1     -10.917  76.725 117.745  0.00  0.00    -0.090 HD
ENDBRANCH   5  18
BRANCH   3  22
ATOM     22  C   LIG d   1      -9.150  81.215 117.972  0.00  0.00     0.382 C 
ATOM     23  O   LIG d   1     -10.361  81.388 117.693  0.00  0.00    -0.241 OA
ATOM     24  O   LIG d   1      -8.415  82.204 118.153  0.00  0.00    -0.241 OA
ENDBRANCH   3  22
TORSDOF 7
ENDMDL
MODEL 6
REMARK VINA RESULT:      -4.2     13.255     16.553
REMARK  7 active torsions:
REMARK  status: ('A' for Active; 'I' for Inactive)
REMARK    1  A    between atoms: C_2  and  C_3 
REMARK    2  A    between atoms: C_3  and  O_6 
REMARK    3  A    between atoms: C_3  and  C_4 
REMARK    4  A    between atoms: C_7  and  O_6 
REMARK    5  A    between atoms: C_9  and  C_10 
REMARK    6  A    between atoms: N_15  and  C_14 
REMARK    7  A    between atoms: N_20  and  C_19 
REMARK       I    between atoms: C_22  and  N_20 
ROOT
ATOM      1  C   LIG d   1      -4.447  92.583 120.291  0.00  0.00     0.161 C 
ATOM      2  C   LIG d   1      -3.629  91.547 119.811  0.00  0.00     0.016 C 
ATOM      3  C   LIG d   1      -3.964  90.743 118.698  0.00  0.00     0.038 C 
ATOM      4  C   LIG d   1      -5.078  91.021 117.891  0.00  0.00     0.028 C 
ATOM      5  C   LIG d   1      -6.199  91.740 118.633  0.00  0.00    -0.047 C 
ATOM      6  C   LIG d   1      -5.612  92.973 119.357  0.00  0.00     0.091 C 
ENDROOT
BRANCH   1   7
ATOM      7  O   LIG d   1      -3.642  93.739 120.598  0.00  0.00    -0.368 OA
BRANCH   7   8
ATOM      8  C   LIG d   1      -3.254  94.563 119.471  0.00  0.00     0.119 C 
BRANCH   8   9
ATOM      9  C   LIG d   1      -1.715  94.641 119.463  0.00  0.00     0.028 C 
ATOM     10  C   LIG d   1      -1.085  93.700 118.422  0.00  0.00     0.006 C 
ENDBRANCH   8   9
BRANCH   8  11
ATOM     11  C   LIG d   1      -3.732  96.007 119.645  0.00  0.00     0.028 C 
ATOM     12  C   LIG d   1      -2.596  96.969 120.025  0.00  0.00     0.006 C 
ENDBRANCH   8  11
ENDBRANCH   7   8
ENDBRANCH   1   7
BRANCH   6  13
ATOM     13  N   LIG d   1      -6.626  93.686 120.176  0.00  0.00    -0.311 N 
ATOM     14  C   LIG d   1      -7.310  94.742 119.740  0.00  0.00     0.210 C 
ATOM     15  C   LIG d   1      -8.293  95.339 120.752  0.00  0.00     0.109 C 
ATOM     16  O   LIG d   1      -7.220  95.221 118.599  0.00  0.00    -0.276 OA
ATOM     17  H   LIG d   1      -6.785  93.345 121.104  0.00  0.00     0.149 HD
ENDBRANCH   6  13
BRANCH   5  18
ATOM     18  N   LIG d   1      -7.236  92.090 117.644  0.00  0.00     0.381 N 
ATOM     19  H   LIG d   1      -6.828  92.618 116.899  0.00  0.00    -0.090 HD
ATOM     20  H   LIG d   1      -7.932  92.659 118.091  0.00  0.00    -0.090 HD
ATOM     21  H   LIG d   1      -7.655  91.261 117.282  0.00  0.00    -0.090 HD
ENDBRANCH   5  18
BRANCH   3  22
ATOM     22  C   LIG d   1      -3.202  89.622 118.405  0.00  0.00     0.382 C 
ATOM     23  O   LIG d   1      -2.565  89.561 117.326  0.00  0.00    -0.241 OA
ATOM     24  O   LIG d   1      -3.179  88.652 119.187  0.00  0.00    -0.241 OA
ENDBRANCH   3  22
TORSDOF 7
ENDMDL
MODEL 7
REMARK VINA RESULT:      -4.2     12.935     15.015
REMARK  7 active torsions:
REMARK  status: ('A' for Active; 'I' for Inactive)
REMARK    1  A    between atoms: C_2  and  C_3 
REMARK    2  A    between atoms: C_3  and  O_6 
REMARK    3  A    between atoms: C_3  and  C_4 
REMARK    4  A    between atoms: C_7  and  O_6 
REMARK    5  A    between atoms: C_9  and  C_10 
REMARK    6  A    between atoms: N_15  and  C_14 
REMARK    7  A    between atoms: N_20  and  C_19 
REMARK       I    between atoms: C_22  and  N_20 
ROOT
ATOM      1  C   LIG d   1     -13.774  65.674 121.291  0.00  0.00     0.161 C 
ATOM      2  C   LIG d   1     -12.675  65.458 122.138  0.00  0.00     0.016 C 
ATOM      3  C   LIG d   1     -11.764  64.389 121.975  0.00  0.00     0.038 C 
ATOM      4  C   LIG d   1     -11.805  63.545 120.856  0.00  0.00     0.028 C 
ATOM      5  C   LIG d   1     -13.197  63.415 120.246  0.00  0.00    -0.047 C 
ATOM      6  C   LIG d   1     -13.771  64.829 120.000  0.00  0.00     0.091 C 
ENDROOT
BRANCH   1   7
ATOM      7  O   LIG d   1     -13.878  67.075 120.972  0.00  0.00    -0.368 OA
BRANCH   7   8
ATOM      8  C   LIG d   1     -14.785  67.851 121.794  0.00  0.00     0.119 C 
BRANCH   8   9
ATOM      9  C   LIG d   1     -16.031  68.161 120.942  0.00  0.00     0.028 C 
ATOM     10  C   LIG d   1     -15.671  68.743 119.565  0.00  0.00     0.006 C 
ENDBRANCH   8   9
BRANCH   8  11
ATOM     11  C   LIG d   1     -14.187  69.215 122.149  0.00  0.00     0.028 C 
ATOM     12  C   LIG d   1     -13.189  69.143 123.315  0.00  0.00     0.006 C 
ENDBRANCH   8  11
ENDBRANCH   7   8
ENDBRANCH   1   7
BRANCH   6  13
ATOM     13  N   LIG d   1     -15.164  64.793 119.482  0.00  0.00    -0.311 N 
ATOM     14  C   LIG d   1     -15.516  65.274 118.291  0.00  0.00     0.210 C 
ATOM     15  C   LIG d   1     -17.007  65.155 117.960  0.00  0.00     0.109 C 
ATOM     16  O   LIG d   1     -14.729  65.758 117.463  0.00  0.00    -0.276 OA
ATOM     17  H   LIG d   1     -15.861  64.388 120.076  0.00  0.00     0.149 HD
ENDBRANCH   6  13
BRANCH   5  18
ATOM     18  N   LIG d   1     -13.069  62.620 119.010  0.00  0.00     0.381 N 
ATOM     19  H   LIG d   1     -12.418  61.874 119.153  0.00  0.00    -0.090 HD
ATOM     20  H   LIG d   1     -12.716  63.211 118.278  0.00  0.00    -0.090 HD
ATOM     21  H   LIG d   1     -13.956  62.250 118.749  0.00  0.00    -0.090 HD
ENDBRANCH   5  18
BRANCH   3  22
ATOM     22  C   LIG d   1     -10.823  64.132 122.960  0.00  0.00     0.382 C 
ATOM     23  O   LIG d   1     -10.945  64.652 124.095  0.00  0.00    -0.241 OA
ATOM     24  O   LIG d   1      -9.830  63.421 122.715  0.00  0.00    -0.241 OA
ENDBRANCH   3  22
TORSDOF 7
ENDMDL
MODEL 8
REMARK VINA RESULT:      -4.0      4.484      6.487
REMARK  7 active torsions:
REMARK  status: ('A' for Active; 'I' for Inactive)
REMARK    1  A    between atoms: C_2  and  C_3 
REMARK    2  A    between atoms: C_3  and  O_6 
REMARK    3  A    between atoms: C_3  and  C_4 
REMARK    4  A    between atoms: C_7  and  O_6 
REMARK    5  A    between atoms: C_9  and  C_10 
REMARK    6  A    between atoms: N_15  and  C_14 
REMARK    7  A    between atoms: N_20  and  C_19 
REMARK       I    between atoms: C_22  and  N_20 
ROOT
ATOM      1  C   LIG d   1      -9.202  82.591 120.079  0.00  0.00     0.161 C 
ATOM      2  C   LIG d   1      -9.023  83.750 120.853  0.00  0.00     0.016 C 
ATOM      3  C   LIG d   1      -8.966  83.741 122.266  0.00  0.00     0.038 C 
ATOM      4  C   LIG d   1      -8.932  82.545 122.999  0.00  0.00     0.028 C 
ATOM      5  C   LIG d   1      -9.617  81.381 122.291  0.00  0.00    -0.047 C 
ATOM      6  C   LIG d   1      -9.055  81.266 120.856  0.00  0.00     0.091 C 
ENDROOT
BRANCH   1   7
ATOM      7  O   LIG d   1      -8.304  82.613 118.952  0.00  0.00    -0.368 OA
BRANCH   7   8
ATOM      8  C   LIG d   1      -7.075  81.861 119.101  0.00  0.00     0.119 C 
BRANCH   8   9
ATOM      9  C   LIG d   1      -5.977  82.849 119.541  0.00  0.00     0.028 C 
ATOM     10  C   LIG d   1      -5.448  82.549 120.953  0.00  0.00     0.006 C 
ENDBRANCH   8   9
BRANCH   8  11
ATOM     11  C   LIG d   1      -6.599  81.298 117.759  0.00  0.00     0.028 C 
ATOM     12  C   LIG d   1      -6.564  79.761 117.736  0.00  0.00     0.006 C 
ENDBRANCH   8  11
ENDBRANCH   7   8
ENDBRANCH   1   7
BRANCH   6  13
ATOM     13  N   LIG d   1      -9.732  80.204 120.066  0.00  0.00    -0.311 N 
ATOM     14  C   LIG d   1      -9.303  78.944 120.012  0.00  0.00     0.210 C 
ATOM     15  C   LIG d   1     -10.136  78.015 119.123  0.00  0.00     0.109 C 
ATOM     16  O   LIG d   1      -8.332  78.500 120.643  0.00  0.00    -0.276 OA
ATOM     17  H   LIG d   1     -10.547  80.470 119.549  0.00  0.00     0.149 HD
ENDBRANCH   6  13
BRANCH   5  18
ATOM     18  N   LIG d   1      -9.387  80.170 123.101  0.00  0.00     0.381 N 
ATOM     19  H   LIG d   1     -10.250  79.681 123.232  0.00  0.00    -0.090 HD
ATOM     20  H   LIG d   1      -9.040  80.443 124.003  0.00  0.00    -0.090 HD
ATOM     21  H   LIG d   1      -8.727  79.577 122.648  0.00  0.00    -0.090 HD
ENDBRANCH   5  18
BRANCH   3  22
ATOM     22  C   LIG d   1      -8.982  84.940 122.962  0.00  0.00     0.382 C 
ATOM     23  O   LIG d   1      -9.268  84.952 124.183  0.00  0.00    -0.241 OA
ATOM     24  O   LIG d   1      -8.758  86.015 122.374  0.00  0.00    -0.241 OA
ENDBRANCH   3  22
TORSDOF 7
ENDMDL
MODEL 9
REMARK VINA RESULT:      -4.0      3.865      6.469
REMARK  7 active torsions:
REMARK  status: ('A' for Active; 'I' for Inactive)
REMARK    1  A    between atoms: C_2  and  C_3 
REMARK    2  A    between atoms: C_3  and  O_6 
REMARK    3  A    between atoms: C_3  and  C_4 
REMARK    4  A    between atoms: C_7  and  O_6 
REMARK    5  A    between atoms: C_9  and  C_10 
REMARK    6  A    between atoms: N_15  and  C_14 
REMARK    7  A    between atoms: N_20  and  C_19 
REMARK       I    between atoms: C_22  and  N_20 
ROOT
ATOM      1  C   LIG d   1      -7.563  80.991 119.837  0.00  0.00     0.161 C 
ATOM      2  C   LIG d   1      -7.725  79.644 119.476  0.00  0.00     0.016 C 
ATOM      3  C   LIG d   1      -8.726  79.192 118.586  0.00  0.00     0.038 C 
ATOM      4  C   LIG d   1      -9.543  80.083 117.875  0.00  0.00     0.028 C 
ATOM      5  C   LIG d   1      -9.751  81.415 118.588  0.00  0.00    -0.047 C 
ATOM      6  C   LIG d   1      -8.373  81.991 118.987  0.00  0.00     0.091 C 
ENDROOT
BRANCH   1   7
ATOM      7  O   LIG d   1      -6.164  81.337 119.819  0.00  0.00    -0.368 OA
BRANCH   7   8
ATOM      8  C   LIG d   1      -5.549  81.575 121.110  0.00  0.00     0.119 C 
BRANCH   8   9
ATOM      9  C   LIG d   1      -4.580  82.762 120.949  0.00  0.00     0.028 C 
ATOM     10  C   LIG d   1      -5.245  84.111 121.269  0.00  0.00     0.006 C 
ENDBRANCH   8   9
BRANCH   8  11
ATOM     11  C   LIG d   1      -4.675  80.392 121.537  0.00  0.00     0.028 C 
ATOM     12  C   LIG d   1      -3.957  79.724 120.354  0.00  0.00     0.006 C 
ENDBRANCH   8  11
ENDBRANCH   7   8
ENDBRANCH   1   7
BRANCH   6  13
ATOM     13  N   LIG d   1      -8.490  83.252 119.764  0.00  0.00    -0.311 N 
ATOM     14  C   LIG d   1      -9.018  83.315 120.985  0.00  0.00     0.210 C 
ATOM     15  C   LIG d   1      -9.060  84.717 121.600  0.00  0.00     0.109 C 
ATOM     16  O   LIG d   1      -9.427  82.337 121.630  0.00  0.00    -0.276 OA
ATOM     17  H   LIG d   1      -8.154  84.089 119.329  0.00  0.00     0.149 HD
ENDBRANCH   6  13
BRANCH   5  18
ATOM     18  N   LIG d   1     -10.505  82.296 117.677  0.00  0.00     0.381 N 
ATOM     19  H   LIG d   1      -9.889  82.974 117.275  0.00  0.00    -0.090 HD
ATOM     20  H   LIG d   1     -11.209  82.782 118.203  0.00  0.00    -0.090 HD
ATOM     21  H   LIG d   1     -10.932  81.756 116.956  0.00  0.00    -0.090 HD
ENDBRANCH   5  18
BRANCH   3  22
ATOM     22  C   LIG d   1      -8.944  77.831 118.430  0.00  0.00     0.382 C 
ATOM     23  O   LIG d   1      -8.021  77.017 118.672  0.00  0.00    -0.241 OA
ATOM     24  O   LIG d   1     -10.038  77.411 118.008  0.00  0.00    -0.241 OA
ENDBRANCH   3  22
TORSDOF 7
ENDMDL
