MODEL 1
REMARK VINA RESULT:      -6.0      0.000      0.000
REMARK  7 active torsions:
REMARK  status: ('A' for Active; 'I' for Inactive)
REMARK    1  A    between atoms: C_2  and  C_3 
REMARK    2  A    between atoms: C_3  and  O_6 
REMARK    3  A    between atoms: C_3  and  C_4 
REMARK    4  A    between atoms: C_7  and  O_6 
REMARK    5  A    between atoms: C_9  and  C_10 
REMARK    6  A    between atoms: N_15  and  C_14 
REMARK    7  A    between atoms: N_20  and  C_19 
REMARK       I    between atoms: C_22  and  N_20 
ROOT
ATOM      1  C   LIG d   1      -7.952  76.004 117.853  0.00  0.00     0.161 C 
ATOM      2  C   LIG d   1      -9.048  76.761 118.299  0.00  0.00     0.016 C 
ATOM      3  C   LIG d   1      -9.029  78.171 118.403  0.00  0.00     0.038 C 
ATOM      4  C   LIG d   1      -7.956  78.935 117.920  0.00  0.00     0.028 C 
ATOM      5  C   LIG d   1      -6.627  78.188 117.928  0.00  0.00    -0.047 C 
ATOM      6  C   LIG d   1      -6.812  76.828 117.217  0.00  0.00     0.091 C 
ENDROOT
BRANCH   1   7
ATOM      7  O   LIG d   1      -8.402  74.984 116.940  0.00  0.00    -0.368 OA
BRANCH   7   8
ATOM      8  C   LIG d   1      -8.515  73.646 117.484  0.00  0.00     0.119 C 
BRANCH   8   9
ATOM      9  C   LIG d   1      -7.452  72.772 116.790  0.00  0.00     0.028 C 
ATOM     10  C   LIG d   1      -7.921  71.321 116.594  0.00  0.00     0.006 C 
ENDBRANCH   8   9
BRANCH   8  11
ATOM     11  C   LIG d   1      -9.860  73.009 117.125  0.00  0.00     0.028 C 
ATOM     12  C   LIG d   1     -10.833  74.002 116.468  0.00  0.00     0.006 C 
ENDBRANCH   8  11
ENDBRANCH   7   8
ENDBRANCH   1   7
BRANCH   6  13
ATOM     13  N   LIG d   1      -5.581  75.996 117.255  0.00  0.00    -0.311 N 
ATOM     14  C   LIG d   1      -4.906  75.637 116.165  0.00  0.00     0.210 C 
ATOM     15  C   LIG d   1      -3.676  74.762 116.425  0.00  0.00     0.109 C 
ATOM     16  O   LIG d   1      -5.190  75.986 115.009  0.00  0.00    -0.276 OA
ATOM     17  H   LIG d   1      -5.262  75.695 118.155  0.00  0.00     0.149 HD
ENDBRANCH   6  13
BRANCH   5  18
ATOM     18  N   LIG d   1      -5.626  79.051 117.273  0.00  0.00     0.381 N 
ATOM     19  H   LIG d   1      -5.201  79.651 117.952  0.00  0.00    -0.090 HD
ATOM     20  H   LIG d   1      -6.089  79.625 116.591  0.00  0.00    -0.090 HD
ATOM     21  H   LIG d   1      -4.931  78.491 116.831  0.00  0.00    -0.090 HD
ENDBRANCH   5  18
BRANCH   3  22
ATOM     22  C   LIG d   1     -10.076  78.828 119.031  0.00  0.00     0.382 C 
ATOM     23  O   LIG d   1      -9.862  79.894 119.657  0.00  0.00    -0.241 OA
ATOM     24  O   LIG d   1     -11.224  78.345 119.018  0.00  0.00    -0.241 OA
ENDBRANCH   3  22
TORSDOF 7
ENDMDL
MODEL 2
REMARK VINA RESULT:      -5.7      1.499      2.035
REMARK  7 active torsions:
REMARK  status: ('A' for Active; 'I' for Inactive)
REMARK    1  A    between atoms: C_2  and  C_3 
REMARK    2  A    between atoms: C_3  and  O_6 
REMARK    3  A    between atoms: C_3  and  C_4 
REMARK    4  A    between atoms: C_7  and  O_6 
REMARK    5  A    between atoms: C_9  and  C_10 
REMARK    6  A    between atoms: N_15  and  C_14 
REMARK    7  A    between atoms: N_20  and  C_19 
REMARK       I    between atoms: C_22  and  N_20 
ROOT
ATOM      1  C   LIG d   1      -7.427  76.941 117.778  0.00  0.00     0.161 C 
ATOM      2  C   LIG d   1      -8.722  77.344 118.146  0.00  0.00     0.016 C 
ATOM      3  C   LIG d   1      -9.083  78.692 118.370  0.00  0.00     0.038 C 
ATOM      4  C   LIG d   1      -8.206  79.751 118.092  0.00  0.00     0.028 C 
ATOM      5  C   LIG d   1      -6.735  79.364 118.203  0.00  0.00    -0.047 C 
ATOM      6  C   LIG d   1      -6.486  78.091 117.362  0.00  0.00     0.091 C 
ENDROOT
BRANCH   1   7
ATOM      7  O   LIG d   1      -7.502  75.952 116.732  0.00  0.00    -0.368 OA
BRANCH   7   8
ATOM      8  C   LIG d   1      -7.287  74.578 117.138  0.00  0.00     0.119 C 
BRANCH   8   9
ATOM      9  C   LIG d   1      -6.485  73.885 116.020  0.00  0.00     0.028 C 
ATOM     10  C   LIG d   1      -5.929  74.883 114.991  0.00  0.00     0.006 C 
ENDBRANCH   8   9
BRANCH   8  11
ATOM     11  C   LIG d   1      -8.609  73.809 117.225  0.00  0.00     0.028 C 
ATOM     12  C   LIG d   1      -8.461  72.445 117.916  0.00  0.00     0.006 C 
ENDBRANCH   8  11
ENDBRANCH   7   8
ENDBRANCH   1   7
BRANCH   6  13
ATOM     13  N   LIG d   1      -5.090  77.596 117.482  0.00  0.00    -0.311 N 
ATOM     14  C   LIG d   1      -4.105  77.972 116.668  0.00  0.00     0.210 C 
ATOM     15  C   LIG d   1      -2.746  77.326 116.955  0.00  0.00     0.109 C 
ATOM     16  O   LIG d   1      -4.221  78.804 115.756  0.00  0.00    -0.276 OA
ATOM     17  H   LIG d   1      -4.900  76.941 118.216  0.00  0.00     0.149 HD
ENDBRANCH   6  13
BRANCH   5  18
ATOM     18  N   LIG d   1      -5.935  80.519 117.754  0.00  0.00     0.381 N 
ATOM     19  H   LIG d   1      -6.464  81.066 117.105  0.00  0.00    -0.090 HD
ATOM     20  H   LIG d   1      -5.112  80.182 117.286  0.00  0.00    -0.090 HD
ATOM     21  H   LIG d   1      -5.675  81.078 118.537  0.00  0.00    -0.090 HD
ENDBRANCH   5  18
BRANCH   3  22
ATOM     22  C   LIG d   1     -10.322  78.990 118.916  0.00  0.00     0.382 C 
ATOM     23  O   LIG d   1     -11.272  78.180 118.793  0.00  0.00    -0.241 OA
ATOM     24  O   LIG d   1     -10.514  80.078 119.491  0.00  0.00    -0.241 OA
ENDBRANCH   3  22
TORSDOF 7
ENDMDL
MODEL 3
REMARK VINA RESULT:      -5.4     13.960     16.460
REMARK  7 active torsions:
REMARK  status: ('A' for Active; 'I' for Inactive)
REMARK    1  A    between atoms: C_2  and  C_3 
REMARK    2  A    between atoms: C_3  and  O_6 
REMARK    3  A    between atoms: C_3  and  C_4 
REMARK    4  A    between atoms: C_7  and  O_6 
REMARK    5  A    between atoms: C_9  and  C_10 
REMARK    6  A    between atoms: N_15  and  C_14 
REMARK    7  A    between atoms: N_20  and  C_19 
REMARK       I    between atoms: C_22  and  N_20 
ROOT
ATOM      1  C   LIG d   1      -5.214  90.947 118.973  0.00  0.00     0.161 C 
ATOM      2  C   LIG d   1      -5.625  90.100 117.930  0.00  0.00     0.016 C 
ATOM      3  C   LIG d   1      -6.468  90.518 116.874  0.00  0.00     0.038 C 
ATOM      4  C   LIG d   1      -6.837  91.862 116.708  0.00  0.00     0.028 C 
ATOM      5  C   LIG d   1      -6.860  92.649 118.014  0.00  0.00    -0.047 C 
ATOM      6  C   LIG d   1      -5.516  92.443 118.748  0.00  0.00     0.091 C 
ENDROOT
BRANCH   1   7
ATOM      7  O   LIG d   1      -3.810  90.753 119.234  0.00  0.00    -0.368 OA
BRANCH   7   8
ATOM      8  C   LIG d   1      -2.931  90.822 118.084  0.00  0.00     0.119 C 
BRANCH   8   9
ATOM      9  C   LIG d   1      -1.984  89.608 118.151  0.00  0.00     0.028 C 
ATOM     10  C   LIG d   1      -2.502  88.512 119.098  0.00  0.00     0.006 C 
ENDBRANCH   8   9
BRANCH   8  11
ATOM     11  C   LIG d   1      -2.020  92.051 118.152  0.00  0.00     0.028 C 
ATOM     12  C   LIG d   1      -1.747  92.511 119.593  0.00  0.00     0.006 C 
ENDBRANCH   8  11
ENDBRANCH   7   8
ENDBRANCH   1   7
BRANCH   6  13
ATOM     13  N   LIG d   1      -5.486  93.112 120.075  0.00  0.00    -0.311 N 
ATOM     14  C   LIG d   1      -4.953  94.315 120.278  0.00  0.00     0.210 C 
ATOM     15  C   LIG d   1      -5.009  94.812 121.726  0.00  0.00     0.109 C 
ATOM     16  O   LIG d   1      -4.468  95.032 119.390  0.00  0.00    -0.276 OA
ATOM     17  H   LIG d   1      -5.887  92.614 120.846  0.00  0.00     0.149 HD
ENDBRANCH   6  13
BRANCH   5  18
ATOM     18  N   LIG d   1      -7.125  94.061 117.678  0.00  0.00     0.381 N 
ATOM     19  H   LIG d   1      -8.089  94.274 117.844  0.00  0.00    -0.090 HD
ATOM     20  H   LIG d   1      -6.934  94.204 116.702  0.00  0.00    -0.090 HD
ATOM     21  H   LIG d   1      -6.547  94.657 118.228  0.00  0.00    -0.090 HD
ENDBRANCH   5  18
BRANCH   3  22
ATOM     22  C   LIG d   1      -6.984  89.580 115.994  0.00  0.00     0.382 C 
ATOM     23  O   LIG d   1      -7.583  88.569 116.434  0.00  0.00    -0.241 OA
ATOM     24  O   LIG d   1      -6.819  89.709 114.766  0.00  0.00    -0.241 OA
ENDBRANCH   3  22
TORSDOF 7
ENDMDL
MODEL 4
REMARK VINA RESULT:      -5.4     13.928     17.241
REMARK  7 active torsions:
REMARK  status: ('A' for Active; 'I' for Inactive)
REMARK    1  A    between atoms: C_2  and  C_3 
REMARK    2  A    between atoms: C_3  and  O_6 
REMARK    3  A    between atoms: C_3  and  C_4 
REMARK    4  A    between atoms: C_7  and  O_6 
REMARK    5  A    between atoms: C_9  and  C_10 
REMARK    6  A    between atoms: N_15  and  C_14 
REMARK    7  A    between atoms: N_20  and  C_19 
REMARK       I    between atoms: C_22  and  N_20 
ROOT
ATOM      1  C   LIG d   1      -6.415  92.673 118.240  0.00  0.00     0.161 C 
ATOM      2  C   LIG d   1      -7.009  91.573 117.599  0.00  0.00     0.016 C 
ATOM      3  C   LIG d   1      -6.312  90.381 117.293  0.00  0.00     0.038 C 
ATOM      4  C   LIG d   1      -5.005  90.150 117.747  0.00  0.00     0.028 C 
ATOM      5  C   LIG d   1      -4.201  91.429 117.957  0.00  0.00    -0.047 C 
ATOM      6  C   LIG d   1      -5.021  92.397 118.841  0.00  0.00     0.091 C 
ENDROOT
BRANCH   1   7
ATOM      7  O   LIG d   1      -7.304  93.188 119.251  0.00  0.00    -0.368 OA
BRANCH   7   8
ATOM      8  C   LIG d   1      -8.390  94.023 118.780  0.00  0.00     0.119 C 
BRANCH   8   9
ATOM      9  C   LIG d   1      -7.790  95.388 118.393  0.00  0.00     0.028 C 
ATOM     10  C   LIG d   1      -7.152  96.110 119.592  0.00  0.00     0.006 C 
ENDBRANCH   8   9
BRANCH   8  11
ATOM     11  C   LIG d   1      -9.389  94.322 119.902  0.00  0.00     0.028 C 
ATOM     12  C   LIG d   1      -9.432  93.220 120.972  0.00  0.00     0.006 C 
ENDBRANCH   8  11
ENDBRANCH   7   8
ENDBRANCH   1   7
BRANCH   6  13
ATOM     13  N   LIG d   1      -4.343  93.706 119.027  0.00  0.00    -0.311 N 
ATOM     14  C   LIG d   1      -3.561  93.986 120.068  0.00  0.00     0.210 C 
ATOM     15  C   LIG d   1      -2.977  95.402 120.076  0.00  0.00     0.109 C 
ATOM     16  O   LIG d   1      -3.269  93.185 120.968  0.00  0.00    -0.276 OA
ATOM     17  H   LIG d   1      -4.500  94.404 118.326  0.00  0.00     0.149 HD
ENDBRANCH   6  13
BRANCH   5  18
ATOM     18  N   LIG d   1      -2.909  91.049 118.560  0.00  0.00     0.381 N 
ATOM     19  H   LIG d   1      -2.676  90.112 118.298  0.00  0.00    -0.090 HD
ATOM     20  H   LIG d   1      -2.994  91.086 119.561  0.00  0.00    -0.090 HD
ATOM     21  H   LIG d   1      -2.195  91.674 118.257  0.00  0.00    -0.090 HD
ENDBRANCH   5  18
BRANCH   3  22
ATOM     22  C   LIG d   1      -6.911  89.421 116.492  0.00  0.00     0.382 C 
ATOM     23  O   LIG d   1      -8.026  88.945 116.811  0.00  0.00    -0.241 OA
ATOM     24  O   LIG d   1      -6.329  88.994 115.477  0.00  0.00    -0.241 OA
ENDBRANCH   3  22
TORSDOF 7
ENDMDL
MODEL 5
REMARK VINA RESULT:      -5.2     12.289     14.975
REMARK  7 active torsions:
REMARK  status: ('A' for Active; 'I' for Inactive)
REMARK    1  A    between atoms: C_2  and  C_3 
REMARK    2  A    between atoms: C_3  and  O_6 
REMARK    3  A    between atoms: C_3  and  C_4 
REMARK    4  A    between atoms: C_7  and  O_6 
REMARK    5  A    between atoms: C_9  and  C_10 
REMARK    6  A    between atoms: N_15  and  C_14 
REMARK    7  A    between atoms: N_20  and  C_19 
REMARK       I    between atoms: C_22  and  N_20 
ROOT
ATOM      1  C   LIG d   1     -16.780  64.542 116.055  0.00  0.00     0.161 C 
ATOM      2  C   LIG d   1     -16.746  65.840 115.518  0.00  0.00     0.016 C 
ATOM      3  C   LIG d   1     -16.100  66.927 116.151  0.00  0.00     0.038 C 
ATOM      4  C   LIG d   1     -15.310  66.755 117.297  0.00  0.00     0.028 C 
ATOM      5  C   LIG d   1     -15.731  65.563 118.150  0.00  0.00    -0.047 C 
ATOM      6  C   LIG d   1     -15.829  64.311 117.249  0.00  0.00     0.091 C 
ENDROOT
BRANCH   1   7
ATOM      7  O   LIG d   1     -16.523  63.576 115.016  0.00  0.00    -0.368 OA
BRANCH   7   8
ATOM      8  C   LIG d   1     -17.671  62.832 114.540  0.00  0.00     0.119 C 
BRANCH   8   9
ATOM      9  C   LIG d   1     -17.233  61.364 114.370  0.00  0.00     0.028 C 
ATOM     10  C   LIG d   1     -18.410  60.437 114.024  0.00  0.00     0.006 C 
ENDBRANCH   8   9
BRANCH   8  11
ATOM     11  C   LIG d   1     -18.094  63.293 113.142  0.00  0.00     0.028 C 
ATOM     12  C   LIG d   1     -19.382  64.133 113.156  0.00  0.00     0.006 C 
ENDBRANCH   8  11
ENDBRANCH   7   8
ENDBRANCH   1   7
BRANCH   6  13
ATOM     13  N   LIG d   1     -16.317  63.117 117.988  0.00  0.00    -0.311 N 
ATOM     14  C   LIG d   1     -15.577  62.029 118.192  0.00  0.00     0.210 C 
ATOM     15  C   LIG d   1     -16.280  60.905 118.960  0.00  0.00     0.109 C 
ATOM     16  O   LIG d   1     -14.396  61.900 117.839  0.00  0.00    -0.276 OA
ATOM     17  H   LIG d   1     -17.255  63.149 118.337  0.00  0.00     0.149 HD
ENDBRANCH   6  13
BRANCH   5  18
ATOM     18  N   LIG d   1     -14.742  65.419 119.234  0.00  0.00     0.381 N 
ATOM     19  H   LIG d   1     -15.106  64.820 119.948  0.00  0.00    -0.090 HD
ATOM     20  H   LIG d   1     -14.568  66.322 119.638  0.00  0.00    -0.090 HD
ATOM     21  H   LIG d   1     -13.894  65.040 118.874  0.00  0.00    -0.090 HD
ENDBRANCH   5  18
BRANCH   3  22
ATOM     22  C   LIG d   1     -16.275  68.211 115.658  0.00  0.00     0.382 C 
ATOM     23  O   LIG d   1     -16.135  68.436 114.432  0.00  0.00    -0.241 OA
ATOM     24  O   LIG d   1     -16.528  69.155 116.430  0.00  0.00    -0.241 OA
ENDBRANCH   3  22
TORSDOF 7
ENDMDL
MODEL 6
REMARK VINA RESULT:      -5.1      1.703      4.674
REMARK  7 active torsions:
REMARK  status: ('A' for Active; 'I' for Inactive)
REMARK    1  A    between atoms: C_2  and  C_3 
REMARK    2  A    between atoms: C_3  and  O_6 
REMARK    3  A    between atoms: C_3  and  C_4 
REMARK    4  A    between atoms: C_7  and  O_6 
REMARK    5  A    between atoms: C_9  and  C_10 
REMARK    6  A    between atoms: N_15  and  C_14 
REMARK    7  A    between atoms: N_20  and  C_19 
REMARK       I    between atoms: C_22  and  N_20 
ROOT
ATOM      1  C   LIG d   1      -7.293  75.738 117.209  0.00  0.00     0.161 C 
ATOM      2  C   LIG d   1      -6.197  75.386 116.404  0.00  0.00     0.016 C 
ATOM      3  C   LIG d   1      -5.109  76.253 116.149  0.00  0.00     0.038 C 
ATOM      4  C   LIG d   1      -4.971  77.483 116.808  0.00  0.00     0.028 C 
ATOM      5  C   LIG d   1      -6.301  78.093 117.238  0.00  0.00    -0.047 C 
ATOM      6  C   LIG d   1      -7.107  77.034 118.025  0.00  0.00     0.091 C 
ENDROOT
BRANCH   1   7
ATOM      7  O   LIG d   1      -7.632  74.641 118.080  0.00  0.00    -0.368 OA
BRANCH   7   8
ATOM      8  C   LIG d   1      -8.844  73.918 117.753  0.00  0.00     0.119 C 
BRANCH   8   9
ATOM      9  C   LIG d   1      -8.426  72.579 117.115  0.00  0.00     0.028 C 
ATOM     10  C   LIG d   1      -9.073  71.370 117.812  0.00  0.00     0.006 C 
ENDBRANCH   8   9
BRANCH   8  11
ATOM     11  C   LIG d   1      -9.653  74.646 116.676  0.00  0.00     0.028 C 
ATOM     12  C   LIG d   1     -11.021  73.994 116.416  0.00  0.00     0.006 C 
ENDBRANCH   8  11
ENDBRANCH   7   8
ENDBRANCH   1   7
BRANCH   6  13
ATOM     13  N   LIG d   1      -8.457  77.521 118.411  0.00  0.00    -0.311 N 
ATOM     14  C   LIG d   1      -8.726  78.077 119.591  0.00  0.00     0.210 C 
ATOM     15  C   LIG d   1     -10.187  78.491 119.792  0.00  0.00     0.109 C 
ATOM     16  O   LIG d   1      -7.888  78.295 120.478  0.00  0.00    -0.276 OA
ATOM     17  H   LIG d   1      -9.191  77.412 117.738  0.00  0.00     0.149 HD
ENDBRANCH   6  13
BRANCH   5  18
ATOM     18  N   LIG d   1      -6.002  79.300 118.031  0.00  0.00     0.381 N 
ATOM     19  H   LIG d   1      -6.605  80.047 117.750  0.00  0.00    -0.090 HD
ATOM     20  H   LIG d   1      -5.053  79.578 117.855  0.00  0.00    -0.090 HD
ATOM     21  H   LIG d   1      -6.126  79.110 119.001  0.00  0.00    -0.090 HD
ENDBRANCH   5  18
BRANCH   3  22
ATOM     22  C   LIG d   1      -4.165  75.907 115.194  0.00  0.00     0.382 C 
ATOM     23  O   LIG d   1      -4.246  76.376 114.033  0.00  0.00    -0.241 OA
ATOM     24  O   LIG d   1      -3.258  75.097 115.467  0.00  0.00    -0.241 OA
ENDBRANCH   3  22
TORSDOF 7
ENDMDL
MODEL 7
REMARK VINA RESULT:      -5.0      1.997      5.075
REMARK  7 active torsions:
REMARK  status: ('A' for Active; 'I' for Inactive)
REMARK    1  A    between atoms: C_2  and  C_3 
REMARK    2  A    between atoms: C_3  and  O_6 
REMARK    3  A    between atoms: C_3  and  C_4 
REMARK    4  A    between atoms: C_7  and  O_6 
REMARK    5  A    between atoms: C_9  and  C_10 
REMARK    6  A    between atoms: N_15  and  C_14 
REMARK    7  A    between atoms: N_20  and  C_19 
REMARK       I    between atoms: C_22  and  N_20 
ROOT
ATOM      1  C   LIG d   1      -8.212  76.659 117.395  0.00  0.00     0.161 C 
ATOM      2  C   LIG d   1      -9.207  75.667 117.406  0.00  0.00     0.016 C 
ATOM      3  C   LIG d   1      -8.947  74.301 117.149  0.00  0.00     0.038 C 
ATOM      4  C   LIG d   1      -7.641  73.808 117.011  0.00  0.00     0.028 C 
ATOM      5  C   LIG d   1      -6.653  74.847 116.492  0.00  0.00    -0.047 C 
ATOM      6  C   LIG d   1      -6.765  76.123 117.356  0.00  0.00     0.091 C 
ENDROOT
BRANCH   1   7
ATOM      7  O   LIG d   1      -8.390  77.542 118.520  0.00  0.00    -0.368 OA
BRANCH   7   8
ATOM      8  C   LIG d   1      -8.965  78.839 118.228  0.00  0.00     0.119 C 
BRANCH   8   9
ATOM      9  C   LIG d   1      -8.112  79.898 118.952  0.00  0.00     0.028 C 
ATOM     10  C   LIG d   1      -7.448  80.884 117.977  0.00  0.00     0.006 C 
ENDBRANCH   8   9
BRANCH   8  11
ATOM     11  C   LIG d   1     -10.370  78.973 118.823  0.00  0.00     0.028 C 
ATOM     12  C   LIG d   1     -10.425  78.590 120.311  0.00  0.00     0.006 C 
ENDBRANCH   8  11
ENDBRANCH   7   8
ENDBRANCH   1   7
BRANCH   6  13
ATOM     13  N   LIG d   1      -5.892  77.221 116.864  0.00  0.00    -0.311 N 
ATOM     14  C   LIG d   1      -5.115  77.952 117.660  0.00  0.00     0.210 C 
ATOM     15  C   LIG d   1      -4.310  79.046 116.951  0.00  0.00     0.109 C 
ATOM     16  O   LIG d   1      -4.990  77.778 118.882  0.00  0.00    -0.276 OA
ATOM     17  H   LIG d   1      -5.908  77.410 115.881  0.00  0.00     0.149 HD
ENDBRANCH   6  13
BRANCH   5  18
ATOM     18  N   LIG d   1      -5.308  74.241 116.528  0.00  0.00     0.381 N 
ATOM     19  H   LIG d   1      -5.382  73.266 116.740  0.00  0.00    -0.090 HD
ATOM     20  H   LIG d   1      -4.772  74.683 117.254  0.00  0.00    -0.090 HD
ATOM     21  H   LIG d   1      -4.855  74.363 115.649  0.00  0.00    -0.090 HD
ENDBRANCH   5  18
BRANCH   3  22
ATOM     22  C   LIG d   1     -10.004  73.419 116.987  0.00  0.00     0.382 C 
ATOM     23  O   LIG d   1     -11.136  73.850 116.659  0.00  0.00    -0.241 OA
ATOM     24  O   LIG d   1      -9.851  72.203 117.209  0.00  0.00    -0.241 OA
ENDBRANCH   3  22
TORSDOF 7
ENDMDL
MODEL 8
REMARK VINA RESULT:      -5.0      2.400      6.716
REMARK  7 active torsions:
REMARK  status: ('A' for Active; 'I' for Inactive)
REMARK    1  A    between atoms: C_2  and  C_3 
REMARK    2  A    between atoms: C_3  and  O_6 
REMARK    3  A    between atoms: C_3  and  C_4 
REMARK    4  A    between atoms: C_7  and  O_6 
REMARK    5  A    between atoms: C_9  and  C_10 
REMARK    6  A    between atoms: N_15  and  C_14 
REMARK    7  A    between atoms: N_20  and  C_19 
REMARK       I    between atoms: C_22  and  N_20 
ROOT
ATOM      1  C   LIG d   1      -6.484  77.725 117.348  0.00  0.00     0.161 C 
ATOM      2  C   LIG d   1      -5.725  77.070 116.365  0.00  0.00     0.016 C 
ATOM      3  C   LIG d   1      -6.129  75.866 115.743  0.00  0.00     0.038 C 
ATOM      4  C   LIG d   1      -7.401  75.313 115.955  0.00  0.00     0.028 C 
ATOM      5  C   LIG d   1      -7.995  75.665 117.315  0.00  0.00    -0.047 C 
ATOM      6  C   LIG d   1      -7.924  77.197 117.512  0.00  0.00     0.091 C 
ENDROOT
BRANCH   1   7
ATOM      7  O   LIG d   1      -6.497  79.144 117.091  0.00  0.00    -0.368 OA
BRANCH   7   8
ATOM      8  C   LIG d   1      -5.962  79.987 118.140  0.00  0.00     0.119 C 
BRANCH   8   9
ATOM      9  C   LIG d   1      -6.957  81.144 118.357  0.00  0.00     0.028 C 
ATOM     10  C   LIG d   1      -7.498  81.191 119.796  0.00  0.00     0.006 C 
ENDBRANCH   8   9
BRANCH   8  11
ATOM     11  C   LIG d   1      -4.653  80.653 117.707  0.00  0.00     0.028 C 
ATOM     12  C   LIG d   1      -3.801  81.122 118.897  0.00  0.00     0.006 C 
ENDBRANCH   8  11
ENDBRANCH   7   8
ENDBRANCH   1   7
BRANCH   6  13
ATOM     13  N   LIG d   1      -8.408  77.618 118.853  0.00  0.00    -0.311 N 
ATOM     14  C   LIG d   1      -9.672  77.959 119.102  0.00  0.00     0.210 C 
ATOM     15  C   LIG d   1      -9.954  78.381 120.547  0.00  0.00     0.109 C 
ATOM     16  O   LIG d   1     -10.592  77.920 118.272  0.00  0.00    -0.276 OA
ATOM     17  H   LIG d   1      -7.734  77.648 119.592  0.00  0.00     0.149 HD
ENDBRANCH   6  13
BRANCH   5  18
ATOM     18  N   LIG d   1      -9.374  75.141 117.348  0.00  0.00     0.381 N 
ATOM     19  H   LIG d   1      -9.463  74.382 116.702  0.00  0.00    -0.090 HD
ATOM     20  H   LIG d   1     -10.005  75.870 117.067  0.00  0.00    -0.090 HD
ATOM     21  H   LIG d   1      -9.599  74.833 118.268  0.00  0.00    -0.090 HD
ENDBRANCH   5  18
BRANCH   3  22
ATOM     22  C   LIG d   1      -5.241  75.182 114.927  0.00  0.00     0.382 C 
ATOM     23  O   LIG d   1      -4.190  75.743 114.535  0.00  0.00    -0.241 OA
ATOM     24  O   LIG d   1      -5.499  74.025 114.543  0.00  0.00    -0.241 OA
ENDBRANCH   3  22
TORSDOF 7
ENDMDL
MODEL 9
REMARK VINA RESULT:      -4.9     12.224     14.066
REMARK  7 active torsions:
REMARK  status: ('A' for Active; 'I' for Inactive)
REMARK    1  A    between atoms: C_2  and  C_3 
REMARK    2  A    between atoms: C_3  and  O_6 
REMARK    3  A    between atoms: C_3  and  C_4 
REMARK    4  A    between atoms: C_7  and  O_6 
REMARK    5  A    between atoms: C_9  and  C_10 
REMARK    6  A    between atoms: N_15  and  C_14 
REMARK    7  A    between atoms: N_20  and  C_19 
REMARK       I    between atoms: C_22  and  N_20 
ROOT
ATOM      1  C   LIG d   1     -15.278  66.570 116.834  0.00  0.00     0.161 C 
ATOM      2  C   LIG d   1     -15.376  67.270 115.620  0.00  0.00     0.016 C 
ATOM      3  C   LIG d   1     -16.160  66.830 114.529  0.00  0.00     0.038 C 
ATOM      4  C   LIG d   1     -17.024  65.730 114.633  0.00  0.00     0.028 C 
ATOM      5  C   LIG d   1     -16.576  64.703 115.668  0.00  0.00    -0.047 C 
ATOM      6  C   LIG d   1     -16.300  65.427 117.006  0.00  0.00     0.091 C 
ENDROOT
BRANCH   1   7
ATOM      7  O   LIG d   1     -15.366  67.492 117.938  0.00  0.00    -0.368 OA
BRANCH   7   8
ATOM      8  C   LIG d   1     -16.673  67.633 118.547  0.00  0.00     0.119 C 
BRANCH   8   9
ATOM      9  C   LIG d   1     -17.143  69.081 118.306  0.00  0.00     0.028 C 
ATOM     10  C   LIG d   1     -17.542  69.793 119.610  0.00  0.00     0.006 C 
ENDBRANCH   8   9
BRANCH   8  11
ATOM     11  C   LIG d   1     -16.598  67.479 120.069  0.00  0.00     0.028 C 
ATOM     12  C   LIG d   1     -15.185  67.133 120.564  0.00  0.00     0.006 C 
ENDBRANCH   8  11
ENDBRANCH   7   8
ENDBRANCH   1   7
BRANCH   6  13
ATOM     13  N   LIG d   1     -15.775  64.509 118.050  0.00  0.00    -0.311 N 
ATOM     14  C   LIG d   1     -16.547  63.917 118.960  0.00  0.00     0.210 C 
ATOM     15  C   LIG d   1     -15.802  63.024 119.957  0.00  0.00     0.109 C 
ATOM     16  O   LIG d   1     -17.782  64.021 119.016  0.00  0.00    -0.276 OA
ATOM     17  H   LIG d   1     -14.788  64.343 118.058  0.00  0.00     0.149 HD
ENDBRANCH   6  13
BRANCH   5  18
ATOM     18  N   LIG d   1     -17.635  63.682 115.772  0.00  0.00     0.381 N 
ATOM     19  H   LIG d   1     -17.713  63.186 114.906  0.00  0.00    -0.090 HD
ATOM     20  H   LIG d   1     -18.511  64.140 115.953  0.00  0.00    -0.090 HD
ATOM     21  H   LIG d   1     -17.426  63.046 116.509  0.00  0.00    -0.090 HD
ENDBRANCH   5  18
BRANCH   3  22
ATOM     22  C   LIG d   1     -16.054  67.470 113.303  0.00  0.00     0.382 C 
ATOM     23  O   LIG d   1     -15.803  68.698 113.257  0.00  0.00    -0.241 OA
ATOM     24  O   LIG d   1     -16.250  66.844 112.245  0.00  0.00    -0.241 OA
ENDBRANCH   3  22
TORSDOF 7
ENDMDL
