MODEL 1
REMARK VINA RESULT:      -5.3      0.000      0.000
REMARK  7 active torsions:
REMARK  status: ('A' for Active; 'I' for Inactive)
REMARK    1  A    between atoms: C_2  and  C_3 
REMARK    2  A    between atoms: C_3  and  O_6 
REMARK    3  A    between atoms: C_3  and  C_4 
REMARK    4  A    between atoms: C_7  and  O_6 
REMARK    5  A    between atoms: C_9  and  C_10 
REMARK    6  A    between atoms: N_15  and  C_14 
REMARK    7  A    between atoms: N_20  and  C_19 
REMARK       I    between atoms: C_22  and  N_20 
ROOT
ATOM      1  C   LIG d   1      -6.799  77.257 117.499  0.00  0.00     0.161 C 
ATOM      2  C   LIG d   1      -8.091  77.661 117.874  0.00  0.00     0.016 C 
ATOM      3  C   LIG d   1      -8.479  79.016 117.989  0.00  0.00     0.038 C 
ATOM      4  C   LIG d   1      -7.639  80.065 117.587  0.00  0.00     0.028 C 
ATOM      5  C   LIG d   1      -6.156  79.723 117.681  0.00  0.00    -0.047 C 
ATOM      6  C   LIG d   1      -5.902  78.385 116.949  0.00  0.00     0.091 C 
ENDROOT
BRANCH   1   7
ATOM      7  O   LIG d   1      -6.882  76.175 116.550  0.00  0.00    -0.368 OA
BRANCH   7   8
ATOM      8  C   LIG d   1      -6.377  74.894 116.998  0.00  0.00     0.119 C 
BRANCH   8   9
ATOM      9  C   LIG d   1      -5.576  74.279 115.834  0.00  0.00     0.028 C 
ATOM     10  C   LIG d   1      -5.387  75.263 114.667  0.00  0.00     0.006 C 
ENDBRANCH   8   9
BRANCH   8  11
ATOM     11  C   LIG d   1      -7.518  73.909 117.270  0.00  0.00     0.028 C 
ATOM     12  C   LIG d   1      -7.262  72.519 116.666  0.00  0.00     0.006 C 
ENDBRANCH   8  11
ENDBRANCH   7   8
ENDBRANCH   1   7
BRANCH   6  13
ATOM     13  N   LIG d   1      -4.490  77.935 117.065  0.00  0.00    -0.311 N 
ATOM     14  C   LIG d   1      -3.577  78.131 116.115  0.00  0.00     0.210 C 
ATOM     15  C   LIG d   1      -2.187  77.570 116.429  0.00  0.00     0.109 C 
ATOM     16  O   LIG d   1      -3.779  78.746 115.057  0.00  0.00    -0.276 OA
ATOM     17  H   LIG d   1      -4.232  77.455 117.905  0.00  0.00     0.149 HD
ENDBRANCH   6  13
BRANCH   5  18
ATOM     18  N   LIG d   1      -5.401  80.851 117.103  0.00  0.00     0.381 N 
ATOM     19  H   LIG d   1      -5.822  81.716 117.376  0.00  0.00    -0.090 HD
ATOM     20  H   LIG d   1      -5.436  80.786 116.101  0.00  0.00    -0.090 HD
ATOM     21  H   LIG d   1      -4.454  80.822 117.412  0.00  0.00    -0.090 HD
ENDBRANCH   5  18
BRANCH   3  22
ATOM     22  C   LIG d   1      -9.708  79.334 118.548  0.00  0.00     0.382 C 
ATOM     23  O   LIG d   1      -9.893  80.468 119.050  0.00  0.00    -0.241 OA
ATOM     24  O   LIG d   1     -10.618  78.485 118.597  0.00  0.00    -0.241 OA
ENDBRANCH   3  22
TORSDOF 7
ENDMDL
MODEL 2
REMARK VINA RESULT:      -5.3     18.763     20.819
REMARK  7 active torsions:
REMARK  status: ('A' for Active; 'I' for Inactive)
REMARK    1  A    between atoms: C_2  and  C_3 
REMARK    2  A    between atoms: C_3  and  O_6 
REMARK    3  A    between atoms: C_3  and  C_4 
REMARK    4  A    between atoms: C_7  and  O_6 
REMARK    5  A    between atoms: C_9  and  C_10 
REMARK    6  A    between atoms: N_15  and  C_14 
REMARK    7  A    between atoms: N_20  and  C_19 
REMARK       I    between atoms: C_22  and  N_20 
ROOT
ATOM      1  C   LIG d   1      -0.489  57.797 119.277  0.00  0.00     0.161 C 
ATOM      2  C   LIG d   1      -0.091  58.658 118.241  0.00  0.00     0.016 C 
ATOM      3  C   LIG d   1      -0.855  58.873 117.070  0.00  0.00     0.038 C 
ATOM      4  C   LIG d   1      -2.150  58.352 116.924  0.00  0.00     0.028 C 
ATOM      5  C   LIG d   1      -2.381  57.072 117.720  0.00  0.00    -0.047 C 
ATOM      6  C   LIG d   1      -1.949  57.307 119.185  0.00  0.00     0.091 C 
ENDROOT
BRANCH   1   7
ATOM      7  O   LIG d   1      -0.250  58.424 120.552  0.00  0.00    -0.368 OA
BRANCH   7   8
ATOM      8  C   LIG d   1       0.018  59.847 120.523  0.00  0.00     0.119 C 
BRANCH   8   9
ATOM      9  C   LIG d   1       1.312  60.091 121.323  0.00  0.00     0.028 C 
ATOM     10  C   LIG d   1       2.577  59.881 120.473  0.00  0.00     0.006 C 
ENDBRANCH   8   9
BRANCH   8  11
ATOM     11  C   LIG d   1      -1.069  60.634 121.260  0.00  0.00     0.028 C 
ATOM     12  C   LIG d   1      -2.439  60.550 120.568  0.00  0.00     0.006 C 
ENDBRANCH   8  11
ENDBRANCH   7   8
ENDBRANCH   1   7
BRANCH   6  13
ATOM     13  N   LIG d   1      -2.064  56.078 120.014  0.00  0.00    -0.311 N 
ATOM     14  C   LIG d   1      -3.146  55.775 120.729  0.00  0.00     0.210 C 
ATOM     15  C   LIG d   1      -3.048  54.471 121.528  0.00  0.00     0.109 C 
ATOM     16  O   LIG d   1      -4.189  56.445 120.753  0.00  0.00    -0.276 OA
ATOM     17  H   LIG d   1      -1.275  55.462 120.028  0.00  0.00     0.149 HD
ENDBRANCH   6  13
BRANCH   5  18
ATOM     18  N   LIG d   1      -3.807  56.716 117.587  0.00  0.00     0.381 N 
ATOM     19  H   LIG d   1      -4.037  55.993 118.238  0.00  0.00    -0.090 HD
ATOM     20  H   LIG d   1      -3.970  56.368 116.658  0.00  0.00    -0.090 HD
ATOM     21  H   LIG d   1      -4.375  57.517 117.754  0.00  0.00    -0.090 HD
ENDBRANCH   5  18
BRANCH   3  22
ATOM     22  C   LIG d   1      -0.308  59.583 116.013  0.00  0.00     0.382 C 
ATOM     23  O   LIG d   1      -0.835  59.521 114.876  0.00  0.00    -0.241 OA
ATOM     24  O   LIG d   1       0.732  60.250 116.171  0.00  0.00    -0.241 OA
ENDBRANCH   3  22
TORSDOF 7
ENDMDL
MODEL 3
REMARK VINA RESULT:      -5.0     18.827     21.283
REMARK  7 active torsions:
REMARK  status: ('A' for Active; 'I' for Inactive)
REMARK    1  A    between atoms: C_2  and  C_3 
REMARK    2  A    between atoms: C_3  and  O_6 
REMARK    3  A    between atoms: C_3  and  C_4 
REMARK    4  A    between atoms: C_7  and  O_6 
REMARK    5  A    between atoms: C_9  and  C_10 
REMARK    6  A    between atoms: N_15  and  C_14 
REMARK    7  A    between atoms: N_20  and  C_19 
REMARK       I    between atoms: C_22  and  N_20 
ROOT
ATOM      1  C   LIG d   1      -2.123  56.930 117.801  0.00  0.00     0.161 C 
ATOM      2  C   LIG d   1      -1.318  57.600 116.865  0.00  0.00     0.016 C 
ATOM      3  C   LIG d   1      -1.075  58.993 116.902  0.00  0.00     0.038 C 
ATOM      4  C   LIG d   1      -1.501  59.791 117.975  0.00  0.00     0.028 C 
ATOM      5  C   LIG d   1      -2.741  59.249 118.677  0.00  0.00    -0.047 C 
ATOM      6  C   LIG d   1      -2.505  57.765 119.041  0.00  0.00     0.091 C 
ENDROOT
BRANCH   1   7
ATOM      7  O   LIG d   1      -1.485  55.701 118.202  0.00  0.00    -0.368 OA
BRANCH   7   8
ATOM      8  C   LIG d   1      -0.140  55.490 117.707  0.00  0.00     0.119 C 
BRANCH   8   9
ATOM      9  C   LIG d   1      -0.113  54.116 117.011  0.00  0.00     0.028 C 
ATOM     10  C   LIG d   1       1.259  53.430 117.118  0.00  0.00     0.006 C 
ENDBRANCH   8   9
BRANCH   8  11
ATOM     11  C   LIG d   1       0.866  55.381 118.857  0.00  0.00     0.028 C 
ATOM     12  C   LIG d   1       1.687  56.665 119.054  0.00  0.00     0.006 C 
ENDBRANCH   8  11
ENDBRANCH   7   8
ENDBRANCH   1   7
BRANCH   6  13
ATOM     13  N   LIG d   1      -3.702  57.135 119.656  0.00  0.00    -0.311 N 
ATOM     14  C   LIG d   1      -3.891  57.052 120.972  0.00  0.00     0.210 C 
ATOM     15  C   LIG d   1      -5.182  56.345 121.396  0.00  0.00     0.109 C 
ATOM     16  O   LIG d   1      -3.128  57.525 121.828  0.00  0.00    -0.276 OA
ATOM     17  H   LIG d   1      -4.387  56.752 119.034  0.00  0.00     0.149 HD
ENDBRANCH   6  13
BRANCH   5  18
ATOM     18  N   LIG d   1      -2.993  60.100 119.856  0.00  0.00     0.381 N 
ATOM     19  H   LIG d   1      -2.304  60.823 119.905  0.00  0.00    -0.090 HD
ATOM     20  H   LIG d   1      -2.920  59.537 120.685  0.00  0.00    -0.090 HD
ATOM     21  H   LIG d   1      -3.903  60.502 119.798  0.00  0.00    -0.090 HD
ENDBRANCH   5  18
BRANCH   3  22
ATOM     22  C   LIG d   1      -0.433  59.607 115.839  0.00  0.00     0.382 C 
ATOM     23  O   LIG d   1       0.670  60.180 116.018  0.00  0.00    -0.241 OA
ATOM     24  O   LIG d   1      -0.962  59.635 114.711  0.00  0.00    -0.241 OA
ENDBRANCH   3  22
TORSDOF 7
ENDMDL
MODEL 4
REMARK VINA RESULT:      -4.9     18.305     19.672
REMARK  7 active torsions:
REMARK  status: ('A' for Active; 'I' for Inactive)
REMARK    1  A    between atoms: C_2  and  C_3 
REMARK    2  A    between atoms: C_3  and  O_6 
REMARK    3  A    between atoms: C_3  and  C_4 
REMARK    4  A    between atoms: C_7  and  O_6 
REMARK    5  A    between atoms: C_9  and  C_10 
REMARK    6  A    between atoms: N_15  and  C_14 
REMARK    7  A    between atoms: N_20  and  C_19 
REMARK       I    between atoms: C_22  and  N_20 
ROOT
ATOM      1  C   LIG d   1      -1.005  60.451 119.460  0.00  0.00     0.161 C 
ATOM      2  C   LIG d   1      -2.258  60.271 118.850  0.00  0.00     0.016 C 
ATOM      3  C   LIG d   1      -2.602  59.119 118.107  0.00  0.00     0.038 C 
ATOM      4  C   LIG d   1      -1.764  57.996 118.048  0.00  0.00     0.028 C 
ATOM      5  C   LIG d   1      -0.287  58.332 118.225  0.00  0.00    -0.047 C 
ATOM      6  C   LIG d   1      -0.117  59.190 119.500  0.00  0.00     0.091 C 
ENDROOT
BRANCH   1   7
ATOM      7  O   LIG d   1      -1.179  60.984 120.787  0.00  0.00    -0.368 OA
BRANCH   7   8
ATOM      8  C   LIG d   1      -1.405  60.013 121.839  0.00  0.00     0.119 C 
BRANCH   8   9
ATOM      9  C   LIG d   1      -2.841  60.217 122.357  0.00  0.00     0.028 C 
ATOM     10  C   LIG d   1      -3.761  59.031 122.021  0.00  0.00     0.006 C 
ENDBRANCH   8   9
BRANCH   8  11
ATOM     11  C   LIG d   1      -0.497  60.277 123.044  0.00  0.00     0.028 C 
ATOM     12  C   LIG d   1       0.496  61.425 122.803  0.00  0.00     0.006 C 
ENDBRANCH   8  11
ENDBRANCH   7   8
ENDBRANCH   1   7
BRANCH   6  13
ATOM     13  N   LIG d   1       1.287  59.634 119.702  0.00  0.00    -0.311 N 
ATOM     14  C   LIG d   1       2.150  58.999 120.493  0.00  0.00     0.210 C 
ATOM     15  C   LIG d   1       3.541  59.635 120.575  0.00  0.00     0.109 C 
ATOM     16  O   LIG d   1       1.905  57.951 121.109  0.00  0.00    -0.276 OA
ATOM     17  H   LIG d   1       1.579  60.458 119.215  0.00  0.00     0.149 HD
ENDBRANCH   6  13
BRANCH   5  18
ATOM     18  N   LIG d   1       0.457  57.060 118.281  0.00  0.00     0.381 N 
ATOM     19  H   LIG d   1       1.439  57.239 118.223  0.00  0.00    -0.090 HD
ATOM     20  H   LIG d   1       0.192  56.494 117.493  0.00  0.00    -0.090 HD
ATOM     21  H   LIG d   1       0.249  56.580 119.129  0.00  0.00    -0.090 HD
ENDBRANCH   5  18
BRANCH   3  22
ATOM     22  C   LIG d   1      -3.782  59.099 117.378  0.00  0.00     0.382 C 
ATOM     23  O   LIG d   1      -4.001  59.984 116.516  0.00  0.00    -0.241 OA
ATOM     24  O   LIG d   1      -4.648  58.233 117.602  0.00  0.00    -0.241 OA
ENDBRANCH   3  22
TORSDOF 7
ENDMDL
MODEL 5
REMARK VINA RESULT:      -4.9     18.710     20.452
REMARK  7 active torsions:
REMARK  status: ('A' for Active; 'I' for Inactive)
REMARK    1  A    between atoms: C_2  and  C_3 
REMARK    2  A    between atoms: C_3  and  O_6 
REMARK    3  A    between atoms: C_3  and  C_4 
REMARK    4  A    between atoms: C_7  and  O_6 
REMARK    5  A    between atoms: C_9  and  C_10 
REMARK    6  A    between atoms: N_15  and  C_14 
REMARK    7  A    between atoms: N_20  and  C_19 
REMARK       I    between atoms: C_22  and  N_20 
ROOT
ATOM      1  C   LIG d   1      -0.946  58.807 119.678  0.00  0.00     0.161 C 
ATOM      2  C   LIG d   1      -2.223  58.726 119.097  0.00  0.00     0.016 C 
ATOM      3  C   LIG d   1      -2.474  58.989 117.731  0.00  0.00     0.038 C 
ATOM      4  C   LIG d   1      -1.435  59.204 116.814  0.00  0.00     0.028 C 
ATOM      5  C   LIG d   1      -0.179  59.791 117.448  0.00  0.00    -0.047 C 
ATOM      6  C   LIG d   1       0.216  58.931 118.670  0.00  0.00     0.091 C 
ENDROOT
BRANCH   1   7
ATOM      7  O   LIG d   1      -0.734  57.679 120.550  0.00  0.00    -0.368 OA
BRANCH   7   8
ATOM      8  C   LIG d   1      -1.450  56.466 120.209  0.00  0.00     0.119 C 
BRANCH   8   9
ATOM      9  C   LIG d   1      -1.917  55.819 121.527  0.00  0.00     0.028 C 
ATOM     10  C   LIG d   1      -3.067  56.598 122.189  0.00  0.00     0.006 C 
ENDBRANCH   8   9
BRANCH   8  11
ATOM     11  C   LIG d   1      -0.522  55.436 119.558  0.00  0.00     0.028 C 
ATOM     12  C   LIG d   1      -0.697  55.356 118.034  0.00  0.00     0.006 C 
ENDBRANCH   8  11
ENDBRANCH   7   8
ENDBRANCH   1   7
BRANCH   6  13
ATOM     13  N   LIG d   1       1.386  59.485 119.399  0.00  0.00    -0.311 N 
ATOM     14  C   LIG d   1       2.376  58.732 119.877  0.00  0.00     0.210 C 
ATOM     15  C   LIG d   1       3.476  59.502 120.614  0.00  0.00     0.109 C 
ATOM     16  O   LIG d   1       2.463  57.503 119.732  0.00  0.00    -0.276 OA
ATOM     17  H   LIG d   1       1.412  60.477 119.534  0.00  0.00     0.149 HD
ENDBRANCH   6  13
BRANCH   5  18
ATOM     18  N   LIG d   1       0.867  59.834 116.409  0.00  0.00     0.381 N 
ATOM     19  H   LIG d   1       0.497  60.239 115.572  0.00  0.00    -0.090 HD
ATOM     20  H   LIG d   1       1.159  58.895 116.203  0.00  0.00    -0.090 HD
ATOM     21  H   LIG d   1       1.644  60.369 116.729  0.00  0.00    -0.090 HD
ENDBRANCH   5  18
BRANCH   3  22
ATOM     22  C   LIG d   1      -3.782  59.078 117.278  0.00  0.00     0.382 C 
ATOM     23  O   LIG d   1      -4.127  60.033 116.542  0.00  0.00    -0.241 OA
ATOM     24  O   LIG d   1      -4.631  58.238 117.631  0.00  0.00    -0.241 OA
ENDBRANCH   3  22
TORSDOF 7
ENDMDL
MODEL 6
REMARK VINA RESULT:      -4.9      1.894      2.860
REMARK  7 active torsions:
REMARK  status: ('A' for Active; 'I' for Inactive)
REMARK    1  A    between atoms: C_2  and  C_3 
REMARK    2  A    between atoms: C_3  and  O_6 
REMARK    3  A    between atoms: C_3  and  C_4 
REMARK    4  A    between atoms: C_7  and  O_6 
REMARK    5  A    between atoms: C_9  and  C_10 
REMARK    6  A    between atoms: N_15  and  C_14 
REMARK    7  A    between atoms: N_20  and  C_19 
REMARK       I    between atoms: C_22  and  N_20 
ROOT
ATOM      1  C   LIG d   1      -6.386  79.384 117.610  0.00  0.00     0.161 C 
ATOM      2  C   LIG d   1      -7.718  79.037 117.892  0.00  0.00     0.016 C 
ATOM      3  C   LIG d   1      -8.671  79.952 118.395  0.00  0.00     0.038 C 
ATOM      4  C   LIG d   1      -8.395  81.323 118.508  0.00  0.00     0.028 C 
ATOM      5  C   LIG d   1      -6.915  81.627 118.713  0.00  0.00    -0.047 C 
ATOM      6  C   LIG d   1      -6.097  80.899 117.622  0.00  0.00     0.091 C 
ENDROOT
BRANCH   1   7
ATOM      7  O   LIG d   1      -5.987  78.807 116.351  0.00  0.00    -0.368 OA
BRANCH   7   8
ATOM      8  C   LIG d   1      -5.236  77.571 116.425  0.00  0.00     0.119 C 
BRANCH   8   9
ATOM      9  C   LIG d   1      -3.842  77.840 115.826  0.00  0.00     0.028 C 
ATOM     10  C   LIG d   1      -2.746  77.920 116.903  0.00  0.00     0.006 C 
ENDBRANCH   8   9
BRANCH   8  11
ATOM     11  C   LIG d   1      -5.856  76.488 115.538  0.00  0.00     0.028 C 
ATOM     12  C   LIG d   1      -4.923  75.285 115.325  0.00  0.00     0.006 C 
ENDBRANCH   8  11
ENDBRANCH   7   8
ENDBRANCH   1   7
BRANCH   6  13
ATOM     13  N   LIG d   1      -4.632  81.075 117.800  0.00  0.00    -0.311 N 
ATOM     14  C   LIG d   1      -3.834  81.576 116.858  0.00  0.00     0.210 C 
ATOM     15  C   LIG d   1      -2.352  81.654 117.240  0.00  0.00     0.109 C 
ATOM     16  O   LIG d   1      -4.217  81.993 115.755  0.00  0.00    -0.276 OA
ATOM     17  H   LIG d   1      -4.241  80.792 118.677  0.00  0.00     0.149 HD
ENDBRANCH   6  13
BRANCH   5  18
ATOM     18  N   LIG d   1      -6.752  83.093 118.677  0.00  0.00     0.381 N 
ATOM     19  H   LIG d   1      -6.646  83.445 119.607  0.00  0.00    -0.090 HD
ATOM     20  H   LIG d   1      -7.578  83.502 118.277  0.00  0.00    -0.090 HD
ATOM     21  H   LIG d   1      -5.955  83.334 118.130  0.00  0.00    -0.090 HD
ENDBRANCH   5  18
BRANCH   3  22
ATOM     22  C   LIG d   1      -9.905  79.491 118.828  0.00  0.00     0.382 C 
ATOM     23  O   LIG d   1     -10.485  80.057 119.786  0.00  0.00    -0.241 OA
ATOM     24  O   LIG d   1     -10.425  78.488 118.302  0.00  0.00    -0.241 OA
ENDBRANCH   3  22
TORSDOF 7
ENDMDL
MODEL 7
REMARK VINA RESULT:      -4.8      1.161      1.524
REMARK  7 active torsions:
REMARK  status: ('A' for Active; 'I' for Inactive)
REMARK    1  A    between atoms: C_2  and  C_3 
REMARK    2  A    between atoms: C_3  and  O_6 
REMARK    3  A    between atoms: C_3  and  C_4 
REMARK    4  A    between atoms: C_7  and  O_6 
REMARK    5  A    between atoms: C_9  and  C_10 
REMARK    6  A    between atoms: N_15  and  C_14 
REMARK    7  A    between atoms: N_20  and  C_19 
REMARK       I    between atoms: C_22  and  N_20 
ROOT
ATOM      1  C   LIG d   1      -6.390  77.928 117.569  0.00  0.00     0.161 C 
ATOM      2  C   LIG d   1      -7.759  78.091 117.838  0.00  0.00     0.016 C 
ATOM      3  C   LIG d   1      -8.393  79.352 117.907  0.00  0.00     0.038 C 
ATOM      4  C   LIG d   1      -7.727  80.537 117.561  0.00  0.00     0.028 C 
ATOM      5  C   LIG d   1      -6.219  80.469 117.775  0.00  0.00    -0.047 C 
ATOM      6  C   LIG d   1      -5.670  79.202 117.079  0.00  0.00     0.091 C 
ENDROOT
BRANCH   1   7
ATOM      7  O   LIG d   1      -6.201  76.853 116.627  0.00  0.00    -0.368 OA
BRANCH   7   8
ATOM      8  C   LIG d   1      -5.564  75.658 117.143  0.00  0.00     0.119 C 
BRANCH   8   9
ATOM      9  C   LIG d   1      -4.117  75.641 116.615  0.00  0.00     0.028 C 
ATOM     10  C   LIG d   1      -3.115  75.133 117.667  0.00  0.00     0.006 C 
ENDBRANCH   8   9
BRANCH   8  11
ATOM     11  C   LIG d   1      -6.216  74.392 116.580  0.00  0.00     0.028 C 
ATOM     12  C   LIG d   1      -7.467  73.966 117.365  0.00  0.00     0.006 C 
ENDBRANCH   8  11
ENDBRANCH   7   8
ENDBRANCH   1   7
BRANCH   6  13
ATOM     13  N   LIG d   1      -4.214  79.014 117.311  0.00  0.00    -0.311 N 
ATOM     14  C   LIG d   1      -3.278  79.414 116.452  0.00  0.00     0.210 C 
ATOM     15  C   LIG d   1      -1.839  79.105 116.875  0.00  0.00     0.109 C 
ATOM     16  O   LIG d   1      -3.501  80.026 115.397  0.00  0.00    -0.276 OA
ATOM     17  H   LIG d   1      -3.943  78.554 118.158  0.00  0.00     0.149 HD
ENDBRANCH   6  13
BRANCH   5  18
ATOM     18  N   LIG d   1      -5.637  81.717 117.246  0.00  0.00     0.381 N 
ATOM     19  H   LIG d   1      -4.849  81.985 117.802  0.00  0.00    -0.090 HD
ATOM     20  H   LIG d   1      -6.325  82.446 117.303  0.00  0.00    -0.090 HD
ATOM     21  H   LIG d   1      -5.355  81.587 116.299  0.00  0.00    -0.090 HD
ENDBRANCH   5  18
BRANCH   3  22
ATOM     22  C   LIG d   1      -9.699  79.441 118.366  0.00  0.00     0.382 C 
ATOM     23  O   LIG d   1     -10.430  78.421 118.377  0.00  0.00    -0.241 OA
ATOM     24  O   LIG d   1     -10.169  80.536 118.726  0.00  0.00    -0.241 OA
ENDBRANCH   3  22
TORSDOF 7
ENDMDL
MODEL 8
REMARK VINA RESULT:      -4.7     13.943     15.885
REMARK  7 active torsions:
REMARK  status: ('A' for Active; 'I' for Inactive)
REMARK    1  A    between atoms: C_2  and  C_3 
REMARK    2  A    between atoms: C_3  and  O_6 
REMARK    3  A    between atoms: C_3  and  C_4 
REMARK    4  A    between atoms: C_7  and  O_6 
REMARK    5  A    between atoms: C_9  and  C_10 
REMARK    6  A    between atoms: N_15  and  C_14 
REMARK    7  A    between atoms: N_20  and  C_19 
REMARK       I    between atoms: C_22  and  N_20 
ROOT
ATOM      1  C   LIG d   1     -16.175  65.399 118.687  0.00  0.00     0.161 C 
ATOM      2  C   LIG d   1     -15.559  65.909 119.842  0.00  0.00     0.016 C 
ATOM      3  C   LIG d   1     -14.528  65.235 120.537  0.00  0.00     0.038 C 
ATOM      4  C   LIG d   1     -13.935  64.068 120.033  0.00  0.00     0.028 C 
ATOM      5  C   LIG d   1     -14.865  63.252 119.140  0.00  0.00    -0.047 C 
ATOM      6  C   LIG d   1     -15.465  64.181 118.060  0.00  0.00     0.091 C 
ENDROOT
BRANCH   1   7
ATOM      7  O   LIG d   1     -16.326  66.448 117.710  0.00  0.00    -0.368 OA
BRANCH   7   8
ATOM      8  C   LIG d   1     -15.476  67.608 117.884  0.00  0.00     0.119 C 
BRANCH   8   9
ATOM      9  C   LIG d   1     -16.364  68.859 117.741  0.00  0.00     0.028 C 
ATOM     10  C   LIG d   1     -17.323  69.037 118.931  0.00  0.00     0.006 C 
ENDBRANCH   8   9
BRANCH   8  11
ATOM     11  C   LIG d   1     -14.442  67.714 116.759  0.00  0.00     0.028 C 
ATOM     12  C   LIG d   1     -15.042  68.244 115.447  0.00  0.00     0.006 C 
ENDBRANCH   8  11
ENDBRANCH   7   8
ENDBRANCH   1   7
BRANCH   6  13
ATOM     13  N   LIG d   1     -16.451  63.481 117.196  0.00  0.00    -0.311 N 
ATOM     14  C   LIG d   1     -16.526  63.658 115.878  0.00  0.00     0.210 C 
ATOM     15  C   LIG d   1     -17.628  62.854 115.179  0.00  0.00     0.109 C 
ATOM     16  O   LIG d   1     -15.764  64.379 115.216  0.00  0.00    -0.276 OA
ATOM     17  H   LIG d   1     -17.087  62.853 117.646  0.00  0.00     0.149 HD
ENDBRANCH   6  13
BRANCH   5  18
ATOM     18  N   LIG d   1     -14.077  62.140 118.575  0.00  0.00     0.381 N 
ATOM     19  H   LIG d   1     -13.309  62.504 118.047  0.00  0.00    -0.090 HD
ATOM     20  H   LIG d   1     -14.663  61.610 117.955  0.00  0.00    -0.090 HD
ATOM     21  H   LIG d   1     -13.739  61.555 119.307  0.00  0.00    -0.090 HD
ENDBRANCH   5  18
BRANCH   3  22
ATOM     22  C   LIG d   1     -14.108  65.708 121.770  0.00  0.00     0.382 C 
ATOM     23  O   LIG d   1     -12.888  65.700 122.062  0.00  0.00    -0.241 OA
ATOM     24  O   LIG d   1     -14.938  66.101 122.612  0.00  0.00    -0.241 OA
ENDBRANCH   3  22
TORSDOF 7
ENDMDL
MODEL 9
REMARK VINA RESULT:      -4.6     18.645     20.374
REMARK  7 active torsions:
REMARK  status: ('A' for Active; 'I' for Inactive)
REMARK    1  A    between atoms: C_2  and  C_3 
REMARK    2  A    between atoms: C_3  and  O_6 
REMARK    3  A    between atoms: C_3  and  C_4 
REMARK    4  A    between atoms: C_7  and  O_6 
REMARK    5  A    between atoms: C_9  and  C_10 
REMARK    6  A    between atoms: N_15  and  C_14 
REMARK    7  A    between atoms: N_20  and  C_19 
REMARK       I    between atoms: C_22  and  N_20 
ROOT
ATOM      1  C   LIG d   1      -1.372  59.091 119.442  0.00  0.00     0.161 C 
ATOM      2  C   LIG d   1      -0.754  59.628 118.300  0.00  0.00     0.016 C 
ATOM      3  C   LIG d   1      -1.108  59.265 116.980  0.00  0.00     0.038 C 
ATOM      4  C   LIG d   1      -2.214  58.446 116.708  0.00  0.00     0.028 C 
ATOM      5  C   LIG d   1      -2.549  57.483 117.842  0.00  0.00    -0.047 C 
ATOM      6  C   LIG d   1      -2.655  58.281 119.162  0.00  0.00     0.091 C 
ENDROOT
BRANCH   1   7
ATOM      7  O   LIG d   1      -1.640  60.142 120.392  0.00  0.00    -0.368 OA
BRANCH   7   8
ATOM      8  C   LIG d   1      -1.022  59.996 121.694  0.00  0.00     0.119 C 
BRANCH   8   9
ATOM      9  C   LIG d   1      -0.692  61.410 122.210  0.00  0.00     0.028 C 
ATOM     10  C   LIG d   1      -1.179  61.638 123.651  0.00  0.00     0.006 C 
ENDBRANCH   8   9
BRANCH   8  11
ATOM     11  C   LIG d   1       0.327  59.277 121.593  0.00  0.00     0.028 C 
ATOM     12  C   LIG d   1       1.511  60.247 121.453  0.00  0.00     0.006 C 
ENDBRANCH   8  11
ENDBRANCH   7   8
ENDBRANCH   1   7
BRANCH   6  13
ATOM     13  N   LIG d   1      -2.897  57.403 120.337  0.00  0.00    -0.311 N 
ATOM     14  C   LIG d   1      -2.067  56.430 120.708  0.00  0.00     0.210 C 
ATOM     15  C   LIG d   1      -2.516  55.631 121.936  0.00  0.00     0.109 C 
ATOM     16  O   LIG d   1      -0.986  56.173 120.157  0.00  0.00    -0.276 OA
ATOM     17  H   LIG d   1      -3.736  57.562 120.860  0.00  0.00     0.149 HD
ENDBRANCH   6  13
BRANCH   5  18
ATOM     18  N   LIG d   1      -3.800  56.789 117.483  0.00  0.00     0.381 N 
ATOM     19  H   LIG d   1      -3.655  55.800 117.497  0.00  0.00    -0.090 HD
ATOM     20  H   LIG d   1      -4.064  57.057 116.552  0.00  0.00    -0.090 HD
ATOM     21  H   LIG d   1      -4.522  57.035 118.125  0.00  0.00    -0.090 HD
ENDBRANCH   5  18
BRANCH   3  22
ATOM     22  C   LIG d   1      -0.326  59.690 115.917  0.00  0.00     0.382 C 
ATOM     23  O   LIG d   1      -0.744  59.563 114.741  0.00  0.00    -0.241 OA
ATOM     24  O   LIG d   1       0.811  60.159 116.117  0.00  0.00    -0.241 OA
ENDBRANCH   3  22
TORSDOF 7
ENDMDL
