MODEL 1
REMARK VINA RESULT:      -5.8      0.000      0.000
REMARK  7 active torsions:
REMARK  status: ('A' for Active; 'I' for Inactive)
REMARK    1  A    between atoms: C_2  and  C_3 
REMARK    2  A    between atoms: C_3  and  O_6 
REMARK    3  A    between atoms: C_3  and  C_4 
REMARK    4  A    between atoms: C_7  and  O_6 
REMARK    5  A    between atoms: C_9  and  C_10 
REMARK    6  A    between atoms: N_15  and  C_14 
REMARK    7  A    between atoms: N_20  and  C_19 
REMARK       I    between atoms: C_22  and  N_20 
ROOT
ATOM      1  C   LIG d   1      -8.217  75.419 116.847  0.00  0.00     0.161 C 
ATOM      2  C   LIG d   1      -8.140  76.822 116.854  0.00  0.00     0.016 C 
ATOM      3  C   LIG d   1      -8.703  77.627 117.872  0.00  0.00     0.038 C 
ATOM      4  C   LIG d   1      -9.254  77.071 119.036  0.00  0.00     0.028 C 
ATOM      5  C   LIG d   1      -9.804  75.663 118.834  0.00  0.00    -0.047 C 
ATOM      6  C   LIG d   1      -8.717  74.792 118.164  0.00  0.00     0.091 C 
ENDROOT
BRANCH   1   7
ATOM      7  O   LIG d   1      -6.939  74.862 116.480  0.00  0.00    -0.368 OA
BRANCH   7   8
ATOM      8  C   LIG d   1      -5.888  75.816 116.188  0.00  0.00     0.119 C 
BRANCH   8   9
ATOM      9  C   LIG d   1      -5.312  75.460 114.803  0.00  0.00     0.028 C 
ATOM     10  C   LIG d   1      -3.906  76.045 114.585  0.00  0.00     0.006 C 
ENDBRANCH   8   9
BRANCH   8  11
ATOM     11  C   LIG d   1      -4.717  75.671 117.164  0.00  0.00     0.028 C 
ATOM     12  C   LIG d   1      -4.608  76.850 118.143  0.00  0.00     0.006 C 
ENDBRANCH   8  11
ENDBRANCH   7   8
ENDBRANCH   1   7
BRANCH   6  13
ATOM     13  N   LIG d   1      -9.201  73.421 117.854  0.00  0.00    -0.311 N 
ATOM     14  C   LIG d   1      -9.191  72.423 118.737  0.00  0.00     0.210 C 
ATOM     15  C   LIG d   1      -9.716  71.086 118.206  0.00  0.00     0.109 C 
ATOM     16  O   LIG d   1      -8.828  72.527 119.918  0.00  0.00    -0.276 OA
ATOM     17  H   LIG d   1      -9.542  73.256 116.928  0.00  0.00     0.149 HD
ENDBRANCH   6  13
BRANCH   5  18
ATOM     18  N   LIG d   1     -10.221  75.154 120.154  0.00  0.00     0.381 N 
ATOM     19  H   LIG d   1     -11.163  74.821 120.107  0.00  0.00    -0.090 HD
ATOM     20  H   LIG d   1     -10.186  75.907 120.819  0.00  0.00    -0.090 HD
ATOM     21  H   LIG d   1      -9.615  74.418 120.443  0.00  0.00    -0.090 HD
ENDBRANCH   5  18
BRANCH   3  22
ATOM     22  C   LIG d   1      -8.754  79.003 117.710  0.00  0.00     0.382 C 
ATOM     23  O   LIG d   1      -9.807  79.628 117.985  0.00  0.00    -0.241 OA
ATOM     24  O   LIG d   1      -7.775  79.622 117.252  0.00  0.00    -0.241 OA
ENDBRANCH   3  22
TORSDOF 7
ENDMDL
MODEL 2
REMARK VINA RESULT:      -5.7      2.485      4.887
REMARK  7 active torsions:
REMARK  status: ('A' for Active; 'I' for Inactive)
REMARK    1  A    between atoms: C_2  and  C_3 
REMARK    2  A    between atoms: C_3  and  O_6 
REMARK    3  A    between atoms: C_3  and  C_4 
REMARK    4  A    between atoms: C_7  and  O_6 
REMARK    5  A    between atoms: C_9  and  C_10 
REMARK    6  A    between atoms: N_15  and  C_14 
REMARK    7  A    between atoms: N_20  and  C_19 
REMARK       I    between atoms: C_22  and  N_20 
ROOT
ATOM      1  C   LIG d   1      -8.703  77.403 117.940  0.00  0.00     0.161 C 
ATOM      2  C   LIG d   1      -9.590  78.455 118.218  0.00  0.00     0.016 C 
ATOM      3  C   LIG d   1      -9.240  79.820 118.103  0.00  0.00     0.038 C 
ATOM      4  C   LIG d   1      -8.015  80.227 117.553  0.00  0.00     0.028 C 
ATOM      5  C   LIG d   1      -6.900  79.202 117.732  0.00  0.00    -0.047 C 
ATOM      6  C   LIG d   1      -7.398  77.827 117.232  0.00  0.00     0.091 C 
ENDROOT
BRANCH   1   7
ATOM      7  O   LIG d   1      -9.377  76.383 117.177  0.00  0.00    -0.368 OA
BRANCH   7   8
ATOM      8  C   LIG d   1      -9.607  75.125 117.859  0.00  0.00     0.119 C 
BRANCH   8   9
ATOM      9  C   LIG d   1      -9.187  75.312 119.330  0.00  0.00     0.028 C 
ATOM     10  C   LIG d   1      -9.605  74.125 120.215  0.00  0.00     0.006 C 
ENDBRANCH   8   9
BRANCH   8  11
ATOM     11  C   LIG d   1      -8.697  74.021 117.313  0.00  0.00     0.028 C 
ATOM     12  C   LIG d   1      -9.479  72.801 116.804  0.00  0.00     0.006 C 
ENDBRANCH   8  11
ENDBRANCH   7   8
ENDBRANCH   1   7
BRANCH   6  13
ATOM     13  N   LIG d   1      -6.398  76.749 117.449  0.00  0.00    -0.311 N 
ATOM     14  C   LIG d   1      -5.528  76.359 116.519  0.00  0.00     0.210 C 
ATOM     15  C   LIG d   1      -4.598  75.218 116.943  0.00  0.00     0.109 C 
ATOM     16  O   LIG d   1      -5.417  76.871 115.395  0.00  0.00    -0.276 OA
ATOM     17  H   LIG d   1      -6.398  76.300 118.344  0.00  0.00     0.149 HD
ENDBRANCH   6  13
BRANCH   5  18
ATOM     18  N   LIG d   1      -5.721  79.693 116.994  0.00  0.00     0.381 N 
ATOM     19  H   LIG d   1      -5.733  79.335 116.059  0.00  0.00    -0.090 HD
ATOM     20  H   LIG d   1      -4.890  79.359 117.449  0.00  0.00    -0.090 HD
ATOM     21  H   LIG d   1      -5.721  80.689 116.975  0.00  0.00    -0.090 HD
ENDBRANCH   5  18
BRANCH   3  22
ATOM     22  C   LIG d   1     -10.105  80.794 118.578  0.00  0.00     0.382 C 
ATOM     23  O   LIG d   1     -10.312  80.901 119.811  0.00  0.00    -0.241 OA
ATOM     24  O   LIG d   1     -10.714  81.539 117.787  0.00  0.00    -0.241 OA
ENDBRANCH   3  22
TORSDOF 7
ENDMDL
MODEL 3
REMARK VINA RESULT:      -5.7      2.730      6.556
REMARK  7 active torsions:
REMARK  status: ('A' for Active; 'I' for Inactive)
REMARK    1  A    between atoms: C_2  and  C_3 
REMARK    2  A    between atoms: C_3  and  O_6 
REMARK    3  A    between atoms: C_3  and  C_4 
REMARK    4  A    between atoms: C_7  and  O_6 
REMARK    5  A    between atoms: C_9  and  C_10 
REMARK    6  A    between atoms: N_15  and  C_14 
REMARK    7  A    between atoms: N_20  and  C_19 
REMARK       I    between atoms: C_22  and  N_20 
ROOT
ATOM      1  C   LIG d   1      -9.640  75.348 119.394  0.00  0.00     0.161 C 
ATOM      2  C   LIG d   1      -9.535  73.950 119.301  0.00  0.00     0.016 C 
ATOM      3  C   LIG d   1      -8.954  73.285 118.197  0.00  0.00     0.038 C 
ATOM      4  C   LIG d   1      -8.297  73.984 117.173  0.00  0.00     0.028 C 
ATOM      5  C   LIG d   1      -8.820  75.402 116.974  0.00  0.00    -0.047 C 
ATOM      6  C   LIG d   1      -8.829  76.129 118.339  0.00  0.00     0.091 C 
ENDROOT
BRANCH   1   7
ATOM      7  O   LIG d   1      -9.279  75.777 120.722  0.00  0.00    -0.368 OA
BRANCH   7   8
ATOM      8  C   LIG d   1     -10.275  75.566 121.753  0.00  0.00     0.119 C 
BRANCH   8   9
ATOM      9  C   LIG d   1     -11.542  76.338 121.336  0.00  0.00     0.028 C 
ATOM     10  C   LIG d   1     -12.776  75.924 122.156  0.00  0.00     0.006 C 
ENDBRANCH   8   9
BRANCH   8  11
ATOM     11  C   LIG d   1      -9.840  76.189 123.083  0.00  0.00     0.028 C 
ATOM     12  C   LIG d   1      -8.697  75.414 123.757  0.00  0.00     0.006 C 
ENDBRANCH   8  11
ENDBRANCH   7   8
ENDBRANCH   1   7
BRANCH   6  13
ATOM     13  N   LIG d   1      -9.406  77.496 118.249  0.00  0.00    -0.311 N 
ATOM     14  C   LIG d   1      -8.677  78.585 118.015  0.00  0.00     0.210 C 
ATOM     15  C   LIG d   1      -9.468  79.897 117.982  0.00  0.00     0.109 C 
ATOM     16  O   LIG d   1      -7.456  78.586 117.799  0.00  0.00    -0.276 OA
ATOM     17  H   LIG d   1     -10.395  77.583 118.380  0.00  0.00     0.149 HD
ENDBRANCH   6  13
BRANCH   5  18
ATOM     18  N   LIG d   1      -7.958  76.060 115.975  0.00  0.00     0.381 N 
ATOM     19  H   LIG d   1      -8.453  76.156 115.111  0.00  0.00    -0.090 HD
ATOM     20  H   LIG d   1      -7.150  75.484 115.812  0.00  0.00    -0.090 HD
ATOM     21  H   LIG d   1      -7.674  76.956 116.305  0.00  0.00    -0.090 HD
ENDBRANCH   5  18
BRANCH   3  22
ATOM     22  C   LIG d   1      -9.062  71.907 118.090  0.00  0.00     0.382 C 
ATOM     23  O   LIG d   1      -9.808  71.274 118.875  0.00  0.00    -0.241 OA
ATOM     24  O   LIG d   1      -8.388  71.284 117.247  0.00  0.00    -0.241 OA
ENDBRANCH   3  22
TORSDOF 7
ENDMDL
MODEL 4
REMARK VINA RESULT:      -5.7      2.248      4.303
REMARK  7 active torsions:
REMARK  status: ('A' for Active; 'I' for Inactive)
REMARK    1  A    between atoms: C_2  and  C_3 
REMARK    2  A    between atoms: C_3  and  O_6 
REMARK    3  A    between atoms: C_3  and  C_4 
REMARK    4  A    between atoms: C_7  and  O_6 
REMARK    5  A    between atoms: C_9  and  C_10 
REMARK    6  A    between atoms: N_15  and  C_14 
REMARK    7  A    between atoms: N_20  and  C_19 
REMARK       I    between atoms: C_22  and  N_20 
ROOT
ATOM      1  C   LIG d   1      -9.319  75.762 117.562  0.00  0.00     0.161 C 
ATOM      2  C   LIG d   1      -8.218  75.900 116.700  0.00  0.00     0.016 C 
ATOM      3  C   LIG d   1      -7.053  76.628 117.034  0.00  0.00     0.038 C 
ATOM      4  C   LIG d   1      -6.847  77.146 118.322  0.00  0.00     0.028 C 
ATOM      5  C   LIG d   1      -8.143  77.465 119.061  0.00  0.00    -0.047 C 
ATOM      6  C   LIG d   1      -9.066  76.226 119.011  0.00  0.00     0.091 C 
ENDROOT
BRANCH   1   7
ATOM      7  O   LIG d   1      -9.784  74.398 117.546  0.00  0.00    -0.368 OA
BRANCH   7   8
ATOM      8  C   LIG d   1      -8.874  73.408 118.085  0.00  0.00     0.119 C 
BRANCH   8   9
ATOM      9  C   LIG d   1      -8.862  72.213 117.112  0.00  0.00     0.028 C 
ATOM     10  C   LIG d   1      -7.491  72.013 116.445  0.00  0.00     0.006 C 
ENDBRANCH   8   9
BRANCH   8  11
ATOM     11  C   LIG d   1      -9.387  72.845 119.413  0.00  0.00     0.028 C 
ATOM     12  C   LIG d   1      -9.701  71.342 119.342  0.00  0.00     0.006 C 
ENDBRANCH   8  11
ENDBRANCH   7   8
ENDBRANCH   1   7
BRANCH   6  13
ATOM     13  N   LIG d   1     -10.390  76.481 119.639  0.00  0.00    -0.311 N 
ATOM     14  C   LIG d   1     -10.687  76.131 120.889  0.00  0.00     0.210 C 
ATOM     15  C   LIG d   1     -12.115  76.468 121.332  0.00  0.00     0.109 C 
ATOM     16  O   LIG d   1      -9.895  75.602 121.683  0.00  0.00    -0.276 OA
ATOM     17  H   LIG d   1     -11.082  76.933 119.075  0.00  0.00     0.149 HD
ENDBRANCH   6  13
BRANCH   5  18
ATOM     18  N   LIG d   1      -7.785  77.865 120.435  0.00  0.00     0.381 N 
ATOM     19  H   LIG d   1      -7.734  77.055 121.021  0.00  0.00    -0.090 HD
ATOM     20  H   LIG d   1      -8.502  78.470 120.794  0.00  0.00    -0.090 HD
ATOM     21  H   LIG d   1      -6.909  78.339 120.435  0.00  0.00    -0.090 HD
ENDBRANCH   5  18
BRANCH   3  22
ATOM     22  C   LIG d   1      -6.097  76.879 116.063  0.00  0.00     0.382 C 
ATOM     23  O   LIG d   1      -5.441  77.948 116.090  0.00  0.00    -0.241 OA
ATOM     24  O   LIG d   1      -5.913  76.070 115.134  0.00  0.00    -0.241 OA
ENDBRANCH   3  22
TORSDOF 7
ENDMDL
MODEL 5
REMARK VINA RESULT:      -5.6     15.498     17.673
REMARK  7 active torsions:
REMARK  status: ('A' for Active; 'I' for Inactive)
REMARK    1  A    between atoms: C_2  and  C_3 
REMARK    2  A    between atoms: C_3  and  O_6 
REMARK    3  A    between atoms: C_3  and  C_4 
REMARK    4  A    between atoms: C_7  and  O_6 
REMARK    5  A    between atoms: C_9  and  C_10 
REMARK    6  A    between atoms: N_15  and  C_14 
REMARK    7  A    between atoms: N_20  and  C_19 
REMARK       I    between atoms: C_22  and  N_20 
ROOT
ATOM      1  C   LIG d   1      -5.053  91.964 118.204  0.00  0.00     0.161 C 
ATOM      2  C   LIG d   1      -5.341  91.066 117.163  0.00  0.00     0.016 C 
ATOM      3  C   LIG d   1      -6.167  91.390 116.062  0.00  0.00     0.038 C 
ATOM      4  C   LIG d   1      -6.642  92.693 115.850  0.00  0.00     0.028 C 
ATOM      5  C   LIG d   1      -6.793  93.500 117.135  0.00  0.00    -0.047 C 
ATOM      6  C   LIG d   1      -5.471  93.424 117.933  0.00  0.00     0.091 C 
ENDROOT
BRANCH   1   7
ATOM      7  O   LIG d   1      -3.651  91.896 118.533  0.00  0.00    -0.368 OA
BRANCH   7   8
ATOM      8  C   LIG d   1      -3.307  91.114 119.703  0.00  0.00     0.119 C 
BRANCH   8   9
ATOM      9  C   LIG d   1      -2.883  92.099 120.810  0.00  0.00     0.028 C 
ATOM     10  C   LIG d   1      -1.930  93.189 120.291  0.00  0.00     0.006 C 
ENDBRANCH   8   9
BRANCH   8  11
ATOM     11  C   LIG d   1      -2.078  90.238 119.446  0.00  0.00     0.028 C 
ATOM     12  C   LIG d   1      -1.761  90.079 117.951  0.00  0.00     0.006 C 
ENDBRANCH   8  11
ENDBRANCH   7   8
ENDBRANCH   1   7
BRANCH   6  13
ATOM     13  N   LIG d   1      -5.560  94.117 119.245  0.00  0.00    -0.311 N 
ATOM     14  C   LIG d   1      -4.915  95.249 119.521  0.00  0.00     0.210 C 
ATOM     15  C   LIG d   1      -5.129  95.785 120.940  0.00  0.00     0.109 C 
ATOM     16  O   LIG d   1      -4.212  95.877 118.716  0.00  0.00    -0.276 OA
ATOM     17  H   LIG d   1      -6.134  93.693 119.947  0.00  0.00     0.149 HD
ENDBRANCH   6  13
BRANCH   5  18
ATOM     18  N   LIG d   1      -7.161  94.877 116.756  0.00  0.00     0.381 N 
ATOM     19  H   LIG d   1      -6.347  95.458 116.757  0.00  0.00    -0.090 HD
ATOM     20  H   LIG d   1      -7.808  95.239 117.435  0.00  0.00    -0.090 HD
ATOM     21  H   LIG d   1      -7.580  94.881 115.852  0.00  0.00    -0.090 HD
ENDBRANCH   5  18
BRANCH   3  22
ATOM     22  C   LIG d   1      -6.559  90.395 115.180  0.00  0.00     0.382 C 
ATOM     23  O   LIG d   1      -5.810  89.409 114.974  0.00  0.00    -0.241 OA
ATOM     24  O   LIG d   1      -7.632  90.491 114.555  0.00  0.00    -0.241 OA
ENDBRANCH   3  22
TORSDOF 7
ENDMDL
MODEL 6
REMARK VINA RESULT:      -5.5      3.161      4.938
REMARK  7 active torsions:
REMARK  status: ('A' for Active; 'I' for Inactive)
REMARK    1  A    between atoms: C_2  and  C_3 
REMARK    2  A    between atoms: C_3  and  O_6 
REMARK    3  A    between atoms: C_3  and  C_4 
REMARK    4  A    between atoms: C_7  and  O_6 
REMARK    5  A    between atoms: C_9  and  C_10 
REMARK    6  A    between atoms: N_15  and  C_14 
REMARK    7  A    between atoms: N_20  and  C_19 
REMARK       I    between atoms: C_22  and  N_20 
ROOT
ATOM      1  C   LIG d   1      -9.511  77.780 118.620  0.00  0.00     0.161 C 
ATOM      2  C   LIG d   1      -8.611  78.530 117.844  0.00  0.00     0.016 C 
ATOM      3  C   LIG d   1      -8.360  79.905 118.056  0.00  0.00     0.038 C 
ATOM      4  C   LIG d   1      -8.881  80.593 119.162  0.00  0.00     0.028 C 
ATOM      5  C   LIG d   1     -10.189  80.005 119.679  0.00  0.00    -0.047 C 
ATOM      6  C   LIG d   1     -10.004  78.486 119.901  0.00  0.00     0.091 C 
ENDROOT
BRANCH   1   7
ATOM      7  O   LIG d   1      -8.928  76.503 118.945  0.00  0.00    -0.368 OA
BRANCH   7   8
ATOM      8  C   LIG d   1      -9.623  75.337 118.437  0.00  0.00     0.119 C 
BRANCH   8   9
ATOM      9  C   LIG d   1      -9.467  74.214 119.480  0.00  0.00     0.028 C 
ATOM     10  C   LIG d   1      -9.564  74.736 120.924  0.00  0.00     0.006 C 
ENDBRANCH   8   9
BRANCH   8  11
ATOM     11  C   LIG d   1      -8.959  74.804 117.164  0.00  0.00     0.028 C 
ATOM     12  C   LIG d   1      -9.337  73.345 116.862  0.00  0.00     0.006 C 
ENDBRANCH   8  11
ENDBRANCH   7   8
ENDBRANCH   1   7
BRANCH   6  13
ATOM     13  N   LIG d   1     -11.262  77.818 120.326  0.00  0.00    -0.311 N 
ATOM     14  C   LIG d   1     -11.585  77.606 121.601  0.00  0.00     0.210 C 
ATOM     15  C   LIG d   1     -12.917  76.883 121.819  0.00  0.00     0.109 C 
ATOM     16  O   LIG d   1     -10.909  77.978 122.572  0.00  0.00    -0.276 OA
ATOM     17  H   LIG d   1     -11.883  77.512 119.603  0.00  0.00     0.149 HD
ENDBRANCH   6  13
BRANCH   5  18
ATOM     18  N   LIG d   1     -10.547  80.729 120.913  0.00  0.00     0.381 N 
ATOM     19  H   LIG d   1     -10.511  81.716 120.749  0.00  0.00    -0.090 HD
ATOM     20  H   LIG d   1      -9.878  80.504 121.628  0.00  0.00    -0.090 HD
ATOM     21  H   LIG d   1     -11.462  80.468 121.209  0.00  0.00    -0.090 HD
ENDBRANCH   5  18
BRANCH   3  22
ATOM     22  C   LIG d   1      -7.610  80.617 117.132  0.00  0.00     0.382 C 
ATOM     23  O   LIG d   1      -8.135  81.557 116.488  0.00  0.00    -0.241 OA
ATOM     24  O   LIG d   1      -6.426  80.303 116.902  0.00  0.00    -0.241 OA
ENDBRANCH   3  22
TORSDOF 7
ENDMDL
MODEL 7
REMARK VINA RESULT:      -5.5     15.167     18.563
REMARK  7 active torsions:
REMARK  status: ('A' for Active; 'I' for Inactive)
REMARK    1  A    between atoms: C_2  and  C_3 
REMARK    2  A    between atoms: C_3  and  O_6 
REMARK    3  A    between atoms: C_3  and  C_4 
REMARK    4  A    between atoms: C_7  and  O_6 
REMARK    5  A    between atoms: C_9  and  C_10 
REMARK    6  A    between atoms: N_15  and  C_14 
REMARK    7  A    between atoms: N_20  and  C_19 
REMARK       I    between atoms: C_22  and  N_20 
ROOT
ATOM      1  C   LIG d   1      -6.927  93.604 116.940  0.00  0.00     0.161 C 
ATOM      2  C   LIG d   1      -7.186  92.305 116.472  0.00  0.00     0.016 C 
ATOM      3  C   LIG d   1      -6.324  91.208 116.701  0.00  0.00     0.038 C 
ATOM      4  C   LIG d   1      -5.211  91.305 117.550  0.00  0.00     0.028 C 
ATOM      5  C   LIG d   1      -4.634  92.714 117.634  0.00  0.00    -0.047 C 
ATOM      6  C   LIG d   1      -5.775  93.705 117.962  0.00  0.00     0.091 C 
ENDROOT
BRANCH   1   7
ATOM      7  O   LIG d   1      -8.132  94.176 117.486  0.00  0.00    -0.368 OA
BRANCH   7   8
ATOM      8  C   LIG d   1      -8.191  94.279 118.930  0.00  0.00     0.119 C 
BRANCH   8   9
ATOM      9  C   LIG d   1      -9.128  93.164 119.436  0.00  0.00     0.028 C 
ATOM     10  C   LIG d   1      -8.735  92.656 120.833  0.00  0.00     0.006 C 
ENDBRANCH   8   9
BRANCH   8  11
ATOM     11  C   LIG d   1      -8.848  95.591 119.369  0.00  0.00     0.028 C 
ATOM     12  C   LIG d   1      -8.102  96.273 120.527  0.00  0.00     0.006 C 
ENDBRANCH   8  11
ENDBRANCH   7   8
ENDBRANCH   1   7
BRANCH   6  13
ATOM     13  N   LIG d   1      -5.311  95.117 117.979  0.00  0.00    -0.311 N 
ATOM     14  C   LIG d   1      -4.860  95.727 119.073  0.00  0.00     0.210 C 
ATOM     15  C   LIG d   1      -4.451  97.190 118.876  0.00  0.00     0.109 C 
ATOM     16  O   LIG d   1      -4.729  95.186 120.182  0.00  0.00    -0.276 OA
ATOM     17  H   LIG d   1      -5.354  95.621 117.115  0.00  0.00     0.149 HD
ENDBRANCH   6  13
BRANCH   5  18
ATOM     18  N   LIG d   1      -3.570  92.699 118.655  0.00  0.00     0.381 N 
ATOM     19  H   LIG d   1      -3.754  93.399 119.346  0.00  0.00    -0.090 HD
ATOM     20  H   LIG d   1      -2.693  92.915 118.213  0.00  0.00    -0.090 HD
ATOM     21  H   LIG d   1      -3.522  91.802 119.085  0.00  0.00    -0.090 HD
ENDBRANCH   5  18
BRANCH   3  22
ATOM     22  C   LIG d   1      -6.550  90.007 116.046  0.00  0.00     0.382 C 
ATOM     23  O   LIG d   1      -5.731  89.597 115.189  0.00  0.00    -0.241 OA
ATOM     24  O   LIG d   1      -7.586  89.352 116.268  0.00  0.00    -0.241 OA
ENDBRANCH   3  22
TORSDOF 7
ENDMDL
MODEL 8
REMARK VINA RESULT:      -5.2     15.235     17.780
REMARK  7 active torsions:
REMARK  status: ('A' for Active; 'I' for Inactive)
REMARK    1  A    between atoms: C_2  and  C_3 
REMARK    2  A    between atoms: C_3  and  O_6 
REMARK    3  A    between atoms: C_3  and  C_4 
REMARK    4  A    between atoms: C_7  and  O_6 
REMARK    5  A    between atoms: C_9  and  C_10 
REMARK    6  A    between atoms: N_15  and  C_14 
REMARK    7  A    between atoms: N_20  and  C_19 
REMARK       I    between atoms: C_22  and  N_20 
ROOT
ATOM      1  C   LIG d   1      -5.301  92.415 118.167  0.00  0.00     0.161 C 
ATOM      2  C   LIG d   1      -5.230  91.357 117.246  0.00  0.00     0.016 C 
ATOM      3  C   LIG d   1      -6.134  91.201 116.170  0.00  0.00     0.038 C 
ATOM      4  C   LIG d   1      -7.085  92.182 115.852  0.00  0.00     0.028 C 
ATOM      5  C   LIG d   1      -7.520  93.016 117.052  0.00  0.00    -0.047 C 
ATOM      6  C   LIG d   1      -6.262  93.555 117.771  0.00  0.00     0.091 C 
ENDROOT
BRANCH   1   7
ATOM      7  O   LIG d   1      -3.980  92.936 118.414  0.00  0.00    -0.368 OA
BRANCH   7   8
ATOM      8  C   LIG d   1      -3.416  92.653 119.718  0.00  0.00     0.119 C 
BRANCH   8   9
ATOM      9  C   LIG d   1      -2.427  91.483 119.551  0.00  0.00     0.028 C 
ATOM     10  C   LIG d   1      -1.430  91.717 118.404  0.00  0.00     0.006 C 
ENDBRANCH   8   9
BRANCH   8  11
ATOM     11  C   LIG d   1      -4.486  92.144 120.689  0.00  0.00     0.028 C 
ATOM     12  C   LIG d   1      -4.752  93.119 121.847  0.00  0.00     0.006 C 
ENDBRANCH   8  11
ENDBRANCH   7   8
ENDBRANCH   1   7
BRANCH   6  13
ATOM     13  N   LIG d   1      -6.595  94.313 119.005  0.00  0.00    -0.311 N 
ATOM     14  C   LIG d   1      -6.755  95.635 119.034  0.00  0.00     0.210 C 
ATOM     15  C   LIG d   1      -7.076  96.218 120.413  0.00  0.00     0.109 C 
ATOM     16  O   LIG d   1      -6.694  96.376 118.041  0.00  0.00    -0.276 OA
ATOM     17  H   LIG d   1      -6.694  93.786 119.851  0.00  0.00     0.149 HD
ENDBRANCH   6  13
BRANCH   5  18
ATOM     18  N   LIG d   1      -8.404  94.087 116.554  0.00  0.00     0.381 N 
ATOM     19  H   LIG d   1      -9.278  93.696 116.264  0.00  0.00    -0.090 HD
ATOM     20  H   LIG d   1      -7.973  94.520 115.757  0.00  0.00    -0.090 HD
ATOM     21  H   LIG d   1      -8.555  94.764 117.269  0.00  0.00    -0.090 HD
ENDBRANCH   5  18
BRANCH   3  22
ATOM     22  C   LIG d   1      -6.119  90.032 115.424  0.00  0.00     0.382 C 
ATOM     23  O   LIG d   1      -7.094  89.745 114.689  0.00  0.00    -0.241 OA
ATOM     24  O   LIG d   1      -5.161  89.240 115.510  0.00  0.00    -0.241 OA
ENDBRANCH   3  22
TORSDOF 7
ENDMDL
MODEL 9
REMARK VINA RESULT:      -5.2     16.244     18.310
REMARK  7 active torsions:
REMARK  status: ('A' for Active; 'I' for Inactive)
REMARK    1  A    between atoms: C_2  and  C_3 
REMARK    2  A    between atoms: C_3  and  O_6 
REMARK    3  A    between atoms: C_3  and  C_4 
REMARK    4  A    between atoms: C_7  and  O_6 
REMARK    5  A    between atoms: C_9  and  C_10 
REMARK    6  A    between atoms: N_15  and  C_14 
REMARK    7  A    between atoms: N_20  and  C_19 
REMARK       I    between atoms: C_22  and  N_20 
ROOT
ATOM      1  C   LIG d   1      -0.597  60.580 120.785  0.00  0.00     0.161 C 
ATOM      2  C   LIG d   1      -1.955  60.309 120.552  0.00  0.00     0.016 C 
ATOM      3  C   LIG d   1      -2.412  59.434 119.540  0.00  0.00     0.038 C 
ATOM      4  C   LIG d   1      -1.529  58.649 118.784  0.00  0.00     0.028 C 
ATOM      5  C   LIG d   1      -0.141  59.266 118.641  0.00  0.00    -0.047 C 
ATOM      6  C   LIG d   1       0.385  59.648 120.044  0.00  0.00     0.091 C 
ENDROOT
BRANCH   1   7
ATOM      7  O   LIG d   1      -0.331  60.563 122.202  0.00  0.00    -0.368 OA
BRANCH   7   8
ATOM      8  C   LIG d   1      -1.221  61.354 123.027  0.00  0.00     0.119 C 
BRANCH   8   9
ATOM      9  C   LIG d   1      -0.393  62.506 123.628  0.00  0.00     0.028 C 
ATOM     10  C   LIG d   1      -1.274  63.576 124.296  0.00  0.00     0.006 C 
ENDBRANCH   8   9
BRANCH   8  11
ATOM     11  C   LIG d   1      -1.729  60.550 124.227  0.00  0.00     0.028 C 
ATOM     12  C   LIG d   1      -3.074  59.858 123.955  0.00  0.00     0.006 C 
ENDBRANCH   8  11
ENDBRANCH   7   8
ENDBRANCH   1   7
BRANCH   6  13
ATOM     13  N   LIG d   1       1.701  60.335 119.988  0.00  0.00    -0.311 N 
ATOM     14  C   LIG d   1       2.867  59.692 120.047  0.00  0.00     0.210 C 
ATOM     15  C   LIG d   1       4.105  60.592 119.993  0.00  0.00     0.109 C 
ATOM     16  O   LIG d   1       2.992  58.460 120.106  0.00  0.00    -0.276 OA
ATOM     17  H   LIG d   1       1.692  61.333 119.908  0.00  0.00     0.149 HD
ENDBRANCH   6  13
BRANCH   5  18
ATOM     18  N   LIG d   1       0.715  58.283 117.951  0.00  0.00     0.381 N 
ATOM     19  H   LIG d   1       1.592  58.702 117.718  0.00  0.00    -0.090 HD
ATOM     20  H   LIG d   1       0.264  58.000 117.099  0.00  0.00    -0.090 HD
ATOM     21  H   LIG d   1       0.863  57.490 118.536  0.00  0.00    -0.090 HD
ENDBRANCH   5  18
BRANCH   3  22
ATOM     22  C   LIG d   1      -3.766  59.368 119.248  0.00  0.00     0.382 C 
ATOM     23  O   LIG d   1      -4.249  60.093 118.345  0.00  0.00    -0.241 OA
ATOM     24  O   LIG d   1      -4.519  58.625 119.906  0.00  0.00    -0.241 OA
ENDBRANCH   3  22
TORSDOF 7
ENDMDL
