MODEL 1
REMARK VINA RESULT:      -4.5      0.000      0.000
REMARK  7 active torsions:
REMARK  status: ('A' for Active; 'I' for Inactive)
REMARK    1  A    between atoms: C_2  and  C_3 
REMARK    2  A    between atoms: C_3  and  O_6 
REMARK    3  A    between atoms: C_3  and  C_4 
REMARK    4  A    between atoms: C_7  and  O_6 
REMARK    5  A    between atoms: C_9  and  C_10 
REMARK    6  A    between atoms: N_15  and  C_14 
REMARK    7  A    between atoms: N_20  and  C_19 
REMARK       I    between atoms: C_22  and  N_20 
ROOT
ATOM      1  C   LIG d   1      -8.539  78.637 118.616  0.00  0.00     0.161 C 
ATOM      2  C   LIG d   1      -7.656  79.722 118.746  0.00  0.00     0.016 C 
ATOM      3  C   LIG d   1      -7.942  80.870 119.520  0.00  0.00     0.038 C 
ATOM      4  C   LIG d   1      -9.075  80.945 120.344  0.00  0.00     0.028 C 
ATOM      5  C   LIG d   1     -10.238  80.090 119.854  0.00  0.00    -0.047 C 
ATOM      6  C   LIG d   1      -9.731  78.652 119.596  0.00  0.00     0.091 C 
ENDROOT
BRANCH   1   7
ATOM      7  O   LIG d   1      -7.812  77.398 118.731  0.00  0.00    -0.368 OA
BRANCH   7   8
ATOM      8  C   LIG d   1      -7.522  76.711 117.489  0.00  0.00     0.119 C 
BRANCH   8   9
ATOM      9  C   LIG d   1      -7.884  75.226 117.686  0.00  0.00     0.028 C 
ATOM     10  C   LIG d   1      -9.328  74.913 117.259  0.00  0.00     0.006 C 
ENDBRANCH   8   9
BRANCH   8  11
ATOM     11  C   LIG d   1      -6.022  76.726 117.181  0.00  0.00     0.028 C 
ATOM     12  C   LIG d   1      -5.159  76.947 118.434  0.00  0.00     0.006 C 
ENDBRANCH   8  11
ENDBRANCH   7   8
ENDBRANCH   1   7
BRANCH   6  13
ATOM     13  N   LIG d   1     -10.787  77.771 119.034  0.00  0.00    -0.311 N 
ATOM     14  C   LIG d   1     -11.632  77.068 119.787  0.00  0.00     0.210 C 
ATOM     15  C   LIG d   1     -12.630  76.207 119.006  0.00  0.00     0.109 C 
ATOM     16  O   LIG d   1     -11.671  77.100 121.026  0.00  0.00    -0.276 OA
ATOM     17  H   LIG d   1     -10.847  77.710 118.037  0.00  0.00     0.149 HD
ENDBRANCH   6  13
BRANCH   5  18
ATOM     18  N   LIG d   1     -11.300  80.153 120.876  0.00  0.00     0.381 N 
ATOM     19  H   LIG d   1     -11.278  79.327 121.440  0.00  0.00    -0.090 HD
ATOM     20  H   LIG d   1     -12.192  80.197 120.416  0.00  0.00    -0.090 HD
ATOM     21  H   LIG d   1     -11.174  80.959 121.449  0.00  0.00    -0.090 HD
ENDBRANCH   5  18
BRANCH   3  22
ATOM     22  C   LIG d   1      -7.109  81.976 119.443  0.00  0.00     0.382 C 
ATOM     23  O   LIG d   1      -7.560  83.073 119.036  0.00  0.00    -0.241 OA
ATOM     24  O   LIG d   1      -5.902  81.878 119.733  0.00  0.00    -0.241 OA
ENDBRANCH   3  22
TORSDOF 7
ENDMDL
MODEL 2
REMARK VINA RESULT:      -4.5      1.937      5.005
REMARK  7 active torsions:
REMARK  status: ('A' for Active; 'I' for Inactive)
REMARK    1  A    between atoms: C_2  and  C_3 
REMARK    2  A    between atoms: C_3  and  O_6 
REMARK    3  A    between atoms: C_3  and  C_4 
REMARK    4  A    between atoms: C_7  and  O_6 
REMARK    5  A    between atoms: C_9  and  C_10 
REMARK    6  A    between atoms: N_15  and  C_14 
REMARK    7  A    between atoms: N_20  and  C_19 
REMARK       I    between atoms: C_22  and  N_20 
ROOT
ATOM      1  C   LIG d   1      -7.879  79.496 118.883  0.00  0.00     0.161 C 
ATOM      2  C   LIG d   1      -8.447  78.313 118.382  0.00  0.00     0.016 C 
ATOM      3  C   LIG d   1      -9.783  77.924 118.632  0.00  0.00     0.038 C 
ATOM      4  C   LIG d   1     -10.693  78.773 119.280  0.00  0.00     0.028 C 
ATOM      5  C   LIG d   1     -10.028  79.754 120.240  0.00  0.00    -0.047 C 
ATOM      6  C   LIG d   1      -8.888  80.488 119.498  0.00  0.00     0.091 C 
ENDROOT
BRANCH   1   7
ATOM      7  O   LIG d   1      -7.106  80.142 117.852  0.00  0.00    -0.368 OA
BRANCH   7   8
ATOM      8  C   LIG d   1      -5.666  80.078 118.000  0.00  0.00     0.119 C 
BRANCH   8   9
ATOM      9  C   LIG d   1      -5.188  78.783 117.315  0.00  0.00     0.028 C 
ATOM     10  C   LIG d   1      -4.599  77.774 118.316  0.00  0.00     0.006 C 
ENDBRANCH   8   9
BRANCH   8  11
ATOM     11  C   LIG d   1      -5.263  79.933 119.470  0.00  0.00     0.028 C 
ATOM     12  C   LIG d   1      -4.479  81.146 119.995  0.00  0.00     0.006 C 
ENDBRANCH   8  11
ENDBRANCH   7   8
ENDBRANCH   1   7
BRANCH   6  13
ATOM     13  N   LIG d   1      -8.131  81.406 120.389  0.00  0.00    -0.311 N 
ATOM     14  C   LIG d   1      -8.004  82.711 120.159  0.00  0.00     0.210 C 
ATOM     15  C   LIG d   1      -7.166  83.471 121.192  0.00  0.00     0.109 C 
ATOM     16  O   LIG d   1      -8.534  83.318 119.216  0.00  0.00    -0.276 OA
ATOM     17  H   LIG d   1      -7.695  81.002 121.195  0.00  0.00     0.149 HD
ENDBRANCH   6  13
BRANCH   5  18
ATOM     18  N   LIG d   1     -11.074  80.666 120.740  0.00  0.00     0.381 N 
ATOM     19  H   LIG d   1     -10.907  80.878 121.703  0.00  0.00    -0.090 HD
ATOM     20  H   LIG d   1     -11.966  80.209 120.667  0.00  0.00    -0.090 HD
ATOM     21  H   LIG d   1     -11.079  81.506 120.204  0.00  0.00    -0.090 HD
ENDBRANCH   5  18
BRANCH   3  22
ATOM     22  C   LIG d   1     -10.210  76.657 118.267  0.00  0.00     0.382 C 
ATOM     23  O   LIG d   1     -11.427  76.362 118.334  0.00  0.00    -0.241 OA
ATOM     24  O   LIG d   1      -9.387  75.790 117.915  0.00  0.00    -0.241 OA
ENDBRANCH   3  22
TORSDOF 7
ENDMDL
MODEL 3
REMARK VINA RESULT:      -4.5     14.040     16.372
REMARK  7 active torsions:
REMARK  status: ('A' for Active; 'I' for Inactive)
REMARK    1  A    between atoms: C_2  and  C_3 
REMARK    2  A    between atoms: C_3  and  O_6 
REMARK    3  A    between atoms: C_3  and  C_4 
REMARK    4  A    between atoms: C_7  and  O_6 
REMARK    5  A    between atoms: C_9  and  C_10 
REMARK    6  A    between atoms: N_15  and  C_14 
REMARK    7  A    between atoms: N_20  and  C_19 
REMARK       I    between atoms: C_22  and  N_20 
ROOT
ATOM      1  C   LIG d   1      -5.697  93.951 119.527  0.00  0.00     0.161 C 
ATOM      2  C   LIG d   1      -4.398  93.733 119.040  0.00  0.00     0.016 C 
ATOM      3  C   LIG d   1      -4.097  92.807 118.014  0.00  0.00     0.038 C 
ATOM      4  C   LIG d   1      -5.102  92.143 117.296  0.00  0.00     0.028 C 
ATOM      5  C   LIG d   1      -6.390  91.955 118.091  0.00  0.00    -0.047 C 
ATOM      6  C   LIG d   1      -6.821  93.318 118.680  0.00  0.00     0.091 C 
ENDROOT
BRANCH   1   7
ATOM      7  O   LIG d   1      -5.927  95.365 119.687  0.00  0.00    -0.368 OA
BRANCH   7   8
ATOM      8  C   LIG d   1      -6.000  95.849 121.050  0.00  0.00     0.119 C 
BRANCH   8   9
ATOM      9  C   LIG d   1      -7.412  96.429 121.262  0.00  0.00     0.028 C 
ATOM     10  C   LIG d   1      -7.939  97.159 120.015  0.00  0.00     0.006 C 
ENDBRANCH   8   9
BRANCH   8  11
ATOM     11  C   LIG d   1      -5.042  97.022 121.277  0.00  0.00     0.028 C 
ATOM     12  C   LIG d   1      -4.192  97.345 120.038  0.00  0.00     0.006 C 
ENDBRANCH   8  11
ENDBRANCH   7   8
ENDBRANCH   1   7
BRANCH   6  13
ATOM     13  N   LIG d   1      -8.026  93.207 119.542  0.00  0.00    -0.311 N 
ATOM     14  C   LIG d   1      -9.187  93.795 119.258  0.00  0.00     0.210 C 
ATOM     15  C   LIG d   1     -10.296  93.570 120.290  0.00  0.00     0.109 C 
ATOM     16  O   LIG d   1      -9.413  94.455 118.232  0.00  0.00    -0.276 OA
ATOM     17  H   LIG d   1      -7.941  92.664 120.379  0.00  0.00     0.149 HD
ENDBRANCH   6  13
BRANCH   5  18
ATOM     18  N   LIG d   1      -7.395  91.375 117.180  0.00  0.00     0.381 N 
ATOM     19  H   LIG d   1      -6.960  90.706 116.577  0.00  0.00    -0.090 HD
ATOM     20  H   LIG d   1      -7.780  92.109 116.611  0.00  0.00    -0.090 HD
ATOM     21  H   LIG d   1      -8.120  90.938 117.706  0.00  0.00    -0.090 HD
ENDBRANCH   5  18
BRANCH   3  22
ATOM     22  C   LIG d   1      -2.774  92.509 117.724  0.00  0.00     0.382 C 
ATOM     23  O   LIG d   1      -2.420  91.316 117.568  0.00  0.00    -0.241 OA
ATOM     24  O   LIG d   1      -1.921  93.415 117.661  0.00  0.00    -0.241 OA
ENDBRANCH   3  22
TORSDOF 7
ENDMDL
MODEL 4
REMARK VINA RESULT:      -4.4     19.528     22.107
REMARK  7 active torsions:
REMARK  status: ('A' for Active; 'I' for Inactive)
REMARK    1  A    between atoms: C_2  and  C_3 
REMARK    2  A    between atoms: C_3  and  O_6 
REMARK    3  A    between atoms: C_3  and  C_4 
REMARK    4  A    between atoms: C_7  and  O_6 
REMARK    5  A    between atoms: C_9  and  C_10 
REMARK    6  A    between atoms: N_15  and  C_14 
REMARK    7  A    between atoms: N_20  and  C_19 
REMARK       I    between atoms: C_22  and  N_20 
ROOT
ATOM      1  C   LIG d   1      -0.492  59.841 119.532  0.00  0.00     0.161 C 
ATOM      2  C   LIG d   1      -1.804  59.348 119.439  0.00  0.00     0.016 C 
ATOM      3  C   LIG d   1      -2.116  57.969 119.395  0.00  0.00     0.038 C 
ATOM      4  C   LIG d   1      -1.140  56.982 119.595  0.00  0.00     0.028 C 
ATOM      5  C   LIG d   1       0.262  57.424 119.189  0.00  0.00    -0.047 C 
ATOM      6  C   LIG d   1       0.576  58.778 119.864  0.00  0.00     0.091 C 
ENDROOT
BRANCH   1   7
ATOM      7  O   LIG d   1      -0.442  60.918 120.489  0.00  0.00    -0.368 OA
BRANCH   7   8
ATOM      8  C   LIG d   1      -0.121  60.544 121.852  0.00  0.00     0.119 C 
BRANCH   8   9
ATOM      9  C   LIG d   1      -1.370  60.814 122.713  0.00  0.00     0.028 C 
ATOM     10  C   LIG d   1      -2.042  59.517 123.195  0.00  0.00     0.006 C 
ENDBRANCH   8   9
BRANCH   8  11
ATOM     11  C   LIG d   1       0.974  61.445 122.432  0.00  0.00     0.028 C 
ATOM     12  C   LIG d   1       0.498  62.887 122.665  0.00  0.00     0.006 C 
ENDBRANCH   8  11
ENDBRANCH   7   8
ENDBRANCH   1   7
BRANCH   6  13
ATOM     13  N   LIG d   1       1.896  59.324 119.453  0.00  0.00    -0.311 N 
ATOM     14  C   LIG d   1       3.008  59.172 120.170  0.00  0.00     0.210 C 
ATOM     15  C   LIG d   1       4.257  59.831 119.575  0.00  0.00     0.109 C 
ATOM     16  O   LIG d   1       3.086  58.527 121.226  0.00  0.00    -0.276 OA
ATOM     17  H   LIG d   1       1.930  59.835 118.592  0.00  0.00     0.149 HD
ENDBRANCH   6  13
BRANCH   5  18
ATOM     18  N   LIG d   1       1.198  56.352 119.579  0.00  0.00     0.381 N 
ATOM     19  H   LIG d   1       0.734  55.467 119.541  0.00  0.00    -0.090 HD
ATOM     20  H   LIG d   1       1.498  56.511 120.524  0.00  0.00    -0.090 HD
ATOM     21  H   LIG d   1       1.985  56.349 118.968  0.00  0.00    -0.090 HD
ENDBRANCH   5  18
BRANCH   3  22
ATOM     22  C   LIG d   1      -3.411  57.566 119.108  0.00  0.00     0.382 C 
ATOM     23  O   LIG d   1      -3.942  57.889 118.018  0.00  0.00    -0.241 OA
ATOM     24  O   LIG d   1      -4.072  56.922 119.945  0.00  0.00    -0.241 OA
ENDBRANCH   3  22
TORSDOF 7
ENDMDL
MODEL 5
REMARK VINA RESULT:      -4.4     13.958     17.328
REMARK  7 active torsions:
REMARK  status: ('A' for Active; 'I' for Inactive)
REMARK    1  A    between atoms: C_2  and  C_3 
REMARK    2  A    between atoms: C_3  and  O_6 
REMARK    3  A    between atoms: C_3  and  C_4 
REMARK    4  A    between atoms: C_7  and  O_6 
REMARK    5  A    between atoms: C_9  and  C_10 
REMARK    6  A    between atoms: N_15  and  C_14 
REMARK    7  A    between atoms: N_20  and  C_19 
REMARK       I    between atoms: C_22  and  N_20 
ROOT
ATOM      1  C   LIG d   1      -5.884  94.642 119.659  0.00  0.00     0.161 C 
ATOM      2  C   LIG d   1      -5.765  93.416 118.984  0.00  0.00     0.016 C 
ATOM      3  C   LIG d   1      -6.706  92.955 118.035  0.00  0.00     0.038 C 
ATOM      4  C   LIG d   1      -7.760  93.763 117.584  0.00  0.00     0.028 C 
ATOM      5  C   LIG d   1      -8.206  94.804 118.605  0.00  0.00    -0.047 C 
ATOM      6  C   LIG d   1      -6.967  95.586 119.098  0.00  0.00     0.091 C 
ENDROOT
BRANCH   1   7
ATOM      7  O   LIG d   1      -4.606  95.308 119.692  0.00  0.00    -0.368 OA
BRANCH   7   8
ATOM      8  C   LIG d   1      -3.753  94.996 120.821  0.00  0.00     0.119 C 
BRANCH   8   9
ATOM      9  C   LIG d   1      -3.328  96.330 121.463  0.00  0.00     0.028 C 
ATOM     10  C   LIG d   1      -3.842  97.549 120.678  0.00  0.00     0.006 C 
ENDBRANCH   8   9
BRANCH   8  11
ATOM     11  C   LIG d   1      -2.450  94.331 120.367  0.00  0.00     0.028 C 
ATOM     12  C   LIG d   1      -2.098  94.645 118.905  0.00  0.00     0.006 C 
ENDBRANCH   8  11
ENDBRANCH   7   8
ENDBRANCH   1   7
BRANCH   6  13
ATOM     13  N   LIG d   1      -7.303  96.568 120.162  0.00  0.00    -0.311 N 
ATOM     14  C   LIG d   1      -7.588  97.846 119.918  0.00  0.00     0.210 C 
ATOM     15  C   LIG d   1      -7.887  98.691 121.160  0.00  0.00     0.109 C 
ATOM     16  O   LIG d   1      -7.654  98.352 118.787  0.00  0.00    -0.276 OA
ATOM     17  H   LIG d   1      -7.304  96.234 121.106  0.00  0.00     0.149 HD
ENDBRANCH   6  13
BRANCH   5  18
ATOM     18  N   LIG d   1      -9.212  95.664 117.955  0.00  0.00     0.381 N 
ATOM     19  H   LIG d   1      -9.088  95.640 116.962  0.00  0.00    -0.090 HD
ATOM     20  H   LIG d   1      -9.081  96.611 118.266  0.00  0.00    -0.090 HD
ATOM     21  H   LIG d   1     -10.129  95.354 118.190  0.00  0.00    -0.090 HD
ENDBRANCH   5  18
BRANCH   3  22
ATOM     22  C   LIG d   1      -6.621  91.656 117.558  0.00  0.00     0.382 C 
ATOM     23  O   LIG d   1      -7.658  91.058 117.180  0.00  0.00    -0.241 OA
ATOM     24  O   LIG d   1      -5.528  91.059 117.541  0.00  0.00    -0.241 OA
ENDBRANCH   3  22
TORSDOF 7
ENDMDL
MODEL 6
REMARK VINA RESULT:      -4.3     13.924     15.890
REMARK  7 active torsions:
REMARK  status: ('A' for Active; 'I' for Inactive)
REMARK    1  A    between atoms: C_2  and  C_3 
REMARK    2  A    between atoms: C_3  and  O_6 
REMARK    3  A    between atoms: C_3  and  C_4 
REMARK    4  A    between atoms: C_7  and  O_6 
REMARK    5  A    between atoms: C_9  and  C_10 
REMARK    6  A    between atoms: N_15  and  C_14 
REMARK    7  A    between atoms: N_20  and  C_19 
REMARK       I    between atoms: C_22  and  N_20 
ROOT
ATOM      1  C   LIG d   1      -7.790  93.501 120.655  0.00  0.00     0.161 C 
ATOM      2  C   LIG d   1      -7.010  92.745 119.764  0.00  0.00     0.016 C 
ATOM      3  C   LIG d   1      -7.008  92.951 118.365  0.00  0.00     0.038 C 
ATOM      4  C   LIG d   1      -7.675  94.035 117.774  0.00  0.00     0.028 C 
ATOM      5  C   LIG d   1      -8.877  94.517 118.578  0.00  0.00    -0.047 C 
ATOM      6  C   LIG d   1      -8.439  94.759 120.040  0.00  0.00     0.091 C 
ENDROOT
BRANCH   1   7
ATOM      7  O   LIG d   1      -7.005  93.856 121.811  0.00  0.00    -0.368 OA
BRANCH   7   8
ATOM      8  C   LIG d   1      -7.355  93.188 123.048  0.00  0.00     0.119 C 
BRANCH   8   9
ATOM      9  C   LIG d   1      -6.275  92.122 123.320  0.00  0.00     0.028 C 
ATOM     10  C   LIG d   1      -4.866  92.729 123.425  0.00  0.00     0.006 C 
ENDBRANCH   8   9
BRANCH   8  11
ATOM     11  C   LIG d   1      -8.667  92.410 122.910  0.00  0.00     0.028 C 
ATOM     12  C   LIG d   1      -8.692  91.129 123.760  0.00  0.00     0.006 C 
ENDBRANCH   8  11
ENDBRANCH   7   8
ENDBRANCH   1   7
BRANCH   6  13
ATOM     13  N   LIG d   1      -9.574  95.152 120.915  0.00  0.00    -0.311 N 
ATOM     14  C   LIG d   1      -9.507  96.144 121.802  0.00  0.00     0.210 C 
ATOM     15  C   LIG d   1     -10.785  96.371 122.616  0.00  0.00     0.109 C 
ATOM     16  O   LIG d   1      -8.521  96.877 121.969  0.00  0.00    -0.276 OA
ATOM     17  H   LIG d   1     -10.423  94.629 120.823  0.00  0.00     0.149 HD
ENDBRANCH   6  13
BRANCH   5  18
ATOM     18  N   LIG d   1      -9.394  95.732 117.921  0.00  0.00     0.381 N 
ATOM     19  H   LIG d   1      -8.982  96.544 118.337  0.00  0.00    -0.090 HD
ATOM     20  H   LIG d   1     -10.389  95.778 118.058  0.00  0.00    -0.090 HD
ATOM     21  H   LIG d   1      -9.187  95.708 116.947  0.00  0.00    -0.090 HD
ENDBRANCH   5  18
BRANCH   3  22
ATOM     22  C   LIG d   1      -6.363  92.044 117.538  0.00  0.00     0.382 C 
ATOM     23  O   LIG d   1      -6.951  90.995 117.180  0.00  0.00    -0.241 OA
ATOM     24  O   LIG d   1      -5.186  92.239 117.181  0.00  0.00    -0.241 OA
ENDBRANCH   3  22
TORSDOF 7
ENDMDL
MODEL 7
REMARK VINA RESULT:      -4.3     13.658     16.034
REMARK  7 active torsions:
REMARK  status: ('A' for Active; 'I' for Inactive)
REMARK    1  A    between atoms: C_2  and  C_3 
REMARK    2  A    between atoms: C_3  and  O_6 
REMARK    3  A    between atoms: C_3  and  C_4 
REMARK    4  A    between atoms: C_7  and  O_6 
REMARK    5  A    between atoms: C_9  and  C_10 
REMARK    6  A    between atoms: N_15  and  C_14 
REMARK    7  A    between atoms: N_20  and  C_19 
REMARK       I    between atoms: C_22  and  N_20 
ROOT
ATOM      1  C   LIG d   1      -5.379  93.004 118.755  0.00  0.00     0.161 C 
ATOM      2  C   LIG d   1      -4.840  91.745 118.440  0.00  0.00     0.016 C 
ATOM      3  C   LIG d   1      -3.459  91.450 118.515  0.00  0.00     0.038 C 
ATOM      4  C   LIG d   1      -2.535  92.355 119.059  0.00  0.00     0.028 C 
ATOM      5  C   LIG d   1      -2.961  93.813 118.917  0.00  0.00    -0.047 C 
ATOM      6  C   LIG d   1      -4.401  93.970 119.456  0.00  0.00     0.091 C 
ENDROOT
BRANCH   1   7
ATOM      7  O   LIG d   1      -6.573  92.840 119.545  0.00  0.00    -0.368 OA
BRANCH   7   8
ATOM      8  C   LIG d   1      -7.821  92.784 118.810  0.00  0.00     0.119 C 
BRANCH   8   9
ATOM      9  C   LIG d   1      -7.821  93.955 117.808  0.00  0.00     0.028 C 
ATOM     10  C   LIG d   1      -8.646  95.153 118.306  0.00  0.00     0.006 C 
ENDBRANCH   8   9
BRANCH   8  11
ATOM     11  C   LIG d   1      -9.020  93.037 119.729  0.00  0.00     0.028 C 
ATOM     12  C   LIG d   1      -8.689  92.823 121.214  0.00  0.00     0.006 C 
ENDBRANCH   8  11
ENDBRANCH   7   8
ENDBRANCH   1   7
BRANCH   6  13
ATOM     13  N   LIG d   1      -4.926  95.349 119.277  0.00  0.00    -0.311 N 
ATOM     14  C   LIG d   1      -5.537  96.031 120.244  0.00  0.00     0.210 C 
ATOM     15  C   LIG d   1      -6.019  97.429 119.843  0.00  0.00     0.109 C 
ATOM     16  O   LIG d   1      -5.697  95.625 121.404  0.00  0.00    -0.276 OA
ATOM     17  H   LIG d   1      -4.810  95.767 118.375  0.00  0.00     0.149 HD
ENDBRANCH   6  13
BRANCH   5  18
ATOM     18  N   LIG d   1      -1.978  94.637 119.645  0.00  0.00     0.381 N 
ATOM     19  H   LIG d   1      -1.075  94.207 119.600  0.00  0.00    -0.090 HD
ATOM     20  H   LIG d   1      -2.252  94.692 120.611  0.00  0.00    -0.090 HD
ATOM     21  H   LIG d   1      -1.939  95.550 119.250  0.00  0.00    -0.090 HD
ENDBRANCH   5  18
BRANCH   3  22
ATOM     22  C   LIG d   1      -2.984  90.251 118.006  0.00  0.00     0.382 C 
ATOM     23  O   LIG d   1      -3.726  89.239 117.990  0.00  0.00    -0.241 OA
ATOM     24  O   LIG d   1      -1.809  90.156 117.603  0.00  0.00    -0.241 OA
ENDBRANCH   3  22
TORSDOF 7
ENDMDL
MODEL 8
REMARK VINA RESULT:      -4.2      3.978      6.584
REMARK  7 active torsions:
REMARK  status: ('A' for Active; 'I' for Inactive)
REMARK    1  A    between atoms: C_2  and  C_3 
REMARK    2  A    between atoms: C_3  and  O_6 
REMARK    3  A    between atoms: C_3  and  C_4 
REMARK    4  A    between atoms: C_7  and  O_6 
REMARK    5  A    between atoms: C_9  and  C_10 
REMARK    6  A    between atoms: N_15  and  C_14 
REMARK    7  A    between atoms: N_20  and  C_19 
REMARK       I    between atoms: C_22  and  N_20 
ROOT
ATOM      1  C   LIG d   1      -7.154  82.767 120.222  0.00  0.00     0.161 C 
ATOM      2  C   LIG d   1      -6.506  81.691 119.594  0.00  0.00     0.016 C 
ATOM      3  C   LIG d   1      -6.971  81.092 118.400  0.00  0.00     0.038 C 
ATOM      4  C   LIG d   1      -8.040  81.631 117.668  0.00  0.00     0.028 C 
ATOM      5  C   LIG d   1      -9.032  82.408 118.527  0.00  0.00    -0.047 C 
ATOM      6  C   LIG d   1      -8.258  83.440 119.379  0.00  0.00     0.091 C 
ENDROOT
BRANCH   1   7
ATOM      7  O   LIG d   1      -6.182  83.744 120.645  0.00  0.00    -0.368 OA
BRANCH   7   8
ATOM      8  C   LIG d   1      -5.689  83.608 122.001  0.00  0.00     0.119 C 
BRANCH   8   9
ATOM      9  C   LIG d   1      -6.575  84.485 122.906  0.00  0.00     0.028 C 
ATOM     10  C   LIG d   1      -6.703  85.926 122.383  0.00  0.00     0.006 C 
ENDBRANCH   8   9
BRANCH   8  11
ATOM     11  C   LIG d   1      -4.275  84.180 122.140  0.00  0.00     0.028 C 
ATOM     12  C   LIG d   1      -3.407  83.931 120.896  0.00  0.00     0.006 C 
ENDBRANCH   8  11
ENDBRANCH   7   8
ENDBRANCH   1   7
BRANCH   6  13
ATOM     13  N   LIG d   1      -9.144  84.185 120.310  0.00  0.00    -0.311 N 
ATOM     14  C   LIG d   1      -9.892  83.595 121.241  0.00  0.00     0.210 C 
ATOM     15  C   LIG d   1     -10.748  84.546 122.082  0.00  0.00     0.109 C 
ATOM     16  O   LIG d   1      -9.903  82.376 121.472  0.00  0.00    -0.276 OA
ATOM     17  H   LIG d   1      -9.173  85.181 120.214  0.00  0.00     0.149 HD
ENDBRANCH   6  13
BRANCH   5  18
ATOM     18  N   LIG d   1     -10.016  83.029 117.620  0.00  0.00     0.381 N 
ATOM     19  H   LIG d   1     -10.902  82.577 117.722  0.00  0.00    -0.090 HD
ATOM     20  H   LIG d   1      -9.706  82.907 116.672  0.00  0.00    -0.090 HD
ATOM     21  H   LIG d   1     -10.104  84.000 117.826  0.00  0.00    -0.090 HD
ENDBRANCH   5  18
BRANCH   3  22
ATOM     22  C   LIG d   1      -6.390  79.917 117.949  0.00  0.00     0.382 C 
ATOM     23  O   LIG d   1      -5.140  79.823 117.878  0.00  0.00    -0.241 OA
ATOM     24  O   LIG d   1      -7.099  78.966 117.571  0.00  0.00    -0.241 OA
ENDBRANCH   3  22
TORSDOF 7
ENDMDL
MODEL 9
REMARK VINA RESULT:      -4.2     13.495     16.400
REMARK  7 active torsions:
REMARK  status: ('A' for Active; 'I' for Inactive)
REMARK    1  A    between atoms: C_2  and  C_3 
REMARK    2  A    between atoms: C_3  and  O_6 
REMARK    3  A    between atoms: C_3  and  C_4 
REMARK    4  A    between atoms: C_7  and  O_6 
REMARK    5  A    between atoms: C_9  and  C_10 
REMARK    6  A    between atoms: N_15  and  C_14 
REMARK    7  A    between atoms: N_20  and  C_19 
REMARK       I    between atoms: C_22  and  N_20 
ROOT
ATOM      1  C   LIG d   1      -4.071  93.183 118.214  0.00  0.00     0.161 C 
ATOM      2  C   LIG d   1      -3.968  91.782 118.167  0.00  0.00     0.016 C 
ATOM      3  C   LIG d   1      -2.747  91.087 118.321  0.00  0.00     0.038 C 
ATOM      4  C   LIG d   1      -1.561  91.742 118.686  0.00  0.00     0.028 C 
ATOM      5  C   LIG d   1      -1.517  93.202 118.248  0.00  0.00    -0.047 C 
ATOM      6  C   LIG d   1      -2.807  93.908 118.722  0.00  0.00     0.091 C 
ENDROOT
BRANCH   1   7
ATOM      7  O   LIG d   1      -5.217  93.562 119.002  0.00  0.00    -0.368 OA
BRANCH   7   8
ATOM      8  C   LIG d   1      -6.419  92.779 118.798  0.00  0.00     0.119 C 
BRANCH   8   9
ATOM      9  C   LIG d   1      -7.219  93.446 117.662  0.00  0.00     0.028 C 
ATOM     10  C   LIG d   1      -7.944  94.720 118.126  0.00  0.00     0.006 C 
ENDBRANCH   8   9
BRANCH   8  11
ATOM     11  C   LIG d   1      -7.334  92.832 120.025  0.00  0.00     0.028 C 
ATOM     12  C   LIG d   1      -6.561  93.046 121.336  0.00  0.00     0.006 C 
ENDBRANCH   8  11
ENDBRANCH   7   8
ENDBRANCH   1   7
BRANCH   6  13
ATOM     13  N   LIG d   1      -2.883  95.319 118.262  0.00  0.00    -0.311 N 
ATOM     14  C   LIG d   1      -2.861  96.362 119.089  0.00  0.00     0.210 C 
ATOM     15  C   LIG d   1      -2.971  97.730 118.409  0.00  0.00     0.109 C 
ATOM     16  O   LIG d   1      -2.729  96.285 120.320  0.00  0.00    -0.276 OA
ATOM     17  H   LIG d   1      -2.961  95.473 117.275  0.00  0.00     0.149 HD
ENDBRANCH   6  13
BRANCH   5  18
ATOM     18  N   LIG d   1      -0.291  93.799 118.811  0.00  0.00     0.381 N 
ATOM     19  H   LIG d   1      -0.382  94.794 118.842  0.00  0.00    -0.090 HD
ATOM     20  H   LIG d   1       0.485  93.571 118.215  0.00  0.00    -0.090 HD
ATOM     21  H   LIG d   1      -0.130  93.444 119.729  0.00  0.00    -0.090 HD
ENDBRANCH   5  18
BRANCH   3  22
ATOM     22  C   LIG d   1      -2.696  89.724 118.071  0.00  0.00     0.382 C 
ATOM     23  O   LIG d   1      -1.611  89.187 117.743  0.00  0.00    -0.241 OA
ATOM     24  O   LIG d   1      -3.731  89.032 118.125  0.00  0.00    -0.241 OA
ENDBRANCH   3  22
TORSDOF 7
ENDMDL
