MODEL 1
REMARK VINA RESULT:      -5.7      0.000      0.000
REMARK  7 active torsions:
REMARK  status: ('A' for Active; 'I' for Inactive)
REMARK    1  A    between atoms: C_2  and  C_3 
REMARK    2  A    between atoms: C_3  and  O_6 
REMARK    3  A    between atoms: C_3  and  C_4 
REMARK    4  A    between atoms: C_7  and  O_6 
REMARK    5  A    between atoms: C_9  and  C_10 
REMARK    6  A    between atoms: N_15  and  C_14 
REMARK    7  A    between atoms: N_20  and  C_19 
REMARK       I    between atoms: C_22  and  N_20 
ROOT
ATOM      1  C   LIG d   1      -7.186  75.593 116.770  0.00  0.00     0.161 C 
ATOM      2  C   LIG d   1      -8.045  74.501 116.977  0.00  0.00     0.016 C 
ATOM      3  C   LIG d   1      -7.629  73.153 116.884  0.00  0.00     0.038 C 
ATOM      4  C   LIG d   1      -6.279  72.804 116.724  0.00  0.00     0.028 C 
ATOM      5  C   LIG d   1      -5.458  73.871 116.008  0.00  0.00    -0.047 C 
ATOM      6  C   LIG d   1      -5.687  75.232 116.704  0.00  0.00     0.091 C 
ENDROOT
BRANCH   1   7
ATOM      7  O   LIG d   1      -7.416  76.595 117.779  0.00  0.00    -0.368 OA
BRANCH   7   8
ATOM      8  C   LIG d   1      -8.250  77.713 117.389  0.00  0.00     0.119 C 
BRANCH   8   9
ATOM      9  C   LIG d   1      -7.351  78.964 117.336  0.00  0.00     0.028 C 
ATOM     10  C   LIG d   1      -8.117  80.252 117.683  0.00  0.00     0.006 C 
ENDBRANCH   8   9
BRANCH   8  11
ATOM     11  C   LIG d   1      -9.308  78.018 118.453  0.00  0.00     0.028 C 
ATOM     12  C   LIG d   1     -10.384  76.926 118.554  0.00  0.00     0.006 C 
ENDBRANCH   8  11
ENDBRANCH   7   8
ENDBRANCH   1   7
BRANCH   6  13
ATOM     13  N   LIG d   1      -4.986  76.346 116.015  0.00  0.00    -0.311 N 
ATOM     14  C   LIG d   1      -4.123  77.158 116.623  0.00  0.00     0.210 C 
ATOM     15  C   LIG d   1      -3.528  78.254 115.734  0.00  0.00     0.109 C 
ATOM     16  O   LIG d   1      -3.770  77.055 117.808  0.00  0.00    -0.276 OA
ATOM     17  H   LIG d   1      -5.190  76.482 115.044  0.00  0.00     0.149 HD
ENDBRANCH   6  13
BRANCH   5  18
ATOM     18  N   LIG d   1      -4.048  73.439 116.032  0.00  0.00     0.381 N 
ATOM     19  H   LIG d   1      -3.799  73.146 116.956  0.00  0.00    -0.090 HD
ATOM     20  H   LIG d   1      -3.465  74.217 115.779  0.00  0.00    -0.090 HD
ATOM     21  H   LIG d   1      -3.910  72.689 115.390  0.00  0.00    -0.090 HD
ENDBRANCH   5  18
BRANCH   3  22
ATOM     22  C   LIG d   1      -8.573  72.138 116.911  0.00  0.00     0.382 C 
ATOM     23  O   LIG d   1      -9.774  72.406 117.155  0.00  0.00    -0.241 OA
ATOM     24  O   LIG d   1      -8.232  70.953 116.738  0.00  0.00    -0.241 OA
ENDBRANCH   3  22
TORSDOF 7
ENDMDL
MODEL 2
REMARK VINA RESULT:      -5.7      1.455      1.944
REMARK  7 active torsions:
REMARK  status: ('A' for Active; 'I' for Inactive)
REMARK    1  A    between atoms: C_2  and  C_3 
REMARK    2  A    between atoms: C_3  and  O_6 
REMARK    3  A    between atoms: C_3  and  C_4 
REMARK    4  A    between atoms: C_7  and  O_6 
REMARK    5  A    between atoms: C_9  and  C_10 
REMARK    6  A    between atoms: N_15  and  C_14 
REMARK    7  A    between atoms: N_20  and  C_19 
REMARK       I    between atoms: C_22  and  N_20 
ROOT
ATOM      1  C   LIG d   1      -6.307  75.468 116.262  0.00  0.00     0.161 C 
ATOM      2  C   LIG d   1      -6.650  74.106 116.232  0.00  0.00     0.016 C 
ATOM      3  C   LIG d   1      -5.730  73.079 115.921  0.00  0.00     0.038 C 
ATOM      4  C   LIG d   1      -4.359  73.333 115.766  0.00  0.00     0.028 C 
ATOM      5  C   LIG d   1      -4.056  74.749 115.290  0.00  0.00    -0.047 C 
ATOM      6  C   LIG d   1      -4.791  75.755 116.205  0.00  0.00     0.091 C 
ENDROOT
BRANCH   1   7
ATOM      7  O   LIG d   1      -6.891  76.094 117.422  0.00  0.00    -0.368 OA
BRANCH   7   8
ATOM      8  C   LIG d   1      -8.041  76.941 117.177  0.00  0.00     0.119 C 
BRANCH   8   9
ATOM      9  C   LIG d   1      -7.860  78.220 118.017  0.00  0.00     0.028 C 
ATOM     10  C   LIG d   1      -7.087  79.314 117.261  0.00  0.00     0.006 C 
ENDBRANCH   8   9
BRANCH   8  11
ATOM     11  C   LIG d   1      -9.329  76.295 117.695  0.00  0.00     0.028 C 
ATOM     12  C   LIG d   1      -9.978  75.354 116.668  0.00  0.00     0.006 C 
ENDBRANCH   8  11
ENDBRANCH   7   8
ENDBRANCH   1   7
BRANCH   6  13
ATOM     13  N   LIG d   1      -4.616  77.161 115.758  0.00  0.00    -0.311 N 
ATOM     14  C   LIG d   1      -3.654  77.961 116.214  0.00  0.00     0.210 C 
ATOM     15  C   LIG d   1      -3.664  79.380 115.637  0.00  0.00     0.109 C 
ATOM     16  O   LIG d   1      -2.772  77.620 117.017  0.00  0.00    -0.276 OA
ATOM     17  H   LIG d   1      -5.269  77.510 115.084  0.00  0.00     0.149 HD
ENDBRANCH   6  13
BRANCH   5  18
ATOM     18  N   LIG d   1      -2.590  74.920 115.304  0.00  0.00     0.381 N 
ATOM     19  H   LIG d   1      -2.212  74.675 114.411  0.00  0.00    -0.090 HD
ATOM     20  H   LIG d   1      -2.198  74.303 115.993  0.00  0.00    -0.090 HD
ATOM     21  H   LIG d   1      -2.359  75.864 115.523  0.00  0.00    -0.090 HD
ENDBRANCH   5  18
BRANCH   3  22
ATOM     22  C   LIG d   1      -6.186  71.785 115.723  0.00  0.00     0.382 C 
ATOM     23  O   LIG d   1      -5.494  70.969 115.068  0.00  0.00    -0.241 OA
ATOM     24  O   LIG d   1      -7.302  71.435 116.153  0.00  0.00    -0.241 OA
ENDBRANCH   3  22
TORSDOF 7
ENDMDL
MODEL 3
REMARK VINA RESULT:      -5.7      2.184      5.337
REMARK  7 active torsions:
REMARK  status: ('A' for Active; 'I' for Inactive)
REMARK    1  A    between atoms: C_2  and  C_3 
REMARK    2  A    between atoms: C_3  and  O_6 
REMARK    3  A    between atoms: C_3  and  C_4 
REMARK    4  A    between atoms: C_7  and  O_6 
REMARK    5  A    between atoms: C_9  and  C_10 
REMARK    6  A    between atoms: N_15  and  C_14 
REMARK    7  A    between atoms: N_20  and  C_19 
REMARK       I    between atoms: C_22  and  N_20 
ROOT
ATOM      1  C   LIG d   1      -7.825  77.019 117.566  0.00  0.00     0.161 C 
ATOM      2  C   LIG d   1      -8.924  77.780 117.998  0.00  0.00     0.016 C 
ATOM      3  C   LIG d   1      -8.913  79.192 118.070  0.00  0.00     0.038 C 
ATOM      4  C   LIG d   1      -7.846  79.951 117.567  0.00  0.00     0.028 C 
ATOM      5  C   LIG d   1      -6.513  79.211 117.589  0.00  0.00    -0.047 C 
ATOM      6  C   LIG d   1      -6.692  77.835 116.909  0.00  0.00     0.091 C 
ENDROOT
BRANCH   1   7
ATOM      7  O   LIG d   1      -8.272  75.976 116.677  0.00  0.00    -0.368 OA
BRANCH   7   8
ATOM      8  C   LIG d   1      -8.350  74.645 117.244  0.00  0.00     0.119 C 
BRANCH   8   9
ATOM      9  C   LIG d   1      -7.212  73.811 116.623  0.00  0.00     0.028 C 
ATOM     10  C   LIG d   1      -6.070  73.544 117.618  0.00  0.00     0.006 C 
ENDBRANCH   8   9
BRANCH   8  11
ATOM     11  C   LIG d   1      -9.643  73.938 116.830  0.00  0.00     0.028 C 
ATOM     12  C   LIG d   1      -9.611  72.426 117.107  0.00  0.00     0.006 C 
ENDBRANCH   8  11
ENDBRANCH   7   8
ENDBRANCH   1   7
BRANCH   6  13
ATOM     13  N   LIG d   1      -5.456  77.011 116.961  0.00  0.00    -0.311 N 
ATOM     14  C   LIG d   1      -4.559  76.972 115.977  0.00  0.00     0.210 C 
ATOM     15  C   LIG d   1      -3.367  76.042 116.226  0.00  0.00     0.109 C 
ATOM     16  O   LIG d   1      -4.621  77.642 114.936  0.00  0.00    -0.276 OA
ATOM     17  H   LIG d   1      -5.310  76.459 117.784  0.00  0.00     0.149 HD
ENDBRANCH   6  13
BRANCH   5  18
ATOM     18  N   LIG d   1      -5.518  80.065 116.912  0.00  0.00     0.381 N 
ATOM     19  H   LIG d   1      -4.728  79.515 116.641  0.00  0.00    -0.090 HD
ATOM     20  H   LIG d   1      -5.206  80.772 117.554  0.00  0.00    -0.090 HD
ATOM     21  H   LIG d   1      -5.925  80.492 116.109  0.00  0.00    -0.090 HD
ENDBRANCH   5  18
BRANCH   3  22
ATOM     22  C   LIG d   1      -9.962  79.857 118.687  0.00  0.00     0.382 C 
ATOM     23  O   LIG d   1     -10.573  79.316 119.639  0.00  0.00    -0.241 OA
ATOM     24  O   LIG d   1     -10.332  80.972 118.274  0.00  0.00    -0.241 OA
ENDBRANCH   3  22
TORSDOF 7
ENDMDL
MODEL 4
REMARK VINA RESULT:      -5.6      2.349      3.682
REMARK  7 active torsions:
REMARK  status: ('A' for Active; 'I' for Inactive)
REMARK    1  A    between atoms: C_2  and  C_3 
REMARK    2  A    between atoms: C_3  and  O_6 
REMARK    3  A    between atoms: C_3  and  C_4 
REMARK    4  A    between atoms: C_7  and  O_6 
REMARK    5  A    between atoms: C_9  and  C_10 
REMARK    6  A    between atoms: N_15  and  C_14 
REMARK    7  A    between atoms: N_20  and  C_19 
REMARK       I    between atoms: C_22  and  N_20 
ROOT
ATOM      1  C   LIG d   1      -6.823  76.699 115.640  0.00  0.00     0.161 C 
ATOM      2  C   LIG d   1      -6.384  75.414 115.280  0.00  0.00     0.016 C 
ATOM      3  C   LIG d   1      -5.227  74.807 115.820  0.00  0.00     0.038 C 
ATOM      4  C   LIG d   1      -4.509  75.387 116.877  0.00  0.00     0.028 C 
ATOM      5  C   LIG d   1      -4.622  76.907 116.922  0.00  0.00    -0.047 C 
ATOM      6  C   LIG d   1      -6.116  77.302 116.872  0.00  0.00     0.091 C 
ENDROOT
BRANCH   1   7
ATOM      7  O   LIG d   1      -8.251  76.691 115.836  0.00  0.00    -0.368 OA
BRANCH   7   8
ATOM      8  C   LIG d   1      -8.719  76.136 117.091  0.00  0.00     0.119 C 
BRANCH   8   9
ATOM      9  C   LIG d   1      -9.860  75.154 116.765  0.00  0.00     0.028 C 
ATOM     10  C   LIG d   1      -9.484  73.695 117.070  0.00  0.00     0.006 C 
ENDBRANCH   8   9
BRANCH   8  11
ATOM     11  C   LIG d   1      -9.351  77.215 117.975  0.00  0.00     0.028 C 
ATOM     12  C   LIG d   1     -10.624  76.731 118.687  0.00  0.00     0.006 C 
ENDBRANCH   8  11
ENDBRANCH   7   8
ENDBRANCH   1   7
BRANCH   6  13
ATOM     13  N   LIG d   1      -6.312  78.774 116.828  0.00  0.00    -0.311 N 
ATOM     14  C   LIG d   1      -6.521  79.519 117.912  0.00  0.00     0.210 C 
ATOM     15  C   LIG d   1      -6.718  81.014 117.641  0.00  0.00     0.109 C 
ATOM     16  O   LIG d   1      -6.529  79.089 119.075  0.00  0.00    -0.276 OA
ATOM     17  H   LIG d   1      -6.289  79.211 115.927  0.00  0.00     0.149 HD
ENDBRANCH   6  13
BRANCH   5  18
ATOM     18  N   LIG d   1      -3.943  77.368 118.148  0.00  0.00     0.381 N 
ATOM     19  H   LIG d   1      -4.222  78.306 118.358  0.00  0.00    -0.090 HD
ATOM     20  H   LIG d   1      -2.950  77.363 117.991  0.00  0.00    -0.090 HD
ATOM     21  H   LIG d   1      -4.169  76.768 118.909  0.00  0.00    -0.090 HD
ENDBRANCH   5  18
BRANCH   3  22
ATOM     22  C   LIG d   1      -4.754  73.623 115.275  0.00  0.00     0.382 C 
ATOM     23  O   LIG d   1      -3.726  73.631 114.555  0.00  0.00    -0.241 OA
ATOM     24  O   LIG d   1      -5.367  72.554 115.457  0.00  0.00    -0.241 OA
ENDBRANCH   3  22
TORSDOF 7
ENDMDL
MODEL 5
REMARK VINA RESULT:      -5.4      2.321      5.433
REMARK  7 active torsions:
REMARK  status: ('A' for Active; 'I' for Inactive)
REMARK    1  A    between atoms: C_2  and  C_3 
REMARK    2  A    between atoms: C_3  and  O_6 
REMARK    3  A    between atoms: C_3  and  C_4 
REMARK    4  A    between atoms: C_7  and  O_6 
REMARK    5  A    between atoms: C_9  and  C_10 
REMARK    6  A    between atoms: N_15  and  C_14 
REMARK    7  A    between atoms: N_20  and  C_19 
REMARK       I    between atoms: C_22  and  N_20 
ROOT
ATOM      1  C   LIG d   1      -6.432  76.787 117.053  0.00  0.00     0.161 C 
ATOM      2  C   LIG d   1      -7.069  77.973 117.455  0.00  0.00     0.016 C 
ATOM      3  C   LIG d   1      -8.454  78.056 117.730  0.00  0.00     0.038 C 
ATOM      4  C   LIG d   1      -9.272  76.918 117.768  0.00  0.00     0.028 C 
ATOM      5  C   LIG d   1      -8.775  75.785 116.877  0.00  0.00    -0.047 C 
ATOM      6  C   LIG d   1      -7.288  75.512 117.196  0.00  0.00     0.091 C 
ENDROOT
BRANCH   1   7
ATOM      7  O   LIG d   1      -5.186  76.638 117.762  0.00  0.00    -0.368 OA
BRANCH   7   8
ATOM      8  C   LIG d   1      -4.041  77.315 117.190  0.00  0.00     0.119 C 
BRANCH   8   9
ATOM      9  C   LIG d   1      -3.598  76.512 115.952  0.00  0.00     0.028 C 
ATOM     10  C   LIG d   1      -2.954  75.166 116.325  0.00  0.00     0.006 C 
ENDBRANCH   8   9
BRANCH   8  11
ATOM     11  C   LIG d   1      -2.842  77.285 118.143  0.00  0.00     0.028 C 
ATOM     12  C   LIG d   1      -3.249  77.042 119.605  0.00  0.00     0.006 C 
ENDBRANCH   8  11
ENDBRANCH   7   8
ENDBRANCH   1   7
BRANCH   6  13
ATOM     13  N   LIG d   1      -6.699  74.474 116.310  0.00  0.00    -0.311 N 
ATOM     14  C   LIG d   1      -6.146  73.350 116.763  0.00  0.00     0.210 C 
ATOM     15  C   LIG d   1      -5.581  72.425 115.681  0.00  0.00     0.109 C 
ATOM     16  O   LIG d   1      -6.098  73.017 117.957  0.00  0.00    -0.276 OA
ATOM     17  H   LIG d   1      -6.724  74.648 115.324  0.00  0.00     0.149 HD
ENDBRANCH   6  13
BRANCH   5  18
ATOM     18  N   LIG d   1      -9.642  74.616 117.118  0.00  0.00     0.381 N 
ATOM     19  H   LIG d   1     -10.603  74.887 117.051  0.00  0.00    -0.090 HD
ATOM     20  H   LIG d   1      -9.475  74.273 118.047  0.00  0.00    -0.090 HD
ATOM     21  H   LIG d   1      -9.444  73.901 116.452  0.00  0.00    -0.090 HD
ENDBRANCH   5  18
BRANCH   3  22
ATOM     22  C   LIG d   1      -9.040  79.296 117.933  0.00  0.00     0.382 C 
ATOM     23  O   LIG d   1     -10.239  79.371 118.297  0.00  0.00    -0.241 OA
ATOM     24  O   LIG d   1      -8.399  80.342 117.713  0.00  0.00    -0.241 OA
ENDBRANCH   3  22
TORSDOF 7
ENDMDL
MODEL 6
REMARK VINA RESULT:      -5.4      2.737      5.092
REMARK  7 active torsions:
REMARK  status: ('A' for Active; 'I' for Inactive)
REMARK    1  A    between atoms: C_2  and  C_3 
REMARK    2  A    between atoms: C_3  and  O_6 
REMARK    3  A    between atoms: C_3  and  C_4 
REMARK    4  A    between atoms: C_7  and  O_6 
REMARK    5  A    between atoms: C_9  and  C_10 
REMARK    6  A    between atoms: N_15  and  C_14 
REMARK    7  A    between atoms: N_20  and  C_19 
REMARK       I    between atoms: C_22  and  N_20 
ROOT
ATOM      1  C   LIG d   1      -6.425  76.894 116.971  0.00  0.00     0.161 C 
ATOM      2  C   LIG d   1      -7.067  78.087 117.343  0.00  0.00     0.016 C 
ATOM      3  C   LIG d   1      -8.449  78.170 117.630  0.00  0.00     0.038 C 
ATOM      4  C   LIG d   1      -9.260  77.028 117.712  0.00  0.00     0.028 C 
ATOM      5  C   LIG d   1      -8.763  75.870 116.851  0.00  0.00    -0.047 C 
ATOM      6  C   LIG d   1      -7.271  75.617 117.163  0.00  0.00     0.091 C 
ENDROOT
BRANCH   1   7
ATOM      7  O   LIG d   1      -5.172  76.775 117.672  0.00  0.00    -0.368 OA
BRANCH   7   8
ATOM      8  C   LIG d   1      -5.126  77.353 119.000  0.00  0.00     0.119 C 
BRANCH   8   9
ATOM      9  C   LIG d   1      -3.778  78.086 119.139  0.00  0.00     0.028 C 
ATOM     10  C   LIG d   1      -3.885  79.583 118.806  0.00  0.00     0.006 C 
ENDBRANCH   8   9
BRANCH   8  11
ATOM     11  C   LIG d   1      -5.113  76.268 120.080  0.00  0.00     0.028 C 
ATOM     12  C   LIG d   1      -4.716  76.810 121.463  0.00  0.00     0.006 C 
ENDBRANCH   8  11
ENDBRANCH   7   8
ENDBRANCH   1   7
BRANCH   6  13
ATOM     13  N   LIG d   1      -6.684  74.556 116.303  0.00  0.00    -0.311 N 
ATOM     14  C   LIG d   1      -6.118  73.452 116.786  0.00  0.00     0.210 C 
ATOM     15  C   LIG d   1      -5.558  72.497 115.727  0.00  0.00     0.109 C 
ATOM     16  O   LIG d   1      -6.055  73.157 117.989  0.00  0.00    -0.276 OA
ATOM     17  H   LIG d   1      -6.720  74.700 115.313  0.00  0.00     0.149 HD
ENDBRANCH   6  13
BRANCH   5  18
ATOM     18  N   LIG d   1      -9.619  74.703 117.137  0.00  0.00     0.381 N 
ATOM     19  H   LIG d   1     -10.515  74.828 116.709  0.00  0.00    -0.090 HD
ATOM     20  H   LIG d   1      -9.752  74.633 118.131  0.00  0.00    -0.090 HD
ATOM     21  H   LIG d   1      -9.191  73.873 116.792  0.00  0.00    -0.090 HD
ENDBRANCH   5  18
BRANCH   3  22
ATOM     22  C   LIG d   1      -9.043  79.412 117.800  0.00  0.00     0.382 C 
ATOM     23  O   LIG d   1     -10.185  79.496 118.312  0.00  0.00    -0.241 OA
ATOM     24  O   LIG d   1      -8.469  80.445 117.407  0.00  0.00    -0.241 OA
ENDBRANCH   3  22
TORSDOF 7
ENDMDL
MODEL 7
REMARK VINA RESULT:      -5.3      1.652      2.269
REMARK  7 active torsions:
REMARK  status: ('A' for Active; 'I' for Inactive)
REMARK    1  A    between atoms: C_2  and  C_3 
REMARK    2  A    between atoms: C_3  and  O_6 
REMARK    3  A    between atoms: C_3  and  C_4 
REMARK    4  A    between atoms: C_7  and  O_6 
REMARK    5  A    between atoms: C_9  and  C_10 
REMARK    6  A    between atoms: N_15  and  C_14 
REMARK    7  A    between atoms: N_20  and  C_19 
REMARK       I    between atoms: C_22  and  N_20 
ROOT
ATOM      1  C   LIG d   1      -6.605  76.750 115.793  0.00  0.00     0.161 C 
ATOM      2  C   LIG d   1      -7.873  76.319 116.217  0.00  0.00     0.016 C 
ATOM      3  C   LIG d   1      -8.129  75.017 116.706  0.00  0.00     0.038 C 
ATOM      4  C   LIG d   1      -7.096  74.100 116.947  0.00  0.00     0.028 C 
ATOM      5  C   LIG d   1      -5.873  74.317 116.062  0.00  0.00    -0.047 C 
ATOM      6  C   LIG d   1      -5.444  75.799 116.153  0.00  0.00     0.091 C 
ENDROOT
BRANCH   1   7
ATOM      7  O   LIG d   1      -6.344  78.074 116.301  0.00  0.00    -0.368 OA
BRANCH   7   8
ATOM      8  C   LIG d   1      -6.969  78.406 117.565  0.00  0.00     0.119 C 
BRANCH   8   9
ATOM      9  C   LIG d   1      -7.585  79.811 117.422  0.00  0.00     0.028 C 
ATOM     10  C   LIG d   1      -6.526  80.925 117.470  0.00  0.00     0.006 C 
ENDBRANCH   8   9
BRANCH   8  11
ATOM     11  C   LIG d   1      -5.932  78.531 118.685  0.00  0.00     0.028 C 
ATOM     12  C   LIG d   1      -5.750  77.226 119.476  0.00  0.00     0.006 C 
ENDBRANCH   8  11
ENDBRANCH   7   8
ENDBRANCH   1   7
BRANCH   6  13
ATOM     13  N   LIG d   1      -4.306  76.117 115.252  0.00  0.00    -0.311 N 
ATOM     14  C   LIG d   1      -3.134  76.577 115.686  0.00  0.00     0.210 C 
ATOM     15  C   LIG d   1      -2.104  76.859 114.588  0.00  0.00     0.109 C 
ATOM     16  O   LIG d   1      -2.839  76.749 116.878  0.00  0.00    -0.276 OA
ATOM     17  H   LIG d   1      -4.449  75.977 114.271  0.00  0.00     0.149 HD
ENDBRANCH   6  13
BRANCH   5  18
ATOM     18  N   LIG d   1      -4.825  73.383 116.513  0.00  0.00     0.381 N 
ATOM     19  H   LIG d   1      -5.191  72.778 117.220  0.00  0.00    -0.090 HD
ATOM     20  H   LIG d   1      -4.068  73.911 116.911  0.00  0.00    -0.090 HD
ATOM     21  H   LIG d   1      -4.494  72.844 115.743  0.00  0.00    -0.090 HD
ENDBRANCH   5  18
BRANCH   3  22
ATOM     22  C   LIG d   1      -9.436  74.609 116.921  0.00  0.00     0.382 C 
ATOM     23  O   LIG d   1      -9.680  73.412 117.205  0.00  0.00    -0.241 OA
ATOM     24  O   LIG d   1     -10.379  75.412 116.790  0.00  0.00    -0.241 OA
ENDBRANCH   3  22
TORSDOF 7
ENDMDL
MODEL 8
REMARK VINA RESULT:      -5.3      2.426      5.047
REMARK  7 active torsions:
REMARK  status: ('A' for Active; 'I' for Inactive)
REMARK    1  A    between atoms: C_2  and  C_3 
REMARK    2  A    between atoms: C_3  and  O_6 
REMARK    3  A    between atoms: C_3  and  C_4 
REMARK    4  A    between atoms: C_7  and  O_6 
REMARK    5  A    between atoms: C_9  and  C_10 
REMARK    6  A    between atoms: N_15  and  C_14 
REMARK    7  A    between atoms: N_20  and  C_19 
REMARK       I    between atoms: C_22  and  N_20 
ROOT
ATOM      1  C   LIG d   1      -6.258  76.889 117.048  0.00  0.00     0.161 C 
ATOM      2  C   LIG d   1      -7.610  76.690 117.373  0.00  0.00     0.016 C 
ATOM      3  C   LIG d   1      -8.501  77.745 117.676  0.00  0.00     0.038 C 
ATOM      4  C   LIG d   1      -8.135  79.091 117.527  0.00  0.00     0.028 C 
ATOM      5  C   LIG d   1      -6.638  79.333 117.690  0.00  0.00    -0.047 C 
ATOM      6  C   LIG d   1      -5.869  78.357 116.771  0.00  0.00     0.091 C 
ENDROOT
BRANCH   1   7
ATOM      7  O   LIG d   1      -5.896  76.056 115.929  0.00  0.00    -0.368 OA
BRANCH   7   8
ATOM      8  C   LIG d   1      -4.972  74.976 116.211  0.00  0.00     0.119 C 
BRANCH   8   9
ATOM      9  C   LIG d   1      -3.737  75.177 115.313  0.00  0.00     0.028 C 
ATOM     10  C   LIG d   1      -2.520  74.371 115.798  0.00  0.00     0.006 C 
ENDBRANCH   8   9
BRANCH   8  11
ATOM     11  C   LIG d   1      -5.556  73.621 115.801  0.00  0.00     0.028 C 
ATOM     12  C   LIG d   1      -6.432  72.993 116.896  0.00  0.00     0.006 C 
ENDBRANCH   8  11
ENDBRANCH   7   8
ENDBRANCH   1   7
BRANCH   6  13
ATOM     13  N   LIG d   1      -4.396  78.469 116.932  0.00  0.00    -0.311 N 
ATOM     14  C   LIG d   1      -3.585  78.906 115.969  0.00  0.00     0.210 C 
ATOM     15  C   LIG d   1      -2.097  78.925 116.336  0.00  0.00     0.109 C 
ATOM     16  O   LIG d   1      -3.959  79.310 114.858  0.00  0.00    -0.276 OA
ATOM     17  H   LIG d   1      -4.010  78.192 117.813  0.00  0.00     0.149 HD
ENDBRANCH   6  13
BRANCH   5  18
ATOM     18  N   LIG d   1      -6.379  80.750 117.373  0.00  0.00     0.381 N 
ATOM     19  H   LIG d   1      -5.513  80.834 116.879  0.00  0.00    -0.090 HD
ATOM     20  H   LIG d   1      -6.304  81.267 118.231  0.00  0.00    -0.090 HD
ATOM     21  H   LIG d   1      -7.122  81.118 116.820  0.00  0.00    -0.090 HD
ENDBRANCH   5  18
BRANCH   3  22
ATOM     22  C   LIG d   1      -9.763  77.457 118.174  0.00  0.00     0.382 C 
ATOM     23  O   LIG d   1     -10.469  78.373 118.660  0.00  0.00    -0.241 OA
ATOM     24  O   LIG d   1     -10.186  76.286 118.183  0.00  0.00    -0.241 OA
ENDBRANCH   3  22
TORSDOF 7
ENDMDL
MODEL 9
REMARK VINA RESULT:      -5.3      2.724      4.886
REMARK  7 active torsions:
REMARK  status: ('A' for Active; 'I' for Inactive)
REMARK    1  A    between atoms: C_2  and  C_3 
REMARK    2  A    between atoms: C_3  and  O_6 
REMARK    3  A    between atoms: C_3  and  C_4 
REMARK    4  A    between atoms: C_7  and  O_6 
REMARK    5  A    between atoms: C_9  and  C_10 
REMARK    6  A    between atoms: N_15  and  C_14 
REMARK    7  A    between atoms: N_20  and  C_19 
REMARK       I    between atoms: C_22  and  N_20 
ROOT
ATOM      1  C   LIG d   1      -5.432  76.666 115.601  0.00  0.00     0.161 C 
ATOM      2  C   LIG d   1      -4.389  75.760 115.346  0.00  0.00     0.016 C 
ATOM      3  C   LIG d   1      -3.190  75.721 116.095  0.00  0.00     0.038 C 
ATOM      4  C   LIG d   1      -3.016  76.492 117.254  0.00  0.00     0.028 C 
ATOM      5  C   LIG d   1      -3.833  77.780 117.254  0.00  0.00    -0.047 C 
ATOM      6  C   LIG d   1      -5.305  77.439 116.930  0.00  0.00     0.091 C 
ENDROOT
BRANCH   1   7
ATOM      7  O   LIG d   1      -6.699  75.983 115.537  0.00  0.00    -0.368 OA
BRANCH   7   8
ATOM      8  C   LIG d   1      -7.256  75.552 116.803  0.00  0.00     0.119 C 
BRANCH   8   9
ATOM      9  C   LIG d   1      -7.204  74.013 116.832  0.00  0.00     0.028 C 
ATOM     10  C   LIG d   1      -6.035  73.481 117.679  0.00  0.00     0.006 C 
ENDBRANCH   8   9
BRANCH   8  11
ATOM     11  C   LIG d   1      -8.741  75.910 116.909  0.00  0.00     0.028 C 
ATOM     12  C   LIG d   1      -9.641  74.674 117.070  0.00  0.00     0.006 C 
ENDBRANCH   8  11
ENDBRANCH   7   8
ENDBRANCH   1   7
BRANCH   6  13
ATOM     13  N   LIG d   1      -6.158  78.652 116.827  0.00  0.00    -0.311 N 
ATOM     14  C   LIG d   1      -6.888  79.123 117.837  0.00  0.00     0.210 C 
ATOM     15  C   LIG d   1      -7.711  80.374 117.512  0.00  0.00     0.109 C 
ATOM     16  O   LIG d   1      -6.908  78.642 118.980  0.00  0.00    -0.276 OA
ATOM     17  H   LIG d   1      -6.177  79.123 115.944  0.00  0.00     0.149 HD
ENDBRANCH   6  13
BRANCH   5  18
ATOM     18  N   LIG d   1      -3.663  78.415 118.574  0.00  0.00     0.381 N 
ATOM     19  H   LIG d   1      -2.694  78.598 118.740  0.00  0.00    -0.090 HD
ATOM     20  H   LIG d   1      -3.990  77.783 119.284  0.00  0.00    -0.090 HD
ATOM     21  H   LIG d   1      -4.181  79.266 118.613  0.00  0.00    -0.090 HD
ENDBRANCH   5  18
BRANCH   3  22
ATOM     22  C   LIG d   1      -2.135  74.933 115.662  0.00  0.00     0.382 C 
ATOM     23  O   LIG d   1      -1.679  74.032 116.407  0.00  0.00    -0.241 OA
ATOM     24  O   LIG d   1      -1.604  75.141 114.555  0.00  0.00    -0.241 OA
ENDBRANCH   3  22
TORSDOF 7
ENDMDL
