MODEL 1
REMARK VINA RESULT:      -5.8      0.000      0.000
REMARK  7 active torsions:
REMARK  status: ('A' for Active; 'I' for Inactive)
REMARK    1  A    between atoms: C_2  and  C_3 
REMARK    2  A    between atoms: C_3  and  O_6 
REMARK    3  A    between atoms: C_3  and  C_4 
REMARK    4  A    between atoms: C_7  and  O_6 
REMARK    5  A    between atoms: C_9  and  C_10 
REMARK    6  A    between atoms: N_15  and  C_14 
REMARK    7  A    between atoms: N_20  and  C_19 
REMARK       I    between atoms: C_22  and  N_20 
ROOT
ATOM      1  C   LIG d   1      -8.304  75.484 117.867  0.00  0.00     0.161 C 
ATOM      2  C   LIG d   1      -9.647  75.660 118.241  0.00  0.00     0.016 C 
ATOM      3  C   LIG d   1     -10.210  76.919 118.548  0.00  0.00     0.038 C 
ATOM      4  C   LIG d   1      -9.503  78.115 118.353  0.00  0.00     0.028 C 
ATOM      5  C   LIG d   1      -7.991  77.950 118.460  0.00  0.00    -0.047 C 
ATOM      6  C   LIG d   1      -7.548  76.788 117.541  0.00  0.00     0.091 C 
ENDROOT
BRANCH   1   7
ATOM      7  O   LIG d   1      -8.223  74.567 116.758  0.00  0.00    -0.368 OA
BRANCH   7   8
ATOM      8  C   LIG d   1      -8.055  73.168 117.098  0.00  0.00     0.119 C 
BRANCH   8   9
ATOM      9  C   LIG d   1      -7.019  72.576 116.124  0.00  0.00     0.028 C 
ATOM     10  C   LIG d   1      -6.098  73.650 115.521  0.00  0.00     0.006 C 
ENDBRANCH   8   9
BRANCH   8  11
ATOM     11  C   LIG d   1      -9.343  72.377 116.851  0.00  0.00     0.028 C 
ATOM     12  C   LIG d   1      -9.112  70.858 116.822  0.00  0.00     0.006 C 
ENDBRANCH   8  11
ENDBRANCH   7   8
ENDBRANCH   1   7
BRANCH   6  13
ATOM     13  N   LIG d   1      -6.093  76.504 117.649  0.00  0.00    -0.311 N 
ATOM     14  C   LIG d   1      -5.179  77.037 116.839  0.00  0.00     0.210 C 
ATOM     15  C   LIG d   1      -3.738  76.595 117.111  0.00  0.00     0.109 C 
ATOM     16  O   LIG d   1      -5.422  77.858 115.942  0.00  0.00    -0.276 OA
ATOM     17  H   LIG d   1      -5.804  75.872 118.370  0.00  0.00     0.149 HD
ENDBRANCH   6  13
BRANCH   5  18
ATOM     18  N   LIG d   1      -7.375  79.240 118.099  0.00  0.00     0.381 N 
ATOM     19  H   LIG d   1      -7.568  79.452 117.141  0.00  0.00    -0.090 HD
ATOM     20  H   LIG d   1      -6.379  79.168 118.212  0.00  0.00    -0.090 HD
ATOM     21  H   LIG d   1      -7.731  79.963 118.685  0.00  0.00    -0.090 HD
ENDBRANCH   5  18
BRANCH   3  22
ATOM     22  C   LIG d   1     -11.483  76.988 119.094  0.00  0.00     0.382 C 
ATOM     23  O   LIG d   1     -11.635  77.347 120.287  0.00  0.00    -0.241 OA
ATOM     24  O   LIG d   1     -12.477  76.653 118.423  0.00  0.00    -0.241 OA
ENDBRANCH   3  22
TORSDOF 7
ENDMDL
MODEL 2
REMARK VINA RESULT:      -5.7      2.086      4.979
REMARK  7 active torsions:
REMARK  status: ('A' for Active; 'I' for Inactive)
REMARK    1  A    between atoms: C_2  and  C_3 
REMARK    2  A    between atoms: C_3  and  O_6 
REMARK    3  A    between atoms: C_3  and  C_4 
REMARK    4  A    between atoms: C_7  and  O_6 
REMARK    5  A    between atoms: C_9  and  C_10 
REMARK    6  A    between atoms: N_15  and  C_14 
REMARK    7  A    between atoms: N_20  and  C_19 
REMARK       I    between atoms: C_22  and  N_20 
ROOT
ATOM      1  C   LIG d   1      -7.618  75.560 117.620  0.00  0.00     0.161 C 
ATOM      2  C   LIG d   1      -8.280  74.321 117.596  0.00  0.00     0.016 C 
ATOM      3  C   LIG d   1      -7.866  73.233 116.794  0.00  0.00     0.038 C 
ATOM      4  C   LIG d   1      -6.665  73.260 116.070  0.00  0.00     0.028 C 
ATOM      5  C   LIG d   1      -6.232  74.666 115.668  0.00  0.00    -0.047 C 
ATOM      6  C   LIG d   1      -6.242  75.571 116.921  0.00  0.00     0.091 C 
ENDROOT
BRANCH   1   7
ATOM      7  O   LIG d   1      -7.493  76.021 118.980  0.00  0.00    -0.368 OA
BRANCH   7   8
ATOM      8  C   LIG d   1      -8.315  77.157 119.346  0.00  0.00     0.119 C 
BRANCH   8   9
ATOM      9  C   LIG d   1      -9.578  76.609 120.039  0.00  0.00     0.028 C 
ATOM     10  C   LIG d   1     -10.841  76.781 119.179  0.00  0.00     0.006 C 
ENDBRANCH   8   9
BRANCH   8  11
ATOM     11  C   LIG d   1      -8.823  77.899 118.106  0.00  0.00     0.028 C 
ATOM     12  C   LIG d   1      -8.383  79.372 118.073  0.00  0.00     0.006 C 
ENDBRANCH   8  11
ENDBRANCH   7   8
ENDBRANCH   1   7
BRANCH   6  13
ATOM     13  N   LIG d   1      -5.912  76.985 116.601  0.00  0.00    -0.311 N 
ATOM     14  C   LIG d   1      -5.023  77.702 117.286  0.00  0.00     0.210 C 
ATOM     15  C   LIG d   1      -4.847  79.146 116.803  0.00  0.00     0.109 C 
ATOM     16  O   LIG d   1      -4.340  77.271 118.227  0.00  0.00    -0.276 OA
ATOM     17  H   LIG d   1      -6.397  77.404 115.833  0.00  0.00     0.149 HD
ENDBRANCH   6  13
BRANCH   5  18
ATOM     18  N   LIG d   1      -4.901  74.560 115.042  0.00  0.00     0.381 N 
ATOM     19  H   LIG d   1      -4.984  74.139 114.138  0.00  0.00    -0.090 HD
ATOM     20  H   LIG d   1      -4.319  73.971 115.612  0.00  0.00    -0.090 HD
ATOM     21  H   LIG d   1      -4.490  75.464 114.959  0.00  0.00    -0.090 HD
ENDBRANCH   5  18
BRANCH   3  22
ATOM     22  C   LIG d   1      -8.679  72.115 116.680  0.00  0.00     0.382 C 
ATOM     23  O   LIG d   1      -8.177  71.001 116.397  0.00  0.00    -0.241 OA
ATOM     24  O   LIG d   1      -9.914  72.216 116.813  0.00  0.00    -0.241 OA
ENDBRANCH   3  22
TORSDOF 7
ENDMDL
MODEL 3
REMARK VINA RESULT:      -5.7      2.815      4.727
REMARK  7 active torsions:
REMARK  status: ('A' for Active; 'I' for Inactive)
REMARK    1  A    between atoms: C_2  and  C_3 
REMARK    2  A    between atoms: C_3  and  O_6 
REMARK    3  A    between atoms: C_3  and  C_4 
REMARK    4  A    between atoms: C_7  and  O_6 
REMARK    5  A    between atoms: C_9  and  C_10 
REMARK    6  A    between atoms: N_15  and  C_14 
REMARK    7  A    between atoms: N_20  and  C_19 
REMARK       I    between atoms: C_22  and  N_20 
ROOT
ATOM      1  C   LIG d   1      -5.987  74.758 116.291  0.00  0.00     0.161 C 
ATOM      2  C   LIG d   1      -6.706  73.563 116.129  0.00  0.00     0.016 C 
ATOM      3  C   LIG d   1      -7.933  73.298 116.780  0.00  0.00     0.038 C 
ATOM      4  C   LIG d   1      -8.603  74.279 117.525  0.00  0.00     0.028 C 
ATOM      5  C   LIG d   1      -7.671  75.325 118.128  0.00  0.00    -0.047 C 
ATOM      6  C   LIG d   1      -6.757  75.884 117.013  0.00  0.00     0.091 C 
ENDROOT
BRANCH   1   7
ATOM      7  O   LIG d   1      -5.509  75.219 115.012  0.00  0.00    -0.368 OA
BRANCH   7   8
ATOM      8  C   LIG d   1      -4.076  75.159 114.807  0.00  0.00     0.119 C 
BRANCH   8   9
ATOM      9  C   LIG d   1      -3.461  74.462 116.037  0.00  0.00     0.028 C 
ATOM     10  C   LIG d   1      -1.926  74.552 116.056  0.00  0.00     0.006 C 
ENDBRANCH   8   9
BRANCH   8  11
ATOM     11  C   LIG d   1      -3.457  76.560 114.784  0.00  0.00     0.028 C 
ATOM     12  C   LIG d   1      -3.351  77.141 113.365  0.00  0.00     0.006 C 
ENDBRANCH   8  11
ENDBRANCH   7   8
ENDBRANCH   1   7
BRANCH   6  13
ATOM     13  N   LIG d   1      -5.756  76.852 117.533  0.00  0.00    -0.311 N 
ATOM     14  C   LIG d   1      -5.742  78.141 117.199  0.00  0.00     0.210 C 
ATOM     15  C   LIG d   1      -4.613  78.961 117.832  0.00  0.00     0.109 C 
ATOM     16  O   LIG d   1      -6.576  78.691 116.463  0.00  0.00    -0.276 OA
ATOM     17  H   LIG d   1      -5.061  76.498 118.160  0.00  0.00     0.149 HD
ENDBRANCH   6  13
BRANCH   5  18
ATOM     18  N   LIG d   1      -8.510  76.360 118.760  0.00  0.00     0.381 N 
ATOM     19  H   LIG d   1      -8.793  77.032 118.075  0.00  0.00    -0.090 HD
ATOM     20  H   LIG d   1      -7.970  76.833 119.462  0.00  0.00    -0.090 HD
ATOM     21  H   LIG d   1      -9.313  75.941 119.175  0.00  0.00    -0.090 HD
ENDBRANCH   5  18
BRANCH   3  22
ATOM     22  C   LIG d   1      -8.482  72.026 116.721  0.00  0.00     0.382 C 
ATOM     23  O   LIG d   1      -7.747  71.037 116.486  0.00  0.00    -0.241 OA
ATOM     24  O   LIG d   1      -9.709  71.861 116.855  0.00  0.00    -0.241 OA
ENDBRANCH   3  22
TORSDOF 7
ENDMDL
MODEL 4
REMARK VINA RESULT:      -5.3      3.758      7.271
REMARK  7 active torsions:
REMARK  status: ('A' for Active; 'I' for Inactive)
REMARK    1  A    between atoms: C_2  and  C_3 
REMARK    2  A    between atoms: C_3  and  O_6 
REMARK    3  A    between atoms: C_3  and  C_4 
REMARK    4  A    between atoms: C_7  and  O_6 
REMARK    5  A    between atoms: C_9  and  C_10 
REMARK    6  A    between atoms: N_15  and  C_14 
REMARK    7  A    between atoms: N_20  and  C_19 
REMARK       I    between atoms: C_22  and  N_20 
ROOT
ATOM      1  C   LIG d   1      -3.427  74.201 115.972  0.00  0.00     0.161 C 
ATOM      2  C   LIG d   1      -2.418  75.016 115.433  0.00  0.00     0.016 C 
ATOM      3  C   LIG d   1      -2.679  76.118 114.585  0.00  0.00     0.038 C 
ATOM      4  C   LIG d   1      -3.983  76.573 114.341  0.00  0.00     0.028 C 
ATOM      5  C   LIG d   1      -5.038  75.479 114.455  0.00  0.00    -0.047 C 
ATOM      6  C   LIG d   1      -4.860  74.749 115.807  0.00  0.00     0.091 C 
ENDROOT
BRANCH   1   7
ATOM      7  O   LIG d   1      -3.150  73.936 117.362  0.00  0.00    -0.368 OA
BRANCH   7   8
ATOM      8  C   LIG d   1      -1.913  74.484 117.880  0.00  0.00     0.119 C 
BRANCH   8   9
ATOM      9  C   LIG d   1      -1.120  73.322 118.510  0.00  0.00     0.028 C 
ATOM     10  C   LIG d   1      -1.682  72.901 119.878  0.00  0.00     0.006 C 
ENDBRANCH   8   9
BRANCH   8  11
ATOM     11  C   LIG d   1      -2.176  75.464 119.028  0.00  0.00     0.028 C 
ATOM     12  C   LIG d   1      -3.608  76.021 119.019  0.00  0.00     0.006 C 
ENDBRANCH   8  11
ENDBRANCH   7   8
ENDBRANCH   1   7
BRANCH   6  13
ATOM     13  N   LIG d   1      -5.799  73.608 115.963  0.00  0.00    -0.311 N 
ATOM     14  C   LIG d   1      -7.010  73.724 116.504  0.00  0.00     0.210 C 
ATOM     15  C   LIG d   1      -7.809  72.420 116.589  0.00  0.00     0.109 C 
ATOM     16  O   LIG d   1      -7.512  74.790 116.893  0.00  0.00    -0.276 OA
ATOM     17  H   LIG d   1      -5.485  72.712 115.645  0.00  0.00     0.149 HD
ENDBRANCH   6  13
BRANCH   5  18
ATOM     18  N   LIG d   1      -6.360  76.117 114.313  0.00  0.00     0.381 N 
ATOM     19  H   LIG d   1      -7.076  75.418 114.308  0.00  0.00    -0.090 HD
ATOM     20  H   LIG d   1      -6.392  76.607 113.436  0.00  0.00    -0.090 HD
ATOM     21  H   LIG d   1      -6.514  76.754 115.064  0.00  0.00    -0.090 HD
ENDBRANCH   5  18
BRANCH   3  22
ATOM     22  C   LIG d   1      -1.628  76.753 113.941  0.00  0.00     0.382 C 
ATOM     23  O   LIG d   1      -0.998  77.669 114.521  0.00  0.00    -0.241 OA
ATOM     24  O   LIG d   1      -1.330  76.450 112.769  0.00  0.00    -0.241 OA
ENDBRANCH   3  22
TORSDOF 7
ENDMDL
MODEL 5
REMARK VINA RESULT:      -5.2      2.445      6.608
REMARK  7 active torsions:
REMARK  status: ('A' for Active; 'I' for Inactive)
REMARK    1  A    between atoms: C_2  and  C_3 
REMARK    2  A    between atoms: C_3  and  O_6 
REMARK    3  A    between atoms: C_3  and  C_4 
REMARK    4  A    between atoms: C_7  and  O_6 
REMARK    5  A    between atoms: C_9  and  C_10 
REMARK    6  A    between atoms: N_15  and  C_14 
REMARK    7  A    between atoms: N_20  and  C_19 
REMARK       I    between atoms: C_22  and  N_20 
ROOT
ATOM      1  C   LIG d   1      -7.043  77.294 117.234  0.00  0.00     0.161 C 
ATOM      2  C   LIG d   1      -6.119  77.141 116.187  0.00  0.00     0.016 C 
ATOM      3  C   LIG d   1      -5.921  75.924 115.495  0.00  0.00     0.038 C 
ATOM      4  C   LIG d   1      -6.748  74.810 115.703  0.00  0.00     0.028 C 
ATOM      5  C   LIG d   1      -7.359  74.762 117.099  0.00  0.00    -0.047 C 
ATOM      6  C   LIG d   1      -8.032  76.121 117.400  0.00  0.00     0.091 C 
ENDROOT
BRANCH   1   7
ATOM      7  O   LIG d   1      -7.760  78.534 117.075  0.00  0.00    -0.368 OA
BRANCH   7   8
ATOM      8  C   LIG d   1      -7.532  79.537 118.096  0.00  0.00     0.119 C 
BRANCH   8   9
ATOM      9  C   LIG d   1      -8.781  80.438 118.148  0.00  0.00     0.028 C 
ATOM     10  C   LIG d   1      -8.541  81.811 117.499  0.00  0.00     0.006 C 
ENDBRANCH   8   9
BRANCH   8  11
ATOM     11  C   LIG d   1      -6.376  80.467 117.715  0.00  0.00     0.028 C 
ATOM     12  C   LIG d   1      -5.130  80.259 118.590  0.00  0.00     0.006 C 
ENDBRANCH   8  11
ENDBRANCH   7   8
ENDBRANCH   1   7
BRANCH   6  13
ATOM     13  N   LIG d   1      -8.582  76.188 118.779  0.00  0.00    -0.311 N 
ATOM     14  C   LIG d   1      -9.791  76.669 119.063  0.00  0.00     0.210 C 
ATOM     15  C   LIG d   1     -10.154  76.666 120.552  0.00  0.00     0.109 C 
ATOM     16  O   LIG d   1     -10.609  77.068 118.221  0.00  0.00    -0.276 OA
ATOM     17  H   LIG d   1      -7.996  75.856 119.520  0.00  0.00     0.149 HD
ENDBRANCH   6  13
BRANCH   5  18
ATOM     18  N   LIG d   1      -8.304  73.629 117.134  0.00  0.00     0.381 N 
ATOM     19  H   LIG d   1      -9.060  73.837 117.754  0.00  0.00    -0.090 HD
ATOM     20  H   LIG d   1      -7.825  72.817 117.481  0.00  0.00    -0.090 HD
ATOM     21  H   LIG d   1      -8.655  73.450 116.219  0.00  0.00    -0.090 HD
ENDBRANCH   5  18
BRANCH   3  22
ATOM     22  C   LIG d   1      -4.861  75.801 114.610  0.00  0.00     0.382 C 
ATOM     23  O   LIG d   1      -4.410  76.816 114.026  0.00  0.00    -0.241 OA
ATOM     24  O   LIG d   1      -4.377  74.681 114.355  0.00  0.00    -0.241 OA
ENDBRANCH   3  22
TORSDOF 7
ENDMDL
MODEL 6
REMARK VINA RESULT:      -5.2      4.927      8.035
REMARK  7 active torsions:
REMARK  status: ('A' for Active; 'I' for Inactive)
REMARK    1  A    between atoms: C_2  and  C_3 
REMARK    2  A    between atoms: C_3  and  O_6 
REMARK    3  A    between atoms: C_3  and  C_4 
REMARK    4  A    between atoms: C_7  and  O_6 
REMARK    5  A    between atoms: C_9  and  C_10 
REMARK    6  A    between atoms: N_15  and  C_14 
REMARK    7  A    between atoms: N_20  and  C_19 
REMARK       I    between atoms: C_22  and  N_20 
ROOT
ATOM      1  C   LIG d   1      -2.807  78.290 115.277  0.00  0.00     0.161 C 
ATOM      2  C   LIG d   1      -2.977  79.480 114.550  0.00  0.00     0.016 C 
ATOM      3  C   LIG d   1      -2.341  79.733 113.313  0.00  0.00     0.038 C 
ATOM      4  C   LIG d   1      -1.606  78.745 112.641  0.00  0.00     0.028 C 
ATOM      5  C   LIG d   1      -0.994  77.706 113.575  0.00  0.00    -0.047 C 
ATOM      6  C   LIG d   1      -2.098  77.157 114.507  0.00  0.00     0.091 C 
ENDROOT
BRANCH   1   7
ATOM      7  O   LIG d   1      -4.081  77.836 115.776  0.00  0.00    -0.368 OA
BRANCH   7   8
ATOM      8  C   LIG d   1      -4.185  77.678 117.212  0.00  0.00     0.119 C 
BRANCH   8   9
ATOM      9  C   LIG d   1      -5.373  76.737 117.490  0.00  0.00     0.028 C 
ATOM     10  C   LIG d   1      -5.958  76.135 116.202  0.00  0.00     0.006 C 
ENDBRANCH   8   9
BRANCH   8  11
ATOM     11  C   LIG d   1      -4.547  79.001 117.894  0.00  0.00     0.028 C 
ATOM     12  C   LIG d   1      -5.707  79.731 117.199  0.00  0.00     0.006 C 
ENDBRANCH   8  11
ENDBRANCH   7   8
ENDBRANCH   1   7
BRANCH   6  13
ATOM     13  N   LIG d   1      -1.567  76.196 115.509  0.00  0.00    -0.311 N 
ATOM     14  C   LIG d   1      -2.068  74.976 115.691  0.00  0.00     0.210 C 
ATOM     15  C   LIG d   1      -1.386  74.154 116.790  0.00  0.00     0.109 C 
ATOM     16  O   LIG d   1      -2.991  74.483 115.025  0.00  0.00    -0.276 OA
ATOM     17  H   LIG d   1      -0.797  76.502 116.072  0.00  0.00     0.149 HD
ENDBRANCH   6  13
BRANCH   5  18
ATOM     18  N   LIG d   1      -0.374  76.663 112.736  0.00  0.00     0.381 N 
ATOM     19  H   LIG d   1       0.048  77.082 111.931  0.00  0.00    -0.090 HD
ATOM     20  H   LIG d   1      -1.089  76.030 112.423  0.00  0.00    -0.090 HD
ATOM     21  H   LIG d   1       0.312  76.167 113.260  0.00  0.00    -0.090 HD
ENDBRANCH   5  18
BRANCH   3  22
ATOM     22  C   LIG d   1      -2.405  81.000 112.754  0.00  0.00     0.382 C 
ATOM     23  O   LIG d   1      -1.365  81.544 112.311  0.00  0.00    -0.241 OA
ATOM     24  O   LIG d   1      -3.482  81.625 112.727  0.00  0.00    -0.241 OA
ENDBRANCH   3  22
TORSDOF 7
ENDMDL
MODEL 7
REMARK VINA RESULT:      -5.0     11.369     13.814
REMARK  7 active torsions:
REMARK  status: ('A' for Active; 'I' for Inactive)
REMARK    1  A    between atoms: C_2  and  C_3 
REMARK    2  A    between atoms: C_3  and  O_6 
REMARK    3  A    between atoms: C_3  and  C_4 
REMARK    4  A    between atoms: C_7  and  O_6 
REMARK    5  A    between atoms: C_9  and  C_10 
REMARK    6  A    between atoms: N_15  and  C_14 
REMARK    7  A    between atoms: N_20  and  C_19 
REMARK       I    between atoms: C_22  and  N_20 
ROOT
ATOM      1  C   LIG d   1     -15.388  65.893 116.356  0.00  0.00     0.161 C 
ATOM      2  C   LIG d   1     -14.525  66.403 117.340  0.00  0.00     0.016 C 
ATOM      3  C   LIG d   1     -14.231  65.725 118.545  0.00  0.00     0.038 C 
ATOM      4  C   LIG d   1     -14.666  64.412 118.782  0.00  0.00     0.028 C 
ATOM      5  C   LIG d   1     -15.950  64.057 118.041  0.00  0.00    -0.047 C 
ATOM      6  C   LIG d   1     -15.783  64.414 116.547  0.00  0.00     0.091 C 
ENDROOT
BRANCH   1   7
ATOM      7  O   LIG d   1     -14.812  66.093 115.050  0.00  0.00    -0.368 OA
BRANCH   7   8
ATOM      8  C   LIG d   1     -15.444  67.102 114.223  0.00  0.00     0.119 C 
BRANCH   8   9
ATOM      9  C   LIG d   1     -15.446  66.577 112.774  0.00  0.00     0.028 C 
ATOM     10  C   LIG d   1     -16.459  65.439 112.563  0.00  0.00     0.006 C 
ENDBRANCH   8   9
BRANCH   8  11
ATOM     11  C   LIG d   1     -14.617  68.390 114.187  0.00  0.00     0.028 C 
ATOM     12  C   LIG d   1     -14.350  68.887 112.757  0.00  0.00     0.006 C 
ENDBRANCH   8  11
ENDBRANCH   7   8
ENDBRANCH   1   7
BRANCH   6  13
ATOM     13  N   LIG d   1     -17.025  64.176 115.765  0.00  0.00    -0.311 N 
ATOM     14  C   LIG d   1     -17.325  63.006 115.204  0.00  0.00     0.210 C 
ATOM     15  C   LIG d   1     -18.644  62.981 114.425  0.00  0.00     0.109 C 
ATOM     16  O   LIG d   1     -16.640  61.977 115.305  0.00  0.00    -0.276 OA
ATOM     17  H   LIG d   1     -17.652  64.949 115.659  0.00  0.00     0.149 HD
ENDBRANCH   6  13
BRANCH   5  18
ATOM     18  N   LIG d   1     -16.213  62.623 118.268  0.00  0.00     0.381 N 
ATOM     19  H   LIG d   1     -17.082  62.366 117.843  0.00  0.00    -0.090 HD
ATOM     20  H   LIG d   1     -16.285  62.457 119.256  0.00  0.00    -0.090 HD
ATOM     21  H   LIG d   1     -15.473  62.076 117.885  0.00  0.00    -0.090 HD
ENDBRANCH   5  18
BRANCH   3  22
ATOM     22  C   LIG d   1     -13.527  66.376 119.547  0.00  0.00     0.382 C 
ATOM     23  O   LIG d   1     -13.146  67.559 119.377  0.00  0.00    -0.241 OA
ATOM     24  O   LIG d   1     -13.231  65.781 120.600  0.00  0.00    -0.241 OA
ENDBRANCH   3  22
TORSDOF 7
ENDMDL
MODEL 8
REMARK VINA RESULT:      -4.9      3.143      5.581
REMARK  7 active torsions:
REMARK  status: ('A' for Active; 'I' for Inactive)
REMARK    1  A    between atoms: C_2  and  C_3 
REMARK    2  A    between atoms: C_3  and  O_6 
REMARK    3  A    between atoms: C_3  and  C_4 
REMARK    4  A    between atoms: C_7  and  O_6 
REMARK    5  A    between atoms: C_9  and  C_10 
REMARK    6  A    between atoms: N_15  and  C_14 
REMARK    7  A    between atoms: N_20  and  C_19 
REMARK       I    between atoms: C_22  and  N_20 
ROOT
ATOM      1  C   LIG d   1      -5.842  76.781 115.402  0.00  0.00     0.161 C 
ATOM      2  C   LIG d   1      -6.689  75.739 115.815  0.00  0.00     0.016 C 
ATOM      3  C   LIG d   1      -6.232  74.432 116.101  0.00  0.00     0.038 C 
ATOM      4  C   LIG d   1      -4.866  74.116 116.140  0.00  0.00     0.028 C 
ATOM      5  C   LIG d   1      -4.013  75.004 115.240  0.00  0.00    -0.047 C 
ATOM      6  C   LIG d   1      -4.335  76.484 115.546  0.00  0.00     0.091 C 
ENDROOT
BRANCH   1   7
ATOM      7  O   LIG d   1      -6.183  77.994 116.102  0.00  0.00    -0.368 OA
BRANCH   7   8
ATOM      8  C   LIG d   1      -6.737  77.829 117.430  0.00  0.00     0.119 C 
BRANCH   8   9
ATOM      9  C   LIG d   1      -7.781  78.944 117.638  0.00  0.00     0.028 C 
ATOM     10  C   LIG d   1      -7.149  80.346 117.646  0.00  0.00     0.006 C 
ENDBRANCH   8   9
BRANCH   8  11
ATOM     11  C   LIG d   1      -5.676  78.061 118.509  0.00  0.00     0.028 C 
ATOM     12  C   LIG d   1      -5.199  76.756 119.167  0.00  0.00     0.006 C 
ENDBRANCH   8  11
ENDBRANCH   7   8
ENDBRANCH   1   7
BRANCH   6  13
ATOM     13  N   LIG d   1      -3.605  77.420 114.651  0.00  0.00    -0.311 N 
ATOM     14  C   LIG d   1      -2.861  78.430 115.096  0.00  0.00     0.210 C 
ATOM     15  C   LIG d   1      -2.210  79.285 114.004  0.00  0.00     0.109 C 
ATOM     16  O   LIG d   1      -2.651  78.681 116.293  0.00  0.00    -0.276 OA
ATOM     17  H   LIG d   1      -3.694  77.270 113.665  0.00  0.00     0.149 HD
ENDBRANCH   6  13
BRANCH   5  18
ATOM     18  N   LIG d   1      -2.600  74.657 115.482  0.00  0.00     0.381 N 
ATOM     19  H   LIG d   1      -2.172  75.359 116.052  0.00  0.00    -0.090 HD
ATOM     20  H   LIG d   1      -2.117  74.628 114.601  0.00  0.00    -0.090 HD
ATOM     21  H   LIG d   1      -2.539  73.770 115.932  0.00  0.00    -0.090 HD
ENDBRANCH   5  18
BRANCH   3  22
ATOM     22  C   LIG d   1      -7.150  73.414 116.314  0.00  0.00     0.382 C 
ATOM     23  O   LIG d   1      -8.166  73.624 117.018  0.00  0.00    -0.241 OA
ATOM     24  O   LIG d   1      -6.952  72.277 115.846  0.00  0.00    -0.241 OA
ENDBRANCH   3  22
TORSDOF 7
ENDMDL
MODEL 9
REMARK VINA RESULT:      -4.9     11.047     14.133
REMARK  7 active torsions:
REMARK  status: ('A' for Active; 'I' for Inactive)
REMARK    1  A    between atoms: C_2  and  C_3 
REMARK    2  A    between atoms: C_3  and  O_6 
REMARK    3  A    between atoms: C_3  and  C_4 
REMARK    4  A    between atoms: C_7  and  O_6 
REMARK    5  A    between atoms: C_9  and  C_10 
REMARK    6  A    between atoms: N_15  and  C_14 
REMARK    7  A    between atoms: N_20  and  C_19 
REMARK       I    between atoms: C_22  and  N_20 
ROOT
ATOM      1  C   LIG d   1     -16.188  65.241 114.456  0.00  0.00     0.161 C 
ATOM      2  C   LIG d   1     -15.821  66.218 113.515  0.00  0.00     0.016 C 
ATOM      3  C   LIG d   1     -15.106  67.391 113.850  0.00  0.00     0.038 C 
ATOM      4  C   LIG d   1     -14.574  67.594 115.132  0.00  0.00     0.028 C 
ATOM      5  C   LIG d   1     -15.352  66.878 116.231  0.00  0.00    -0.047 C 
ATOM      6  C   LIG d   1     -15.521  65.392 115.839  0.00  0.00     0.091 C 
ENDROOT
BRANCH   1   7
ATOM      7  O   LIG d   1     -15.937  63.927 113.919  0.00  0.00    -0.368 OA
BRANCH   7   8
ATOM      8  C   LIG d   1     -17.095  63.208 113.428  0.00  0.00     0.119 C 
BRANCH   8   9
ATOM      9  C   LIG d   1     -18.143  64.253 113.002  0.00  0.00     0.028 C 
ATOM     10  C   LIG d   1     -19.361  63.616 112.311  0.00  0.00     0.006 C 
ENDBRANCH   8   9
BRANCH   8  11
ATOM     11  C   LIG d   1     -17.761  62.396 114.543  0.00  0.00     0.028 C 
ATOM     12  C   LIG d   1     -17.274  60.939 114.592  0.00  0.00     0.006 C 
ENDBRANCH   8  11
ENDBRANCH   7   8
ENDBRANCH   1   7
BRANCH   6  13
ATOM     13  N   LIG d   1     -16.343  64.637 116.820  0.00  0.00    -0.311 N 
ATOM     14  C   LIG d   1     -15.963  63.480 117.360  0.00  0.00     0.210 C 
ATOM     15  C   LIG d   1     -16.969  62.859 118.333  0.00  0.00     0.109 C 
ATOM     16  O   LIG d   1     -14.873  62.926 117.149  0.00  0.00    -0.276 OA
ATOM     17  H   LIG d   1     -17.229  65.031 117.071  0.00  0.00     0.149 HD
ENDBRANCH   6  13
BRANCH   5  18
ATOM     18  N   LIG d   1     -14.611  67.062 117.493  0.00  0.00     0.381 N 
ATOM     19  H   LIG d   1     -14.992  66.465 118.200  0.00  0.00    -0.090 HD
ATOM     20  H   LIG d   1     -14.716  68.015 117.796  0.00  0.00    -0.090 HD
ATOM     21  H   LIG d   1     -13.647  66.853 117.357  0.00  0.00    -0.090 HD
ENDBRANCH   5  18
BRANCH   3  22
ATOM     22  C   LIG d   1     -14.950  68.394 112.906  0.00  0.00     0.382 C 
ATOM     23  O   LIG d   1     -14.056  69.262 113.054  0.00  0.00    -0.241 OA
ATOM     24  O   LIG d   1     -15.721  68.468 111.930  0.00  0.00    -0.241 OA
ENDBRANCH   3  22
TORSDOF 7
ENDMDL
