MODEL 1
REMARK VINA RESULT:      -5.1      0.000      0.000
REMARK  7 active torsions:
REMARK  status: ('A' for Active; 'I' for Inactive)
REMARK    1  A    between atoms: C_2  and  C_3 
REMARK    2  A    between atoms: C_3  and  O_6 
REMARK    3  A    between atoms: C_3  and  C_4 
REMARK    4  A    between atoms: C_7  and  O_6 
REMARK    5  A    between atoms: C_9  and  C_10 
REMARK    6  A    between atoms: N_15  and  C_14 
REMARK    7  A    between atoms: N_20  and  C_19 
REMARK       I    between atoms: C_22  and  N_20 
ROOT
ATOM      1  C   LIG d   1      -9.960  76.930 119.504  0.00  0.00     0.161 C 
ATOM      2  C   LIG d   1     -10.720  76.184 120.421  0.00  0.00     0.016 C 
ATOM      3  C   LIG d   1     -11.515  76.770 121.432  0.00  0.00     0.038 C 
ATOM      4  C   LIG d   1     -11.726  78.155 121.500  0.00  0.00     0.028 C 
ATOM      5  C   LIG d   1     -10.580  78.972 120.910  0.00  0.00    -0.047 C 
ATOM      6  C   LIG d   1     -10.265  78.443 119.492  0.00  0.00     0.091 C 
ENDROOT
BRANCH   1   7
ATOM      7  O   LIG d   1     -10.111  76.378 118.181  0.00  0.00    -0.368 OA
BRANCH   7   8
ATOM      8  C   LIG d   1      -9.836  74.962 118.046  0.00  0.00     0.119 C 
BRANCH   8   9
ATOM      9  C   LIG d   1      -8.513  74.820 117.268  0.00  0.00     0.028 C 
ATOM     10  C   LIG d   1      -7.910  73.410 117.387  0.00  0.00     0.006 C 
ENDBRANCH   8   9
BRANCH   8  11
ATOM     11  C   LIG d   1     -10.892  74.269 117.180  0.00  0.00     0.028 C 
ATOM     12  C   LIG d   1     -12.303  74.349 117.784  0.00  0.00     0.006 C 
ENDBRANCH   8  11
ENDBRANCH   7   8
ENDBRANCH   1   7
BRANCH   6  13
ATOM     13  N   LIG d   1      -9.101  79.131 118.877  0.00  0.00    -0.311 N 
ATOM     14  C   LIG d   1      -9.210  80.223 118.122  0.00  0.00     0.210 C 
ATOM     15  C   LIG d   1      -7.887  80.762 117.569  0.00  0.00     0.109 C 
ATOM     16  O   LIG d   1     -10.273  80.816 117.885  0.00  0.00    -0.276 OA
ATOM     17  H   LIG d   1      -8.196  78.735 119.043  0.00  0.00     0.149 HD
ENDBRANCH   6  13
BRANCH   5  18
ATOM     18  N   LIG d   1     -10.991  80.388 120.921  0.00  0.00     0.381 N 
ATOM     19  H   LIG d   1     -10.182  80.976 120.886  0.00  0.00    -0.090 HD
ATOM     20  H   LIG d   1     -11.482  80.578 121.777  0.00  0.00    -0.090 HD
ATOM     21  H   LIG d   1     -11.582  80.578 120.141  0.00  0.00    -0.090 HD
ENDBRANCH   5  18
BRANCH   3  22
ATOM     22  C   LIG d   1     -12.078  75.969 122.414  0.00  0.00     0.382 C 
ATOM     23  O   LIG d   1     -11.340  75.314 123.188  0.00  0.00    -0.241 OA
ATOM     24  O   LIG d   1     -13.316  75.860 122.507  0.00  0.00    -0.241 OA
ENDBRANCH   3  22
TORSDOF 7
ENDMDL
MODEL 2
REMARK VINA RESULT:      -4.9     18.503     19.998
REMARK  7 active torsions:
REMARK  status: ('A' for Active; 'I' for Inactive)
REMARK    1  A    between atoms: C_2  and  C_3 
REMARK    2  A    between atoms: C_3  and  O_6 
REMARK    3  A    between atoms: C_3  and  C_4 
REMARK    4  A    between atoms: C_7  and  O_6 
REMARK    5  A    between atoms: C_9  and  C_10 
REMARK    6  A    between atoms: N_15  and  C_14 
REMARK    7  A    between atoms: N_20  and  C_19 
REMARK       I    between atoms: C_22  and  N_20 
ROOT
ATOM      1  C   LIG d   1      -0.756  59.629 121.438  0.00  0.00     0.161 C 
ATOM      2  C   LIG d   1      -1.547  58.953 120.495  0.00  0.00     0.016 C 
ATOM      3  C   LIG d   1      -2.960  58.937 120.531  0.00  0.00     0.038 C 
ATOM      4  C   LIG d   1      -3.687  59.728 121.434  0.00  0.00     0.028 C 
ATOM      5  C   LIG d   1      -2.929  60.029 122.722  0.00  0.00    -0.047 C 
ATOM      6  C   LIG d   1      -1.533  60.588 122.365  0.00  0.00     0.091 C 
ENDROOT
BRANCH   1   7
ATOM      7  O   LIG d   1       0.310  60.332 120.769  0.00  0.00    -0.368 OA
BRANCH   7   8
ATOM      8  C   LIG d   1       1.271  59.510 120.063  0.00  0.00     0.119 C 
BRANCH   8   9
ATOM      9  C   LIG d   1       2.643  59.724 120.732  0.00  0.00     0.028 C 
ATOM     10  C   LIG d   1       2.540  60.534 122.035  0.00  0.00     0.006 C 
ENDBRANCH   8   9
BRANCH   8  11
ATOM     11  C   LIG d   1       1.448  59.978 118.616  0.00  0.00     0.028 C 
ATOM     12  C   LIG d   1       2.909  60.308 118.271  0.00  0.00     0.006 C 
ENDBRANCH   8  11
ENDBRANCH   7   8
ENDBRANCH   1   7
BRANCH   6  13
ATOM     13  N   LIG d   1      -0.694  60.830 123.567  0.00  0.00    -0.311 N 
ATOM     14  C   LIG d   1      -0.597  62.015 124.168  0.00  0.00     0.210 C 
ATOM     15  C   LIG d   1       0.338  62.051 125.380  0.00  0.00     0.109 C 
ATOM     16  O   LIG d   1      -1.222  63.031 123.830  0.00  0.00    -0.276 OA
ATOM     17  H   LIG d   1      -0.177  60.051 123.927  0.00  0.00     0.149 HD
ENDBRANCH   6  13
BRANCH   5  18
ATOM     18  N   LIG d   1      -3.745  60.972 123.510  0.00  0.00     0.381 N 
ATOM     19  H   LIG d   1      -4.070  60.524 124.343  0.00  0.00    -0.090 HD
ATOM     20  H   LIG d   1      -4.544  61.243 122.965  0.00  0.00    -0.090 HD
ATOM     21  H   LIG d   1      -3.205  61.776 123.745  0.00  0.00    -0.090 HD
ENDBRANCH   5  18
BRANCH   3  22
ATOM     22  C   LIG d   1      -3.660  58.093 119.683  0.00  0.00     0.382 C 
ATOM     23  O   LIG d   1      -3.487  56.852 119.751  0.00  0.00    -0.241 OA
ATOM     24  O   LIG d   1      -4.430  58.559 118.822  0.00  0.00    -0.241 OA
ENDBRANCH   3  22
TORSDOF 7
ENDMDL
MODEL 3
REMARK VINA RESULT:      -4.7      1.948      2.748
REMARK  7 active torsions:
REMARK  status: ('A' for Active; 'I' for Inactive)
REMARK    1  A    between atoms: C_2  and  C_3 
REMARK    2  A    between atoms: C_3  and  O_6 
REMARK    3  A    between atoms: C_3  and  C_4 
REMARK    4  A    between atoms: C_7  and  O_6 
REMARK    5  A    between atoms: C_9  and  C_10 
REMARK    6  A    between atoms: N_15  and  C_14 
REMARK    7  A    between atoms: N_20  and  C_19 
REMARK       I    between atoms: C_22  and  N_20 
ROOT
ATOM      1  C   LIG d   1      -9.384  76.048 119.999  0.00  0.00     0.161 C 
ATOM      2  C   LIG d   1      -9.309  75.094 121.028  0.00  0.00     0.016 C 
ATOM      3  C   LIG d   1      -9.143  75.431 122.391  0.00  0.00     0.038 C 
ATOM      4  C   LIG d   1      -9.193  76.759 122.838  0.00  0.00     0.028 C 
ATOM      5  C   LIG d   1      -8.761  77.770 121.781  0.00  0.00    -0.047 C 
ATOM      6  C   LIG d   1      -9.552  77.504 120.479  0.00  0.00     0.091 C 
ENDROOT
BRANCH   1   7
ATOM      7  O   LIG d   1     -10.440  75.697 119.084  0.00  0.00    -0.368 OA
BRANCH   7   8
ATOM      8  C   LIG d   1     -10.048  75.500 117.703  0.00  0.00     0.119 C 
BRANCH   8   9
ATOM      9  C   LIG d   1     -10.744  74.220 117.202  0.00  0.00     0.028 C 
ATOM     10  C   LIG d   1     -12.223  74.155 117.616  0.00  0.00     0.006 C 
ENDBRANCH   8   9
BRANCH   8  11
ATOM     11  C   LIG d   1      -8.547  75.219 117.585  0.00  0.00     0.028 C 
ATOM     12  C   LIG d   1      -8.234  73.728 117.382  0.00  0.00     0.006 C 
ENDBRANCH   8  11
ENDBRANCH   7   8
ENDBRANCH   1   7
BRANCH   6  13
ATOM     13  N   LIG d   1      -9.130  78.396 119.368  0.00  0.00    -0.311 N 
ATOM     14  C   LIG d   1      -9.712  79.564 119.104  0.00  0.00     0.210 C 
ATOM     15  C   LIG d   1      -9.136  80.317 117.900  0.00  0.00     0.109 C 
ATOM     16  O   LIG d   1     -10.630  80.064 119.771  0.00  0.00    -0.276 OA
ATOM     17  H   LIG d   1      -8.371  78.082 118.794  0.00  0.00     0.149 HD
ENDBRANCH   6  13
BRANCH   5  18
ATOM     18  N   LIG d   1      -8.993  79.119 122.333  0.00  0.00     0.381 N 
ATOM     19  H   LIG d   1      -8.227  79.717 122.098  0.00  0.00    -0.090 HD
ATOM     20  H   LIG d   1      -9.048  79.055 123.334  0.00  0.00    -0.090 HD
ATOM     21  H   LIG d   1      -9.841  79.495 121.969  0.00  0.00    -0.090 HD
ENDBRANCH   5  18
BRANCH   3  22
ATOM     22  C   LIG d   1      -8.884  74.433 123.319  0.00  0.00     0.382 C 
ATOM     23  O   LIG d   1      -9.744  73.547 123.542  0.00  0.00    -0.241 OA
ATOM     24  O   LIG d   1      -7.821  74.434 123.967  0.00  0.00    -0.241 OA
ENDBRANCH   3  22
TORSDOF 7
ENDMDL
MODEL 4
REMARK VINA RESULT:      -4.7      1.626      5.044
REMARK  7 active torsions:
REMARK  status: ('A' for Active; 'I' for Inactive)
REMARK    1  A    between atoms: C_2  and  C_3 
REMARK    2  A    between atoms: C_3  and  O_6 
REMARK    3  A    between atoms: C_3  and  C_4 
REMARK    4  A    between atoms: C_7  and  O_6 
REMARK    5  A    between atoms: C_9  and  C_10 
REMARK    6  A    between atoms: N_15  and  C_14 
REMARK    7  A    between atoms: N_20  and  C_19 
REMARK       I    between atoms: C_22  and  N_20 
ROOT
ATOM      1  C   LIG d   1     -10.175  78.330 119.062  0.00  0.00     0.161 C 
ATOM      2  C   LIG d   1      -9.485  79.217 118.219  0.00  0.00     0.016 C 
ATOM      3  C   LIG d   1      -9.054  80.501 118.626  0.00  0.00     0.038 C 
ATOM      4  C   LIG d   1      -9.151  80.927 119.959  0.00  0.00     0.028 C 
ATOM      5  C   LIG d   1     -10.293  80.266 120.724  0.00  0.00    -0.047 C 
ATOM      6  C   LIG d   1     -10.192  78.734 120.551  0.00  0.00     0.091 C 
ENDROOT
BRANCH   1   7
ATOM      7  O   LIG d   1      -9.643  76.999 118.910  0.00  0.00    -0.368 OA
BRANCH   7   8
ATOM      8  C   LIG d   1     -10.311  76.152 117.943  0.00  0.00     0.119 C 
BRANCH   8   9
ATOM      9  C   LIG d   1     -11.199  75.166 118.726  0.00  0.00     0.028 C 
ATOM     10  C   LIG d   1     -12.686  75.558 118.688  0.00  0.00     0.006 C 
ENDBRANCH   8   9
BRANCH   8  11
ATOM     11  C   LIG d   1      -9.310  75.279 117.181  0.00  0.00     0.028 C 
ATOM     12  C   LIG d   1      -8.297  74.587 118.107  0.00  0.00     0.006 C 
ENDBRANCH   8  11
ENDBRANCH   7   8
ENDBRANCH   1   7
BRANCH   6  13
ATOM     13  N   LIG d   1     -11.319  78.014 121.199  0.00  0.00    -0.311 N 
ATOM     14  C   LIG d   1     -11.162  76.914 121.933  0.00  0.00     0.210 C 
ATOM     15  C   LIG d   1     -12.458  76.320 122.493  0.00  0.00     0.109 C 
ATOM     16  O   LIG d   1     -10.069  76.392 122.199  0.00  0.00    -0.276 OA
ATOM     17  H   LIG d   1     -12.238  78.387 121.060  0.00  0.00     0.149 HD
ENDBRANCH   6  13
BRANCH   5  18
ATOM     18  N   LIG d   1     -10.193  80.697 122.132  0.00  0.00     0.381 N 
ATOM     19  H   LIG d   1     -11.023  81.190 122.395  0.00  0.00    -0.090 HD
ATOM     20  H   LIG d   1      -9.411  81.321 122.226  0.00  0.00    -0.090 HD
ATOM     21  H   LIG d   1     -10.068  79.904 122.723  0.00  0.00    -0.090 HD
ENDBRANCH   5  18
BRANCH   3  22
ATOM     22  C   LIG d   1      -8.554  81.388 117.685  0.00  0.00     0.382 C 
ATOM     23  O   LIG d   1      -7.422  81.195 117.180  0.00  0.00    -0.241 OA
ATOM     24  O   LIG d   1      -9.202  82.404 117.368  0.00  0.00    -0.241 OA
ENDBRANCH   3  22
TORSDOF 7
ENDMDL
MODEL 5
REMARK VINA RESULT:      -4.6      2.323      4.630
REMARK  7 active torsions:
REMARK  status: ('A' for Active; 'I' for Inactive)
REMARK    1  A    between atoms: C_2  and  C_3 
REMARK    2  A    between atoms: C_3  and  O_6 
REMARK    3  A    between atoms: C_3  and  C_4 
REMARK    4  A    between atoms: C_7  and  O_6 
REMARK    5  A    between atoms: C_9  and  C_10 
REMARK    6  A    between atoms: N_15  and  C_14 
REMARK    7  A    between atoms: N_20  and  C_19 
REMARK       I    between atoms: C_22  and  N_20 
ROOT
ATOM      1  C   LIG d   1     -10.111  78.173 119.080  0.00  0.00     0.161 C 
ATOM      2  C   LIG d   1     -10.354  77.049 118.273  0.00  0.00     0.016 C 
ATOM      3  C   LIG d   1     -11.106  75.931 118.703  0.00  0.00     0.038 C 
ATOM      4  C   LIG d   1     -11.798  75.927 119.923  0.00  0.00     0.028 C 
ATOM      5  C   LIG d   1     -11.168  76.830 120.979  0.00  0.00    -0.047 C 
ATOM      6  C   LIG d   1     -10.950  78.235 120.373  0.00  0.00     0.091 C 
ENDROOT
BRANCH   1   7
ATOM      7  O   LIG d   1     -10.291  79.376 118.308  0.00  0.00    -0.368 OA
BRANCH   7   8
ATOM      8  C   LIG d   1      -9.090  80.137 118.023  0.00  0.00     0.119 C 
BRANCH   8   9
ATOM      9  C   LIG d   1      -7.891  79.321 118.544  0.00  0.00     0.028 C 
ATOM     10  C   LIG d   1      -6.851  79.041 117.446  0.00  0.00     0.006 C 
ENDBRANCH   8   9
BRANCH   8  11
ATOM     11  C   LIG d   1      -9.062  81.449 118.813  0.00  0.00     0.028 C 
ATOM     12  C   LIG d   1      -9.384  82.674 117.943  0.00  0.00     0.006 C 
ENDBRANCH   8  11
ENDBRANCH   7   8
ENDBRANCH   1   7
BRANCH   6  13
ATOM     13  N   LIG d   1     -10.261  79.157 121.313  0.00  0.00    -0.311 N 
ATOM     14  C   LIG d   1     -10.833  80.245 121.824  0.00  0.00     0.210 C 
ATOM     15  C   LIG d   1      -9.940  81.068 122.757  0.00  0.00     0.109 C 
ATOM     16  O   LIG d   1     -12.007  80.590 121.619  0.00  0.00    -0.276 OA
ATOM     17  H   LIG d   1      -9.316  78.935 121.558  0.00  0.00     0.149 HD
ENDBRANCH   6  13
BRANCH   5  18
ATOM     18  N   LIG d   1     -12.065  76.838 122.150  0.00  0.00     0.381 N 
ATOM     19  H   LIG d   1     -11.937  75.999 122.680  0.00  0.00    -0.090 HD
ATOM     20  H   LIG d   1     -13.017  76.867 121.830  0.00  0.00    -0.090 HD
ATOM     21  H   LIG d   1     -11.874  77.632 122.720  0.00  0.00    -0.090 HD
ENDBRANCH   5  18
BRANCH   3  22
ATOM     22  C   LIG d   1     -11.138  74.784 117.924  0.00  0.00     0.382 C 
ATOM     23  O   LIG d   1     -10.080  74.342 117.415  0.00  0.00    -0.241 OA
ATOM     24  O   LIG d   1     -12.219  74.211 117.687  0.00  0.00    -0.241 OA
ENDBRANCH   3  22
TORSDOF 7
ENDMDL
MODEL 6
REMARK VINA RESULT:      -4.5     11.701     13.522
REMARK  7 active torsions:
REMARK  status: ('A' for Active; 'I' for Inactive)
REMARK    1  A    between atoms: C_2  and  C_3 
REMARK    2  A    between atoms: C_3  and  O_6 
REMARK    3  A    between atoms: C_3  and  C_4 
REMARK    4  A    between atoms: C_7  and  O_6 
REMARK    5  A    between atoms: C_9  and  C_10 
REMARK    6  A    between atoms: N_15  and  C_14 
REMARK    7  A    between atoms: N_20  and  C_19 
REMARK       I    between atoms: C_22  and  N_20 
ROOT
ATOM      1  C   LIG d   1     -14.011  64.541 119.931  0.00  0.00     0.161 C 
ATOM      2  C   LIG d   1     -12.877  64.336 120.735  0.00  0.00     0.016 C 
ATOM      3  C   LIG d   1     -12.514  65.192 121.800  0.00  0.00     0.038 C 
ATOM      4  C   LIG d   1     -13.348  66.234 122.232  0.00  0.00     0.028 C 
ATOM      5  C   LIG d   1     -14.249  66.784 121.131  0.00  0.00    -0.047 C 
ATOM      6  C   LIG d   1     -14.993  65.608 120.457  0.00  0.00     0.091 C 
ENDROOT
BRANCH   1   7
ATOM      7  O   LIG d   1     -14.695  63.290 119.723  0.00  0.00    -0.368 OA
BRANCH   7   8
ATOM      8  C   LIG d   1     -14.312  62.542 118.543  0.00  0.00     0.119 C 
BRANCH   8   9
ATOM      9  C   LIG d   1     -15.348  62.849 117.444  0.00  0.00     0.028 C 
ATOM     10  C   LIG d   1     -16.793  62.809 117.971  0.00  0.00     0.006 C 
ENDBRANCH   8   9
BRANCH   8  11
ATOM     11  C   LIG d   1     -14.411  61.032 118.783  0.00  0.00     0.028 C 
ATOM     12  C   LIG d   1     -13.670  60.581 120.051  0.00  0.00     0.006 C 
ENDBRANCH   8  11
ENDBRANCH   7   8
ENDBRANCH   1   7
BRANCH   6  13
ATOM     13  N   LIG d   1     -15.832  66.050 119.313  0.00  0.00    -0.311 N 
ATOM     14  C   LIG d   1     -17.124  66.354 119.426  0.00  0.00     0.210 C 
ATOM     15  C   LIG d   1     -17.808  66.768 118.119  0.00  0.00     0.109 C 
ATOM     16  O   LIG d   1     -17.761  66.351 120.490  0.00  0.00    -0.276 OA
ATOM     17  H   LIG d   1     -15.388  66.111 118.418  0.00  0.00     0.149 HD
ENDBRANCH   6  13
BRANCH   5  18
ATOM     18  N   LIG d   1     -15.160  67.766 121.750  0.00  0.00     0.381 N 
ATOM     19  H   LIG d   1     -16.107  67.462 121.646  0.00  0.00    -0.090 HD
ATOM     20  H   LIG d   1     -15.057  68.647 121.278  0.00  0.00    -0.090 HD
ATOM     21  H   LIG d   1     -14.941  67.871 122.716  0.00  0.00    -0.090 HD
ENDBRANCH   5  18
BRANCH   3  22
ATOM     22  C   LIG d   1     -11.283  65.033 122.419  0.00  0.00     0.382 C 
ATOM     23  O   LIG d   1     -10.902  65.866 123.277  0.00  0.00    -0.241 OA
ATOM     24  O   LIG d   1     -10.531  64.093 122.099  0.00  0.00    -0.241 OA
ENDBRANCH   3  22
TORSDOF 7
ENDMDL
MODEL 7
REMARK VINA RESULT:      -4.5     15.596     18.358
REMARK  7 active torsions:
REMARK  status: ('A' for Active; 'I' for Inactive)
REMARK    1  A    between atoms: C_2  and  C_3 
REMARK    2  A    between atoms: C_3  and  O_6 
REMARK    3  A    between atoms: C_3  and  C_4 
REMARK    4  A    between atoms: C_7  and  O_6 
REMARK    5  A    between atoms: C_9  and  C_10 
REMARK    6  A    between atoms: N_15  and  C_14 
REMARK    7  A    between atoms: N_20  and  C_19 
REMARK       I    between atoms: C_22  and  N_20 
ROOT
ATOM      1  C   LIG d   1      -5.067  93.827 119.019  0.00  0.00     0.161 C 
ATOM      2  C   LIG d   1      -3.970  93.016 118.684  0.00  0.00     0.016 C 
ATOM      3  C   LIG d   1      -4.081  91.838 117.909  0.00  0.00     0.038 C 
ATOM      4  C   LIG d   1      -5.283  91.472 117.286  0.00  0.00     0.028 C 
ATOM      5  C   LIG d   1      -6.523  91.986 118.010  0.00  0.00    -0.047 C 
ATOM      6  C   LIG d   1      -6.368  93.504 118.255  0.00  0.00     0.091 C 
ENDROOT
BRANCH   1   7
ATOM      7  O   LIG d   1      -4.717  95.215 118.848  0.00  0.00    -0.368 OA
BRANCH   7   8
ATOM      8  C   LIG d   1      -3.910  95.803 119.898  0.00  0.00     0.119 C 
BRANCH   8   9
ATOM      9  C   LIG d   1      -4.846  96.649 120.783  0.00  0.00     0.028 C 
ATOM     10  C   LIG d   1      -5.966  97.324 119.975  0.00  0.00     0.006 C 
ENDBRANCH   8   9
BRANCH   8  11
ATOM     11  C   LIG d   1      -2.888  96.791 119.328  0.00  0.00     0.028 C 
ATOM     12  C   LIG d   1      -1.566  96.117 118.928  0.00  0.00     0.006 C 
ENDBRANCH   8  11
ENDBRANCH   7   8
ENDBRANCH   1   7
BRANCH   6  13
ATOM     13  N   LIG d   1      -7.500  94.071 119.033  0.00  0.00    -0.311 N 
ATOM     14  C   LIG d   1      -8.597  94.575 118.471  0.00  0.00     0.210 C 
ATOM     15  C   LIG d   1      -9.633  95.127 119.455  0.00  0.00     0.109 C 
ATOM     16  O   LIG d   1      -8.825  94.588 117.252  0.00  0.00    -0.276 OA
ATOM     17  H   LIG d   1      -7.412  94.073 120.030  0.00  0.00     0.149 HD
ENDBRANCH   6  13
BRANCH   5  18
ATOM     18  N   LIG d   1      -7.695  91.650 117.180  0.00  0.00     0.381 N 
ATOM     19  H   LIG d   1      -7.437  91.649 116.214  0.00  0.00    -0.090 HD
ATOM     20  H   LIG d   1      -8.402  92.352 117.317  0.00  0.00    -0.090 HD
ATOM     21  H   LIG d   1      -8.051  90.756 117.438  0.00  0.00    -0.090 HD
ENDBRANCH   5  18
BRANCH   3  22
ATOM     22  C   LIG d   1      -2.990  90.992 117.785  0.00  0.00     0.382 C 
ATOM     23  O   LIG d   1      -3.161  89.792 117.460  0.00  0.00    -0.241 OA
ATOM     24  O   LIG d   1      -1.841  91.401 118.038  0.00  0.00    -0.241 OA
ENDBRANCH   3  22
TORSDOF 7
ENDMDL
MODEL 8
REMARK VINA RESULT:      -4.4      2.589      3.550
REMARK  7 active torsions:
REMARK  status: ('A' for Active; 'I' for Inactive)
REMARK    1  A    between atoms: C_2  and  C_3 
REMARK    2  A    between atoms: C_3  and  O_6 
REMARK    3  A    between atoms: C_3  and  C_4 
REMARK    4  A    between atoms: C_7  and  O_6 
REMARK    5  A    between atoms: C_9  and  C_10 
REMARK    6  A    between atoms: N_15  and  C_14 
REMARK    7  A    between atoms: N_20  and  C_19 
REMARK       I    between atoms: C_22  and  N_20 
ROOT
ATOM      1  C   LIG d   1      -9.826  78.319 119.140  0.00  0.00     0.161 C 
ATOM      2  C   LIG d   1     -10.582  79.009 120.102  0.00  0.00     0.016 C 
ATOM      3  C   LIG d   1     -10.413  80.384 120.385  0.00  0.00     0.038 C 
ATOM      4  C   LIG d   1      -9.574  81.202 119.613  0.00  0.00     0.028 C 
ATOM      5  C   LIG d   1      -8.420  80.445 118.964  0.00  0.00    -0.047 C 
ATOM      6  C   LIG d   1      -8.984  79.219 118.211  0.00  0.00     0.091 C 
ENDROOT
BRANCH   1   7
ATOM      7  O   LIG d   1     -10.687  77.464 118.363  0.00  0.00    -0.368 OA
BRANCH   7   8
ATOM      8  C   LIG d   1     -10.855  76.111 118.855  0.00  0.00     0.119 C 
BRANCH   8   9
ATOM      9  C   LIG d   1      -9.696  75.267 118.291  0.00  0.00     0.028 C 
ATOM     10  C   LIG d   1      -8.673  74.877 119.372  0.00  0.00     0.006 C 
ENDBRANCH   8   9
BRANCH   8  11
ATOM     11  C   LIG d   1     -12.131  75.471 118.301  0.00  0.00     0.028 C 
ATOM     12  C   LIG d   1     -11.854  74.186 117.503  0.00  0.00     0.006 C 
ENDBRANCH   8  11
ENDBRANCH   7   8
ENDBRANCH   1   7
BRANCH   6  13
ATOM     13  N   LIG d   1      -7.913  78.376 117.618  0.00  0.00    -0.311 N 
ATOM     14  C   LIG d   1      -6.909  77.861 118.325  0.00  0.00     0.210 C 
ATOM     15  C   LIG d   1      -5.902  77.039 117.514  0.00  0.00     0.109 C 
ATOM     16  O   LIG d   1      -6.774  77.981 119.552  0.00  0.00    -0.276 OA
ATOM     17  H   LIG d   1      -7.963  78.203 116.633  0.00  0.00     0.149 HD
ENDBRANCH   6  13
BRANCH   5  18
ATOM     18  N   LIG d   1      -7.709  81.389 118.081  0.00  0.00     0.381 N 
ATOM     19  H   LIG d   1      -6.755  81.104 117.979  0.00  0.00    -0.090 HD
ATOM     20  H   LIG d   1      -7.722  82.301 118.502  0.00  0.00    -0.090 HD
ATOM     21  H   LIG d   1      -8.151  81.420 117.189  0.00  0.00    -0.090 HD
ENDBRANCH   5  18
BRANCH   3  22
ATOM     22  C   LIG d   1     -11.058  80.946 121.476  0.00  0.00     0.382 C 
ATOM     23  O   LIG d   1     -12.214  80.568 121.783  0.00  0.00    -0.241 OA
ATOM     24  O   LIG d   1     -10.515  81.856 122.130  0.00  0.00    -0.241 OA
ENDBRANCH   3  22
TORSDOF 7
ENDMDL
MODEL 9
REMARK VINA RESULT:      -4.4     18.874     21.500
REMARK  7 active torsions:
REMARK  status: ('A' for Active; 'I' for Inactive)
REMARK    1  A    between atoms: C_2  and  C_3 
REMARK    2  A    between atoms: C_3  and  O_6 
REMARK    3  A    between atoms: C_3  and  C_4 
REMARK    4  A    between atoms: C_7  and  O_6 
REMARK    5  A    between atoms: C_9  and  C_10 
REMARK    6  A    between atoms: N_15  and  C_14 
REMARK    7  A    between atoms: N_20  and  C_19 
REMARK       I    between atoms: C_22  and  N_20 
ROOT
ATOM      1  C   LIG d   1       1.830  60.081 121.834  0.00  0.00     0.161 C 
ATOM      2  C   LIG d   1       3.218  60.294 121.792  0.00  0.00     0.016 C 
ATOM      3  C   LIG d   1       3.964  60.328 120.592  0.00  0.00     0.038 C 
ATOM      4  C   LIG d   1       3.346  60.301 119.333  0.00  0.00     0.028 C 
ATOM      5  C   LIG d   1       2.002  59.580 119.334  0.00  0.00    -0.047 C 
ATOM      6  C   LIG d   1       1.122  60.161 120.465  0.00  0.00     0.091 C 
ENDROOT
BRANCH   1   7
ATOM      7  O   LIG d   1       1.223  60.998 122.766  0.00  0.00    -0.368 OA
BRANCH   7   8
ATOM      8  C   LIG d   1       0.858  60.448 124.055  0.00  0.00     0.119 C 
BRANCH   8   9
ATOM      9  C   LIG d   1      -0.681  60.444 124.139  0.00  0.00     0.028 C 
ATOM     10  C   LIG d   1      -1.292  61.806 123.772  0.00  0.00     0.006 C 
ENDBRANCH   8   9
BRANCH   8  11
ATOM     11  C   LIG d   1       1.323  61.353 125.199  0.00  0.00     0.028 C 
ATOM     12  C   LIG d   1       2.822  61.685 125.125  0.00  0.00     0.006 C 
ENDBRANCH   8  11
ENDBRANCH   7   8
ENDBRANCH   1   7
BRANCH   6  13
ATOM     13  N   LIG d   1      -0.179  59.455 120.590  0.00  0.00    -0.311 N 
ATOM     14  C   LIG d   1      -1.358  60.069 120.508  0.00  0.00     0.210 C 
ATOM     15  C   LIG d   1      -2.576  59.158 120.685  0.00  0.00     0.109 C 
ATOM     16  O   LIG d   1      -1.511  61.278 120.274  0.00  0.00    -0.276 OA
ATOM     17  H   LIG d   1      -0.149  58.467 120.750  0.00  0.00     0.149 HD
ENDBRANCH   6  13
BRANCH   5  18
ATOM     18  N   LIG d   1       1.406  59.747 117.995  0.00  0.00     0.381 N 
ATOM     19  H   LIG d   1       0.751  59.011 117.822  0.00  0.00    -0.090 HD
ATOM     20  H   LIG d   1       2.135  59.689 117.306  0.00  0.00    -0.090 HD
ATOM     21  H   LIG d   1       0.949  60.630 117.932  0.00  0.00    -0.090 HD
ENDBRANCH   5  18
BRANCH   3  22
ATOM     22  C   LIG d   1       5.350  60.349 120.645  0.00  0.00     0.382 C 
ATOM     23  O   LIG d   1       6.013  59.463 120.055  0.00  0.00    -0.241 OA
ATOM     24  O   LIG d   1       5.943  61.217 121.313  0.00  0.00    -0.241 OA
ENDBRANCH   3  22
TORSDOF 7
ENDMDL
